MODEL 1
REMARK VINA RESULT: -6.536924948      0.000      0.000
REMARK  17 active torsions:
REMARK  status: ('A' for Active; 'I' for Inactive)
REMARK    1  A    between atoms: C2_2  and  O2_4 
REMARK    2  A    between atoms: O2_4  and  C3_5 
REMARK    3  A    between atoms: C4_6  and  C6_8 
REMARK    4  A    between atoms: C6_8  and  O3_9 
REMARK    5  A    between atoms: C8_13  and  C9_14 
REMARK    6  A    between atoms: N1_15  and  O5_17 
REMARK    7  A    between atoms: C12_22  and  O6_23 
REMARK    8  A    between atoms: O6_23  and  C13_24 
REMARK    9  A    between atoms: C13_24  and  C14_26 
REMARK   10  A    between atoms: C22_34  and  C23_35 
REMARK   11  A    between atoms: C23_35  and  C25_37 
REMARK   12  A    between atoms: C25_37  and  C26_39 
REMARK   13  A    between atoms: C26_39  and  O9_40 
REMARK   14  A    between atoms: C26_39  and  N2_42 
REMARK   15  A    between atoms: N2_42  and  C27_45 
REMARK   16  A    between atoms: C27_45  and  C28_46 
REMARK   17  A    between atoms: C28_46  and  N3_47 
ROOT
HETATM    1  C3  UNL     1      23.623  -9.930   3.169  1.00  0.00     0.177 C 
HETATM    2  C4  UNL     1      23.011 -10.788   2.125  1.00  0.00     0.106 C 
HETATM    3  C5  UNL     1      23.851 -11.009   0.887  1.00  0.00     0.051 C 
HETATM    4  O4  UNL     1      21.815 -10.305   1.636  1.00  0.00    -0.369 OA
HETATM    5  C7  UNL     1      21.631  -8.949   1.701  1.00  0.00     0.144 C 
HETATM    6  C8  UNL     1      20.354  -8.728   0.879  1.00  0.00     0.057 C 
HETATM    7  C10 UNL     1      19.173  -9.390   1.501  1.00  0.00     0.035 C 
HETATM    8  C11 UNL     1      19.425  -9.891   2.904  1.00  0.00     0.113 C 
HETATM    9 CL1  UNL     1      17.814 -10.142   3.623  1.00  0.00    -0.122 Cl
HETATM   10  C12 UNL     1      20.129  -8.706   3.641  1.00  0.00     0.162 C 
HETATM   11  C18 UNL     1      21.500  -8.492   3.135  1.00  0.00     0.029 A 
HETATM   12  C19 UNL     1      22.121  -7.136   3.356  1.00  0.00     0.005 A 
HETATM   13  C20 UNL     1      21.545  -6.241   4.388  1.00  0.00     0.006 C 
HETATM   14  C21 UNL     1      22.828  -5.647   5.014  1.00  0.00     0.006 C 
HETATM   15  C22 UNL     1      23.430  -7.024   5.409  1.00  0.00     0.002 C 
HETATM   16  C29 UNL     1      23.301  -7.731   4.154  1.00  0.00     0.007 A 
HETATM   17  C30 UNL     1      22.654  -9.046   3.934  1.00  0.00     0.003 A 
HETATM   18  C31 UNL     1      22.045  -9.728   5.166  1.00  0.00     0.019 C 
ENDROOT
BRANCH  15  19
HETATM   19  C23 UNL     1      24.790  -6.633   5.922  1.00  0.00     0.060 C 
HETATM   20  C24 UNL     1      25.868  -6.592   4.896  1.00  0.00     0.018 C 
BRANCH  19  21
HETATM   21  C25 UNL     1      25.222  -7.260   7.164  1.00  0.00     0.186 C 
HETATM   22  O8  UNL     1      25.471  -8.441   7.209  1.00  0.00    -0.293 OA
BRANCH  21  23
HETATM   23  C26 UNL     1      25.375  -6.491   8.418  1.00  0.00     0.389 C 
BRANCH  23  24
HETATM   24  O9  UNL     1      24.355  -5.543   8.545  1.00  0.00    -0.364 OA
ATOM     25  H9  UNL     1      24.172  -5.367   9.461  1.00  0.00     0.212 HD
ENDBRANCH  23  24
BRANCH  23  26
HETATM   26  N2  UNL     1      26.680  -5.877   8.559  1.00  0.00    -0.040 N 
ATOM     27  H22 UNL     1      27.141  -6.175   9.419  1.00  0.00     0.280 HD
ATOM     28  H21 UNL     1      27.344  -6.255   7.883  1.00  0.00     0.280 HD
BRANCH  26  29
HETATM   29  C27 UNL     1      26.602  -4.431   8.474  1.00  0.00     0.263 C 
BRANCH  29  30
HETATM   30  C28 UNL     1      27.241  -3.907   7.216  1.00  0.00     0.257 C 
BRANCH  30  31
HETATM   31  N3  UNL     1      26.579  -2.689   6.761  1.00  0.00    -0.078 N 
ATOM     32  H33 UNL     1      25.665  -2.888   6.354  1.00  0.00     0.274 HD
ATOM     33  H32 UNL     1      26.278  -2.109   7.544  1.00  0.00     0.274 HD
ATOM     34  H31 UNL     1      27.172  -2.169   6.115  1.00  0.00     0.274 HD
ENDBRANCH  30  31
ENDBRANCH  29  30
ENDBRANCH  26  29
ENDBRANCH  23  26
ENDBRANCH  21  23
ENDBRANCH  19  21
ENDBRANCH  15  19
BRANCH   1  35
HETATM   35  O2  UNL     1      24.870  -9.397   2.952  1.00  0.00    -0.312 OA
BRANCH  35  36
HETATM   36  C2  UNL     1      26.116  -9.735   3.263  1.00  0.00     0.255 C 
HETATM   37  C1  UNL     1      26.493 -10.448   4.514  1.00  0.00     0.126 C 
HETATM   38  O1  UNL     1      26.932  -9.390   2.394  1.00  0.00    -0.266 OA
ENDBRANCH  35  36
ENDBRANCH   1  35
BRANCH  10  39
HETATM   39  O6  UNL     1      19.213  -7.654   3.287  1.00  0.00    -0.313 OA
BRANCH  39  40
HETATM   40  C13 UNL     1      18.481  -6.937   4.204  1.00  0.00     0.267 C 
HETATM   41  O7  UNL     1      18.371  -7.428   5.349  1.00  0.00    -0.264 OA
BRANCH  40  42
HETATM   42  C14 UNL     1      17.829  -5.652   3.920  1.00  0.00     0.037 C 
HETATM   43  C15 UNL     1      17.917  -4.733   5.140  1.00  0.00     0.025 C 
HETATM   44  C16 UNL     1      18.448  -4.885   2.783  1.00  0.00     0.025 C 
HETATM   45  C17 UNL     1      16.346  -5.825   3.615  1.00  0.00     0.025 C 
ENDBRANCH  40  42
ENDBRANCH  39  40
ENDBRANCH  10  39
BRANCH   2  46
HETATM   46  C6  UNL     1      22.681 -12.199   2.603  1.00  0.00     0.204 C 
BRANCH  46  47
HETATM   47  O3  UNL     1      23.613 -12.562   3.577  1.00  0.00    -0.398 OA
ATOM     48  H3  UNL     1      23.862 -13.467   3.429  1.00  0.00     0.209 HD
ENDBRANCH  46  47
ENDBRANCH   2  46
BRANCH   6  49
HETATM   49  C9  UNL     1      20.179  -7.355   0.416  1.00  0.00     0.094 C 
HETATM   50  N1  UNL     1      20.101  -7.069  -0.845  1.00  0.00    -0.284 N 
ATOM     51  H1  UNL     1      19.979  -6.101  -1.145  1.00  0.00     0.192 HD
BRANCH  50  52
HETATM   52  O5  UNL     1      20.183  -8.075  -1.778  1.00  0.00    -0.291 OA
ATOM     53  H5  UNL     1      20.404  -7.866  -2.677  1.00  0.00     0.244 HD
ENDBRANCH  50  52
ENDBRANCH   6  49
TORSDOF 17
ENDMDL
MODEL 2
REMARK VINA RESULT: -6.242678483      1.269      1.777
REMARK  17 active torsions:
REMARK  status: ('A' for Active; 'I' for Inactive)
REMARK    1  A    between atoms: C2_2  and  O2_4 
REMARK    2  A    between atoms: O2_4  and  C3_5 
REMARK    3  A    between atoms: C4_6  and  C6_8 
REMARK    4  A    between atoms: C6_8  and  O3_9 
REMARK    5  A    between atoms: C8_13  and  C9_14 
REMARK    6  A    between atoms: N1_15  and  O5_17 
REMARK    7  A    between atoms: C12_22  and  O6_23 
REMARK    8  A    between atoms: O6_23  and  C13_24 
REMARK    9  A    between atoms: C13_24  and  C14_26 
REMARK   10  A    between atoms: C22_34  and  C23_35 
REMARK   11  A    between atoms: C23_35  and  C25_37 
REMARK   12  A    between atoms: C25_37  and  C26_39 
REMARK   13  A    between atoms: C26_39  and  O9_40 
REMARK   14  A    between atoms: C26_39  and  N2_42 
REMARK   15  A    between atoms: N2_42  and  C27_45 
REMARK   16  A    between atoms: C27_45  and  C28_46 
REMARK   17  A    between atoms: C28_46  and  N3_47 
ROOT
HETATM    1  C3  UNL     1      23.560 -10.112   3.105  1.00  0.00     0.177 C 
HETATM    2  C4  UNL     1      22.840 -10.885   2.065  1.00  0.00     0.106 C 
HETATM    3  C5  UNL     1      23.612 -11.138   0.789  1.00  0.00     0.051 C 
HETATM    4  O4  UNL     1      21.670 -10.291   1.637  1.00  0.00    -0.369 OA
HETATM    5  C7  UNL     1      21.602  -8.928   1.745  1.00  0.00     0.144 C 
HETATM    6  C8  UNL     1      20.318  -8.579   0.981  1.00  0.00     0.057 C 
HETATM    7  C10 UNL     1      19.110  -9.160   1.632  1.00  0.00     0.035 C 
HETATM    8  C11 UNL     1      19.372  -9.722   3.010  1.00  0.00     0.113 C 
HETATM    9 CL1  UNL     1      17.775  -9.861   3.786  1.00  0.00    -0.122 Cl
HETATM   10  C12 UNL     1      20.199  -8.620   3.749  1.00  0.00     0.162 C 
HETATM   11  C18 UNL     1      21.563  -8.504   3.195  1.00  0.00     0.029 A 
HETATM   12  C19 UNL     1      22.303  -7.210   3.426  1.00  0.00     0.005 A 
HETATM   13  C20 UNL     1      21.842  -6.302   4.503  1.00  0.00     0.006 C 
HETATM   14  C21 UNL     1      23.193  -5.834   5.093  1.00  0.00     0.006 C 
HETATM   15  C22 UNL     1      23.693  -7.267   5.427  1.00  0.00     0.002 C 
HETATM   16  C29 UNL     1      23.459  -7.923   4.160  1.00  0.00     0.007 A 
HETATM   17  C30 UNL     1      22.697  -9.173   3.932  1.00  0.00     0.003 A 
HETATM   18  C31 UNL     1      22.081  -9.840   5.169  1.00  0.00     0.019 C 
ENDROOT
BRANCH  15  19
HETATM   19  C23 UNL     1      25.099  -7.003   5.895  1.00  0.00     0.060 C 
HETATM   20  C24 UNL     1      25.414  -7.491   7.266  1.00  0.00     0.018 C 
BRANCH  19  21
HETATM   21  C25 UNL     1      25.631  -5.672   5.638  1.00  0.00     0.186 C 
HETATM   22  O8  UNL     1      25.287  -4.726   6.305  1.00  0.00    -0.293 OA
BRANCH  21  23
HETATM   23  C26 UNL     1      26.608  -5.414   4.558  1.00  0.00     0.389 C 
BRANCH  23  24
HETATM   24  O9  UNL     1      26.717  -6.521   3.712  1.00  0.00    -0.364 OA
ATOM     25  H9  UNL     1      26.903  -6.248   2.822  1.00  0.00     0.212 HD
ENDBRANCH  23  24
BRANCH  23  26
HETATM   26  N2  UNL     1      27.909  -5.001   5.048  1.00  0.00    -0.040 N 
ATOM     27  H22 UNL     1      28.006  -5.184   6.047  1.00  0.00     0.280 HD
ATOM     28  H21 UNL     1      28.648  -5.613   4.702  1.00  0.00     0.280 HD
BRANCH  26  29
HETATM   29  C27 UNL     1      28.181  -3.611   4.735  1.00  0.00     0.263 C 
BRANCH  29  30
HETATM   30  C28 UNL     1      29.643  -3.371   4.469  1.00  0.00     0.257 C 
BRANCH  30  31
HETATM   31  N3  UNL     1      29.947  -1.944   4.465  1.00  0.00    -0.078 N 
ATOM     32  H33 UNL     1      29.621  -1.493   3.610  1.00  0.00     0.274 HD
ATOM     33  H32 UNL     1      29.372  -1.435   5.137  1.00  0.00     0.274 HD
ATOM     34  H31 UNL     1      30.941  -1.781   4.621  1.00  0.00     0.274 HD
ENDBRANCH  30  31
ENDBRANCH  29  30
ENDBRANCH  26  29
ENDBRANCH  23  26
ENDBRANCH  21  23
ENDBRANCH  19  21
ENDBRANCH  15  19
BRANCH   1  35
HETATM   35  O2  UNL     1      24.838  -9.676   2.853  1.00  0.00    -0.312 OA
BRANCH  35  36
HETATM   36  C2  UNL     1      26.041  -9.913   3.361  1.00  0.00     0.255 C 
HETATM   37  C1  UNL     1      26.284 -10.781   4.545  1.00  0.00     0.126 C 
HETATM   38  O1  UNL     1      26.943  -9.330   2.740  1.00  0.00    -0.266 OA
ENDBRANCH  35  36
ENDBRANCH   1  35
BRANCH  10  39
HETATM   39  O6  UNL     1      19.361  -7.486   3.459  1.00  0.00    -0.313 OA
BRANCH  39  40
HETATM   40  C13 UNL     1      18.629  -6.815   4.410  1.00  0.00     0.267 C 
HETATM   41  O7  UNL     1      18.662  -7.269   5.576  1.00  0.00    -0.264 OA
BRANCH  40  42
HETATM   42  C14 UNL     1      17.820  -5.620   4.140  1.00  0.00     0.037 C 
HETATM   43  C15 UNL     1      17.914  -4.641   5.312  1.00  0.00     0.025 C 
HETATM   44  C16 UNL     1      18.252  -4.846   2.923  1.00  0.00     0.025 C 
HETATM   45  C17 UNL     1      16.343  -5.960   3.978  1.00  0.00     0.025 C 
ENDBRANCH  40  42
ENDBRANCH  39  40
ENDBRANCH  10  39
BRANCH   2  46
HETATM   46  C6  UNL     1      22.412 -12.278   2.518  1.00  0.00     0.204 C 
BRANCH  46  47
HETATM   47  O3  UNL     1      23.324 -12.727   3.474  1.00  0.00    -0.398 OA
ATOM     48  H3  UNL     1      22.855 -12.879   4.286  1.00  0.00     0.209 HD
ENDBRANCH  46  47
ENDBRANCH   2  46
BRANCH   6  49
HETATM   49  C9  UNL     1      20.240  -7.183   0.561  1.00  0.00     0.094 C 
HETATM   50  N1  UNL     1      20.123  -6.855  -0.687  1.00  0.00    -0.284 N 
ATOM     51  H1  UNL     1      20.071  -5.872  -0.956  1.00  0.00     0.192 HD
BRANCH  50  52
HETATM   52  O5  UNL     1      20.069  -7.838  -1.647  1.00  0.00    -0.291 OA
ATOM     53  H5  UNL     1      20.795  -8.442  -1.742  1.00  0.00     0.244 HD
ENDBRANCH  50  52
ENDBRANCH   6  49
TORSDOF 17
ENDMDL
MODEL 3
REMARK VINA RESULT: -6.123653918      1.351      1.982
REMARK  17 active torsions:
REMARK  status: ('A' for Active; 'I' for Inactive)
REMARK    1  A    between atoms: C2_2  and  O2_4 
REMARK    2  A    between atoms: O2_4  and  C3_5 
REMARK    3  A    between atoms: C4_6  and  C6_8 
REMARK    4  A    between atoms: C6_8  and  O3_9 
REMARK    5  A    between atoms: C8_13  and  C9_14 
REMARK    6  A    between atoms: N1_15  and  O5_17 
REMARK    7  A    between atoms: C12_22  and  O6_23 
REMARK    8  A    between atoms: O6_23  and  C13_24 
REMARK    9  A    between atoms: C13_24  and  C14_26 
REMARK   10  A    between atoms: C22_34  and  C23_35 
REMARK   11  A    between atoms: C23_35  and  C25_37 
REMARK   12  A    between atoms: C25_37  and  C26_39 
REMARK   13  A    between atoms: C26_39  and  O9_40 
REMARK   14  A    between atoms: C26_39  and  N2_42 
REMARK   15  A    between atoms: N2_42  and  C27_45 
REMARK   16  A    between atoms: C27_45  and  C28_46 
REMARK   17  A    between atoms: C28_46  and  N3_47 
ROOT
HETATM    1  C3  UNL     1      23.537 -10.058   3.053  1.00  0.00     0.177 C 
HETATM    2  C4  UNL     1      22.920 -10.901   2.001  1.00  0.00     0.106 C 
HETATM    3  C5  UNL     1      23.769 -11.135   0.771  1.00  0.00     0.051 C 
HETATM    4  O4  UNL     1      21.738 -10.395   1.501  1.00  0.00    -0.369 OA
HETATM    5  C7  UNL     1      21.578  -9.036   1.568  1.00  0.00     0.144 C 
HETATM    6  C8  UNL     1      20.314  -8.790   0.734  1.00  0.00     0.057 C 
HETATM    7  C10 UNL     1      19.114  -9.431   1.341  1.00  0.00     0.035 C 
HETATM    8  C11 UNL     1      19.343  -9.941   2.745  1.00  0.00     0.113 C 
HETATM    9 CL1  UNL     1      17.720 -10.165   3.447  1.00  0.00    -0.122 Cl
HETATM   10  C12 UNL     1      20.060  -8.772   3.493  1.00  0.00     0.162 C 
HETATM   11  C18 UNL     1      21.440  -8.581   3.002  1.00  0.00     0.029 A 
HETATM   12  C19 UNL     1      22.084  -7.237   3.234  1.00  0.00     0.005 A 
HETATM   13  C20 UNL     1      21.513  -6.335   4.262  1.00  0.00     0.006 C 
HETATM   14  C21 UNL     1      22.801  -5.767   4.903  1.00  0.00     0.006 C 
HETATM   15  C22 UNL     1      23.373  -7.156   5.301  1.00  0.00     0.002 C 
HETATM   16  C29 UNL     1      23.244  -7.856   4.042  1.00  0.00     0.007 A 
HETATM   17  C30 UNL     1      22.576  -9.158   3.811  1.00  0.00     0.003 A 
HETATM   18  C31 UNL     1      21.942  -9.833   5.035  1.00  0.00     0.019 C 
ENDROOT
BRANCH  15  19
HETATM   19  C23 UNL     1      24.735  -6.791   5.829  1.00  0.00     0.060 C 
HETATM   20  C24 UNL     1      25.765  -6.513   4.790  1.00  0.00     0.018 C 
BRANCH  19  21
HETATM   21  C25 UNL     1      25.247  -7.604   6.923  1.00  0.00     0.186 C 
HETATM   22  O8  UNL     1      25.698  -8.705   6.720  1.00  0.00    -0.293 OA
BRANCH  21  23
HETATM   23  C26 UNL     1      25.241  -7.127   8.323  1.00  0.00     0.389 C 
BRANCH  23  24
HETATM   24  O9  UNL     1      26.489  -6.607   8.676  1.00  0.00    -0.364 OA
ATOM     25  H9  UNL     1      27.166  -7.268   8.587  1.00  0.00     0.212 HD
ENDBRANCH  23  24
BRANCH  23  26
HETATM   26  N2  UNL     1      24.808  -8.135   9.270  1.00  0.00    -0.040 N 
ATOM     27  H22 UNL     1      25.428  -8.945   9.262  1.00  0.00     0.280 HD
ATOM     28  H21 UNL     1      24.956  -7.831  10.233  1.00  0.00     0.280 HD
BRANCH  26  29
HETATM   29  C27 UNL     1      23.429  -8.523   9.044  1.00  0.00     0.263 C 
BRANCH  29  30
HETATM   30  C28 UNL     1      23.276 -10.017   8.930  1.00  0.00     0.257 C 
BRANCH  30  31
HETATM   31  N3  UNL     1      24.577 -10.677   8.928  1.00  0.00    -0.078 N 
ATOM     32  H33 UNL     1      24.795 -11.082   9.838  1.00  0.00     0.274 HD
ATOM     33  H32 UNL     1      24.562 -11.535   8.376  1.00  0.00     0.274 HD
ATOM     34  H31 UNL     1      25.310 -10.041   8.614  1.00  0.00     0.274 HD
ENDBRANCH  30  31
ENDBRANCH  29  30
ENDBRANCH  26  29
ENDBRANCH  23  26
ENDBRANCH  21  23
ENDBRANCH  19  21
ENDBRANCH  15  19
BRANCH   1  35
HETATM   35  O2  UNL     1      24.795  -9.547   2.851  1.00  0.00    -0.312 OA
BRANCH  35  36
HETATM   36  C2  UNL     1      26.034  -9.932   3.133  1.00  0.00     0.255 C 
HETATM   37  C1  UNL     1      26.378 -10.883   4.225  1.00  0.00     0.126 C 
HETATM   38  O1  UNL     1      26.876  -9.410   2.386  1.00  0.00    -0.266 OA
ENDBRANCH  35  36
ENDBRANCH   1  35
BRANCH  10  39
HETATM   39  O6  UNL     1      19.167  -7.701   3.133  1.00  0.00    -0.313 OA
BRANCH  39  40
HETATM   40  C13 UNL     1      18.448  -6.967   4.045  1.00  0.00     0.267 C 
HETATM   41  O7  UNL     1      18.345  -7.440   5.199  1.00  0.00    -0.264 OA
BRANCH  40  42
HETATM   42  C14 UNL     1      17.799  -5.683   3.748  1.00  0.00     0.037 C 
HETATM   43  C15 UNL     1      17.874  -4.758   4.964  1.00  0.00     0.025 C 
HETATM   44  C16 UNL     1      18.432  -4.922   2.613  1.00  0.00     0.025 C 
HETATM   45  C17 UNL     1      16.320  -5.857   3.427  1.00  0.00     0.025 C 
ENDBRANCH  40  42
ENDBRANCH  39  40
ENDBRANCH  10  39
BRANCH   2  46
HETATM   46  C6  UNL     1      22.559 -12.308   2.471  1.00  0.00     0.204 C 
BRANCH  46  47
HETATM   47  O3  UNL     1      23.461 -12.682   3.468  1.00  0.00    -0.398 OA
ATOM     48  H3  UNL     1      24.321 -12.765   3.075  1.00  0.00     0.209 HD
ENDBRANCH  46  47
ENDBRANCH   2  46
BRANCH   6  49
HETATM   49  C9  UNL     1      20.169  -7.412   0.273  1.00  0.00     0.094 C 
HETATM   50  N1  UNL     1      20.092  -7.123  -0.988  1.00  0.00    -0.284 N 
ATOM     51  H1  UNL     1      19.991  -6.152  -1.285  1.00  0.00     0.192 HD
BRANCH  50  52
HETATM   52  O5  UNL     1      20.147  -8.130  -1.922  1.00  0.00    -0.291 OA
ATOM     53  H5  UNL     1      20.768  -8.839  -1.813  1.00  0.00     0.244 HD
ENDBRANCH  50  52
ENDBRANCH   6  49
TORSDOF 17
ENDMDL
MODEL 4
REMARK VINA RESULT: -6.091639995      1.060      1.405
REMARK  17 active torsions:
REMARK  status: ('A' for Active; 'I' for Inactive)
REMARK    1  A    between atoms: C2_2  and  O2_4 
REMARK    2  A    between atoms: O2_4  and  C3_5 
REMARK    3  A    between atoms: C4_6  and  C6_8 
REMARK    4  A    between atoms: C6_8  and  O3_9 
REMARK    5  A    between atoms: C8_13  and  C9_14 
REMARK    6  A    between atoms: N1_15  and  O5_17 
REMARK    7  A    between atoms: C12_22  and  O6_23 
REMARK    8  A    between atoms: O6_23  and  C13_24 
REMARK    9  A    between atoms: C13_24  and  C14_26 
REMARK   10  A    between atoms: C22_34  and  C23_35 
REMARK   11  A    between atoms: C23_35  and  C25_37 
REMARK   12  A    between atoms: C25_37  and  C26_39 
REMARK   13  A    between atoms: C26_39  and  O9_40 
REMARK   14  A    between atoms: C26_39  and  N2_42 
REMARK   15  A    between atoms: N2_42  and  C27_45 
REMARK   16  A    between atoms: C27_45  and  C28_46 
REMARK   17  A    between atoms: C28_46  and  N3_47 
ROOT
HETATM    1  C3  UNL     1      23.400 -10.191   2.869  1.00  0.00     0.177 C 
HETATM    2  C4  UNL     1      22.763 -11.088   1.874  1.00  0.00     0.106 C 
HETATM    3  C5  UNL     1      23.587 -11.385   0.641  1.00  0.00     0.051 C 
HETATM    4  O4  UNL     1      21.571 -10.608   1.372  1.00  0.00    -0.369 OA
HETATM    5  C7  UNL     1      21.412  -9.247   1.372  1.00  0.00     0.144 C 
HETATM    6  C8  UNL     1      20.131  -9.044   0.552  1.00  0.00     0.057 C 
HETATM    7  C10 UNL     1      18.944  -9.653   1.215  1.00  0.00     0.035 C 
HETATM    8  C11 UNL     1      19.201 -10.089   2.639  1.00  0.00     0.113 C 
HETATM    9 CL1  UNL     1      17.593 -10.275   3.384  1.00  0.00    -0.122 Cl
HETATM   10  C12 UNL     1      19.933  -8.883   3.311  1.00  0.00     0.162 C 
HETATM   11  C18 UNL     1      21.302  -8.719   2.783  1.00  0.00     0.029 A 
HETATM   12  C19 UNL     1      21.950  -7.364   2.932  1.00  0.00     0.005 A 
HETATM   13  C20 UNL     1      21.399  -6.409   3.923  1.00  0.00     0.006 C 
HETATM   14  C21 UNL     1      22.699  -5.809   4.508  1.00  0.00     0.006 C 
HETATM   15  C22 UNL     1      23.280  -7.176   4.965  1.00  0.00     0.002 C 
HETATM   16  C29 UNL     1      23.126  -7.941   3.747  1.00  0.00     0.007 A 
HETATM   17  C30 UNL     1      22.454  -9.253   3.598  1.00  0.00     0.003 A 
HETATM   18  C31 UNL     1      21.845  -9.862   4.867  1.00  0.00     0.019 C 
ENDROOT
BRANCH  15  19
HETATM   19  C23 UNL     1      24.652  -6.784   5.446  1.00  0.00     0.060 C 
HETATM   20  C24 UNL     1      25.598  -7.915   5.655  1.00  0.00     0.018 C 
BRANCH  19  21
HETATM   21  C25 UNL     1      24.708  -5.801   6.519  1.00  0.00     0.186 C 
HETATM   22  O8  UNL     1      24.049  -5.936   7.521  1.00  0.00    -0.293 OA
BRANCH  21  23
HETATM   23  C26 UNL     1      25.566  -4.598   6.434  1.00  0.00     0.389 C 
BRANCH  23  24
HETATM   24  O9  UNL     1      25.613  -4.114   5.124  1.00  0.00    -0.364 OA
ATOM     25  H9  UNL     1      25.164  -3.279   5.057  1.00  0.00     0.212 HD
ENDBRANCH  23  24
BRANCH  23  26
HETATM   26  N2  UNL     1      26.900  -4.808   6.962  1.00  0.00    -0.040 N 
ATOM     27  H22 UNL     1      27.266  -5.723   6.699  1.00  0.00     0.280 HD
ATOM     28  H21 UNL     1      27.585  -4.220   6.486  1.00  0.00     0.280 HD
BRANCH  26  29
HETATM   29  C27 UNL     1      26.942  -4.613   8.399  1.00  0.00     0.263 C 
BRANCH  29  30
HETATM   30  C28 UNL     1      26.277  -3.328   8.812  1.00  0.00     0.257 C 
BRANCH  30  31
HETATM   31  N3  UNL     1      26.110  -3.267  10.260  1.00  0.00    -0.078 N 
ATOM     32  H33 UNL     1      25.611  -2.425  10.546  1.00  0.00     0.274 HD
ATOM     33  H32 UNL     1      25.442  -3.964  10.592  1.00  0.00     0.274 HD
ATOM     34  H31 UNL     1      27.008  -3.352  10.736  1.00  0.00     0.274 HD
ENDBRANCH  30  31
ENDBRANCH  29  30
ENDBRANCH  26  29
ENDBRANCH  23  26
ENDBRANCH  21  23
ENDBRANCH  19  21
ENDBRANCH  15  19
BRANCH   1  35
HETATM   35  O2  UNL     1      24.654  -9.692   2.615  1.00  0.00    -0.312 OA
BRANCH  35  36
HETATM   36  C2  UNL     1      25.900 -10.093   2.838  1.00  0.00     0.255 C 
HETATM   37  C1  UNL     1      26.276 -11.093   3.875  1.00  0.00     0.126 C 
HETATM   38  O1  UNL     1      26.719  -9.541   2.086  1.00  0.00    -0.266 OA
ENDBRANCH  35  36
ENDBRANCH   1  35
BRANCH  10  39
HETATM   39  O6  UNL     1      19.032  -7.832   2.913  1.00  0.00    -0.313 OA
BRANCH  39  40
HETATM   40  C13 UNL     1      18.307  -7.070   3.800  1.00  0.00     0.267 C 
HETATM   41  O7  UNL     1      18.299  -7.445   4.993  1.00  0.00    -0.264 OA
BRANCH  40  42
HETATM   42  C14 UNL     1      17.552  -5.866   3.431  1.00  0.00     0.037 C 
HETATM   43  C15 UNL     1      16.245  -6.254   2.736  1.00  0.00     0.025 C 
HETATM   44  C16 UNL     1      17.155  -5.006   4.602  1.00  0.00     0.025 C 
HETATM   45  C17 UNL     1      18.322  -4.993   2.449  1.00  0.00     0.025 C 
ENDBRANCH  40  42
ENDBRANCH  39  40
ENDBRANCH  10  39
BRANCH   2  46
HETATM   46  C6  UNL     1      22.412 -12.468   2.424  1.00  0.00     0.204 C 
BRANCH  46  47
HETATM   47  O3  UNL     1      23.307 -12.770   3.452  1.00  0.00    -0.398 OA
ATOM     48  H3  UNL     1      24.131 -12.337   3.266  1.00  0.00     0.209 HD
ENDBRANCH  46  47
ENDBRANCH   2  46
BRANCH   6  49
HETATM   49  C9  UNL     1      19.976  -7.692   0.022  1.00  0.00     0.094 C 
HETATM   50  N1  UNL     1      20.196  -7.422  -1.225  1.00  0.00    -0.284 N 
ATOM     51  H1  UNL     1      20.081  -6.470  -1.572  1.00  0.00     0.192 HD
BRANCH  50  52
HETATM   52  O5  UNL     1      20.585  -8.426  -2.080  1.00  0.00    -0.291 OA
ATOM     53  H5  UNL     1      19.939  -9.036  -2.414  1.00  0.00     0.244 HD
ENDBRANCH  50  52
ENDBRANCH   6  49
TORSDOF 17
ENDMDL
MODEL 5
REMARK VINA RESULT: -5.946925614      3.200      4.677
REMARK  17 active torsions:
REMARK  status: ('A' for Active; 'I' for Inactive)
REMARK    1  A    between atoms: C2_2  and  O2_4 
REMARK    2  A    between atoms: O2_4  and  C3_5 
REMARK    3  A    between atoms: C4_6  and  C6_8 
REMARK    4  A    between atoms: C6_8  and  O3_9 
REMARK    5  A    between atoms: C8_13  and  C9_14 
REMARK    6  A    between atoms: N1_15  and  O5_17 
REMARK    7  A    between atoms: C12_22  and  O6_23 
REMARK    8  A    between atoms: O6_23  and  C13_24 
REMARK    9  A    between atoms: C13_24  and  C14_26 
REMARK   10  A    between atoms: C22_34  and  C23_35 
REMARK   11  A    between atoms: C23_35  and  C25_37 
REMARK   12  A    between atoms: C25_37  and  C26_39 
REMARK   13  A    between atoms: C26_39  and  O9_40 
REMARK   14  A    between atoms: C26_39  and  N2_42 
REMARK   15  A    between atoms: N2_42  and  C27_45 
REMARK   16  A    between atoms: C27_45  and  C28_46 
REMARK   17  A    between atoms: C28_46  and  N3_47 
ROOT
HETATM    1  C3  UNL     1      25.294  -9.204   5.209  1.00  0.00     0.177 C 
HETATM    2  C4  UNL     1      24.632 -10.220   4.356  1.00  0.00     0.106 C 
HETATM    3  C5  UNL     1      24.534  -9.874   2.886  1.00  0.00     0.051 C 
HETATM    4  O4  UNL     1      23.331 -10.495   4.722  1.00  0.00    -0.369 OA
HETATM    5  C7  UNL     1      22.653  -9.494   5.367  1.00  0.00     0.144 C 
HETATM    6  C8  UNL     1      21.211 -10.019   5.410  1.00  0.00     0.057 C 
HETATM    7  C10 UNL     1      21.097 -11.260   6.225  1.00  0.00     0.035 C 
HETATM    8  C11 UNL     1      22.336 -11.576   7.031  1.00  0.00     0.113 C 
HETATM    9 CL1  UNL     1      21.815 -12.731   8.283  1.00  0.00    -0.122 Cl
HETATM   10  C12 UNL     1      22.729 -10.228   7.719  1.00  0.00     0.162 C 
HETATM   11  C18 UNL     1      23.236  -9.248   6.738  1.00  0.00     0.029 A 
HETATM   12  C19 UNL     1      23.186  -7.789   7.120  1.00  0.00     0.005 A 
HETATM   13  C20 UNL     1      23.037  -7.425   8.550  1.00  0.00     0.006 C 
HETATM   14  C21 UNL     1      24.006  -6.225   8.651  1.00  0.00     0.006 C 
HETATM   15  C22 UNL     1      25.250  -7.019   8.163  1.00  0.00     0.002 C 
HETATM   16  C29 UNL     1      24.712  -7.626   6.965  1.00  0.00     0.007 A 
HETATM   17  C30 UNL     1      24.728  -9.065   6.612  1.00  0.00     0.003 A 
HETATM   18  C31 UNL     1      25.372 -10.016   7.629  1.00  0.00     0.019 C 
ENDROOT
BRANCH  15  19
HETATM   19  C23 UNL     1      26.290  -5.935   8.062  1.00  0.00     0.060 C 
HETATM   20  C24 UNL     1      26.770  -5.393   9.363  1.00  0.00     0.018 C 
BRANCH  19  21
HETATM   21  C25 UNL     1      26.048  -4.892   7.075  1.00  0.00     0.186 C 
HETATM   22  O8  UNL     1      25.115  -4.962   6.312  1.00  0.00    -0.293 OA
BRANCH  21  23
HETATM   23  C26 UNL     1      26.926  -3.707   6.956  1.00  0.00     0.389 C 
BRANCH  23  24
HETATM   24  O9  UNL     1      26.252  -2.650   6.338  1.00  0.00    -0.364 OA
ATOM     25  H9  UNL     1      25.685  -2.204   6.957  1.00  0.00     0.212 HD
ENDBRANCH  23  24
BRANCH  23  26
HETATM   26  N2  UNL     1      28.181  -3.988   6.288  1.00  0.00    -0.040 N 
ATOM     27  H22 UNL     1      28.977  -3.668   6.840  1.00  0.00     0.280 HD
ATOM     28  H21 UNL     1      28.384  -4.988   6.282  1.00  0.00     0.280 HD
BRANCH  26  29
HETATM   29  C27 UNL     1      28.209  -3.434   4.948  1.00  0.00     0.263 C 
BRANCH  29  30
HETATM   30  C28 UNL     1      29.615  -3.278   4.433  1.00  0.00     0.257 C 
BRANCH  30  31
HETATM   31  N3  UNL     1      30.039  -1.883   4.483  1.00  0.00    -0.078 N 
ATOM     32  H33 UNL     1      29.759  -1.374   3.645  1.00  0.00     0.274 HD
ATOM     33  H32 UNL     1      29.506  -1.352   5.172  1.00  0.00     0.274 HD
ATOM     34  H31 UNL     1      31.043  -1.811   4.648  1.00  0.00     0.274 HD
ENDBRANCH  30  31
ENDBRANCH  29  30
ENDBRANCH  26  29
ENDBRANCH  23  26
ENDBRANCH  21  23
ENDBRANCH  19  21
ENDBRANCH  15  19
BRANCH   1  35
HETATM   35  O2  UNL     1      25.754  -8.044   4.636  1.00  0.00    -0.312 OA
BRANCH  35  36
HETATM   36  C2  UNL     1      26.895  -7.642   4.088  1.00  0.00     0.255 C 
HETATM   37  C1  UNL     1      27.197  -6.224   3.751  1.00  0.00     0.126 C 
HETATM   38  O1  UNL     1      27.682  -8.580   3.886  1.00  0.00    -0.266 OA
ENDBRANCH  35  36
ENDBRANCH   1  35
BRANCH  10  39
HETATM   39  O6  UNL     1      21.444  -9.881   8.270  1.00  0.00    -0.313 OA
BRANCH  39  40
HETATM   40  C13 UNL     1      21.219  -9.672   9.611  1.00  0.00     0.267 C 
HETATM   41  O7  UNL     1      22.129 -10.016  10.398  1.00  0.00    -0.264 OA
BRANCH  40  42
HETATM   42  C14 UNL     1      19.992  -9.084  10.162  1.00  0.00     0.037 C 
HETATM   43  C15 UNL     1      20.271  -8.470  11.535  1.00  0.00     0.025 C 
HETATM   44  C16 UNL     1      19.412  -7.975   9.326  1.00  0.00     0.025 C 
HETATM   45  C17 UNL     1      18.905 -10.131  10.369  1.00  0.00     0.025 C 
ENDBRANCH  40  42
ENDBRANCH  39  40
ENDBRANCH  10  39
BRANCH   2  46
HETATM   46  C6  UNL     1      25.323 -11.581   4.368  1.00  0.00     0.204 C 
BRANCH  46  47
HETATM   47  O3  UNL     1      26.677 -11.387   4.089  1.00  0.00    -0.398 OA
ATOM     48  H3  UNL     1      27.070 -10.929   4.822  1.00  0.00     0.209 HD
ENDBRANCH  46  47
ENDBRANCH   2  46
BRANCH   6  49
HETATM   49  C9  UNL     1      20.211  -8.980   5.637  1.00  0.00     0.094 C 
HETATM   50  N1  UNL     1      19.569  -8.430   4.656  1.00  0.00    -0.284 N 
ATOM     51  H1  UNL     1      18.874  -7.706   4.840  1.00  0.00     0.192 HD
BRANCH  50  52
HETATM   52  O5  UNL     1      19.828  -8.827   3.366  1.00  0.00    -0.291 OA
ATOM     53  H5  UNL     1      20.149  -9.704   3.199  1.00  0.00     0.244 HD
ENDBRANCH  50  52
ENDBRANCH   6  49
TORSDOF 17
ENDMDL
