MODEL 1
REMARK VINA RESULT: -6.621252530      0.000      0.000
REMARK  2 active torsions:
REMARK  status: ('A' for Active; 'I' for Inactive)
REMARK    1  A    between atoms: N1_1  and  N2_4 
REMARK    2  A    between atoms: N3_6  and  C1_8 
ROOT
HETATM    1  C1  UNL     1      34.702  18.192 -17.189  1.00  0.00     0.141 A 
HETATM    2  C2  UNL     1      35.723  18.743 -16.437  1.00  0.00     0.156 A 
HETATM    3  N4  UNL     1      35.754  20.160 -16.315  1.00  0.00    -0.079 NA
HETATM    4  N5  UNL     1      36.673  18.035 -15.825  1.00  0.00    -0.294 N 
HETATM    5  C3  UNL     1      37.661  18.625 -15.093  1.00  0.00     0.105 A 
HETATM    6  C4  UNL     1      38.640  17.899 -14.461  1.00  0.00     0.092 A 
HETATM    7  C5  UNL     1      38.605  16.525 -14.583  1.00  0.00     0.248 A 
HETATM    8  O1  UNL     1      39.495  15.850 -14.010  1.00  0.00    -0.268 OA
HETATM    9  N6  UNL     1      37.619  15.973 -15.310  1.00  0.00    -0.309 N 
ATOM     10  H6  UNL     1      37.593  14.957 -15.399  1.00  0.00     0.170 HD
HETATM   11  C6  UNL     1      36.662  16.693 -15.928  1.00  0.00     0.119 A 
HETATM   12  C7  UNL     1      35.657  16.071 -16.673  1.00  0.00     0.106 A 
HETATM   13  C8  UNL     1      34.683  16.820 -17.300  1.00  0.00     0.206 A 
HETATM   14  O2  UNL     1      33.770  16.281 -17.975  1.00  0.00    -0.286 OA
ENDROOT
BRANCH   1  15
HETATM   15  N3  UNL     1      33.723  19.024 -17.813  1.00  0.00    -0.280 N 
HETATM   16  N2  UNL     1      33.024  19.754 -17.076  1.00  0.00    -0.249 N 
ATOM     17  H2  UNL     1      33.188  19.718 -16.070  1.00  0.00     0.207 HD
ATOM     18  H3  UNL     1      33.598  19.023 -18.825  1.00  0.00     0.188 HD
BRANCH  16  19
HETATM   19  N1  UNL     1      32.030  20.616 -17.548  1.00  0.00    -0.331 N 
ATOM     20  H12 UNL     1      32.334  21.400 -18.126  1.00  0.00     0.178 HD
ATOM     21  H11 UNL     1      31.037  20.504 -17.347  1.00  0.00     0.178 HD
ENDBRANCH  16  19
ENDBRANCH   1  15
TORSDOF 2
ENDMDL
MODEL 2
REMARK VINA RESULT: -6.053898816      1.895      5.738
REMARK  2 active torsions:
REMARK  status: ('A' for Active; 'I' for Inactive)
REMARK    1  A    between atoms: N1_1  and  N2_4 
REMARK    2  A    between atoms: N3_6  and  C1_8 
ROOT
HETATM    1  C1  UNL     1      37.778  16.900 -15.400  1.00  0.00     0.141 A 
HETATM    2  C2  UNL     1      36.572  16.706 -16.048  1.00  0.00     0.156 A 
HETATM    3  N4  UNL     1      36.230  15.373 -16.407  1.00  0.00    -0.079 NA
HETATM    4  N5  UNL     1      35.718  17.683 -16.355  1.00  0.00    -0.294 N 
HETATM    5  C3  UNL     1      34.538  17.442 -16.996  1.00  0.00     0.105 A 
HETATM    6  C4  UNL     1      33.657  18.445 -17.314  1.00  0.00     0.092 A 
HETATM    7  C5  UNL     1      33.994  19.736 -16.963  1.00  0.00     0.248 A 
HETATM    8  O1  UNL     1      33.196  20.662 -17.249  1.00  0.00    -0.268 OA
HETATM    9  N6  UNL     1      35.163  19.942 -16.333  1.00  0.00    -0.309 N 
ATOM     10  H6  UNL     1      35.412  20.896 -16.073  1.00  0.00     0.170 HD
HETATM   11  C6  UNL     1      36.024  18.952 -16.025  1.00  0.00     0.119 A 
HETATM   12  C7  UNL     1      37.228  19.218 -15.368  1.00  0.00     0.106 A 
HETATM   13  C8  UNL     1      38.099  18.194 -15.059  1.00  0.00     0.206 A 
HETATM   14  O2  UNL     1      39.187  18.412 -14.468  1.00  0.00    -0.286 OA
ENDROOT
BRANCH   1  15
HETATM   15  N3  UNL     1      38.637  15.796 -15.108  1.00  0.00    -0.280 N 
HETATM   16  N2  UNL     1      38.920  15.579 -13.909  1.00  0.00    -0.249 N 
ATOM     17  H2  UNL     1      38.523  16.199 -13.204  1.00  0.00     0.207 HD
ATOM     18  H3  UNL     1      39.007  15.205 -15.853  1.00  0.00     0.188 HD
BRANCH  16  19
HETATM   19  N1  UNL     1      39.746  14.538 -13.478  1.00  0.00    -0.331 N 
ATOM     20  H12 UNL     1      39.737  13.681 -14.032  1.00  0.00     0.178 HD
ATOM     21  H11 UNL     1      40.345  14.591 -12.655  1.00  0.00     0.178 HD
ENDBRANCH  16  19
ENDBRANCH   1  15
TORSDOF 2
ENDMDL
MODEL 3
REMARK VINA RESULT: -6.003732484      2.124      3.015
REMARK  2 active torsions:
REMARK  status: ('A' for Active; 'I' for Inactive)
REMARK    1  A    between atoms: N1_1  and  N2_4 
REMARK    2  A    between atoms: N3_6  and  C1_8 
ROOT
HETATM    1  C1  UNL     1      34.987  17.713 -16.934  1.00  0.00     0.141 A 
HETATM    2  C2  UNL     1      36.067  17.009 -16.433  1.00  0.00     0.156 A 
HETATM    3  N4  UNL     1      36.025  15.590 -16.533  1.00  0.00    -0.079 NA
HETATM    4  N5  UNL     1      37.135  17.572 -15.867  1.00  0.00    -0.294 N 
HETATM    5  C3  UNL     1      38.177  16.833 -15.387  1.00  0.00     0.105 A 
HETATM    6  C4  UNL     1      39.278  17.410 -14.804  1.00  0.00     0.092 A 
HETATM    7  C5  UNL     1      39.312  18.785 -14.710  1.00  0.00     0.248 A 
HETATM    8  O1  UNL     1      40.314  19.324 -14.178  1.00  0.00    -0.268 OA
HETATM    9  N6  UNL     1      38.271  19.486 -15.192  1.00  0.00    -0.309 N 
ATOM     10  H6  UNL     1      38.297  20.503 -15.122  1.00  0.00     0.170 HD
HETATM   11  C6  UNL     1      37.193  18.912 -15.762  1.00  0.00     0.119 A 
HETATM   12  C7  UNL     1      36.136  19.685 -16.248  1.00  0.00     0.106 A 
HETATM   13  C8  UNL     1      35.039  19.084 -16.831  1.00  0.00     0.206 A 
HETATM   14  O2  UNL     1      34.077  19.761 -17.274  1.00  0.00    -0.286 OA
ENDROOT
BRANCH   1  15
HETATM   15  N3  UNL     1      33.880  17.031 -17.526  1.00  0.00    -0.280 N 
HETATM   16  N2  UNL     1      34.102  16.331 -18.538  1.00  0.00    -0.249 N 
ATOM     17  H2  UNL     1      35.058  16.283 -18.888  1.00  0.00     0.207 HD
ATOM     18  H3  UNL     1      32.941  17.111 -17.135  1.00  0.00     0.188 HD
BRANCH  16  19
HETATM   19  N1  UNL     1      33.117  15.610 -19.219  1.00  0.00    -0.331 N 
ATOM     20  H12 UNL     1      32.182  16.019 -19.250  1.00  0.00     0.178 HD
ATOM     21  H11 UNL     1      33.282  14.714 -19.677  1.00  0.00     0.178 HD
ENDBRANCH  16  19
ENDBRANCH   1  15
TORSDOF 2
ENDMDL
MODEL 4
REMARK VINA RESULT: -5.983860208      2.330      5.610
REMARK  2 active torsions:
REMARK  status: ('A' for Active; 'I' for Inactive)
REMARK    1  A    between atoms: N1_1  and  N2_4 
REMARK    2  A    between atoms: N3_6  and  C1_8 
ROOT
HETATM    1  C1  UNL     1      36.256  16.742 -14.916  1.00  0.00     0.141 A 
HETATM    2  C2  UNL     1      35.822  17.046 -16.193  1.00  0.00     0.156 A 
HETATM    3  N4  UNL     1      36.362  16.282 -17.266  1.00  0.00    -0.079 NA
HETATM    4  N5  UNL     1      34.938  18.001 -16.480  1.00  0.00    -0.294 N 
HETATM    5  C3  UNL     1      34.540  18.264 -17.758  1.00  0.00     0.105 A 
HETATM    6  C4  UNL     1      33.629  19.246 -18.057  1.00  0.00     0.092 A 
HETATM    7  C5  UNL     1      33.110  19.983 -17.013  1.00  0.00     0.248 A 
HETATM    8  O1  UNL     1      32.276  20.886 -17.274  1.00  0.00    -0.268 OA
HETATM    9  N6  UNL     1      33.521  19.702 -15.765  1.00  0.00    -0.309 N 
ATOM     10  H6  UNL     1      33.136  20.247 -14.994  1.00  0.00     0.170 HD
HETATM   11  C6  UNL     1      34.416  18.736 -15.480  1.00  0.00     0.119 A 
HETATM   12  C7  UNL     1      34.811  18.481 -14.164  1.00  0.00     0.106 A 
HETATM   13  C8  UNL     1      35.728  17.489 -13.888  1.00  0.00     0.206 A 
HETATM   14  O2  UNL     1      36.097  17.244 -12.711  1.00  0.00    -0.286 OA
ENDROOT
BRANCH   1  15
HETATM   15  N3  UNL     1      37.209  15.701 -14.696  1.00  0.00    -0.280 N 
HETATM   16  N2  UNL     1      38.405  16.030 -14.534  1.00  0.00    -0.249 N 
ATOM     17  H2  UNL     1      38.637  17.023 -14.568  1.00  0.00     0.207 HD
ATOM     18  H3  UNL     1      36.924  14.722 -14.670  1.00  0.00     0.188 HD
BRANCH  16  19
HETATM   19  N1  UNL     1      39.442  15.121 -14.311  1.00  0.00    -0.331 N 
ATOM     20  H12 UNL     1      40.266  15.203 -14.906  1.00  0.00     0.178 HD
ATOM     21  H11 UNL     1      39.415  14.392 -13.598  1.00  0.00     0.178 HD
ENDBRANCH  16  19
ENDBRANCH   1  15
TORSDOF 2
ENDMDL
MODEL 5
REMARK VINA RESULT: -5.949726317      2.443      5.837
REMARK  2 active torsions:
REMARK  status: ('A' for Active; 'I' for Inactive)
REMARK    1  A    between atoms: N1_1  and  N2_4 
REMARK    2  A    between atoms: N3_6  and  C1_8 
ROOT
HETATM    1  C1  UNL     1      38.308  16.951 -14.259  1.00  0.00     0.141 A 
HETATM    2  C2  UNL     1      36.938  17.064 -14.102  1.00  0.00     0.156 A 
HETATM    3  N4  UNL     1      36.313  16.193 -13.166  1.00  0.00    -0.079 NA
HETATM    4  N5  UNL     1      36.174  17.931 -14.767  1.00  0.00    -0.294 N 
HETATM    5  C3  UNL     1      34.825  18.005 -14.577  1.00  0.00     0.105 A 
HETATM    6  C4  UNL     1      34.035  18.896 -15.260  1.00  0.00     0.092 A 
HETATM    7  C5  UNL     1      34.647  19.738 -16.166  1.00  0.00     0.248 A 
HETATM    8  O1  UNL     1      33.935  20.557 -16.797  1.00  0.00    -0.268 OA
HETATM    9  N6  UNL     1      35.977  19.641 -16.331  1.00  0.00    -0.309 N 
ATOM     10  H6  UNL     1      36.429  20.264 -17.001  1.00  0.00     0.170 HD
HETATM   11  C6  UNL     1      36.745  18.763 -15.657  1.00  0.00     0.119 A 
HETATM   12  C7  UNL     1      38.126  18.702 -15.865  1.00  0.00     0.106 A 
HETATM   13  C8  UNL     1      38.900  17.798 -15.167  1.00  0.00     0.206 A 
HETATM   14  O2  UNL     1      40.143  17.726 -15.339  1.00  0.00    -0.286 OA
ENDROOT
BRANCH   1  15
HETATM   15  N3  UNL     1      39.053  15.993 -13.505  1.00  0.00    -0.280 N 
HETATM   16  N2  UNL     1      39.381  14.930 -14.077  1.00  0.00    -0.249 N 
ATOM     17  H2  UNL     1      39.100  14.802 -15.049  1.00  0.00     0.207 HD
ATOM     18  H3  UNL     1      39.310  16.170 -12.534  1.00  0.00     0.188 HD
BRANCH  16  19
HETATM   19  N1  UNL     1      40.108  13.906 -13.464  1.00  0.00    -0.331 N 
ATOM     20  H12 UNL     1      40.217  13.038 -13.988  1.00  0.00     0.178 HD
ATOM     21  H11 UNL     1      40.527  13.983 -12.538  1.00  0.00     0.178 HD
ENDBRANCH  16  19
ENDBRANCH   1  15
TORSDOF 2
ENDMDL
