MODEL 1
REMARK VINA RESULT: -5.426135293      0.000      0.000
REMARK  2 active torsions:
REMARK  status: ('A' for Active; 'I' for Inactive)
REMARK    1  A    between atoms: N2_3  and  C2_5 
REMARK    2  A    between atoms: C4_11  and  C5_12 
ROOT
HETATM    1  N1  UNL     1      32.229  20.814 -18.741  1.00  0.00    -0.172 NA
HETATM    2  C1  UNL     1      32.759  20.447 -17.755  1.00  0.00     0.183 C 
HETATM    3  N2  UNL     1      33.378  19.996 -16.586  1.00  0.00    -0.276 N 
ATOM      4  H2  UNL     1      33.344  20.548 -15.729  1.00  0.00     0.179 HD
ENDROOT
BRANCH   3   5
HETATM    5  C2  UNL     1      34.012  18.827 -16.624  1.00  0.00     0.172 A 
HETATM    6  N3  UNL     1      33.829  18.015 -17.672  1.00  0.00    -0.307 N 
HETATM    7  S1  UNL     1      34.642  16.554 -17.683  1.00  0.00     0.003 SA
ATOM      8  H3  UNL     1      33.212  18.279 -18.440  1.00  0.00     0.176 HD
HETATM    9  C3  UNL     1      35.621  16.298 -16.315  1.00  0.00     0.120 A 
HETATM   10  N4  UNL     1      36.416  15.146 -16.072  1.00  0.00    -0.092 NA
HETATM   11  C4  UNL     1      35.573  17.355 -15.420  1.00  0.00     0.086 A 
HETATM   12  C6  UNL     1      34.836  18.493 -15.582  1.00  0.00     0.232 A 
HETATM   13  O1  UNL     1      34.931  19.352 -14.636  1.00  0.00    -0.283 OA
BRANCH  11  14
HETATM   14  C5  UNL     1      36.413  17.175 -14.210  1.00  0.00     0.129 C 
HETATM   15  N5  UNL     1      35.785  16.792 -13.003  1.00  0.00    -0.089 NA
HETATM   16  S2  UNL     1      38.016  17.430 -14.355  1.00  0.00    -0.063 SA
ENDBRANCH  11  14
ENDBRANCH   3   5
TORSDOF 2
ENDMDL
MODEL 2
REMARK VINA RESULT: -4.750024013      3.999      5.216
REMARK  2 active torsions:
REMARK  status: ('A' for Active; 'I' for Inactive)
REMARK    1  A    between atoms: N2_3  and  C2_5 
REMARK    2  A    between atoms: C4_11  and  C5_12 
ROOT
HETATM    1  N1  UNL     1      34.529  18.343 -14.701  1.00  0.00    -0.172 NA
HETATM    2  C1  UNL     1      35.539  17.784 -14.933  1.00  0.00     0.183 C 
HETATM    3  N2  UNL     1      36.741  17.132 -15.220  1.00  0.00    -0.276 N 
ATOM      4  H2  UNL     1      36.748  16.171 -15.564  1.00  0.00     0.179 HD
ENDROOT
BRANCH   3   5
HETATM    5  C2  UNL     1      37.876  17.801 -15.032  1.00  0.00     0.172 A 
HETATM    6  N3  UNL     1      37.992  19.044 -15.513  1.00  0.00    -0.307 N 
HETATM    7  S1  UNL     1      39.434  19.852 -15.258  1.00  0.00     0.003 SA
ATOM      8  H3  UNL     1      37.225  19.485 -16.020  1.00  0.00     0.176 HD
HETATM    9  C3  UNL     1      40.588  18.949 -14.393  1.00  0.00     0.120 A 
HETATM   10  N4  UNL     1      41.891  19.394 -14.042  1.00  0.00    -0.092 NA
HETATM   11  C4  UNL     1      40.128  17.688 -14.048  1.00  0.00     0.086 A 
HETATM   12  C6  UNL     1      38.894  17.189 -14.349  1.00  0.00     0.232 A 
HETATM   13  O1  UNL     1      38.664  15.998 -13.937  1.00  0.00    -0.283 OA
BRANCH  11  14
HETATM   14  C5  UNL     1      41.103  16.864 -13.291  1.00  0.00     0.129 C 
HETATM   15  N5  UNL     1      41.179  17.024 -11.890  1.00  0.00    -0.089 NA
HETATM   16  S2  UNL     1      42.028  15.819 -14.134  1.00  0.00    -0.063 SA
ENDBRANCH  11  14
ENDBRANCH   3   5
TORSDOF 2
ENDMDL
MODEL 3
REMARK VINA RESULT: -4.664020283      4.041      5.288
REMARK  2 active torsions:
REMARK  status: ('A' for Active; 'I' for Inactive)
REMARK    1  A    between atoms: N2_3  and  C2_5 
REMARK    2  A    between atoms: C4_11  and  C5_12 
ROOT
HETATM    1  N1  UNL     1      34.527  18.338 -14.699  1.00  0.00    -0.172 NA
HETATM    2  C1  UNL     1      35.526  17.739 -14.869  1.00  0.00     0.183 C 
HETATM    3  N2  UNL     1      36.716  17.040 -15.085  1.00  0.00    -0.276 N 
ATOM      4  H2  UNL     1      36.706  16.048 -15.325  1.00  0.00     0.179 HD
ENDROOT
BRANCH   3   5
HETATM    5  C2  UNL     1      37.863  17.705 -14.969  1.00  0.00     0.172 A 
HETATM    6  N3  UNL     1      37.949  18.952 -15.447  1.00  0.00    -0.307 N 
HETATM    7  S1  UNL     1      39.407  19.755 -15.283  1.00  0.00     0.003 SA
ATOM      8  H3  UNL     1      37.150  19.399 -15.896  1.00  0.00     0.176 HD
HETATM    9  C3  UNL     1      40.615  18.843 -14.507  1.00  0.00     0.120 A 
HETATM   10  N4  UNL     1      41.939  19.282 -14.241  1.00  0.00    -0.092 NA
HETATM   11  C4  UNL     1      40.176  17.580 -14.142  1.00  0.00     0.086 A 
HETATM   12  C6  UNL     1      38.923  17.086 -14.362  1.00  0.00     0.232 A 
HETATM   13  O1  UNL     1      38.719  15.891 -13.946  1.00  0.00    -0.283 OA
BRANCH  11  14
HETATM   14  C5  UNL     1      41.199  16.747 -13.461  1.00  0.00     0.129 C 
HETATM   15  N5  UNL     1      42.028  15.918 -14.248  1.00  0.00    -0.089 NA
HETATM   16  S2  UNL     1      41.299  16.847 -11.837  1.00  0.00    -0.063 SA
ENDBRANCH  11  14
ENDBRANCH   3   5
TORSDOF 2
ENDMDL
MODEL 4
REMARK VINA RESULT: -4.615904722      3.875      5.277
REMARK  2 active torsions:
REMARK  status: ('A' for Active; 'I' for Inactive)
REMARK    1  A    between atoms: N2_3  and  C2_5 
REMARK    2  A    between atoms: C4_11  and  C5_12 
ROOT
HETATM    1  N1  UNL     1      35.380  16.098 -17.124  1.00  0.00    -0.172 NA
HETATM    2  C1  UNL     1      35.930  16.282 -16.099  1.00  0.00     0.183 C 
HETATM    3  N2  UNL     1      36.597  16.494 -14.891  1.00  0.00    -0.276 N 
ATOM      4  H2  UNL     1      36.289  16.034 -14.034  1.00  0.00     0.179 HD
ENDROOT
BRANCH   3   5
HETATM    5  C2  UNL     1      37.646  17.313 -14.890  1.00  0.00     0.172 A 
HETATM    6  N3  UNL     1      37.517  18.545 -15.398  1.00  0.00    -0.307 N 
HETATM    7  S1  UNL     1      38.857  19.545 -15.380  1.00  0.00     0.003 SA
ATOM      8  H3  UNL     1      36.629  18.863 -15.784  1.00  0.00     0.176 HD
HETATM    9  C3  UNL     1      40.242  18.832 -14.695  1.00  0.00     0.120 A 
HETATM   10  N4  UNL     1      41.510  19.456 -14.556  1.00  0.00    -0.092 NA
HETATM   11  C4  UNL     1      40.016  17.533 -14.268  1.00  0.00     0.086 A 
HETATM   12  C6  UNL     1      38.830  16.865 -14.366  1.00  0.00     0.232 A 
HETATM   13  O1  UNL     1      38.830  15.667 -13.910  1.00  0.00    -0.283 OA
BRANCH  11  14
HETATM   14  C5  UNL     1      41.199  16.870 -13.663  1.00  0.00     0.129 C 
HETATM   15  N5  UNL     1      42.028  16.082 -14.491  1.00  0.00    -0.089 NA
HETATM   16  S2  UNL     1      41.464  17.099 -12.071  1.00  0.00    -0.063 SA
ENDBRANCH  11  14
ENDBRANCH   3   5
TORSDOF 2
ENDMDL
MODEL 5
REMARK VINA RESULT: -4.415489008      3.773      5.147
REMARK  2 active torsions:
REMARK  status: ('A' for Active; 'I' for Inactive)
REMARK    1  A    between atoms: N2_3  and  C2_5 
REMARK    2  A    between atoms: C4_11  and  C5_12 
ROOT
HETATM    1  N1  UNL     1      34.932  15.750 -16.222  1.00  0.00    -0.172 NA
HETATM    2  C1  UNL     1      35.592  16.613 -15.768  1.00  0.00     0.183 C 
HETATM    3  N2  UNL     1      36.379  17.626 -15.216  1.00  0.00    -0.276 N 
ATOM      4  H2  UNL     1      35.987  18.549 -15.022  1.00  0.00     0.179 HD
ENDROOT
BRANCH   3   5
HETATM    5  C2  UNL     1      37.654  17.354 -14.948  1.00  0.00     0.172 A 
HETATM    6  N3  UNL     1      37.988  16.130 -14.522  1.00  0.00    -0.307 N 
HETATM    7  S1  UNL     1      39.599  15.826 -14.196  1.00  0.00     0.003 SA
ATOM      8  H3  UNL     1      37.281  15.406 -14.401  1.00  0.00     0.176 HD
HETATM    9  C3  UNL     1      40.622  17.161 -14.460  1.00  0.00     0.120 A 
HETATM   10  N4  UNL     1      42.028  17.177 -14.262  1.00  0.00    -0.092 NA
HETATM   11  C4  UNL     1      39.933  18.279 -14.904  1.00  0.00     0.086 A 
HETATM   12  C6  UNL     1      38.587  18.343 -15.119  1.00  0.00     0.232 A 
HETATM   13  O1  UNL     1      38.146  19.473 -15.531  1.00  0.00    -0.283 OA
BRANCH  11  14
HETATM   14  C5  UNL     1      40.786  19.469 -15.148  1.00  0.00     0.129 C 
HETATM   15  N5  UNL     1      41.093  20.314 -14.059  1.00  0.00    -0.089 NA
HETATM   16  S2  UNL     1      41.318  19.721 -16.669  1.00  0.00    -0.063 SA
ENDBRANCH  11  14
ENDBRANCH   3   5
TORSDOF 2
ENDMDL
