MODEL 1
REMARK VINA RESULT: -6.146410991      0.000      0.000
REMARK  1 active torsions:
REMARK  status: ('A' for Active; 'I' for Inactive)
REMARK    1  A    between atoms: C1_2  and  N1_3 
ROOT
HETATM    1  N1  UNL     1      36.125  17.284 -15.543  1.00  0.00    -0.223 N 
HETATM    2  C2  UNL     1      36.058  18.567 -15.940  1.00  0.00     0.335 A 
HETATM    3  O2  UNL     1      35.043  19.135 -16.441  1.00  0.00    -0.246 OA
HETATM    4  N2  UNL     1      37.245  19.167 -15.721  1.00  0.00    -0.302 N 
ATOM      5  H2  UNL     1      37.466  20.141 -15.932  1.00  0.00     0.171 HD
HETATM    6  C3  UNL     1      38.096  18.266 -15.178  1.00  0.00     0.120 A 
HETATM    7  C4  UNL     1      39.400  18.277 -14.749  1.00  0.00     0.135 A 
HETATM    8  S1  UNL     1      40.235  19.671 -14.880  1.00  0.00    -0.058 SA
HETATM    9  N3  UNL     1      40.010  17.195 -14.232  1.00  0.00    -0.297 N 
ATOM     10  H3  UNL     1      40.982  17.236 -13.923  1.00  0.00     0.171 HD
HETATM   11  C5  UNL     1      39.298  16.056 -14.135  1.00  0.00     0.327 A 
HETATM   12  O3  UNL     1      39.792  14.997 -13.663  1.00  0.00    -0.247 OA
HETATM   13  N4  UNL     1      38.020  16.018 -14.547  1.00  0.00    -0.292 N 
ATOM     14  H4  UNL     1      37.507  15.141 -14.461  1.00  0.00     0.172 HD
HETATM   15  C6  UNL     1      37.379  17.090 -15.072  1.00  0.00     0.152 A 
ENDROOT
BRANCH   1  16
HETATM   16  C1  UNL     1      35.131  16.280 -15.580  1.00  0.00     0.365 C 
HETATM   17  O1  UNL     1      34.918  15.671 -16.651  1.00  0.00    -0.283 OA
ENDBRANCH   1  16
TORSDOF 1
ENDMDL
MODEL 2
REMARK VINA RESULT: -6.122796619      2.050      3.054
REMARK  1 active torsions:
REMARK  status: ('A' for Active; 'I' for Inactive)
REMARK    1  A    between atoms: C1_2  and  N1_3 
ROOT
HETATM    1  N1  UNL     1      36.029  17.793 -16.174  1.00  0.00    -0.223 N 
HETATM    2  C2  UNL     1      35.887  16.473 -15.961  1.00  0.00     0.335 A 
HETATM    3  O2  UNL     1      34.875  15.778 -16.273  1.00  0.00    -0.246 OA
HETATM    4  N2  UNL     1      36.994  15.992 -15.361  1.00  0.00    -0.302 N 
ATOM      5  H2  UNL     1      37.147  15.021 -15.088  1.00  0.00     0.171 HD
HETATM    6  C3  UNL     1      37.867  17.009 -15.178  1.00  0.00     0.120 A 
HETATM    7  C4  UNL     1      39.123  17.145 -14.639  1.00  0.00     0.135 A 
HETATM    8  S1  UNL     1      39.841  15.812 -14.034  1.00  0.00    -0.058 SA
HETATM    9  N3  UNL     1      39.776  18.320 -14.590  1.00  0.00    -0.297 N 
ATOM     10  H3  UNL     1      40.709  18.386 -14.182  1.00  0.00     0.171 HD
HETATM   11  C5  UNL     1      39.160  19.405 -15.096  1.00  0.00     0.327 A 
HETATM   12  O3  UNL     1      39.700  20.544 -15.090  1.00  0.00    -0.247 OA
HETATM   13  N4  UNL     1      37.931  19.300 -15.630  1.00  0.00    -0.292 N 
ATOM     14  H4  UNL     1      37.491  20.140 -16.005  1.00  0.00     0.172 HD
HETATM   15  C6  UNL     1      37.249  18.132 -15.693  1.00  0.00     0.152 A 
ENDROOT
BRANCH   1  16
HETATM   16  C1  UNL     1      35.133  18.708 -16.771  1.00  0.00     0.365 C 
HETATM   17  O1  UNL     1      35.121  19.896 -16.378  1.00  0.00    -0.283 OA
ENDBRANCH   1  16
TORSDOF 1
ENDMDL
MODEL 3
REMARK VINA RESULT: -5.722178747      2.158      3.984
REMARK  1 active torsions:
REMARK  status: ('A' for Active; 'I' for Inactive)
REMARK    1  A    between atoms: C1_2  and  N1_3 
ROOT
HETATM    1  N1  UNL     1      38.814  17.663 -14.983  1.00  0.00    -0.223 N 
HETATM    2  C2  UNL     1      39.015  18.981 -15.157  1.00  0.00     0.335 A 
HETATM    3  O2  UNL     1      40.107  19.595 -14.968  1.00  0.00    -0.246 OA
HETATM    4  N2  UNL     1      37.869  19.561 -15.569  1.00  0.00    -0.302 N 
ATOM      5  H2  UNL     1      37.746  20.552 -15.776  1.00  0.00     0.171 HD
HETATM    6  C3  UNL     1      36.910  18.611 -15.662  1.00  0.00     0.120 A 
HETATM    7  C4  UNL     1      35.583  18.582 -16.017  1.00  0.00     0.135 A 
HETATM    8  S1  UNL     1      34.880  19.987 -16.451  1.00  0.00    -0.058 SA
HETATM    9  N3  UNL     1      34.850  17.454 -16.019  1.00  0.00    -0.297 N 
ATOM     10  H3  UNL     1      33.866  17.467 -16.287  1.00  0.00     0.171 HD
HETATM   11  C5  UNL     1      35.456  16.308 -15.655  1.00  0.00     0.327 A 
HETATM   12  O3  UNL     1      34.843  15.207 -15.629  1.00  0.00    -0.247 OA
HETATM   13  N4  UNL     1      36.753  16.308 -15.304  1.00  0.00    -0.292 N 
ATOM     14  H4  UNL     1      37.183  15.424 -15.033  1.00  0.00     0.172 HD
HETATM   15  C6  UNL     1      37.517  17.427 -15.292  1.00  0.00     0.152 A 
ENDROOT
BRANCH   1  16
HETATM   16  C1  UNL     1      39.720  16.665 -14.563  1.00  0.00     0.365 C 
HETATM   17  O1  UNL     1      39.302  15.715 -13.863  1.00  0.00    -0.283 OA
ENDBRANCH   1  16
TORSDOF 1
ENDMDL
MODEL 4
REMARK VINA RESULT: -5.449748014      1.292      1.297
REMARK  1 active torsions:
REMARK  status: ('A' for Active; 'I' for Inactive)
REMARK    1  A    between atoms: C1_2  and  N1_3 
ROOT
HETATM    1  N1  UNL     1      36.707  17.437 -14.872  1.00  0.00    -0.223 N 
HETATM    2  C2  UNL     1      36.823  18.621 -15.498  1.00  0.00     0.335 A 
HETATM    3  O2  UNL     1      35.863  19.348 -15.892  1.00  0.00    -0.246 OA
HETATM    4  N2  UNL     1      38.128  18.926 -15.645  1.00  0.00    -0.302 N 
ATOM      5  H2  UNL     1      38.495  19.769 -16.087  1.00  0.00     0.171 HD
HETATM    6  C3  UNL     1      38.871  17.929 -15.111  1.00  0.00     0.120 A 
HETATM    7  C4  UNL     1      40.212  17.672 -14.960  1.00  0.00     0.135 A 
HETATM    8  S1  UNL     1      41.269  18.773 -15.533  1.00  0.00    -0.058 SA
HETATM    9  N3  UNL     1      40.682  16.560 -14.367  1.00  0.00    -0.297 N 
ATOM     10  H3  UNL     1      41.685  16.399 -14.271  1.00  0.00     0.171 HD
HETATM   11  C5  UNL     1      39.787  15.667 -13.903  1.00  0.00     0.327 A 
HETATM   12  O3  UNL     1      40.142  14.599 -13.335  1.00  0.00    -0.247 OA
HETATM   13  N4  UNL     1      38.470  15.894 -14.037  1.00  0.00    -0.292 N 
ATOM     14  H4  UNL     1      37.817  15.198 -13.675  1.00  0.00     0.172 HD
HETATM   15  C6  UNL     1      37.967  17.003 -14.630  1.00  0.00     0.152 A 
ENDROOT
BRANCH   1  16
HETATM   16  C1  UNL     1      35.542  16.725 -14.507  1.00  0.00     0.365 C 
HETATM   17  O1  UNL     1      35.407  16.340 -13.324  1.00  0.00    -0.283 OA
ENDBRANCH   1  16
TORSDOF 1
ENDMDL
MODEL 5
REMARK VINA RESULT: -5.130951348      2.879      5.079
REMARK  1 active torsions:
REMARK  status: ('A' for Active; 'I' for Inactive)
REMARK    1  A    between atoms: C1_2  and  N1_3 
ROOT
HETATM    1  N1  UNL     1      40.559  16.571 -13.541  1.00  0.00    -0.223 N 
HETATM    2  C2  UNL     1      39.823  15.449 -13.639  1.00  0.00     0.335 A 
HETATM    3  O2  UNL     1      40.120  14.323 -13.142  1.00  0.00    -0.246 OA
HETATM    4  N2  UNL     1      38.707  15.705 -14.351  1.00  0.00    -0.302 N 
ATOM      5  H2  UNL     1      37.976  15.028 -14.573  1.00  0.00     0.171 HD
HETATM    6  C3  UNL     1      38.715  17.005 -14.724  1.00  0.00     0.120 A 
HETATM    7  C4  UNL     1      37.883  17.831 -15.439  1.00  0.00     0.135 A 
HETATM    8  S1  UNL     1      36.510  17.193 -16.041  1.00  0.00    -0.058 SA
HETATM    9  N3  UNL     1      38.154  19.130 -15.660  1.00  0.00    -0.297 N 
ATOM     10  H3  UNL     1      37.514  19.716 -16.197  1.00  0.00     0.171 HD
HETATM   11  C5  UNL     1      39.295  19.632 -15.152  1.00  0.00     0.327 A 
HETATM   12  O3  UNL     1      39.625  20.838 -15.312  1.00  0.00    -0.247 OA
HETATM   13  N4  UNL     1      40.127  18.846 -14.448  1.00  0.00    -0.292 N 
ATOM     14  H4  UNL     1      40.984  19.256 -14.076  1.00  0.00     0.172 HD
HETATM   15  C6  UNL     1      39.882  17.535 -14.209  1.00  0.00     0.152 A 
ENDROOT
BRANCH   1  16
HETATM   16  C1  UNL     1      41.797  16.778 -12.893  1.00  0.00     0.365 C 
HETATM   17  O1  UNL     1      41.932  17.765 -12.136  1.00  0.00    -0.283 OA
ENDBRANCH   1  16
TORSDOF 1
ENDMDL
