MODEL 1
REMARK VINA RESULT: -6.228984124      0.000      0.000
REMARK  4 active torsions:
REMARK  status: ('A' for Active; 'I' for Inactive)
REMARK    1  A    between atoms: C1_2  and  O2_3 
REMARK    2  A    between atoms: O2_3  and  C2_4 
REMARK       I    between atoms: C2_4  and  N1_6 
REMARK    3  A    between atoms: N2_8  and  C3_10 
REMARK    4  A    between atoms: C4_11  and  O4_12 
ROOT
HETATM    1  C3  UNL     1      38.514  18.260 -15.047  1.00  0.00     0.168 A 
HETATM    2  C4  UNL     1      38.644  17.006 -14.485  1.00  0.00     0.178 A 
HETATM    3  N3  UNL     1      39.727  16.740 -13.735  1.00  0.00    -0.287 N 
ATOM      4  H3  UNL     1      39.809  15.809 -13.326  1.00  0.00     0.172 HD
HETATM    5  C5  UNL     1      40.705  17.618 -13.490  1.00  0.00     0.329 A 
HETATM    6  O5  UNL     1      41.721  17.353 -12.781  1.00  0.00    -0.247 OA
HETATM    7  N4  UNL     1      40.600  18.858 -14.032  1.00  0.00    -0.273 N 
ATOM      8  H4  UNL     1      41.328  19.552 -13.866  1.00  0.00     0.173 HD
HETATM    9  C6  UNL     1      39.530  19.169 -14.791  1.00  0.00     0.281 A 
HETATM   10  O6  UNL     1      39.431  20.315 -15.295  1.00  0.00    -0.265 OA
ENDROOT
BRANCH   1  11
HETATM   11  N2  UNL     1      37.421  18.655 -15.853  1.00  0.00    -0.288 N 
HETATM   12  N1  UNL     1      36.225  18.300 -15.626  1.00  0.00    -0.244 N 
HETATM   13  C2  UNL     1      35.129  18.688 -16.423  1.00  0.00     0.386 C 
ATOM     14  H1  UNL     1      36.047  17.700 -14.821  1.00  0.00     0.192 HD
HETATM   15  O3  UNL     1      34.903  19.863 -16.811  1.00  0.00    -0.236 OA
ATOM     16  H2  UNL     1      37.604  19.255 -16.657  1.00  0.00     0.187 HD
BRANCH  13  17
HETATM   17  O2  UNL     1      34.219  17.717 -16.819  1.00  0.00    -0.234 OA
BRANCH  17  18
HETATM   18  C1  UNL     1      34.590  16.452 -17.239  1.00  0.00     0.408 C 
HETATM   19  O1  UNL     1      35.187  15.697 -16.458  1.00  0.00    -0.275 OA
ENDBRANCH  17  18
ENDBRANCH  13  17
ENDBRANCH   1  11
BRANCH   2  20
HETATM   20  O4  UNL     1      37.665  16.066 -14.706  1.00  0.00    -0.344 OA
ATOM     21  H4  UNL     1      37.648  15.279 -14.174  1.00  0.00     0.219 HD
ENDBRANCH   2  20
TORSDOF 4
ENDMDL
MODEL 2
REMARK VINA RESULT: -5.796849454      1.751      5.947
REMARK  4 active torsions:
REMARK  status: ('A' for Active; 'I' for Inactive)
REMARK    1  A    between atoms: C1_2  and  O2_3 
REMARK    2  A    between atoms: O2_3  and  C2_4 
REMARK       I    between atoms: C2_4  and  N1_6 
REMARK    3  A    between atoms: N2_8  and  C3_10 
REMARK    4  A    between atoms: C4_11  and  O4_12 
ROOT
HETATM    1  C3  UNL     1      36.648  17.310 -15.718  1.00  0.00     0.168 A 
HETATM    2  C4  UNL     1      36.744  18.683 -15.827  1.00  0.00     0.178 A 
HETATM    3  N3  UNL     1      35.673  19.378 -16.247  1.00  0.00    -0.287 N 
ATOM      4  H3  UNL     1      35.760  20.391 -16.322  1.00  0.00     0.172 HD
HETATM    5  C5  UNL     1      34.500  18.825 -16.573  1.00  0.00     0.329 A 
HETATM    6  O5  UNL     1      33.499  19.492 -16.967  1.00  0.00    -0.247 OA
HETATM    7  N4  UNL     1      34.381  17.476 -16.474  1.00  0.00    -0.273 N 
ATOM      8  H4  UNL     1      33.501  17.021 -16.715  1.00  0.00     0.173 HD
HETATM    9  C6  UNL     1      35.431  16.739 -16.057  1.00  0.00     0.281 A 
HETATM   10  O6  UNL     1      35.324  15.491 -15.965  1.00  0.00    -0.265 OA
ENDROOT
BRANCH   1  11
HETATM   11  N2  UNL     1      37.706  16.476 -15.288  1.00  0.00    -0.288 N 
HETATM   12  N1  UNL     1      38.529  16.807 -14.382  1.00  0.00    -0.244 N 
HETATM   13  C2  UNL     1      39.587  15.983 -13.946  1.00  0.00     0.386 C 
ATOM     14  H1  UNL     1      38.418  17.721 -13.943  1.00  0.00     0.192 HD
HETATM   15  O3  UNL     1      39.477  14.763 -13.660  1.00  0.00    -0.236 OA
ATOM     16  H2  UNL     1      37.814  15.563 -15.730  1.00  0.00     0.187 HD
BRANCH  13  17
HETATM   17  O2  UNL     1      40.852  16.540 -13.816  1.00  0.00    -0.234 OA
BRANCH  17  18
HETATM   18  C1  UNL     1      41.071  17.846 -13.419  1.00  0.00     0.408 C 
HETATM   19  O1  UNL     1      40.533  18.775 -14.040  1.00  0.00    -0.275 OA
ENDBRANCH  17  18
ENDBRANCH  13  17
ENDBRANCH   1  11
BRANCH   2  20
HETATM   20  O4  UNL     1      37.929  19.301 -15.503  1.00  0.00    -0.344 OA
ATOM     21  H4  UNL     1      37.914  20.073 -14.949  1.00  0.00     0.219 HD
ENDBRANCH   2  20
TORSDOF 4
ENDMDL
MODEL 3
REMARK VINA RESULT: -5.775888715      1.792      5.552
REMARK  4 active torsions:
REMARK  status: ('A' for Active; 'I' for Inactive)
REMARK    1  A    between atoms: C1_2  and  O2_3 
REMARK    2  A    between atoms: O2_3  and  C2_4 
REMARK       I    between atoms: C2_4  and  N1_6 
REMARK    3  A    between atoms: N2_8  and  C3_10 
REMARK    4  A    between atoms: C4_11  and  O4_12 
ROOT
HETATM    1  C3  UNL     1      36.722  17.136 -15.482  1.00  0.00     0.168 A 
HETATM    2  C4  UNL     1      35.468  16.616 -15.733  1.00  0.00     0.178 A 
HETATM    3  N3  UNL     1      34.481  17.451 -16.100  1.00  0.00    -0.287 N 
ATOM      4  H3  UNL     1      33.560  17.052 -16.282  1.00  0.00     0.172 HD
HETATM    5  C5  UNL     1      34.628  18.773 -16.241  1.00  0.00     0.329 A 
HETATM    6  O5  UNL     1      33.689  19.548 -16.587  1.00  0.00    -0.247 OA
HETATM    7  N4  UNL     1      35.853  19.307 -15.999  1.00  0.00    -0.273 N 
ATOM      8  H4  UNL     1      36.001  20.311 -16.097  1.00  0.00     0.173 HD
HETATM    9  C6  UNL     1      36.872  18.506 -15.629  1.00  0.00     0.281 A 
HETATM   10  O6  UNL     1      38.006  18.998 -15.403  1.00  0.00    -0.265 OA
ENDROOT
BRANCH   1  11
HETATM   11  N2  UNL     1      37.835  16.357 -15.090  1.00  0.00    -0.288 N 
HETATM   12  N1  UNL     1      38.529  16.604 -14.058  1.00  0.00    -0.244 N 
HETATM   13  C2  UNL     1      39.641  15.833 -13.659  1.00  0.00     0.386 C 
ATOM     14  H1  UNL     1      38.268  17.406 -13.484  1.00  0.00     0.192 HD
HETATM   15  O3  UNL     1      39.660  14.577 -13.598  1.00  0.00    -0.236 OA
ATOM     16  H2  UNL     1      38.093  15.556 -15.667  1.00  0.00     0.187 HD
BRANCH  13  17
HETATM   17  O2  UNL     1      40.810  16.490 -13.302  1.00  0.00    -0.234 OA
BRANCH  17  18
HETATM   18  C1  UNL     1      41.394  17.479 -14.072  1.00  0.00     0.408 C 
HETATM   19  O1  UNL     1      41.014  17.652 -15.239  1.00  0.00    -0.275 OA
ENDBRANCH  17  18
ENDBRANCH  13  17
ENDBRANCH   1  11
BRANCH   2  20
HETATM   20  O4  UNL     1      35.263  15.263 -15.603  1.00  0.00    -0.344 OA
ATOM     21  H4  UNL     1      34.839  14.787 -16.307  1.00  0.00     0.219 HD
ENDBRANCH   2  20
TORSDOF 4
ENDMDL
MODEL 4
REMARK VINA RESULT: -5.764518324      1.139      2.655
REMARK  4 active torsions:
REMARK  status: ('A' for Active; 'I' for Inactive)
REMARK    1  A    between atoms: C1_2  and  O2_3 
REMARK    2  A    between atoms: O2_3  and  C2_4 
REMARK       I    between atoms: C2_4  and  N1_6 
REMARK    3  A    between atoms: N2_8  and  C3_10 
REMARK    4  A    between atoms: C4_11  and  O4_12 
ROOT
HETATM    1  C3  UNL     1      38.393  17.750 -14.852  1.00  0.00     0.168 A 
HETATM    2  C4  UNL     1      38.790  19.048 -15.103  1.00  0.00     0.178 A 
HETATM    3  N3  UNL     1      40.011  19.443 -14.699  1.00  0.00    -0.287 N 
ATOM      4  H3  UNL     1      40.290  20.405 -14.893  1.00  0.00     0.172 HD
HETATM    5  C5  UNL     1      40.881  18.655 -14.060  1.00  0.00     0.329 A 
HETATM    6  O5  UNL     1      42.028  19.041 -13.686  1.00  0.00    -0.247 OA
HETATM    7  N4  UNL     1      40.513  17.374 -13.802  1.00  0.00    -0.273 N 
ATOM      8  H4  UNL     1      41.153  16.746 -13.316  1.00  0.00     0.173 HD
HETATM    9  C6  UNL     1      39.298  16.935 -14.189  1.00  0.00     0.281 A 
HETATM   10  O6  UNL     1      38.954  15.751 -13.951  1.00  0.00    -0.265 OA
ENDROOT
BRANCH   1  11
HETATM   11  N2  UNL     1      37.136  17.223 -15.228  1.00  0.00    -0.288 N 
HETATM   12  N1  UNL     1      36.605  17.430 -16.361  1.00  0.00    -0.244 N 
HETATM   13  C2  UNL     1      35.352  16.909 -16.746  1.00  0.00     0.386 C 
ATOM     14  H1  UNL     1      37.113  18.007 -17.032  1.00  0.00     0.192 HD
HETATM   15  O3  UNL     1      34.992  15.714 -16.589  1.00  0.00    -0.236 OA
ATOM     16  H2  UNL     1      36.630  16.647 -14.555  1.00  0.00     0.187 HD
BRANCH  13  17
HETATM   17  O2  UNL     1      34.435  17.761 -17.345  1.00  0.00    -0.234 OA
BRANCH  17  18
HETATM   18  C1  UNL     1      34.505  19.140 -17.257  1.00  0.00     0.408 C 
HETATM   19  O1  UNL     1      34.933  19.667 -16.220  1.00  0.00    -0.275 OA
ENDBRANCH  17  18
ENDBRANCH  13  17
ENDBRANCH   1  11
BRANCH   2  20
HETATM   20  O4  UNL     1      37.932  19.899 -15.758  1.00  0.00    -0.344 OA
ATOM     21  H4  UNL     1      38.195  20.275 -16.590  1.00  0.00     0.219 HD
ENDBRANCH   2  20
TORSDOF 4
ENDMDL
MODEL 5
REMARK VINA RESULT: -5.716299184      0.441      2.055
REMARK  4 active torsions:
REMARK  status: ('A' for Active; 'I' for Inactive)
REMARK    1  A    between atoms: C1_2  and  O2_3 
REMARK    2  A    between atoms: O2_3  and  C2_4 
REMARK       I    between atoms: C2_4  and  N1_6 
REMARK    3  A    between atoms: N2_8  and  C3_10 
REMARK    4  A    between atoms: C4_11  and  O4_12 
ROOT
HETATM    1  C3  UNL     1      38.710  18.624 -15.093  1.00  0.00     0.168 A 
HETATM    2  C4  UNL     1      39.695  19.580 -14.945  1.00  0.00     0.178 A 
HETATM    3  N3  UNL     1      40.767  19.295 -14.186  1.00  0.00    -0.287 N 
ATOM      4  H3  UNL     1      41.487  20.011 -14.087  1.00  0.00     0.172 HD
HETATM    5  C5  UNL     1      40.951  18.133 -13.552  1.00  0.00     0.329 A 
HETATM    6  O5  UNL     1      41.966  17.878 -12.839  1.00  0.00    -0.247 OA
HETATM    7  N4  UNL     1      39.995  17.177 -13.682  1.00  0.00    -0.273 N 
ATOM      8  H4  UNL     1      40.103  16.279 -13.211  1.00  0.00     0.173 HD
HETATM    9  C6  UNL     1      38.903  17.420 -14.434  1.00  0.00     0.281 A 
HETATM   10  O6  UNL     1      38.017  16.538 -14.555  1.00  0.00    -0.265 OA
ENDROOT
BRANCH   1  11
HETATM   11  N2  UNL     1      37.539  18.810 -15.865  1.00  0.00    -0.288 N 
HETATM   12  N1  UNL     1      36.383  18.476 -15.467  1.00  0.00    -0.244 N 
HETATM   13  C2  UNL     1      35.210  18.657 -16.228  1.00  0.00     0.386 C 
ATOM     14  H1  UNL     1      36.296  18.052 -14.543  1.00  0.00     0.192 HD
HETATM   15  O3  UNL     1      34.900  19.718 -16.829  1.00  0.00    -0.236 OA
ATOM     16  H2  UNL     1      37.630  19.234 -16.788  1.00  0.00     0.187 HD
BRANCH  13  17
HETATM   17  O2  UNL     1      34.318  17.599 -16.336  1.00  0.00    -0.234 OA
BRANCH  17  18
HETATM   18  C1  UNL     1      34.641  16.387 -16.921  1.00  0.00     0.408 C 
HETATM   19  O1  UNL     1      35.341  15.574 -16.302  1.00  0.00    -0.275 OA
ENDBRANCH  17  18
ENDBRANCH  13  17
ENDBRANCH   1  11
BRANCH   2  20
HETATM   20  O4  UNL     1      39.555  20.793 -15.577  1.00  0.00    -0.344 OA
ATOM     21  H4  UNL     1      40.326  21.321 -15.746  1.00  0.00     0.219 HD
ENDBRANCH   2  20
TORSDOF 4
ENDMDL
