MODEL 1
REMARK VINA RESULT: -6.216272695      0.000      0.000
REMARK  1 active torsions:
REMARK  status: ('A' for Active; 'I' for Inactive)
REMARK    1  A    between atoms: N1_1  and  N2_4 
ROOT
HETATM    1  N2  UNL     1      37.695  16.760 -15.257  1.00  0.00    -0.199 N 
HETATM    2  C1  UNL     1      38.099  18.062 -15.168  1.00  0.00     0.201 A 
HETATM    3  S1  UNL     1      39.541  18.405 -14.484  1.00  0.00    -0.038 SA
HETATM    4  N3  UNL     1      37.314  19.045 -15.639  1.00  0.00    -0.317 N 
ATOM      5  H3  UNL     1      37.644  20.006 -15.557  1.00  0.00     0.170 HD
HETATM    6  C2  UNL     1      36.120  18.828 -16.210  1.00  0.00     0.126 A 
HETATM    7  N4  UNL     1      35.337  19.811 -16.680  1.00  0.00    -0.309 N 
ATOM      8  H4  UNL     1      35.671  20.772 -16.596  1.00  0.00     0.170 HD
HETATM    9  C3  UNL     1      34.138  19.604 -17.254  1.00  0.00     0.246 A 
HETATM   10  O1  UNL     1      33.439  20.574 -17.682  1.00  0.00    -0.268 OA
HETATM   11  C4  UNL     1      33.684  18.307 -17.370  1.00  0.00     0.075 A 
HETATM   12  C5  UNL     1      34.469  17.260 -16.893  1.00  0.00     0.026 A 
HETATM   13  C6  UNL     1      35.696  17.498 -16.308  1.00  0.00     0.078 A 
HETATM   14  C7  UNL     1      36.505  16.493 -15.823  1.00  0.00     0.282 A 
HETATM   15  O2  UNL     1      36.121  15.302 -15.911  1.00  0.00    -0.265 OA
ENDROOT
BRANCH   1  16
HETATM   16  N1  UNL     1      38.514  15.738 -14.766  1.00  0.00    -0.333 N 
ATOM     17  H12 UNL     1      39.376  15.471 -15.244  1.00  0.00     0.177 HD
ATOM     18  H11 UNL     1      38.256  15.241 -13.913  1.00  0.00     0.177 HD
ENDBRANCH   1  16
TORSDOF 1
ENDMDL
MODEL 2
REMARK VINA RESULT: -6.032048392      2.776      4.368
REMARK  1 active torsions:
REMARK  status: ('A' for Active; 'I' for Inactive)
REMARK    1  A    between atoms: N1_1  and  N2_4 
ROOT
HETATM    1  N2  UNL     1      35.020  17.595 -16.972  1.00  0.00    -0.199 N 
HETATM    2  C1  UNL     1      35.142  18.949 -16.836  1.00  0.00     0.201 A 
HETATM    3  S1  UNL     1      33.960  19.918 -17.407  1.00  0.00    -0.038 SA
HETATM    4  N3  UNL     1      36.226  19.471 -16.238  1.00  0.00    -0.317 N 
ATOM      5  H3  UNL     1      36.287  20.485 -16.152  1.00  0.00     0.170 HD
HETATM    6  C2  UNL     1      37.230  18.729 -15.749  1.00  0.00     0.126 A 
HETATM    7  N4  UNL     1      38.312  19.252 -15.153  1.00  0.00    -0.309 N 
ATOM      8  H4  UNL     1      38.370  20.267 -15.069  1.00  0.00     0.170 HD
HETATM    9  C3  UNL     1      39.325  18.516 -14.659  1.00  0.00     0.246 A 
HETATM   10  O1  UNL     1      40.325  19.065 -14.103  1.00  0.00    -0.268 OA
HETATM   11  C4  UNL     1      39.249  17.143 -14.770  1.00  0.00     0.075 A 
HETATM   12  C5  UNL     1      38.142  16.564 -15.384  1.00  0.00     0.026 A 
HETATM   13  C6  UNL     1      37.116  17.340 -15.882  1.00  0.00     0.078 A 
HETATM   14  C7  UNL     1      36.002  16.809 -16.496  1.00  0.00     0.282 A 
HETATM   15  O2  UNL     1      35.903  15.564 -16.614  1.00  0.00    -0.265 OA
ENDROOT
BRANCH   1  16
HETATM   16  N1  UNL     1      33.890  17.053 -17.594  1.00  0.00    -0.333 N 
ATOM     17  H12 UNL     1      32.952  17.212 -17.225  1.00  0.00     0.177 HD
ATOM     18  H11 UNL     1      33.993  16.486 -18.436  1.00  0.00     0.177 HD
ENDBRANCH   1  16
TORSDOF 1
ENDMDL
MODEL 3
REMARK VINA RESULT: -5.934488741      1.877      2.261
REMARK  1 active torsions:
REMARK  status: ('A' for Active; 'I' for Inactive)
REMARK    1  A    between atoms: N1_1  and  N2_4 
ROOT
HETATM    1  N2  UNL     1      39.567  18.001 -14.314  1.00  0.00    -0.199 N 
HETATM    2  C1  UNL     1      39.467  19.215 -14.932  1.00  0.00     0.201 A 
HETATM    3  S1  UNL     1      40.754  20.218 -14.933  1.00  0.00    -0.038 SA
HETATM    4  N3  UNL     1      38.319  19.574 -15.529  1.00  0.00    -0.317 N 
ATOM      5  H3  UNL     1      38.276  20.487 -15.983  1.00  0.00     0.170 HD
HETATM    6  C2  UNL     1      37.227  18.797 -15.562  1.00  0.00     0.126 A 
HETATM    7  N4  UNL     1      36.082  19.157 -16.160  1.00  0.00    -0.309 N 
ATOM      8  H4  UNL     1      36.043  20.071 -16.611  1.00  0.00     0.170 HD
HETATM    9  C3  UNL     1      34.981  18.383 -16.198  1.00  0.00     0.246 A 
HETATM   10  O1  UNL     1      33.923  18.776 -16.780  1.00  0.00    -0.268 OA
HETATM   11  C4  UNL     1      35.030  17.146 -15.590  1.00  0.00     0.075 A 
HETATM   12  C5  UNL     1      36.202  16.738 -14.959  1.00  0.00     0.026 A 
HETATM   13  C6  UNL     1      37.318  17.549 -14.933  1.00  0.00     0.078 A 
HETATM   14  C7  UNL     1      38.498  17.186 -14.321  1.00  0.00     0.282 A 
HETATM   15  O2  UNL     1      38.576  16.068 -13.757  1.00  0.00    -0.265 OA
ENDROOT
BRANCH   1  16
HETATM   16  N1  UNL     1      40.764  17.629 -13.692  1.00  0.00    -0.333 N 
ATOM     17  H12 UNL     1      40.931  16.667 -13.394  1.00  0.00     0.177 HD
ATOM     18  H11 UNL     1      41.492  18.324 -13.528  1.00  0.00     0.177 HD
ENDBRANCH   1  16
TORSDOF 1
ENDMDL
MODEL 4
REMARK VINA RESULT: -5.916413920      1.507      1.550
REMARK  1 active torsions:
REMARK  status: ('A' for Active; 'I' for Inactive)
REMARK    1  A    between atoms: N1_1  and  N2_4 
ROOT
HETATM    1  N2  UNL     1      38.456  17.230 -14.202  1.00  0.00    -0.199 N 
HETATM    2  C1  UNL     1      38.975  18.181 -15.034  1.00  0.00     0.201 A 
HETATM    3  S1  UNL     1      40.595  18.338 -15.154  1.00  0.00    -0.038 SA
HETATM    4  N3  UNL     1      38.157  18.976 -15.743  1.00  0.00    -0.317 N 
ATOM      5  H3  UNL     1      38.575  19.676 -16.355  1.00  0.00     0.170 HD
HETATM    6  C2  UNL     1      36.819  18.897 -15.688  1.00  0.00     0.126 A 
HETATM    7  N4  UNL     1      36.003  19.692 -16.397  1.00  0.00    -0.309 N 
ATOM      8  H4  UNL     1      36.426  20.391 -17.008  1.00  0.00     0.170 HD
HETATM    9  C3  UNL     1      34.660  19.621 -16.348  1.00  0.00     0.246 A 
HETATM   10  O1  UNL     1      33.936  20.399 -17.043  1.00  0.00    -0.268 OA
HETATM   11  C4  UNL     1      34.085  18.677 -15.524  1.00  0.00     0.075 A 
HETATM   12  C5  UNL     1      34.900  17.834 -14.772  1.00  0.00     0.026 A 
HETATM   13  C6  UNL     1      36.275  17.926 -14.839  1.00  0.00     0.078 A 
HETATM   14  C7  UNL     1      37.119  17.114 -14.113  1.00  0.00     0.282 A 
HETATM   15  O2  UNL     1      36.628  16.245 -13.353  1.00  0.00    -0.265 OA
ENDROOT
BRANCH   1  16
HETATM   16  N1  UNL     1      39.310  16.403 -13.464  1.00  0.00    -0.333 N 
ATOM     17  H12 UNL     1      39.858  15.669 -13.914  1.00  0.00     0.177 HD
ATOM     18  H11 UNL     1      39.395  16.527 -12.455  1.00  0.00     0.177 HD
ENDBRANCH   1  16
TORSDOF 1
ENDMDL
MODEL 5
REMARK VINA RESULT: -5.911295419      3.053      5.785
REMARK  1 active torsions:
REMARK  status: ('A' for Active; 'I' for Inactive)
REMARK    1  A    between atoms: N1_1  and  N2_4 
ROOT
HETATM    1  N2  UNL     1      37.004  18.441 -15.586  1.00  0.00    -0.199 N 
HETATM    2  C1  UNL     1      36.496  17.176 -15.495  1.00  0.00     0.201 A 
HETATM    3  S1  UNL     1      34.980  16.886 -16.025  1.00  0.00    -0.038 SA
HETATM    4  N3  UNL     1      37.240  16.187 -14.974  1.00  0.00    -0.317 N 
ATOM      5  H3  UNL     1      36.832  15.254 -14.920  1.00  0.00     0.170 HD
HETATM    6  C2  UNL     1      38.490  16.361 -14.521  1.00  0.00     0.126 A 
HETATM    7  N4  UNL     1      39.232  15.372 -14.001  1.00  0.00    -0.309 N 
ATOM      8  H4  UNL     1      38.820  14.440 -13.948  1.00  0.00     0.170 HD
HETATM    9  C3  UNL     1      40.487  15.537 -13.544  1.00  0.00     0.246 A 
HETATM   10  O1  UNL     1      41.143  14.563 -13.062  1.00  0.00    -0.268 OA
HETATM   11  C4  UNL     1      41.047  16.796 -13.614  1.00  0.00     0.075 A 
HETATM   12  C5  UNL     1      40.307  17.848 -14.147  1.00  0.00     0.026 A 
HETATM   13  C6  UNL     1      39.022  17.653 -14.609  1.00  0.00     0.078 A 
HETATM   14  C7  UNL     1      38.255  18.665 -15.145  1.00  0.00     0.282 A 
HETATM   15  O2  UNL     1      38.734  19.822 -15.222  1.00  0.00    -0.265 OA
ENDROOT
BRANCH   1  16
HETATM   16  N1  UNL     1      36.228  19.470 -16.129  1.00  0.00    -0.333 N 
ATOM     17  H12 UNL     1      35.652  20.071 -15.538  1.00  0.00     0.177 HD
ATOM     18  H11 UNL     1      36.229  19.634 -17.136  1.00  0.00     0.177 HD
ENDBRANCH   1  16
TORSDOF 1
ENDMDL
