MODEL 1
REMARK VINA RESULT: -6.811180523      0.000      0.000
REMARK  1 active torsions:
REMARK  status: ('A' for Active; 'I' for Inactive)
REMARK    1  A    between atoms: C1_2  and  C2_4 
ROOT
HETATM    1  C2  UNL     1     -35.653 -18.576 -16.054  1.00  0.00     0.167 A 
HETATM    2  N2  UNL     1     -36.884 -18.921 -15.646  1.00  0.00    -0.340 N 
ATOM      3  H2  UNL     1     -37.166 -19.900 -15.683  1.00  0.00     0.166 HD
HETATM    4  C3  UNL     1     -37.754 -18.000 -15.188  1.00  0.00     0.146 A 
HETATM    5  C4  UNL     1     -39.024 -18.335 -14.764  1.00  0.00     0.280 A 
HETATM    6  O2  UNL     1     -39.429 -19.524 -14.787  1.00  0.00    -0.265 OA
HETATM    7  N3  UNL     1     -39.880 -17.403 -14.309  1.00  0.00    -0.273 N 
ATOM      8  H3  UNL     1     -40.818 -17.652 -13.996  1.00  0.00     0.173 HD
HETATM    9  C5  UNL     1     -39.446 -16.125 -14.284  1.00  0.00     0.328 A 
HETATM   10  O3  UNL     1     -40.208 -15.206 -13.866  1.00  0.00    -0.247 OA
HETATM   11  N4  UNL     1     -38.209 -15.777 -14.694  1.00  0.00    -0.292 N 
ATOM     12  H4  UNL     1     -37.936 -14.795 -14.652  1.00  0.00     0.172 HD
HETATM   13  C6  UNL     1     -37.320 -16.677 -15.156  1.00  0.00     0.145 A 
HETATM   14  N5  UNL     1     -36.084 -16.326 -15.565  1.00  0.00    -0.305 N 
ATOM     15  H5  UNL     1     -35.800 -15.347 -15.527  1.00  0.00     0.170 HD
HETATM   16  C7  UNL     1     -35.219 -17.249 -16.022  1.00  0.00     0.279 A 
HETATM   17  O4  UNL     1     -34.068 -16.932 -16.404  1.00  0.00    -0.265 OA
ENDROOT
BRANCH   1  18
HETATM   18  C1  UNL     1     -34.693 -19.553 -16.554  1.00  0.00     0.287 C 
HETATM   19  N1  UNL     1     -34.541 -19.836 -17.936  1.00  0.00    -0.056 NA
HETATM   20  O1  UNL     1     -33.984 -20.153 -15.678  1.00  0.00    -0.269 OA
ENDBRANCH   1  18
TORSDOF 1
ENDMDL
MODEL 2
REMARK VINA RESULT: -6.617861853      1.284      5.521
REMARK  1 active torsions:
REMARK  status: ('A' for Active; 'I' for Inactive)
REMARK    1  A    between atoms: C1_2  and  C2_4 
ROOT
HETATM    1  C2  UNL     1     -38.055 -16.865 -14.993  1.00  0.00     0.167 A 
HETATM    2  N2  UNL     1     -36.942 -16.408 -15.588  1.00  0.00    -0.340 N 
ATOM      3  H2  UNL     1     -36.783 -15.402 -15.645  1.00  0.00     0.166 HD
HETATM    4  C3  UNL     1     -36.032 -17.251 -16.112  1.00  0.00     0.146 A 
HETATM    5  C4  UNL     1     -34.881 -16.800 -16.728  1.00  0.00     0.280 A 
HETATM    6  O2  UNL     1     -34.631 -15.574 -16.830  1.00  0.00    -0.265 OA
HETATM    7  N3  UNL     1     -33.983 -17.656 -17.245  1.00  0.00    -0.273 N 
ATOM      8  H3  UNL     1     -33.133 -17.323 -17.701  1.00  0.00     0.173 HD
HETATM    9  C5  UNL     1     -34.250 -18.975 -17.138  1.00  0.00     0.328 A 
HETATM   10  O3  UNL     1     -33.440 -19.826 -17.606  1.00  0.00    -0.247 OA
HETATM   11  N4  UNL     1     -35.368 -19.435 -16.539  1.00  0.00    -0.292 N 
ATOM     12  H4  UNL     1     -35.517 -20.443 -16.487  1.00  0.00     0.172 HD
HETATM   13  C6  UNL     1     -36.294 -18.615 -16.008  1.00  0.00     0.145 A 
HETATM   14  N5  UNL     1     -37.411 -19.077 -15.409  1.00  0.00    -0.305 N 
ATOM     15  H5  UNL     1     -37.571 -20.083 -15.352  1.00  0.00     0.170 HD
HETATM   16  C7  UNL     1     -38.317 -18.232 -14.889  1.00  0.00     0.279 A 
HETATM   17  O4  UNL     1     -39.358 -18.654 -14.331  1.00  0.00    -0.265 OA
ENDROOT
BRANCH   1  18
HETATM   18  C1  UNL     1     -39.056 -15.973 -14.418  1.00  0.00     0.287 C 
HETATM   19  N1  UNL     1     -40.377 -15.880 -14.927  1.00  0.00    -0.056 NA
HETATM   20  O1  UNL     1     -38.684 -15.269 -13.421  1.00  0.00    -0.269 OA
ENDBRANCH   1  18
TORSDOF 1
ENDMDL
MODEL 3
REMARK VINA RESULT: -6.599042094      1.404      1.412
REMARK  1 active torsions:
REMARK  status: ('A' for Active; 'I' for Inactive)
REMARK    1  A    between atoms: C1_2  and  C2_4 
ROOT
HETATM    1  C2  UNL     1     -35.944 -18.026 -15.669  1.00  0.00     0.167 A 
HETATM    2  N2  UNL     1     -37.069 -18.748 -15.548  1.00  0.00    -0.340 N 
ATOM      3  H2  UNL     1     -37.080 -19.714 -15.875  1.00  0.00     0.166 HD
HETATM    4  C3  UNL     1     -38.183 -18.222 -15.002  1.00  0.00     0.146 A 
HETATM    5  C4  UNL     1     -39.349 -18.949 -14.869  1.00  0.00     0.280 A 
HETATM    6  O2  UNL     1     -39.424 -20.142 -15.255  1.00  0.00    -0.265 OA
HETATM    7  N3  UNL     1     -40.452 -18.409 -14.322  1.00  0.00    -0.273 N 
ATOM      8  H3  UNL     1     -41.314 -18.946 -14.224  1.00  0.00     0.173 HD
HETATM    9  C5  UNL     1     -40.373 -17.127 -13.907  1.00  0.00     0.328 A 
HETATM   10  O3  UNL     1     -41.380 -16.567 -13.384  1.00  0.00    -0.247 OA
HETATM   11  N4  UNL     1     -39.243 -16.400 -14.028  1.00  0.00    -0.292 N 
ATOM     12  H4  UNL     1     -39.242 -15.436 -13.697  1.00  0.00     0.172 HD
HETATM   13  C6  UNL     1     -38.116 -16.900 -14.570  1.00  0.00     0.145 A 
HETATM   14  N5  UNL     1     -36.987 -16.172 -14.690  1.00  0.00    -0.305 N 
ATOM     15  H5  UNL     1     -36.975 -15.206 -14.362  1.00  0.00     0.170 HD
HETATM   16  C7  UNL     1     -35.878 -16.700 -15.236  1.00  0.00     0.279 A 
HETATM   17  O4  UNL     1     -34.825 -16.030 -15.351  1.00  0.00    -0.265 OA
ENDROOT
BRANCH   1  18
HETATM   18  C1  UNL     1     -34.725 -18.570 -16.256  1.00  0.00     0.287 C 
HETATM   19  N1  UNL     1     -33.769 -19.292 -15.497  1.00  0.00    -0.056 NA
HETATM   20  O1  UNL     1     -34.555 -18.364 -17.504  1.00  0.00    -0.269 OA
ENDBRANCH   1  18
TORSDOF 1
ENDMDL
MODEL 4
REMARK VINA RESULT: -6.241241653      1.704      3.043
REMARK  1 active torsions:
REMARK  status: ('A' for Active; 'I' for Inactive)
REMARK    1  A    between atoms: C1_2  and  C2_4 
ROOT
HETATM    1  C2  UNL     1     -36.390 -16.769 -15.536  1.00  0.00     0.167 A 
HETATM    2  N2  UNL     1     -37.435 -16.169 -14.944  1.00  0.00    -0.340 N 
ATOM      3  H2  UNL     1     -37.392 -15.169 -14.749  1.00  0.00     0.166 HD
HETATM    4  C3  UNL     1     -38.539 -16.861 -14.604  1.00  0.00     0.146 A 
HETATM    5  C4  UNL     1     -39.624 -16.262 -13.995  1.00  0.00     0.280 A 
HETATM    6  O2  UNL     1     -39.628 -15.035 -13.728  1.00  0.00    -0.265 OA
HETATM    7  N3  UNL     1     -40.718 -16.968 -13.661  1.00  0.00    -0.273 N 
ATOM      8  H3  UNL     1     -41.519 -16.525 -13.211  1.00  0.00     0.173 HD
HETATM    9  C5  UNL     1     -40.714 -18.288 -13.946  1.00  0.00     0.328 A 
HETATM   10  O3  UNL     1     -41.717 -19.002 -13.656  1.00  0.00    -0.247 OA
HETATM   11  N4  UNL     1     -39.665 -18.892 -14.542  1.00  0.00    -0.292 N 
ATOM     12  H4  UNL     1     -39.718 -19.892 -14.733  1.00  0.00     0.172 HD
HETATM   13  C6  UNL     1     -38.550 -18.224 -14.892  1.00  0.00     0.145 A 
HETATM   14  N5  UNL     1     -37.502 -18.830 -15.487  1.00  0.00    -0.305 N 
ATOM     15  H5  UNL     1     -37.544 -19.830 -15.684  1.00  0.00     0.170 HD
HETATM   16  C7  UNL     1     -36.401 -18.135 -15.825  1.00  0.00     0.279 A 
HETATM   17  O4  UNL     1     -35.423 -18.691 -16.378  1.00  0.00    -0.265 OA
ENDROOT
BRANCH   1  18
HETATM   18  C1  UNL     1     -35.184 -16.043 -15.915  1.00  0.00     0.287 C 
HETATM   19  N1  UNL     1     -34.731 -15.962 -17.256  1.00  0.00    -0.056 NA
HETATM   20  O1  UNL     1     -34.542 -15.475 -14.968  1.00  0.00    -0.269 OA
ENDBRANCH   1  18
TORSDOF 1
ENDMDL
MODEL 5
REMARK VINA RESULT: -6.209867574      1.675      5.559
REMARK  1 active torsions:
REMARK  status: ('A' for Active; 'I' for Inactive)
REMARK    1  A    between atoms: C1_2  and  C2_4 
ROOT
HETATM    1  C2  UNL     1     -39.289 -16.980 -13.992  1.00  0.00     0.167 A 
HETATM    2  N2  UNL     1     -38.010 -16.700 -13.695  1.00  0.00    -0.340 N 
ATOM      3  H2  UNL     1     -37.804 -16.068 -12.921  1.00  0.00     0.166 HD
HETATM    4  C3  UNL     1     -36.995 -17.237 -14.399  1.00  0.00     0.146 A 
HETATM    5  C4  UNL     1     -35.673 -16.961 -14.109  1.00  0.00     0.280 A 
HETATM    6  O2  UNL     1     -35.357 -16.189 -13.169  1.00  0.00    -0.265 OA
HETATM    7  N3  UNL     1     -34.672 -17.505 -14.822  1.00  0.00    -0.273 N 
ATOM      8  H3  UNL     1     -33.696 -17.300 -14.607  1.00  0.00     0.173 HD
HETATM    9  C5  UNL     1     -35.010 -18.334 -15.832  1.00  0.00     0.328 A 
HETATM   10  O3  UNL     1     -34.110 -18.875 -16.536  1.00  0.00    -0.247 OA
HETATM   11  N4  UNL     1     -36.295 -18.616 -16.130  1.00  0.00    -0.292 N 
ATOM     12  H4  UNL     1     -36.491 -19.250 -16.905  1.00  0.00     0.172 HD
HETATM   13  C6  UNL     1     -37.329 -18.094 -15.444  1.00  0.00     0.145 A 
HETATM   14  N5  UNL     1     -38.613 -18.378 -15.744  1.00  0.00    -0.305 N 
ATOM     15  H5  UNL     1     -38.820 -19.011 -16.517  1.00  0.00     0.170 HD
HETATM   16  C7  UNL     1     -39.623 -17.839 -15.040  1.00  0.00     0.279 A 
HETATM   17  O4  UNL     1     -40.820 -18.099 -15.312  1.00  0.00    -0.265 OA
ENDROOT
BRANCH   1  18
HETATM   18  C1  UNL     1     -40.407 -16.413 -13.246  1.00  0.00     0.287 C 
HETATM   19  N1  UNL     1     -40.995 -17.069 -12.135  1.00  0.00    -0.056 NA
HETATM   20  O1  UNL     1     -40.839 -15.280 -13.646  1.00  0.00    -0.269 OA
ENDBRANCH   1  18
TORSDOF 1
ENDMDL
