MODEL 1
REMARK VINA RESULT: -5.874845223      0.000      0.000
REMARK  0 active torsions:
REMARK  status: ('A' for Active; 'I' for Inactive)
REMARK       I    between atoms: C3_6  and  N2_7 
ROOT
HETATM    1  O1  UNL     1     -41.592 -18.281 -12.811  1.00  0.00    -0.271 OA
HETATM    2  C1  UNL     1     -40.825 -18.386 -13.819  1.00  0.00     0.243 C 
HETATM    3  C2  UNL     1     -40.182 -17.143 -14.321  1.00  0.00     0.241 C 
HETATM    4  N1  UNL     1     -38.780 -17.270 -14.546  1.00  0.00    -0.217 N 
ATOM      5  H1  UNL     1     -38.263 -16.445 -14.241  1.00  0.00     0.178 HD
HETATM    6  C3  UNL     1     -38.007 -18.174 -15.042  1.00  0.00     0.680 C 
HETATM    7  N2  UNL     1     -36.611 -17.869 -15.074  1.00  0.00    -0.215 N 
HETATM    8  C4  UNL     1     -35.857 -17.569 -13.861  1.00  0.00     0.160 C 
HETATM    9  C5  UNL     1     -35.338 -16.158 -13.990  1.00  0.00     0.134 C 
HETATM   10  N3  UNL     1     -34.871 -15.830 -15.294  1.00  0.00    -0.418 N 
ATOM     11  H3  UNL     1     -34.709 -14.866 -15.588  1.00  0.00     0.153 HD
HETATM   12  C6  UNL     1     -34.643 -16.939 -16.162  1.00  0.00     0.134 C 
HETATM   13  C7  UNL     1     -35.855 -17.838 -16.314  1.00  0.00     0.160 C 
HETATM   14  N4  UNL     1     -38.420 -19.436 -15.553  1.00  0.00    -0.141 N 
ATOM     15  H4  UNL     1     -37.792 -19.878 -16.224  1.00  0.00     0.189 HD
HETATM   16  C8  UNL     1     -39.624 -20.161 -15.233  1.00  0.00     0.341 C 
HETATM   17  O2  UNL     1     -39.762 -21.273 -15.760  1.00  0.00    -0.246 OA
HETATM   18  N5  UNL     1     -40.670 -19.705 -14.357  1.00  0.00    -0.277 N 
ATOM     19  H5  UNL     1     -41.376 -20.392 -14.092  1.00  0.00     0.173 HD
ENDROOT
TORSDOF 0
ENDMDL
MODEL 2
REMARK VINA RESULT: -5.670990929      2.652      5.598
REMARK  0 active torsions:
REMARK  status: ('A' for Active; 'I' for Inactive)
REMARK       I    between atoms: C3_6  and  N2_7 
ROOT
HETATM    1  O1  UNL     1     -34.091 -17.649 -16.818  1.00  0.00    -0.271 OA
HETATM    2  C1  UNL     1     -35.063 -17.195 -16.137  1.00  0.00     0.243 C 
HETATM    3  C2  UNL     1     -36.354 -16.992 -16.844  1.00  0.00     0.241 C 
HETATM    4  N1  UNL     1     -37.479 -17.534 -16.155  1.00  0.00    -0.217 N 
ATOM      5  H1  UNL     1     -38.137 -17.990 -16.788  1.00  0.00     0.178 HD
HETATM    6  C3  UNL     1     -37.867 -17.589 -14.928  1.00  0.00     0.680 C 
HETATM    7  N2  UNL     1     -39.107 -18.255 -14.681  1.00  0.00    -0.215 N 
HETATM    8  C4  UNL     1     -39.320 -19.653 -15.046  1.00  0.00     0.160 C 
HETATM    9  C5  UNL     1     -40.437 -19.688 -16.060  1.00  0.00     0.134 C 
HETATM   10  N3  UNL     1     -41.504 -18.790 -15.779  1.00  0.00    -0.418 N 
ATOM     11  H3  UNL     1     -42.204 -18.540 -16.478  1.00  0.00     0.153 HD
HETATM   12  C6  UNL     1     -41.529 -18.264 -14.452  1.00  0.00     0.134 C 
HETATM   13  C7  UNL     1     -40.233 -17.586 -14.053  1.00  0.00     0.160 C 
HETATM   14  N4  UNL     1     -37.173 -17.048 -13.810  1.00  0.00    -0.141 N 
ATOM     15  H4  UNL     1     -37.738 -16.838 -12.987  1.00  0.00     0.189 HD
HETATM   16  C8  UNL     1     -35.764 -16.762 -13.705  1.00  0.00     0.341 C 
HETATM   17  O2  UNL     1     -35.360 -16.337 -12.615  1.00  0.00    -0.246 OA
HETATM   18  N5  UNL     1     -34.794 -16.930 -14.755  1.00  0.00    -0.277 N 
ATOM     19  H5  UNL     1     -33.814 -16.851 -14.488  1.00  0.00     0.173 HD
ENDROOT
TORSDOF 0
ENDMDL
MODEL 3
REMARK VINA RESULT: -5.595021561      2.469      3.717
REMARK  0 active torsions:
REMARK  status: ('A' for Active; 'I' for Inactive)
REMARK       I    between atoms: C3_6  and  N2_7 
ROOT
HETATM    1  O1  UNL     1     -42.252 -16.029 -15.998  1.00  0.00    -0.271 OA
HETATM    2  C1  UNL     1     -41.343 -16.122 -15.114  1.00  0.00     0.243 C 
HETATM    3  C2  UNL     1     -40.574 -17.392 -15.059  1.00  0.00     0.241 C 
HETATM    4  N1  UNL     1     -39.161 -17.208 -15.004  1.00  0.00    -0.217 N 
ATOM      5  H1  UNL     1     -38.661 -17.879 -15.587  1.00  0.00     0.178 HD
HETATM    6  C3  UNL     1     -38.362 -16.400 -14.397  1.00  0.00     0.680 C 
HETATM    7  N2  UNL     1     -36.966 -16.582 -14.641  1.00  0.00    -0.215 N 
HETATM    8  C4  UNL     1     -36.397 -16.494 -15.983  1.00  0.00     0.160 C 
HETATM    9  C5  UNL     1     -35.801 -17.841 -16.309  1.00  0.00     0.134 C 
HETATM   10  N3  UNL     1     -35.121 -18.453 -15.219  1.00  0.00    -0.418 N 
ATOM     11  H3  UNL     1     -34.871 -19.442 -15.219  1.00  0.00     0.153 HD
HETATM   12  C6  UNL     1     -34.811 -17.589 -14.126  1.00  0.00     0.134 C 
HETATM   13  C7  UNL     1     -36.024 -16.867 -13.572  1.00  0.00     0.160 C 
HETATM   14  N4  UNL     1     -38.748 -15.353 -13.514  1.00  0.00    -0.141 N 
ATOM     15  H4  UNL     1     -38.043 -15.047 -12.842  1.00  0.00     0.189 HD
HETATM   16  C8  UNL     1     -40.018 -14.675 -13.457  1.00  0.00     0.341 C 
HETATM   17  O2  UNL     1     -40.123 -13.754 -12.638  1.00  0.00    -0.246 OA
HETATM   18  N5  UNL     1     -41.167 -14.978 -14.270  1.00  0.00    -0.277 N 
ATOM     19  H5  UNL     1     -41.936 -14.309 -14.241  1.00  0.00     0.173 HD
ENDROOT
TORSDOF 0
ENDMDL
MODEL 4
REMARK VINA RESULT: -5.571137679      2.049      2.802
REMARK  0 active torsions:
REMARK  status: ('A' for Active; 'I' for Inactive)
REMARK       I    between atoms: C3_6  and  N2_7 
ROOT
HETATM    1  O1  UNL     1     -40.777 -13.818 -11.997  1.00  0.00    -0.271 OA
HETATM    2  C1  UNL     1     -40.531 -14.756 -12.818  1.00  0.00     0.243 C 
HETATM    3  C2  UNL     1     -39.652 -14.438 -13.973  1.00  0.00     0.241 C 
HETATM    4  N1  UNL     1     -38.606 -15.385 -14.180  1.00  0.00    -0.217 N 
ATOM      5  H1  UNL     1     -37.723 -14.938 -14.427  1.00  0.00     0.178 HD
HETATM    6  C3  UNL     1     -38.505 -16.668 -14.129  1.00  0.00     0.680 C 
HETATM    7  N2  UNL     1     -37.218 -17.218 -14.419  1.00  0.00    -0.215 N 
HETATM    8  C4  UNL     1     -36.034 -16.868 -13.639  1.00  0.00     0.160 C 
HETATM    9  C5  UNL     1     -35.059 -16.197 -14.575  1.00  0.00     0.134 C 
HETATM   10  N3  UNL     1     -34.988 -16.796 -15.864  1.00  0.00    -0.418 N 
ATOM     11  H3  UNL     1     -34.556 -16.326 -16.660  1.00  0.00     0.153 HD
HETATM   12  C6  UNL     1     -35.561 -18.099 -15.968  1.00  0.00     0.134 C 
HETATM   13  C7  UNL     1     -37.005 -18.156 -15.507  1.00  0.00     0.160 C 
HETATM   14  N4  UNL     1     -39.554 -17.575 -13.812  1.00  0.00    -0.141 N 
ATOM     15  H4  UNL     1     -39.445 -18.530 -14.157  1.00  0.00     0.189 HD
HETATM   16  C8  UNL     1     -40.753 -17.303 -13.060  1.00  0.00     0.341 C 
HETATM   17  O2  UNL     1     -41.515 -18.257 -12.859  1.00  0.00    -0.246 OA
HETATM   18  N5  UNL     1     -41.136 -16.022 -12.527  1.00  0.00    -0.277 N 
ATOM     19  H5  UNL     1     -41.920 -16.014 -11.875  1.00  0.00     0.173 HD
ENDROOT
TORSDOF 0
ENDMDL
MODEL 5
REMARK VINA RESULT: -5.468518682      1.357      2.895
REMARK  0 active torsions:
REMARK  status: ('A' for Active; 'I' for Inactive)
REMARK       I    between atoms: C3_6  and  N2_7 
ROOT
HETATM    1  O1  UNL     1     -41.302 -20.634 -16.955  1.00  0.00    -0.271 OA
HETATM    2  C1  UNL     1     -40.844 -19.893 -16.030  1.00  0.00     0.243 C 
HETATM    3  C2  UNL     1     -39.575 -20.315 -15.382  1.00  0.00     0.241 C 
HETATM    4  N1  UNL     1     -38.609 -19.273 -15.274  1.00  0.00    -0.217 N 
ATOM      5  H1  UNL     1     -37.664 -19.599 -15.478  1.00  0.00     0.178 HD
HETATM    6  C3  UNL     1     -38.638 -18.019 -14.980  1.00  0.00     0.680 C 
HETATM    7  N2  UNL     1     -37.385 -17.332 -14.994  1.00  0.00    -0.215 N 
HETATM    8  C4  UNL     1     -36.554 -17.263 -16.192  1.00  0.00     0.160 C 
HETATM    9  C5  UNL     1     -35.249 -17.952 -15.875  1.00  0.00     0.134 C 
HETATM   10  N3  UNL     1     -34.751 -17.679 -14.570  1.00  0.00    -0.418 N 
ATOM     11  H3  UNL     1     -34.016 -18.241 -14.139  1.00  0.00     0.153 HD
HETATM   12  C6  UNL     1     -35.347 -16.565 -13.906  1.00  0.00     0.134 C 
HETATM   13  C7  UNL     1     -36.858 -16.661 -13.818  1.00  0.00     0.160 C 
HETATM   14  N4  UNL     1     -39.800 -17.268 -14.649  1.00  0.00    -0.141 N 
ATOM     15  H4  UNL     1     -39.648 -16.421 -14.099  1.00  0.00     0.189 HD
HETATM   16  C8  UNL     1     -41.166 -17.563 -14.998  1.00  0.00     0.341 C 
HETATM   17  O2  UNL     1     -42.023 -16.743 -14.646  1.00  0.00    -0.246 OA
HETATM   18  N5  UNL     1     -41.615 -18.726 -15.719  1.00  0.00    -0.277 N 
ATOM     19  H5  UNL     1     -42.582 -18.717 -16.042  1.00  0.00     0.173 HD
ENDROOT
TORSDOF 0
ENDMDL
