MODEL 1
REMARK VINA RESULT: -7.588924046      0.000      0.000
REMARK  2 active torsions:
REMARK  status: ('A' for Active; 'I' for Inactive)
REMARK    1  A    between atoms: C4_8  and  N2_9 
REMARK    2  A    between atoms: N2_9  and  C5_11 
ROOT
HETATM    1  N2  UNL     1     -36.124 -16.332 -15.389  1.00  0.00    -0.199 N 
ATOM      2  H2  UNL     1     -35.470 -15.778 -14.835  1.00  0.00     0.183 HD
ENDROOT
BRANCH   1   3
HETATM    3  C4  UNL     1     -35.738 -16.885 -16.631  1.00  0.00     0.141 C 
HETATM    4  C3  UNL     1     -34.905 -17.940 -16.617  1.00  0.00     0.121 A 
HETATM    5  C2  UNL     1     -34.337 -18.601 -15.459  1.00  0.00     0.277 A 
HETATM    6  N5  UNL     1     -34.430 -18.603 -17.771  1.00  0.00    -0.303 N 
HETATM    7  N1  UNL     1     -33.516 -19.665 -15.909  1.00  0.00    -0.274 N 
HETATM    8  O2  UNL     1     -34.546 -18.275 -14.261  1.00  0.00    -0.266 OA
HETATM    9  C1  UNL     1     -33.584 -19.652 -17.324  1.00  0.00     0.327 A 
ATOM     10  H1  UNL     1     -32.982 -20.312 -15.329  1.00  0.00     0.173 HD
HETATM   11  O1  UNL     1     -32.997 -20.438 -18.116  1.00  0.00    -0.247 OA
ATOM     12  H5  UNL     1     -34.652 -18.372 -18.739  1.00  0.00     0.171 HD
ENDBRANCH   1   3
BRANCH   1  13
HETATM   13  C5  UNL     1     -37.320 -16.546 -14.977  1.00  0.00     0.684 A 
HETATM   14  N3  UNL     1     -38.130 -15.600 -14.474  1.00  0.00    -0.201 N 
HETATM   15  C6  UNL     1     -39.373 -15.851 -14.053  1.00  0.00     0.111 A 
ATOM     16  H3  UNL     1     -37.779 -14.644 -14.411  1.00  0.00     0.183 HD
HETATM   17  C7  UNL     1     -39.862 -17.131 -14.130  1.00  0.00     0.092 A 
HETATM   18  C8  UNL     1     -39.041 -18.097 -14.641  1.00  0.00     0.260 A 
HETATM   19  O3  UNL     1     -39.416 -19.291 -14.745  1.00  0.00    -0.268 OA
HETATM   20  N4  UNL     1     -37.797 -17.801 -15.054  1.00  0.00    -0.156 N 
ATOM     21  H4  UNL     1     -37.204 -18.540 -15.431  1.00  0.00     0.187 HD
ENDBRANCH   1  13
TORSDOF 2
ENDMDL
MODEL 2
REMARK VINA RESULT: -7.498438595      1.175      1.651
REMARK  2 active torsions:
REMARK  status: ('A' for Active; 'I' for Inactive)
REMARK    1  A    between atoms: C4_8  and  N2_9 
REMARK    2  A    between atoms: N2_9  and  C5_11 
ROOT
HETATM    1  N2  UNL     1     -36.183 -16.284 -15.373  1.00  0.00    -0.199 N 
ATOM      2  H2  UNL     1     -35.561 -15.675 -14.843  1.00  0.00     0.183 HD
ENDROOT
BRANCH   1   3
HETATM    3  C4  UNL     1     -35.779 -16.836 -16.610  1.00  0.00     0.141 C 
HETATM    4  C3  UNL     1     -34.959 -17.900 -16.584  1.00  0.00     0.121 A 
HETATM    5  C2  UNL     1     -34.421 -18.573 -15.419  1.00  0.00     0.277 A 
HETATM    6  N5  UNL     1     -34.469 -18.564 -17.732  1.00  0.00    -0.303 N 
HETATM    7  N1  UNL     1     -33.604 -19.644 -15.857  1.00  0.00    -0.274 N 
HETATM    8  O2  UNL     1     -34.649 -18.249 -14.224  1.00  0.00    -0.266 OA
HETATM    9  C1  UNL     1     -33.644 -19.624 -17.273  1.00  0.00     0.327 A 
ATOM     10  H1  UNL     1     -33.088 -20.299 -15.269  1.00  0.00     0.173 HD
HETATM   11  O1  UNL     1     -33.050 -20.413 -18.057  1.00  0.00    -0.247 OA
ATOM     12  H5  UNL     1     -34.669 -18.326 -18.703  1.00  0.00     0.171 HD
ENDBRANCH   1   3
BRANCH   1  13
HETATM   13  C5  UNL     1     -37.356 -16.571 -14.937  1.00  0.00     0.684 A 
HETATM   14  N3  UNL     1     -37.907 -17.793 -14.993  1.00  0.00    -0.201 N 
HETATM   15  C6  UNL     1     -39.132 -18.064 -14.530  1.00  0.00     0.111 A 
ATOM     16  H3  UNL     1     -37.366 -18.551 -15.409  1.00  0.00     0.183 HD
HETATM   17  C7  UNL     1     -39.874 -17.057 -13.968  1.00  0.00     0.092 A 
HETATM   18  C8  UNL     1     -39.317 -15.811 -13.909  1.00  0.00     0.260 A 
HETATM   19  O3  UNL     1     -39.933 -14.837 -13.409  1.00  0.00    -0.268 OA
HETATM   20  N4  UNL     1     -38.081 -15.582 -14.387  1.00  0.00    -0.156 N 
ATOM     21  H4  UNL     1     -37.688 -14.642 -14.332  1.00  0.00     0.187 HD
ENDBRANCH   1  13
TORSDOF 2
ENDMDL
MODEL 3
REMARK VINA RESULT: -7.417774369      1.579      2.215
REMARK  2 active torsions:
REMARK  status: ('A' for Active; 'I' for Inactive)
REMARK    1  A    between atoms: C4_8  and  N2_9 
REMARK    2  A    between atoms: N2_9  and  C5_11 
ROOT
HETATM    1  N2  UNL     1     -35.813 -16.820 -14.580  1.00  0.00    -0.199 N 
ATOM      2  H2  UNL     1     -35.337 -15.922 -14.673  1.00  0.00     0.183 HD
ENDROOT
BRANCH   1   3
HETATM    3  C4  UNL     1     -35.080 -18.026 -14.504  1.00  0.00     0.141 C 
HETATM    4  C3  UNL     1     -34.457 -18.453 -15.616  1.00  0.00     0.121 A 
HETATM    5  C2  UNL     1     -34.440 -17.817 -16.919  1.00  0.00     0.277 A 
HETATM    6  N5  UNL     1     -33.687 -19.635 -15.701  1.00  0.00    -0.303 N 
HETATM    7  N1  UNL     1     -33.661 -18.612 -17.795  1.00  0.00    -0.274 N 
HETATM    8  O2  UNL     1     -35.024 -16.740 -17.208  1.00  0.00    -0.266 OA
HETATM    9  C1  UNL     1     -33.208 -19.719 -17.035  1.00  0.00     0.327 A 
ATOM     10  H1  UNL     1     -33.465 -18.425 -18.778  1.00  0.00     0.173 HD
HETATM   11  O1  UNL     1     -32.483 -20.668 -17.440  1.00  0.00    -0.247 OA
ATOM     12  H5  UNL     1     -33.509 -20.299 -14.949  1.00  0.00     0.171 HD
ENDBRANCH   1   3
BRANCH   1  13
HETATM   13  C5  UNL     1     -37.093 -16.885 -14.528  1.00  0.00     0.684 A 
HETATM   14  N3  UNL     1     -37.811 -17.965 -14.874  1.00  0.00    -0.201 N 
HETATM   15  C6  UNL     1     -39.146 -18.006 -14.810  1.00  0.00     0.111 A 
ATOM     16  H3  UNL     1     -37.315 -18.794 -15.202  1.00  0.00     0.183 HD
HETATM   17  C7  UNL     1     -39.830 -16.901 -14.372  1.00  0.00     0.092 A 
HETATM   18  C8  UNL     1     -39.103 -15.799 -14.019  1.00  0.00     0.260 A 
HETATM   19  O3  UNL     1     -39.657 -14.749 -13.607  1.00  0.00    -0.268 OA
HETATM   20  N4  UNL     1     -37.761 -15.801 -14.099  1.00  0.00    -0.156 N 
ATOM     21  H4  UNL     1     -37.241 -14.965 -13.829  1.00  0.00     0.187 HD
ENDBRANCH   1  13
TORSDOF 2
ENDMDL
MODEL 4
REMARK VINA RESULT: -7.384930331      1.056      1.473
REMARK  2 active torsions:
REMARK  status: ('A' for Active; 'I' for Inactive)
REMARK    1  A    between atoms: C4_8  and  N2_9 
REMARK    2  A    between atoms: N2_9  and  C5_11 
ROOT
HETATM    1  N2  UNL     1     -35.884 -16.712 -14.667  1.00  0.00    -0.199 N 
ATOM      2  H2  UNL     1     -35.406 -15.824 -14.827  1.00  0.00     0.183 HD
ENDROOT
BRANCH   1   3
HETATM    3  C4  UNL     1     -35.155 -17.917 -14.546  1.00  0.00     0.141 C 
HETATM    4  C3  UNL     1     -34.513 -18.374 -15.635  1.00  0.00     0.121 A 
HETATM    5  C2  UNL     1     -34.471 -17.774 -16.953  1.00  0.00     0.277 A 
HETATM    6  N5  UNL     1     -33.745 -19.560 -15.675  1.00  0.00    -0.303 N 
HETATM    7  N1  UNL     1     -33.678 -18.593 -17.794  1.00  0.00    -0.274 N 
HETATM    8  O2  UNL     1     -35.046 -16.703 -17.282  1.00  0.00    -0.266 OA
HETATM    9  C1  UNL     1     -33.242 -19.680 -16.997  1.00  0.00     0.327 A 
ATOM     10  H1  UNL     1     -33.463 -18.432 -18.778  1.00  0.00     0.173 HD
HETATM   11  O1  UNL     1     -32.512 -20.641 -17.363  1.00  0.00    -0.247 OA
ATOM     12  H5  UNL     1     -33.583 -20.205 -14.902  1.00  0.00     0.171 HD
ENDBRANCH   1   3
BRANCH   1  13
HETATM   13  C5  UNL     1     -37.162 -16.765 -14.570  1.00  0.00     0.684 A 
HETATM   14  N3  UNL     1     -37.946 -15.710 -14.297  1.00  0.00    -0.201 N 
HETATM   15  C6  UNL     1     -39.277 -15.794 -14.203  1.00  0.00     0.111 A 
ATOM     16  H3  UNL     1     -37.505 -14.801 -14.156  1.00  0.00     0.183 HD
HETATM   17  C7  UNL     1     -39.887 -17.008 -14.389  1.00  0.00     0.092 A 
HETATM   18  C8  UNL     1     -39.093 -18.085 -14.666  1.00  0.00     0.260 A 
HETATM   19  O3  UNL     1     -39.576 -19.230 -14.850  1.00  0.00    -0.268 OA
HETATM   20  N4  UNL     1     -37.757 -17.956 -14.753  1.00  0.00    -0.156 N 
ATOM     21  H4  UNL     1     -37.186 -18.776 -14.960  1.00  0.00     0.187 HD
ENDBRANCH   1  13
TORSDOF 2
ENDMDL
MODEL 5
REMARK VINA RESULT: -7.121094584      1.630      1.908
REMARK  2 active torsions:
REMARK  status: ('A' for Active; 'I' for Inactive)
REMARK    1  A    between atoms: C4_8  and  N2_9 
REMARK    2  A    between atoms: N2_9  and  C5_11 
ROOT
HETATM    1  N2  UNL     1     -37.270 -16.427 -14.910  1.00  0.00    -0.199 N 
ATOM      2  H2  UNL     1     -36.647 -15.663 -15.172  1.00  0.00     0.183 HD
ENDROOT
BRANCH   1   3
HETATM    3  C4  UNL     1     -36.927 -17.770 -15.185  1.00  0.00     0.141 C 
HETATM    4  C3  UNL     1     -35.898 -17.997 -16.020  1.00  0.00     0.121 A 
HETATM    5  C2  UNL     1     -35.073 -17.015 -16.693  1.00  0.00     0.277 A 
HETATM    6  N5  UNL     1     -35.434 -19.280 -16.391  1.00  0.00    -0.303 N 
HETATM    7  N1  UNL     1     -34.109 -17.698 -17.474  1.00  0.00    -0.274 N 
HETATM    8  O2  UNL     1     -35.203 -15.766 -16.592  1.00  0.00    -0.266 OA
HETATM    9  C1  UNL     1     -34.344 -19.082 -17.278  1.00  0.00     0.327 A 
ATOM     10  H1  UNL     1     -33.388 -17.278 -18.061  1.00  0.00     0.173 HD
HETATM   11  O1  UNL     1     -33.703 -20.037 -17.795  1.00  0.00    -0.247 OA
ATOM     12  H5  UNL     1     -35.811 -20.175 -16.082  1.00  0.00     0.171 HD
ENDBRANCH   1   3
BRANCH   1  13
HETATM   13  C5  UNL     1     -38.387 -16.196 -14.322  1.00  0.00     0.684 A 
HETATM   14  N3  UNL     1     -38.832 -14.973 -13.993  1.00  0.00    -0.201 N 
HETATM   15  C6  UNL     1     -40.001 -14.761 -13.381  1.00  0.00     0.111 A 
ATOM     16  H3  UNL     1     -38.249 -14.166 -14.222  1.00  0.00     0.183 HD
HETATM   17  C7  UNL     1     -40.796 -15.832 -13.065  1.00  0.00     0.092 A 
HETATM   18  C8  UNL     1     -40.347 -17.080 -13.398  1.00  0.00     0.260 A 
HETATM   19  O3  UNL     1     -41.018 -18.111 -13.143  1.00  0.00    -0.268 OA
HETATM   20  N4  UNL     1     -39.165 -17.248 -14.014  1.00  0.00    -0.156 N 
ATOM     21  H4  UNL     1     -38.852 -18.190 -14.251  1.00  0.00     0.187 HD
ENDBRANCH   1  13
TORSDOF 2
ENDMDL
