MODEL 1
REMARK VINA RESULT: -7.157047836      0.000      0.000
REMARK  2 active torsions:
REMARK  status: ('A' for Active; 'I' for Inactive)
REMARK    1  A    between atoms: C1_2  and  N1_3 
REMARK    2  A    between atoms: N1_3  and  C2_5 
ROOT
HETATM    1  C2  UNL     1     -34.186 -17.602 -17.333  1.00  0.00     0.131 A 
HETATM    2  N2  UNL     1     -33.611 -18.753 -17.729  1.00  0.00    -0.293 N 
ATOM      3  H2  UNL     1     -33.321 -18.857 -18.701  1.00  0.00     0.172 HD
HETATM    4  C3  UNL     1     -33.411 -19.770 -16.868  1.00  0.00     0.327 A 
HETATM    5  O2  UNL     1     -32.869 -20.822 -17.291  1.00  0.00    -0.247 OA
HETATM    6  N3  UNL     1     -33.775 -19.691 -15.572  1.00  0.00    -0.293 N 
ATOM      7  H3  UNL     1     -33.614 -20.476 -14.940  1.00  0.00     0.172 HD
HETATM    8  C4  UNL     1     -34.356 -18.559 -15.124  1.00  0.00     0.132 A 
HETATM    9  N4  UNL     1     -34.724 -18.477 -13.818  1.00  0.00    -0.293 N 
ATOM     10  H4  UNL     1     -34.572 -19.249 -13.168  1.00  0.00     0.172 HD
HETATM   11  C5  UNL     1     -35.296 -17.330 -13.426  1.00  0.00     0.328 A 
HETATM   12  O3  UNL     1     -35.645 -17.229 -12.222  1.00  0.00    -0.247 OA
HETATM   13  N5  UNL     1     -35.511 -16.294 -14.259  1.00  0.00    -0.275 N 
ATOM     14  H5  UNL     1     -35.952 -15.447 -13.901  1.00  0.00     0.173 HD
HETATM   15  C6  UNL     1     -35.153 -16.358 -15.557  1.00  0.00     0.267 A 
HETATM   16  O4  UNL     1     -35.337 -15.412 -16.362  1.00  0.00    -0.267 OA
HETATM   17  C7  UNL     1     -34.564 -17.508 -16.007  1.00  0.00     0.120 A 
ENDROOT
BRANCH   1  18
HETATM   18  N1  UNL     1     -34.396 -16.616 -18.102  1.00  0.00    -0.319 N 
ATOM     19  H1  UNL     1     -35.353 -16.267 -18.162  1.00  0.00     0.169 HD
BRANCH  18  20
HETATM   20  C1  UNL     1     -33.424 -15.963 -18.880  1.00  0.00     0.354 C 
HETATM   21  O1  UNL     1     -33.209 -14.731 -18.885  1.00  0.00    -0.283 OA
ENDBRANCH  18  20
ENDBRANCH   1  18
TORSDOF 2
ENDMDL
MODEL 2
REMARK VINA RESULT: -6.719723775      1.156      3.422
REMARK  2 active torsions:
REMARK  status: ('A' for Active; 'I' for Inactive)
REMARK    1  A    between atoms: C1_2  and  N1_3 
REMARK    2  A    between atoms: N1_3  and  C2_5 
ROOT
HETATM    1  C2  UNL     1     -33.938 -18.364 -17.301  1.00  0.00     0.131 A 
HETATM    2  N2  UNL     1     -33.816 -17.386 -18.218  1.00  0.00    -0.293 N 
ATOM      3  H2  UNL     1     -33.490 -17.619 -19.156  1.00  0.00     0.172 HD
HETATM    4  C3  UNL     1     -34.116 -16.106 -17.923  1.00  0.00     0.327 A 
HETATM    5  O2  UNL     1     -33.984 -15.233 -18.817  1.00  0.00    -0.247 OA
HETATM    6  N3  UNL     1     -34.549 -15.737 -16.700  1.00  0.00    -0.293 N 
ATOM      7  H3  UNL     1     -34.767 -14.761 -16.501  1.00  0.00     0.172 HD
HETATM    8  C4  UNL     1     -34.688 -16.679 -15.745  1.00  0.00     0.132 A 
HETATM    9  N4  UNL     1     -35.125 -16.310 -14.511  1.00  0.00    -0.293 N 
ATOM     10  H4  UNL     1     -35.350 -15.339 -14.290  1.00  0.00     0.172 HD
HETATM   11  C5  UNL     1     -35.245 -17.286 -13.600  1.00  0.00     0.328 A 
HETATM   12  O3  UNL     1     -35.647 -16.969 -12.451  1.00  0.00    -0.247 OA
HETATM   13  N5  UNL     1     -34.955 -18.574 -13.861  1.00  0.00    -0.275 N 
ATOM     14  H5  UNL     1     -35.066 -19.271 -13.125  1.00  0.00     0.173 HD
HETATM   15  C6  UNL     1     -34.521 -18.958 -15.078  1.00  0.00     0.267 A 
HETATM   16  O4  UNL     1     -34.242 -20.150 -15.357  1.00  0.00    -0.267 OA
HETATM   17  C7  UNL     1     -34.381 -18.000 -16.044  1.00  0.00     0.120 A 
ENDROOT
BRANCH   1  18
HETATM   18  N1  UNL     1     -33.670 -19.583 -17.528  1.00  0.00    -0.319 N 
ATOM     19  H1  UNL     1     -34.412 -20.263 -17.360  1.00  0.00     0.169 HD
BRANCH  18  20
HETATM   20  C1  UNL     1     -32.438 -20.077 -17.991  1.00  0.00     0.354 C 
HETATM   21  O1  UNL     1     -31.639 -20.768 -17.323  1.00  0.00    -0.283 OA
ENDBRANCH  18  20
ENDBRANCH   1  18
TORSDOF 2
ENDMDL
MODEL 3
REMARK VINA RESULT: -6.109545296      1.804      1.804
REMARK  2 active torsions:
REMARK  status: ('A' for Active; 'I' for Inactive)
REMARK    1  A    between atoms: C1_2  and  N1_3 
REMARK    2  A    between atoms: N1_3  and  C2_5 
ROOT
HETATM    1  C2  UNL     1     -34.456 -17.441 -17.194  1.00  0.00     0.131 A 
HETATM    2  N2  UNL     1     -33.750 -18.527 -17.561  1.00  0.00    -0.293 N 
ATOM      3  H2  UNL     1     -32.898 -18.406 -18.108  1.00  0.00     0.172 HD
HETATM    4  C3  UNL     1     -34.145 -19.770 -17.220  1.00  0.00     0.327 A 
HETATM    5  O2  UNL     1     -33.448 -20.748 -17.588  1.00  0.00    -0.247 OA
HETATM    6  N3  UNL     1     -35.263 -19.991 -16.500  1.00  0.00    -0.293 N 
ATOM      7  H3  UNL     1     -35.543 -20.941 -16.256  1.00  0.00     0.172 HD
HETATM    8  C4  UNL     1     -36.008 -18.937 -16.108  1.00  0.00     0.132 A 
HETATM    9  N4  UNL     1     -37.136 -19.158 -15.381  1.00  0.00    -0.293 N 
ATOM     10  H4  UNL     1     -37.433 -20.100 -15.125  1.00  0.00     0.172 HD
HETATM   11  C5  UNL     1     -37.838 -18.074 -15.017  1.00  0.00     0.328 A 
HETATM   12  O3  UNL     1     -38.885 -18.253 -14.345  1.00  0.00    -0.247 OA
HETATM   13  N5  UNL     1     -37.472 -16.820 -15.340  1.00  0.00    -0.275 N 
ATOM     14  H5  UNL     1     -38.048 -16.036 -15.035  1.00  0.00     0.173 HD
HETATM   15  C6  UNL     1     -36.357 -16.583 -16.060  1.00  0.00     0.267 A 
HETATM   16  O4  UNL     1     -35.985 -15.426 -16.379  1.00  0.00    -0.267 OA
HETATM   17  C7  UNL     1     -35.605 -17.654 -16.456  1.00  0.00     0.120 A 
ENDROOT
BRANCH   1  18
HETATM   18  N1  UNL     1     -34.128 -16.252 -17.489  1.00  0.00    -0.319 N 
ATOM     19  H1  UNL     1     -34.418 -15.515 -16.846  1.00  0.00     0.169 HD
BRANCH  18  20
HETATM   20  C1  UNL     1     -33.400 -15.862 -18.626  1.00  0.00     0.354 C 
HETATM   21  O1  UNL     1     -33.241 -14.685 -19.015  1.00  0.00    -0.283 OA
ENDBRANCH  18  20
ENDBRANCH   1  18
TORSDOF 2
ENDMDL
MODEL 4
REMARK VINA RESULT: -6.062197790      1.994      3.741
REMARK  2 active torsions:
REMARK  status: ('A' for Active; 'I' for Inactive)
REMARK    1  A    between atoms: C1_2  and  N1_3 
REMARK    2  A    between atoms: N1_3  and  C2_5 
ROOT
HETATM    1  C2  UNL     1     -34.386 -18.553 -17.304  1.00  0.00     0.131 A 
HETATM    2  N2  UNL     1     -33.773 -17.491 -17.858  1.00  0.00    -0.293 N 
ATOM      3  H2  UNL     1     -32.952 -17.638 -18.444  1.00  0.00     0.172 HD
HETATM    4  C3  UNL     1     -34.223 -16.236 -17.654  1.00  0.00     0.327 A 
HETATM    5  O2  UNL     1     -33.613 -15.281 -18.195  1.00  0.00    -0.247 OA
HETATM    6  N3  UNL     1     -35.301 -15.980 -16.887  1.00  0.00    -0.293 N 
ATOM      7  H3  UNL     1     -35.621 -15.022 -16.746  1.00  0.00     0.172 HD
HETATM    8  C4  UNL     1     -35.952 -17.010 -16.309  1.00  0.00     0.132 A 
HETATM    9  N4  UNL     1     -37.041 -16.755 -15.535  1.00  0.00    -0.293 N 
ATOM     10  H4  UNL     1     -37.378 -15.804 -15.382  1.00  0.00     0.172 HD
HETATM   11  C5  UNL     1     -37.649 -17.815 -14.985  1.00  0.00     0.328 A 
HETATM   12  O3  UNL     1     -38.658 -17.604 -14.265  1.00  0.00    -0.247 OA
HETATM   13  N5  UNL     1     -37.227 -19.080 -15.168  1.00  0.00    -0.275 N 
ATOM     14  H5  UNL     1     -37.732 -19.846 -14.721  1.00  0.00     0.173 HD
HETATM   15  C6  UNL     1     -36.150 -19.352 -15.931  1.00  0.00     0.267 A 
HETATM   16  O4  UNL     1     -35.729 -20.520 -16.124  1.00  0.00    -0.267 OA
HETATM   17  C7  UNL     1     -35.494 -18.305 -16.516  1.00  0.00     0.120 A 
ENDROOT
BRANCH   1  18
HETATM   18  N1  UNL     1     -34.004 -19.752 -17.465  1.00  0.00    -0.319 N 
ATOM     19  H1  UNL     1     -34.667 -20.489 -17.225  1.00  0.00     0.169 HD
BRANCH  18  20
HETATM   20  C1  UNL     1     -32.744 -20.152 -17.944  1.00  0.00     0.354 C 
HETATM   21  O1  UNL     1     -31.824 -20.632 -17.246  1.00  0.00    -0.283 OA
ENDBRANCH  18  20
ENDBRANCH   1  18
TORSDOF 2
ENDMDL
MODEL 5
REMARK VINA RESULT: -6.010033846      3.275      4.682
REMARK  2 active torsions:
REMARK  status: ('A' for Active; 'I' for Inactive)
REMARK    1  A    between atoms: C1_2  and  N1_3 
REMARK    2  A    between atoms: N1_3  and  C2_5 
ROOT
HETATM    1  C2  UNL     1     -36.293 -18.487 -15.804  1.00  0.00     0.131 A 
HETATM    2  N2  UNL     1     -35.350 -17.536 -15.942  1.00  0.00    -0.293 N 
ATOM      3  H2  UNL     1     -34.430 -17.793 -16.297  1.00  0.00     0.172 HD
HETATM    4  C3  UNL     1     -35.598 -16.251 -15.620  1.00  0.00     0.327 A 
HETATM    5  O2  UNL     1     -34.682 -15.403 -15.768  1.00  0.00    -0.247 OA
HETATM    6  N3  UNL     1     -36.794 -15.852 -15.143  1.00  0.00    -0.293 N 
ATOM      7  H3  UNL     1     -36.957 -14.873 -14.905  1.00  0.00     0.172 HD
HETATM    8  C4  UNL     1     -37.773 -16.766 -14.986  1.00  0.00     0.132 A 
HETATM    9  N4  UNL     1     -38.981 -16.366 -14.506  1.00  0.00    -0.293 N 
ATOM     10  H4  UNL     1     -39.165 -15.393 -14.262  1.00  0.00     0.172 HD
HETATM   11  C5  UNL     1     -39.918 -17.316 -14.369  1.00  0.00     0.328 A 
HETATM   12  O3  UNL     1     -41.043 -16.970 -13.928  1.00  0.00    -0.247 OA
HETATM   13  N5  UNL     1     -39.704 -18.607 -14.681  1.00  0.00    -0.275 N 
ATOM     14  H5  UNL     1     -40.457 -19.284 -14.555  1.00  0.00     0.173 HD
HETATM   15  C6  UNL     1     -38.514 -19.022 -15.158  1.00  0.00     0.267 A 
HETATM   16  O4  UNL     1     -38.280 -20.219 -15.460  1.00  0.00    -0.267 OA
HETATM   17  C7  UNL     1     -37.524 -18.092 -15.317  1.00  0.00     0.120 A 
ENDROOT
BRANCH   1  18
HETATM   18  N1  UNL     1     -36.111 -19.709 -16.092  1.00  0.00    -0.319 N 
ATOM     19  H1  UNL     1     -36.912 -20.334 -16.001  1.00  0.00     0.169 HD
BRANCH  18  20
HETATM   20  C1  UNL     1     -34.900 -20.276 -16.527  1.00  0.00     0.354 C 
HETATM   21  O1  UNL     1     -33.803 -20.182 -15.933  1.00  0.00    -0.283 OA
ENDBRANCH  18  20
ENDBRANCH   1  18
TORSDOF 2
ENDMDL
