MODEL 1
REMARK VINA RESULT: -7.241264667      0.000      0.000
REMARK  2 active torsions:
REMARK  status: ('A' for Active; 'I' for Inactive)
REMARK    1  A    between atoms: N1_1  and  S1_4 
REMARK    2  A    between atoms: S1_4  and  C1_7 
ROOT
HETATM    1  C1  UNL     1     -36.328 -17.399 -15.404  1.00  0.00     0.228 A 
HETATM    2  N2  UNL     1     -35.855 -18.633 -15.512  1.00  0.00    -0.315 N 
ATOM      3  H2  UNL     1     -36.279 -19.365 -14.942  1.00  0.00     0.169 HD
HETATM    4  C2  UNL     1     -34.839 -18.969 -16.339  1.00  0.00     0.144 A 
HETATM    5  N3  UNL     1     -34.188 -20.110 -16.630  1.00  0.00    -0.292 N 
ATOM      6  H3  UNL     1     -34.391 -21.018 -16.214  1.00  0.00     0.172 HD
HETATM    7  C3  UNL     1     -33.231 -19.883 -17.548  1.00  0.00     0.326 A 
HETATM    8  O3  UNL     1     -32.432 -20.734 -18.048  1.00  0.00    -0.247 OA
HETATM    9  N4  UNL     1     -33.302 -18.569 -17.822  1.00  0.00    -0.301 N 
ATOM     10  H4  UNL     1     -32.696 -18.090 -18.489  1.00  0.00     0.171 HD
HETATM   11  C4  UNL     1     -34.269 -17.964 -17.110  1.00  0.00     0.149 A 
HETATM   12  C5  UNL     1     -34.751 -16.676 -17.007  1.00  0.00     0.278 A 
HETATM   13  O4  UNL     1     -34.242 -15.778 -17.695  1.00  0.00    -0.265 OA
HETATM   14  N5  UNL     1     -35.771 -16.423 -16.156  1.00  0.00    -0.296 N 
ATOM     15  H5  UNL     1     -36.130 -15.471 -16.080  1.00  0.00     0.171 HD
ENDROOT
BRANCH   1  16
HETATM   16  S1  UNL     1     -37.645 -17.050 -14.311  1.00  0.00     0.289 S 
HETATM   17  O1  UNL     1     -37.116 -16.898 -12.900  1.00  0.00    -0.198 OA
HETATM   18  O2  UNL     1     -38.637 -18.149 -14.413  1.00  0.00    -0.198 OA
BRANCH  16  19
HETATM   19  N1  UNL     1     -38.330 -15.518 -14.746  1.00  0.00    -0.322 N 
ATOM     20  H12 UNL     1     -39.003 -15.353 -15.494  1.00  0.00     0.169 HD
ATOM     21  H11 UNL     1     -37.926 -14.830 -14.110  1.00  0.00     0.169 HD
ENDBRANCH  16  19
ENDBRANCH   1  16
TORSDOF 2
ENDMDL
MODEL 2
REMARK VINA RESULT: -6.994299224      1.382      1.417
REMARK  2 active torsions:
REMARK  status: ('A' for Active; 'I' for Inactive)
REMARK    1  A    between atoms: N1_1  and  S1_4 
REMARK    2  A    between atoms: S1_4  and  C1_7 
ROOT
HETATM    1  C1  UNL     1     -37.523 -17.043 -15.192  1.00  0.00     0.228 A 
HETATM    2  N2  UNL     1     -37.203 -18.311 -15.414  1.00  0.00    -0.315 N 
ATOM      3  H2  UNL     1     -37.884 -19.031 -15.174  1.00  0.00     0.169 HD
HETATM    4  C2  UNL     1     -36.019 -18.695 -15.943  1.00  0.00     0.144 A 
HETATM    5  N3  UNL     1     -35.458 -19.875 -16.261  1.00  0.00    -0.292 N 
ATOM      6  H3  UNL     1     -35.903 -20.784 -16.135  1.00  0.00     0.172 HD
HETATM    7  C3  UNL     1     -34.227 -19.688 -16.770  1.00  0.00     0.326 A 
HETATM    8  O3  UNL     1     -33.421 -20.583 -17.174  1.00  0.00    -0.247 OA
HETATM    9  N4  UNL     1     -34.033 -18.359 -16.762  1.00  0.00    -0.301 N 
ATOM     10  H4  UNL     1     -33.183 -17.902 -17.091  1.00  0.00     0.171 HD
HETATM   11  C4  UNL     1     -35.099 -17.705 -16.266  1.00  0.00     0.149 A 
HETATM   12  C5  UNL     1     -35.420 -16.383 -16.039  1.00  0.00     0.278 A 
HETATM   13  O4  UNL     1     -34.599 -15.499 -16.326  1.00  0.00    -0.265 OA
HETATM   14  N5  UNL     1     -36.626 -16.082 -15.507  1.00  0.00    -0.296 N 
ATOM     15  H5  UNL     1     -36.866 -15.105 -15.339  1.00  0.00     0.171 HD
ENDROOT
BRANCH   1  16
HETATM   16  S1  UNL     1     -39.076 -16.632 -14.505  1.00  0.00     0.289 S 
HETATM   17  O1  UNL     1     -39.161 -17.143 -13.081  1.00  0.00    -0.198 OA
HETATM   18  O2  UNL     1     -40.134 -17.219 -15.365  1.00  0.00    -0.198 OA
BRANCH  16  19
HETATM   19  N1  UNL     1     -39.198 -14.906 -14.416  1.00  0.00    -0.322 N 
ATOM     20  H12 UNL     1     -40.050 -14.358 -14.540  1.00  0.00     0.169 HD
ATOM     21  H11 UNL     1     -38.260 -14.559 -14.217  1.00  0.00     0.169 HD
ENDBRANCH  16  19
ENDBRANCH   1  16
TORSDOF 2
ENDMDL
MODEL 3
REMARK VINA RESULT: -6.625615374      1.476      1.588
REMARK  2 active torsions:
REMARK  status: ('A' for Active; 'I' for Inactive)
REMARK    1  A    between atoms: N1_1  and  S1_4 
REMARK    2  A    between atoms: S1_4  and  C1_7 
ROOT
HETATM    1  C1  UNL     1     -34.959 -17.513 -14.720  1.00  0.00     0.228 A 
HETATM    2  N2  UNL     1     -34.434 -18.717 -14.896  1.00  0.00    -0.315 N 
ATOM      3  H2  UNL     1     -34.469 -19.380 -14.121  1.00  0.00     0.169 HD
HETATM    4  C2  UNL     1     -33.853 -19.111 -16.053  1.00  0.00     0.144 A 
HETATM    5  N3  UNL     1     -33.262 -20.240 -16.483  1.00  0.00    -0.292 N 
ATOM      6  H3  UNL     1     -33.147 -21.086 -15.926  1.00  0.00     0.172 HD
HETATM    7  C3  UNL     1     -32.844 -20.096 -17.754  1.00  0.00     0.326 A 
HETATM    8  O3  UNL     1     -32.248 -20.962 -18.467  1.00  0.00    -0.247 OA
HETATM    9  N4  UNL     1     -33.190 -18.846 -18.106  1.00  0.00    -0.301 N 
ATOM     10  H4  UNL     1     -33.005 -18.437 -19.022  1.00  0.00     0.171 HD
HETATM   11  C4  UNL     1     -33.811 -18.201 -17.102  1.00  0.00     0.149 A 
HETATM   12  C5  UNL     1     -34.353 -16.945 -16.930  1.00  0.00     0.278 A 
HETATM   13  O4  UNL     1     -34.315 -16.132 -17.866  1.00  0.00    -0.265 OA
HETATM   14  N5  UNL     1     -34.916 -16.629 -15.742  1.00  0.00    -0.296 N 
ATOM     15  H5  UNL     1     -35.319 -15.701 -15.614  1.00  0.00     0.171 HD
ENDROOT
BRANCH   1  16
HETATM   16  S1  UNL     1     -35.691 -17.084 -13.192  1.00  0.00     0.289 S 
HETATM   17  O1  UNL     1     -35.186 -18.006 -12.102  1.00  0.00    -0.198 OA
HETATM   18  O2  UNL     1     -37.165 -17.166 -13.344  1.00  0.00    -0.198 OA
BRANCH  16  19
HETATM   19  N1  UNL     1     -35.173 -15.487 -12.763  1.00  0.00    -0.322 N 
ATOM     20  H12 UNL     1     -34.987 -15.150 -11.819  1.00  0.00     0.169 HD
ATOM     21  H11 UNL     1     -35.095 -14.964 -13.636  1.00  0.00     0.169 HD
ENDBRANCH  16  19
ENDBRANCH   1  16
TORSDOF 2
ENDMDL
MODEL 4
REMARK VINA RESULT: -6.610633244      2.796      5.368
REMARK  2 active torsions:
REMARK  status: ('A' for Active; 'I' for Inactive)
REMARK    1  A    between atoms: N1_1  and  S1_4 
REMARK    2  A    between atoms: S1_4  and  C1_7 
ROOT
HETATM    1  C1  UNL     1     -36.607 -17.246 -15.521  1.00  0.00     0.228 A 
HETATM    2  N2  UNL     1     -37.203 -18.422 -15.664  1.00  0.00    -0.315 N 
ATOM      3  H2  UNL     1     -36.697 -19.166 -16.145  1.00  0.00     0.169 HD
HETATM    4  C2  UNL     1     -38.447 -18.684 -15.203  1.00  0.00     0.144 A 
HETATM    5  N3  UNL     1     -39.259 -19.756 -15.214  1.00  0.00    -0.292 N 
ATOM      6  H3  UNL     1     -39.026 -20.659 -15.628  1.00  0.00     0.172 HD
HETATM    7  C3  UNL     1     -40.422 -19.471 -14.600  1.00  0.00     0.326 A 
HETATM    8  O3  UNL     1     -41.410 -20.251 -14.431  1.00  0.00    -0.247 OA
HETATM    9  N4  UNL     1     -40.315 -18.191 -14.206  1.00  0.00    -0.301 N 
ATOM     10  H4  UNL     1     -41.045 -17.682 -13.707  1.00  0.00     0.171 HD
HETATM   11  C4  UNL     1     -39.126 -17.663 -14.549  1.00  0.00     0.149 A 
HETATM   12  C5  UNL     1     -38.517 -16.436 -14.395  1.00  0.00     0.278 A 
HETATM   13  O4  UNL     1     -39.123 -15.524 -13.812  1.00  0.00    -0.265 OA
HETATM   14  N5  UNL     1     -37.270 -16.255 -14.885  1.00  0.00    -0.296 N 
ATOM     15  H5  UNL     1     -36.818 -15.348 -14.771  1.00  0.00     0.171 HD
ENDROOT
BRANCH   1  16
HETATM   16  S1  UNL     1     -34.995 -16.992 -16.147  1.00  0.00     0.289 S 
HETATM   17  O1  UNL     1     -34.014 -17.889 -15.422  1.00  0.00    -0.198 OA
HETATM   18  O2  UNL     1     -34.655 -15.556 -15.983  1.00  0.00    -0.198 OA
BRANCH  16  19
HETATM   19  N1  UNL     1     -34.969 -17.477 -17.810  1.00  0.00    -0.322 N 
ATOM     20  H12 UNL     1     -34.344 -18.168 -18.224  1.00  0.00     0.169 HD
ATOM     21  H11 UNL     1     -35.696 -16.936 -18.280  1.00  0.00     0.169 HD
ENDBRANCH  16  19
ENDBRANCH   1  16
TORSDOF 2
ENDMDL
MODEL 5
REMARK VINA RESULT: -6.505348635      2.614      6.068
REMARK  2 active torsions:
REMARK  status: ('A' for Active; 'I' for Inactive)
REMARK    1  A    between atoms: N1_1  and  S1_4 
REMARK    2  A    between atoms: S1_4  and  C1_7 
ROOT
HETATM    1  C1  UNL     1     -36.521 -17.421 -15.543  1.00  0.00     0.228 A 
HETATM    2  N2  UNL     1     -36.999 -16.286 -15.052  1.00  0.00    -0.315 N 
ATOM      3  H2  UNL     1     -36.394 -15.465 -15.051  1.00  0.00     0.169 HD
HETATM    4  C2  UNL     1     -38.249 -16.163 -14.550  1.00  0.00     0.144 A 
HETATM    5  N3  UNL     1     -38.961 -15.159 -14.008  1.00  0.00    -0.292 N 
ATOM      6  H3  UNL     1     -38.619 -14.208 -13.874  1.00  0.00     0.172 HD
HETATM    7  C3  UNL     1     -40.190 -15.587 -13.666  1.00  0.00     0.326 A 
HETATM    8  O3  UNL     1     -41.118 -14.903 -13.131  1.00  0.00    -0.247 OA
HETATM    9  N4  UNL     1     -40.227 -16.885 -14.010  1.00  0.00    -0.301 N 
ATOM     10  H4  UNL     1     -41.036 -17.491 -13.874  1.00  0.00     0.171 HD
HETATM   11  C4  UNL     1     -39.065 -17.287 -14.556  1.00  0.00     0.149 A 
HETATM   12  C5  UNL     1     -38.579 -18.473 -15.064  1.00  0.00     0.278 A 
HETATM   13  O4  UNL     1     -39.307 -19.478 -15.068  1.00  0.00    -0.265 OA
HETATM   14  N5  UNL     1     -37.317 -18.513 -15.547  1.00  0.00    -0.296 N 
ATOM     15  H5  UNL     1     -36.957 -19.390 -15.924  1.00  0.00     0.171 HD
ENDROOT
BRANCH   1  16
HETATM   16  S1  UNL     1     -34.892 -17.494 -16.172  1.00  0.00     0.289 S 
HETATM   17  O1  UNL     1     -33.999 -18.241 -15.204  1.00  0.00    -0.198 OA
HETATM   18  O2  UNL     1     -34.420 -16.105 -16.399  1.00  0.00    -0.198 OA
BRANCH  16  19
HETATM   19  N1  UNL     1     -34.910 -18.418 -17.638  1.00  0.00    -0.322 N 
ATOM     20  H12 UNL     1     -34.202 -18.393 -18.371  1.00  0.00     0.169 HD
ATOM     21  H11 UNL     1     -35.761 -18.981 -17.614  1.00  0.00     0.169 HD
ENDBRANCH  16  19
ENDBRANCH   1  16
TORSDOF 2
ENDMDL
