MODEL 1
REMARK VINA RESULT: -7.155111762      0.000      0.000
REMARK  10 active torsions:
REMARK  status: ('A' for Active; 'I' for Inactive)
REMARK    1  A    between atoms: N1_2  and  C2_4 
REMARK    2  A    between atoms: C3_7  and  N3_8 
REMARK    3  A    between atoms: C6_12  and  N4_13 
REMARK    4  A    between atoms: C8_18  and  N6_19 
REMARK    5  A    between atoms: N6_19  and  C9_21 
REMARK    6  A    between atoms: C9_21  and  C10_22 
REMARK    7  A    between atoms: C10_22  and  C11_23 
REMARK    8  A    between atoms: C11_23  and  N7_24 
REMARK    9  A    between atoms: N7_24  and  C12_27 
REMARK   10  A    between atoms: C12_27  and  O1_28 
ROOT
HETATM    1  C12 UNL     1      34.288 -19.824  16.973  1.00  0.00     0.427 C 
HETATM    2  C13 UNL     1      33.027 -20.146  17.631  1.00  0.00     0.121 C 
HETATM    3  N8  UNL     1      32.029 -20.397  18.172  1.00  0.00    -0.193 NA
ENDROOT
BRANCH   1   4
HETATM    4  N7  UNL     1      34.911 -18.716  17.691  1.00  0.00    -0.036 N 
ATOM      5  H72 UNL     1      35.919 -18.666  17.543  1.00  0.00     0.281 HD
ATOM      6  H71 UNL     1      34.928 -18.859  18.700  1.00  0.00     0.281 HD
BRANCH   4   7
HETATM    7  C11 UNL     1      34.218 -17.480  17.305  1.00  0.00     0.238 C 
BRANCH   7   8
HETATM    8  C10 UNL     1      35.245 -16.491  16.830  1.00  0.00     0.048 C 
BRANCH   8   9
HETATM    9  C9  UNL     1      35.022 -16.093  15.386  1.00  0.00     0.139 C 
BRANCH   9  10
HETATM   10  N6  UNL     1      35.603 -17.077  14.501  1.00  0.00    -0.226 N 
ATOM     11  H6  UNL     1      35.045 -17.492  13.755  1.00  0.00     0.177 HD
BRANCH  10  12
HETATM   12  C8  UNL     1      36.843 -17.427  14.664  1.00  0.00     0.681 A 
HETATM   13  N5  UNL     1      37.805 -16.531  14.371  1.00  0.00    -0.176 N 
HETATM   14  C6  UNL     1      39.108 -16.902  14.545  1.00  0.00     0.134 A 
ATOM     15  H5  UNL     1      37.567 -15.599  14.029  1.00  0.00     0.186 HD
HETATM   16  C5  UNL     1      39.440 -18.157  15.006  1.00  0.00     0.098 A 
HETATM   17  C3  UNL     1      40.742 -18.570  15.194  1.00  0.00     0.134 A 
HETATM   18  C14 UNL     1      38.446 -19.054  15.298  1.00  0.00     0.154 A 
HETATM   19  N2  UNL     1      41.027 -19.819  15.652  1.00  0.00    -0.176 N 
HETATM   20  C2  UNL     1      40.044 -20.692  15.935  1.00  0.00     0.680 A 
ATOM     21  H2  UNL     1      41.999 -20.097  15.782  1.00  0.00     0.186 HD
HETATM   22  N10 UNL     1      38.772 -20.268  15.743  1.00  0.00    -0.175 N 
ATOM     23  H10 UNL     1      38.015 -20.918  15.953  1.00  0.00     0.186 HD
HETATM   24  N9  UNL     1      37.167 -18.652  15.114  1.00  0.00    -0.175 N 
ATOM     25  H9  UNL     1      36.415 -19.308  15.326  1.00  0.00     0.186 HD
BRANCH  14  26
HETATM   26  N4  UNL     1      40.065 -16.096  14.284  1.00  0.00    -0.379 N 
HETATM   27  C7  UNL     1      39.799 -14.890  13.528  1.00  0.00     0.147 C 
ATOM     28  H4  UNL     1      41.010 -16.302  14.608  1.00  0.00     0.160 HD
ENDBRANCH  14  26
BRANCH  17  29
HETATM   29  N3  UNL     1      41.670 -17.734  14.923  1.00  0.00    -0.379 N 
HETATM   30  C4  UNL     1      43.080 -17.988  15.114  1.00  0.00     0.147 C 
ATOM     31  H3  UNL     1      41.396 -16.826  14.548  1.00  0.00     0.160 HD
ENDBRANCH  17  29
BRANCH  20  32
HETATM   32  N1  UNL     1      40.274 -21.898  16.375  1.00  0.00    -0.230 N 
HETATM   33  C1  UNL     1      39.214 -22.852  16.464  1.00  0.00     0.165 C 
ATOM     34  H1  UNL     1      41.217 -22.162  16.659  1.00  0.00     0.177 HD
ENDBRANCH  20  32
ENDBRANCH  10  12
ENDBRANCH   9  10
ENDBRANCH   8   9
ENDBRANCH   7   8
ENDBRANCH   4   7
ENDBRANCH   1   4
BRANCH   1  35
HETATM   35  O1  UNL     1      34.117 -19.519  15.626  1.00  0.00    -0.359 OA
ATOM     36  H1  UNL     1      33.793 -20.270  15.142  1.00  0.00     0.213 HD
ENDBRANCH   1  35
TORSDOF 10
ENDMDL
MODEL 2
REMARK VINA RESULT: -7.092123455      1.055      3.582
REMARK  10 active torsions:
REMARK  status: ('A' for Active; 'I' for Inactive)
REMARK    1  A    between atoms: N1_2  and  C2_4 
REMARK    2  A    between atoms: C3_7  and  N3_8 
REMARK    3  A    between atoms: C6_12  and  N4_13 
REMARK    4  A    between atoms: C8_18  and  N6_19 
REMARK    5  A    between atoms: N6_19  and  C9_21 
REMARK    6  A    between atoms: C9_21  and  C10_22 
REMARK    7  A    between atoms: C10_22  and  C11_23 
REMARK    8  A    between atoms: C11_23  and  N7_24 
REMARK    9  A    between atoms: N7_24  and  C12_27 
REMARK   10  A    between atoms: C12_27  and  O1_28 
ROOT
HETATM    1  C12 UNL     1      34.407 -19.828  17.027  1.00  0.00     0.427 C 
HETATM    2  C13 UNL     1      33.118 -20.122  17.645  1.00  0.00     0.121 C 
HETATM    3  N8  UNL     1      32.097 -20.348  18.152  1.00  0.00    -0.193 NA
ENDROOT
BRANCH   1   4
HETATM    4  N7  UNL     1      34.953 -18.629  17.655  1.00  0.00    -0.036 N 
ATOM      5  H72 UNL     1      35.950 -18.507  17.474  1.00  0.00     0.281 HD
ATOM      6  H71 UNL     1      35.009 -18.705  18.670  1.00  0.00     0.281 HD
BRANCH   4   7
HETATM    7  C11 UNL     1      34.151 -17.481  17.215  1.00  0.00     0.238 C 
BRANCH   7   8
HETATM    8  C10 UNL     1      35.080 -16.439  16.661  1.00  0.00     0.048 C 
BRANCH   8   9
HETATM    9  C9  UNL     1      34.961 -16.318  15.156  1.00  0.00     0.139 C 
BRANCH   9  10
HETATM   10  N6  UNL     1      35.682 -17.391  14.509  1.00  0.00    -0.226 N 
ATOM     11  H6  UNL     1      35.181 -18.096  13.969  1.00  0.00     0.177 HD
BRANCH  10  12
HETATM   12  C8  UNL     1      36.975 -17.447  14.623  1.00  0.00     0.681 A 
HETATM   13  N5  UNL     1      37.518 -18.517  15.234  1.00  0.00    -0.176 N 
HETATM   14  C6  UNL     1      38.877 -18.572  15.352  1.00  0.00     0.134 A 
ATOM     15  H5  UNL     1      36.929 -19.266  15.600  1.00  0.00     0.186 HD
HETATM   16  C5  UNL     1      39.681 -17.567  14.862  1.00  0.00     0.098 A 
HETATM   17  C3  UNL     1      41.056 -17.585  14.961  1.00  0.00     0.134 A 
HETATM   18  C14 UNL     1      39.108 -16.487  14.243  1.00  0.00     0.154 A 
HETATM   19  N2  UNL     1      41.813 -16.570  14.463  1.00  0.00    -0.176 N 
HETATM   20  C2  UNL     1      41.242 -15.515  13.858  1.00  0.00     0.680 A 
ATOM     21  H2  UNL     1      42.828 -16.611  14.550  1.00  0.00     0.186 HD
HETATM   22  N10 UNL     1      39.890 -15.514  13.770  1.00  0.00    -0.175 N 
ATOM     23  H10 UNL     1      39.440 -14.720  13.315  1.00  0.00     0.186 HD
HETATM   24  N9  UNL     1      37.759 -16.464  14.144  1.00  0.00    -0.175 N 
ATOM     25  H9  UNL     1      37.317 -15.667  13.687  1.00  0.00     0.186 HD
BRANCH  14  26
HETATM   26  N4  UNL     1      39.451 -19.562  15.922  1.00  0.00    -0.379 N 
HETATM   27  C7  UNL     1      39.058 -20.913  15.578  1.00  0.00     0.147 C 
ATOM     28  H4  UNL     1      40.183 -19.401  16.615  1.00  0.00     0.160 HD
ENDBRANCH  14  26
BRANCH  17  29
HETATM   29  N3  UNL     1      41.591 -18.592  15.536  1.00  0.00    -0.379 N 
HETATM   30  C4  UNL     1      42.980 -18.666  15.932  1.00  0.00     0.147 C 
ATOM     31  H3  UNL     1      40.998 -19.400  15.729  1.00  0.00     0.160 HD
ENDBRANCH  17  29
BRANCH  20  32
HETATM   32  N1  UNL     1      41.930 -14.522  13.367  1.00  0.00    -0.230 N 
HETATM   33  C1  UNL     1      42.357 -14.538  12.004  1.00  0.00     0.165 C 
ATOM     34  H1  UNL     1      42.165 -13.727  13.962  1.00  0.00     0.177 HD
ENDBRANCH  20  32
ENDBRANCH  10  12
ENDBRANCH   9  10
ENDBRANCH   8   9
ENDBRANCH   7   8
ENDBRANCH   4   7
ENDBRANCH   1   4
BRANCH   1  35
HETATM   35  O1  UNL     1      34.308 -19.673  15.648  1.00  0.00    -0.359 OA
ATOM     36  H1  UNL     1      33.615 -20.216  15.290  1.00  0.00     0.213 HD
ENDBRANCH   1  35
TORSDOF 10
ENDMDL
MODEL 3
REMARK VINA RESULT: -6.924755740      1.403      1.557
REMARK  10 active torsions:
REMARK  status: ('A' for Active; 'I' for Inactive)
REMARK    1  A    between atoms: N1_2  and  C2_4 
REMARK    2  A    between atoms: C3_7  and  N3_8 
REMARK    3  A    between atoms: C6_12  and  N4_13 
REMARK    4  A    between atoms: C8_18  and  N6_19 
REMARK    5  A    between atoms: N6_19  and  C9_21 
REMARK    6  A    between atoms: C9_21  and  C10_22 
REMARK    7  A    between atoms: C10_22  and  C11_23 
REMARK    8  A    between atoms: C11_23  and  N7_24 
REMARK    9  A    between atoms: N7_24  and  C12_27 
REMARK   10  A    between atoms: C12_27  and  O1_28 
ROOT
HETATM    1  C12 UNL     1      34.777 -19.576  17.327  1.00  0.00     0.427 C 
HETATM    2  C13 UNL     1      33.388 -19.970  17.534  1.00  0.00     0.121 C 
HETATM    3  N8  UNL     1      32.280 -20.270  17.712  1.00  0.00    -0.193 NA
ENDROOT
BRANCH   1   4
HETATM    4  N7  UNL     1      34.911 -18.164  17.672  1.00  0.00    -0.036 N 
ATOM      5  H72 UNL     1      35.882 -17.879  17.802  1.00  0.00     0.281 HD
ATOM      6  H71 UNL     1      34.581 -17.955  18.613  1.00  0.00     0.281 HD
BRANCH   4   7
HETATM    7  C11 UNL     1      34.221 -17.379  16.641  1.00  0.00     0.238 C 
BRANCH   7   8
HETATM    8  C10 UNL     1      35.177 -16.346  16.114  1.00  0.00     0.048 C 
BRANCH   8   9
HETATM    9  C9  UNL     1      35.654 -16.678  14.716  1.00  0.00     0.139 C 
BRANCH   9  10
HETATM   10  N6  UNL     1      37.051 -16.335  14.569  1.00  0.00    -0.226 N 
ATOM     11  H6  UNL     1      37.334 -15.361  14.466  1.00  0.00     0.177 HD
BRANCH  10  12
HETATM   12  C8  UNL     1      37.942 -17.281  14.570  1.00  0.00     0.681 A 
HETATM   13  N5  UNL     1      39.096 -17.074  13.908  1.00  0.00    -0.176 N 
HETATM   14  C6  UNL     1      40.030 -18.070  13.911  1.00  0.00     0.134 A 
ATOM     15  H5  UNL     1      39.268 -16.195  13.417  1.00  0.00     0.186 HD
HETATM   16  C5  UNL     1      39.808 -19.259  14.570  1.00  0.00     0.098 A 
HETATM   17  C3  UNL     1      40.724 -20.289  14.597  1.00  0.00     0.134 A 
HETATM   18  C14 UNL     1      38.627 -19.450  15.238  1.00  0.00     0.154 A 
HETATM   19  N2  UNL     1      40.465 -21.448  15.260  1.00  0.00    -0.176 N 
HETATM   20  C2  UNL     1      39.302 -21.625  15.912  1.00  0.00     0.680 A 
ATOM     21  H2  UNL     1      41.161 -22.192  15.264  1.00  0.00     0.186 HD
HETATM   22  N10 UNL     1      38.414 -20.602  15.874  1.00  0.00    -0.175 N 
ATOM     23  H10 UNL     1      37.528 -20.721  16.363  1.00  0.00     0.186 HD
HETATM   24  N9  UNL     1      37.724 -18.442  15.214  1.00  0.00    -0.175 N 
ATOM     25  H9  UNL     1      36.839 -18.568  15.705  1.00  0.00     0.186 HD
BRANCH  14  26
HETATM   26  N4  UNL     1      41.145 -17.933  13.301  1.00  0.00    -0.379 N 
HETATM   27  C7  UNL     1      41.211 -17.116  12.107  1.00  0.00     0.147 C 
ATOM     28  H4  UNL     1      41.983 -18.396  13.653  1.00  0.00     0.160 HD
ENDBRANCH  14  26
BRANCH  17  29
HETATM   29  N3  UNL     1      41.827 -20.112  13.976  1.00  0.00    -0.379 N 
HETATM   30  C4  UNL     1      42.792 -21.154  13.709  1.00  0.00     0.147 C 
ATOM     31  H3  UNL     1      42.041 -19.170  13.646  1.00  0.00     0.160 HD
ENDBRANCH  17  29
BRANCH  20  32
HETATM   32  N1  UNL     1      39.014 -22.719  16.560  1.00  0.00    -0.230 N 
HETATM   33  C1  UNL     1      39.818 -23.890  16.403  1.00  0.00     0.165 C 
ATOM     34  H1  UNL     1      38.207 -22.740  17.184  1.00  0.00     0.177 HD
ENDBRANCH  20  32
ENDBRANCH  10  12
ENDBRANCH   9  10
ENDBRANCH   8   9
ENDBRANCH   7   8
ENDBRANCH   4   7
ENDBRANCH   1   4
BRANCH   1  35
HETATM   35  O1  UNL     1      35.207 -19.819  16.026  1.00  0.00    -0.359 OA
ATOM     36  H1  UNL     1      36.155 -19.802  15.968  1.00  0.00     0.213 HD
ENDBRANCH   1  35
TORSDOF 10
ENDMDL
MODEL 4
REMARK VINA RESULT: -6.671071355      1.747      2.331
REMARK  10 active torsions:
REMARK  status: ('A' for Active; 'I' for Inactive)
REMARK    1  A    between atoms: N1_2  and  C2_4 
REMARK    2  A    between atoms: C3_7  and  N3_8 
REMARK    3  A    between atoms: C6_12  and  N4_13 
REMARK    4  A    between atoms: C8_18  and  N6_19 
REMARK    5  A    between atoms: N6_19  and  C9_21 
REMARK    6  A    between atoms: C9_21  and  C10_22 
REMARK    7  A    between atoms: C10_22  and  C11_23 
REMARK    8  A    between atoms: C11_23  and  N7_24 
REMARK    9  A    between atoms: N7_24  and  C12_27 
REMARK   10  A    between atoms: C12_27  and  O1_28 
ROOT
HETATM    1  C12 UNL     1      34.599 -19.074  17.239  1.00  0.00     0.427 C 
HETATM    2  C13 UNL     1      33.388 -19.847  17.493  1.00  0.00     0.121 C 
HETATM    3  N8  UNL     1      32.413 -20.447  17.695  1.00  0.00    -0.193 NA
ENDROOT
BRANCH   1   4
HETATM    4  N7  UNL     1      34.227 -17.859  16.521  1.00  0.00    -0.036 N 
ATOM      5  H72 UNL     1      34.632 -17.018  16.932  1.00  0.00     0.281 HD
ATOM      6  H71 UNL     1      33.246 -17.611  16.647  1.00  0.00     0.281 HD
BRANCH   4   7
HETATM    7  C11 UNL     1      34.591 -18.036  15.111  1.00  0.00     0.238 C 
BRANCH   7   8
HETATM    8  C10 UNL     1      35.303 -16.797  14.646  1.00  0.00     0.048 C 
BRANCH   8   9
HETATM    9  C9  UNL     1      36.727 -17.088  14.222  1.00  0.00     0.139 C 
BRANCH   9  10
HETATM   10  N6  UNL     1      37.496 -17.572  15.348  1.00  0.00    -0.226 N 
ATOM     11  H6  UNL     1      37.303 -17.228  16.289  1.00  0.00     0.177 HD
BRANCH  10  12
HETATM   12  C8  UNL     1      38.433 -18.449  15.148  1.00  0.00     0.681 A 
HETATM   13  N5  UNL     1      39.490 -18.095  14.392  1.00  0.00    -0.176 N 
HETATM   14  C6  UNL     1      40.473 -19.020  14.184  1.00  0.00     0.134 A 
ATOM     15  H5  UNL     1      39.554 -17.161  13.985  1.00  0.00     0.186 HD
HETATM   16  C5  UNL     1      40.396 -20.283  14.728  1.00  0.00     0.098 A 
HETATM   17  C3  UNL     1      41.366 -21.244  14.542  1.00  0.00     0.134 A 
HETATM   18  C14 UNL     1      39.312 -20.623  15.494  1.00  0.00     0.154 A 
HETATM   19  N2  UNL     1      41.251 -22.481  15.097  1.00  0.00    -0.176 N 
HETATM   20  C2  UNL     1      40.183 -22.804  15.847  1.00  0.00     0.680 A 
ATOM     21  H2  UNL     1      41.985 -23.172  14.943  1.00  0.00     0.186 HD
HETATM   22  N10 UNL     1      39.240 -21.847  16.018  1.00  0.00    -0.175 N 
ATOM     23  H10 UNL     1      38.423 -22.076  16.584  1.00  0.00     0.186 HD
HETATM   24  N9  UNL     1      38.357 -19.682  15.679  1.00  0.00    -0.175 N 
ATOM     25  H9  UNL     1      37.543 -19.920  16.246  1.00  0.00     0.186 HD
BRANCH  14  26
HETATM   26  N4  UNL     1      41.501 -18.744  13.476  1.00  0.00    -0.379 N 
HETATM   27  C7  UNL     1      41.427 -17.686  12.490  1.00  0.00     0.147 C 
ATOM     28  H4  UNL     1      42.368 -19.266  13.606  1.00  0.00     0.160 HD
ENDBRANCH  14  26
BRANCH  17  29
HETATM   29  N3  UNL     1      42.379 -20.929  13.829  1.00  0.00    -0.379 N 
HETATM   30  C4  UNL     1      43.241 -21.880  13.165  1.00  0.00     0.147 C 
ATOM     31  H3  UNL     1      42.593 -19.937  13.721  1.00  0.00     0.160 HD
ENDBRANCH  17  29
BRANCH  20  32
HETATM   32  N1  UNL     1      40.034 -23.977  16.397  1.00  0.00    -0.230 N 
HETATM   33  C1  UNL     1      38.786 -24.349  16.987  1.00  0.00     0.165 C 
ATOM     34  H1  UNL     1      40.813 -24.634  16.407  1.00  0.00     0.177 HD
ENDBRANCH  20  32
ENDBRANCH  10  12
ENDBRANCH   9  10
ENDBRANCH   8   9
ENDBRANCH   7   8
ENDBRANCH   4   7
ENDBRANCH   1   4
BRANCH   1  35
HETATM   35  O1  UNL     1      35.552 -19.803  16.534  1.00  0.00    -0.359 OA
ATOM     36  H1  UNL     1      36.293 -19.257  16.294  1.00  0.00     0.213 HD
ENDBRANCH   1  35
TORSDOF 10
ENDMDL
MODEL 5
REMARK VINA RESULT: -6.532856452      1.686      3.939
REMARK  10 active torsions:
REMARK  status: ('A' for Active; 'I' for Inactive)
REMARK    1  A    between atoms: N1_2  and  C2_4 
REMARK    2  A    between atoms: C3_7  and  N3_8 
REMARK    3  A    between atoms: C6_12  and  N4_13 
REMARK    4  A    between atoms: C8_18  and  N6_19 
REMARK    5  A    between atoms: N6_19  and  C9_21 
REMARK    6  A    between atoms: C9_21  and  C10_22 
REMARK    7  A    between atoms: C10_22  and  C11_23 
REMARK    8  A    between atoms: C11_23  and  N7_24 
REMARK    9  A    between atoms: N7_24  and  C12_27 
REMARK   10  A    between atoms: C12_27  and  O1_28 
ROOT
HETATM    1  C12 UNL     1      34.237 -19.718  16.735  1.00  0.00     0.427 C 
HETATM    2  C13 UNL     1      33.091 -20.098  17.553  1.00  0.00     0.121 C 
HETATM    3  N8  UNL     1      32.187 -20.396  18.220  1.00  0.00    -0.193 NA
ENDROOT
BRANCH   1   4
HETATM    4  N7  UNL     1      34.972 -18.668  17.433  1.00  0.00    -0.036 N 
ATOM      5  H72 UNL     1      35.896 -18.501  17.036  1.00  0.00     0.281 HD
ATOM      6  H71 UNL     1      35.273 -18.950  18.365  1.00  0.00     0.281 HD
BRANCH   4   7
HETATM    7  C11 UNL     1      34.134 -17.463  17.449  1.00  0.00     0.238 C 
BRANCH   7   8
HETATM    8  C10 UNL     1      34.705 -16.477  16.470  1.00  0.00     0.048 C 
BRANCH   8   9
HETATM    9  C9  UNL     1      36.213 -16.580  16.377  1.00  0.00     0.139 C 
BRANCH   9  10
HETATM   10  N6  UNL     1      36.634 -16.523  14.995  1.00  0.00    -0.226 N 
ATOM     11  H6  UNL     1      35.964 -16.294  14.261  1.00  0.00     0.177 HD
BRANCH  10  12
HETATM   12  C8  UNL     1      37.875 -16.765  14.697  1.00  0.00     0.681 A 
HETATM   13  N5  UNL     1      38.316 -18.035  14.778  1.00  0.00    -0.176 N 
HETATM   14  C6  UNL     1      39.621 -18.287  14.465  1.00  0.00     0.134 A 
ATOM     15  H5  UNL     1      37.692 -18.790  15.066  1.00  0.00     0.186 HD
HETATM   16  C5  UNL     1      40.473 -17.276  14.076  1.00  0.00     0.098 A 
HETATM   17  C3  UNL     1      41.796 -17.488  13.753  1.00  0.00     0.134 A 
HETATM   18  C14 UNL     1      40.004 -15.991  14.001  1.00  0.00     0.154 A 
HETATM   19  N2  UNL     1      42.603 -16.461  13.373  1.00  0.00    -0.176 N 
HETATM   20  C2  UNL     1      42.134 -15.203  13.302  1.00  0.00     0.680 A 
ATOM     21  H2  UNL     1      43.578 -16.648  13.138  1.00  0.00     0.186 HD
HETATM   22  N10 UNL     1      40.831 -15.014  13.624  1.00  0.00    -0.175 N 
ATOM     23  H10 UNL     1      40.460 -14.066  13.576  1.00  0.00     0.186 HD
HETATM   24  N9  UNL     1      38.706 -15.778  14.318  1.00  0.00    -0.175 N 
ATOM     25  H9  UNL     1      38.342 -14.827  14.268  1.00  0.00     0.186 HD
BRANCH  14  26
HETATM   26  N4  UNL     1      40.099 -19.471  14.523  1.00  0.00    -0.379 N 
HETATM   27  C7  UNL     1      39.470 -20.456  15.379  1.00  0.00     0.147 C 
ATOM     28  H4  UNL     1      40.918 -19.721  13.968  1.00  0.00     0.160 HD
ENDBRANCH  14  26
BRANCH  17  29
HETATM   29  N3  UNL     1      42.234 -18.686  13.821  1.00  0.00    -0.379 N 
HETATM   30  C4  UNL     1      43.418 -19.165  13.144  1.00  0.00     0.147 C 
ATOM     31  H3  UNL     1      41.712 -19.351  14.393  1.00  0.00     0.160 HD
ENDBRANCH  17  29
BRANCH  20  32
HETATM   32  N1  UNL     1      42.873 -14.191  12.944  1.00  0.00    -0.230 N 
HETATM   33  C1  UNL     1      43.611 -14.228  11.720  1.00  0.00     0.165 C 
ATOM     34  H1  UNL     1      42.925 -13.366  13.541  1.00  0.00     0.177 HD
ENDBRANCH  20  32
ENDBRANCH  10  12
ENDBRANCH   9  10
ENDBRANCH   8   9
ENDBRANCH   7   8
ENDBRANCH   4   7
ENDBRANCH   1   4
BRANCH   1  35
HETATM   35  O1  UNL     1      33.863 -19.308  15.459  1.00  0.00    -0.359 OA
ATOM     36  H1  UNL     1      34.593 -19.362  14.853  1.00  0.00     0.213 HD
ENDBRANCH   1  35
TORSDOF 10
ENDMDL
