MODEL 1
REMARK VINA RESULT: -7.085997242      0.000      0.000
REMARK  10 active torsions:
REMARK  status: ('A' for Active; 'I' for Inactive)
REMARK    1  A    between atoms: C2_5  and  N2_6 
REMARK    2  A    between atoms: N2_6  and  C3_8 
REMARK    3  A    between atoms: C3_8  and  C4_9 
REMARK    4  A    between atoms: C4_9  and  O2_10 
REMARK    5  A    between atoms: C6_17  and  N5_18 
REMARK    6  A    between atoms: N5_18  and  C7_20 
REMARK    7  A    between atoms: N6_21  and  O3_23 
REMARK    8  A    between atoms: C8_27  and  N8_28 
REMARK    9  A    between atoms: N8_28  and  C9_30 
REMARK   10  A    between atoms: C9_30  and  C10_31 
ROOT
HETATM    1  O1  UNL     1      39.942 -16.082  13.637  1.00  0.00    -0.266 OA
HETATM    2  C1  UNL     1      39.032 -16.697  14.269  1.00  0.00     0.277 A 
HETATM    3  N1  UNL     1      37.883 -16.112  14.610  1.00  0.00    -0.155 N 
ATOM      4  H1  UNL     1      37.711 -15.137  14.363  1.00  0.00     0.187 HD
HETATM    5  C2  UNL     1      36.939 -16.823  15.290  1.00  0.00     0.682 A 
HETATM    6  N3  UNL     1      37.148 -18.107  15.623  1.00  0.00    -0.175 N 
ATOM      7  H3  UNL     1      36.427 -18.619  16.132  1.00  0.00     0.186 HD
HETATM    8  C5  UNL     1      38.309 -18.734  15.291  1.00  0.00     0.156 A 
HETATM    9  N4  UNL     1      38.506 -20.024  15.632  1.00  0.00    -0.175 N 
ATOM     10  H4  UNL     1      37.795 -20.550  16.140  1.00  0.00     0.186 HD
HETATM   11  C6  UNL     1      39.662 -20.589  15.281  1.00  0.00     0.686 A 
HETATM   12  N7  UNL     1      40.607 -19.891  14.604  1.00  0.00    -0.175 N 
ATOM     13  H7  UNL     1      41.475 -20.365  14.356  1.00  0.00     0.186 HD
HETATM   14  C8  UNL     1      40.454 -18.606  14.246  1.00  0.00     0.136 A 
HETATM   15  C14 UNL     1      39.264 -18.006  14.601  1.00  0.00     0.122 A 
ENDROOT
BRANCH  14  16
HETATM   16  N8  UNL     1      41.342 -17.933  13.608  1.00  0.00    -0.372 N 
ATOM     17  H8  UNL     1      41.334 -16.913  13.622  1.00  0.00     0.161 HD
BRANCH  16  18
HETATM   18  C9  UNL     1      42.347 -18.651  12.875  1.00  0.00     0.153 C 
BRANCH  18  19
HETATM   19  C10 UNL     1      42.237 -18.568  11.396  1.00  0.00     0.139 C 
HETATM   20  C11 UNL     1      41.402 -17.414  10.893  1.00  0.00     0.035 C 
HETATM   21  C12 UNL     1      41.708 -17.525   9.392  1.00  0.00     0.029 C 
HETATM   22  C13 UNL     1      43.048 -18.193   9.408  1.00  0.00     0.168 C 
HETATM   23  O4  UNL     1      43.443 -18.325  10.745  1.00  0.00    -0.384 OA
ENDBRANCH  18  19
ENDBRANCH  16  18
ENDBRANCH  14  16
BRANCH  11  24
HETATM   24  N5  UNL     1      39.895 -21.805  15.586  1.00  0.00    -0.186 N 
ATOM     25  H5  UNL     1      40.659 -22.255  15.082  1.00  0.00     0.185 HD
BRANCH  24  26
HETATM   26  C7  UNL     1      39.228 -22.601  16.533  1.00  0.00     0.221 C 
HETATM   27  N6  UNL     1      39.585 -22.555  17.763  1.00  0.00    -0.264 N 
ATOM     28  H6  UNL     1      40.352 -21.934  18.020  1.00  0.00     0.194 HD
BRANCH  27  29
HETATM   29  O3  UNL     1      38.993 -23.292  18.746  1.00  0.00    -0.289 OA
ATOM     30  H3  UNL     1      38.119 -23.120  19.077  1.00  0.00     0.244 HD
ENDBRANCH  27  29
ENDBRANCH  24  26
ENDBRANCH  11  24
BRANCH   5  31
HETATM   31  N2  UNL     1      35.847 -16.227  15.598  1.00  0.00    -0.224 N 
ATOM     32  H2  UNL     1      35.831 -15.207  15.589  1.00  0.00     0.177 HD
BRANCH  31  33
HETATM   33  C3  UNL     1      34.647 -16.927  15.957  1.00  0.00     0.164 C 
BRANCH  33  34
HETATM   34  C4  UNL     1      34.320 -16.766  17.442  1.00  0.00     0.184 C 
BRANCH  34  35
HETATM   35  O2  UNL     1      35.047 -17.699  18.185  1.00  0.00    -0.399 OA
ATOM     36  H2  UNL     1      35.011 -18.545  17.756  1.00  0.00     0.209 HD
ENDBRANCH  34  35
ENDBRANCH  33  34
ENDBRANCH  31  33
ENDBRANCH   5  31
TORSDOF 10
ENDMDL
MODEL 2
REMARK VINA RESULT: -6.911125103      1.774      2.653
REMARK  10 active torsions:
REMARK  status: ('A' for Active; 'I' for Inactive)
REMARK    1  A    between atoms: C2_5  and  N2_6 
REMARK    2  A    between atoms: N2_6  and  C3_8 
REMARK    3  A    between atoms: C3_8  and  C4_9 
REMARK    4  A    between atoms: C4_9  and  O2_10 
REMARK    5  A    between atoms: C6_17  and  N5_18 
REMARK    6  A    between atoms: N5_18  and  C7_20 
REMARK    7  A    between atoms: N6_21  and  O3_23 
REMARK    8  A    between atoms: C8_27  and  N8_28 
REMARK    9  A    between atoms: N8_28  and  C9_30 
REMARK   10  A    between atoms: C9_30  and  C10_31 
ROOT
HETATM    1  O1  UNL     1      39.978 -16.320  13.525  1.00  0.00    -0.266 OA
HETATM    2  C1  UNL     1      39.065 -16.878  14.204  1.00  0.00     0.277 A 
HETATM    3  N1  UNL     1      37.946 -16.242  14.551  1.00  0.00    -0.155 N 
ATOM      4  H1  UNL     1      37.801 -15.272  14.270  1.00  0.00     0.187 HD
HETATM    5  C2  UNL     1      36.998 -16.893  15.282  1.00  0.00     0.682 A 
HETATM    6  N3  UNL     1      37.172 -18.169  15.661  1.00  0.00    -0.175 N 
ATOM      7  H3  UNL     1      36.448 -18.636  16.208  1.00  0.00     0.186 HD
HETATM    8  C5  UNL     1      38.301 -18.848  15.325  1.00  0.00     0.156 A 
HETATM    9  N4  UNL     1      38.464 -20.131  15.711  1.00  0.00    -0.175 N 
ATOM     10  H4  UNL     1      37.750 -20.612  16.257  1.00  0.00     0.186 HD
HETATM   11  C6  UNL     1      39.591 -20.749  15.353  1.00  0.00     0.686 A 
HETATM   12  N7  UNL     1      40.540 -20.110  14.625  1.00  0.00    -0.175 N 
ATOM     13  H7  UNL     1      41.385 -20.623  14.374  1.00  0.00     0.186 HD
HETATM   14  C8  UNL     1      40.421 -18.836  14.220  1.00  0.00     0.136 A 
HETATM   15  C14 UNL     1      39.261 -18.181  14.582  1.00  0.00     0.122 A 
ENDROOT
BRANCH  14  16
HETATM   16  N8  UNL     1      41.314 -18.219  13.533  1.00  0.00    -0.372 N 
ATOM     17  H8  UNL     1      41.051 -17.495  12.865  1.00  0.00     0.161 HD
BRANCH  16  18
HETATM   18  C9  UNL     1      42.692 -18.573  13.730  1.00  0.00     0.153 C 
BRANCH  18  19
HETATM   19  C10 UNL     1      43.334 -17.988  14.935  1.00  0.00     0.139 C 
HETATM   20  C11 UNL     1      42.932 -16.562  15.229  1.00  0.00     0.035 C 
HETATM   21  C12 UNL     1      43.588 -16.402  16.609  1.00  0.00     0.029 C 
HETATM   22  C13 UNL     1      43.630 -17.820  17.087  1.00  0.00     0.168 C 
HETATM   23  O4  UNL     1      42.987 -18.614  16.128  1.00  0.00    -0.384 OA
ENDBRANCH  18  19
ENDBRANCH  16  18
ENDBRANCH  14  16
BRANCH  11  24
HETATM   24  N5  UNL     1      39.791 -21.959  15.700  1.00  0.00    -0.186 N 
ATOM     25  H5  UNL     1      40.507 -22.463  15.176  1.00  0.00     0.185 HD
BRANCH  24  26
HETATM   26  C7  UNL     1      39.146 -22.684  16.716  1.00  0.00     0.221 C 
HETATM   27  N6  UNL     1      39.565 -22.592  17.924  1.00  0.00    -0.264 N 
ATOM     28  H6  UNL     1      40.365 -21.989  18.113  1.00  0.00     0.194 HD
BRANCH  27  29
HETATM   29  O3  UNL     1      38.999 -23.260  18.970  1.00  0.00    -0.289 OA
ATOM     30  H3  UNL     1      39.317 -24.095  19.293  1.00  0.00     0.244 HD
ENDBRANCH  27  29
ENDBRANCH  24  26
ENDBRANCH  11  24
BRANCH   5  31
HETATM   31  N2  UNL     1      35.935 -16.247  15.595  1.00  0.00    -0.224 N 
ATOM     32  H2  UNL     1      35.967 -15.228  15.592  1.00  0.00     0.177 HD
BRANCH  31  33
HETATM   33  C3  UNL     1      34.703 -16.892  15.949  1.00  0.00     0.164 C 
BRANCH  33  34
HETATM   34  C4  UNL     1      34.383 -16.723  17.435  1.00  0.00     0.184 C 
BRANCH  34  35
HETATM   35  O2  UNL     1      35.047 -17.706  18.172  1.00  0.00    -0.399 OA
ATOM     36  H2  UNL     1      34.470 -18.448  18.307  1.00  0.00     0.209 HD
ENDBRANCH  34  35
ENDBRANCH  33  34
ENDBRANCH  31  33
ENDBRANCH   5  31
TORSDOF 10
ENDMDL
MODEL 3
REMARK VINA RESULT: -6.840548535      2.157      4.698
REMARK  10 active torsions:
REMARK  status: ('A' for Active; 'I' for Inactive)
REMARK    1  A    between atoms: C2_5  and  N2_6 
REMARK    2  A    between atoms: N2_6  and  C3_8 
REMARK    3  A    between atoms: C3_8  and  C4_9 
REMARK    4  A    between atoms: C4_9  and  O2_10 
REMARK    5  A    between atoms: C6_17  and  N5_18 
REMARK    6  A    between atoms: N5_18  and  C7_20 
REMARK    7  A    between atoms: N6_21  and  O3_23 
REMARK    8  A    between atoms: C8_27  and  N8_28 
REMARK    9  A    between atoms: N8_28  and  C9_30 
REMARK   10  A    between atoms: C9_30  and  C10_31 
ROOT
HETATM    1  O1  UNL     1      39.687 -20.318  15.074  1.00  0.00    -0.266 OA
HETATM    2  C1  UNL     1      38.799 -19.430  15.245  1.00  0.00     0.277 A 
HETATM    3  N1  UNL     1      37.634 -19.693  15.838  1.00  0.00    -0.155 N 
ATOM      4  H1  UNL     1      37.431 -20.636  16.173  1.00  0.00     0.187 HD
HETATM    5  C2  UNL     1      36.716 -18.698  15.995  1.00  0.00     0.682 A 
HETATM    6  N3  UNL     1      36.965 -17.452  15.560  1.00  0.00    -0.175 N 
ATOM      7  H3  UNL     1      36.262 -16.724  15.689  1.00  0.00     0.186 HD
HETATM    8  C5  UNL     1      38.142 -17.149  14.951  1.00  0.00     0.156 A 
HETATM    9  N4  UNL     1      38.381 -15.893  14.519  1.00  0.00    -0.175 N 
ATOM     10  H4  UNL     1      37.690 -15.154  14.640  1.00  0.00     0.186 HD
HETATM   11  C6  UNL     1      39.552 -15.652  13.929  1.00  0.00     0.686 A 
HETATM   12  N7  UNL     1      40.473 -16.634  13.768  1.00  0.00    -0.175 N 
ATOM     13  H7  UNL     1      41.355 -16.403  13.312  1.00  0.00     0.186 HD
HETATM   14  C8  UNL     1      40.278 -17.897  14.181  1.00  0.00     0.136 A 
HETATM   15  C14 UNL     1      39.071 -18.165  14.794  1.00  0.00     0.122 A 
ENDROOT
BRANCH  14  16
HETATM   16  N8  UNL     1      41.140 -18.838  14.032  1.00  0.00    -0.372 N 
ATOM     17  H8  UNL     1      40.861 -19.750  13.670  1.00  0.00     0.161 HD
BRANCH  16  18
HETATM   18  C9  UNL     1      42.507 -18.574  14.388  1.00  0.00     0.153 C 
BRANCH  18  19
HETATM   19  C10 UNL     1      43.403 -18.228  13.255  1.00  0.00     0.139 C 
HETATM   20  C11 UNL     1      43.066 -18.919  11.955  1.00  0.00     0.035 C 
HETATM   21  C12 UNL     1      44.021 -18.162  11.020  1.00  0.00     0.029 C 
HETATM   22  C13 UNL     1      44.186 -16.864  11.747  1.00  0.00     0.168 C 
HETATM   23  O4  UNL     1      43.347 -16.893  12.868  1.00  0.00    -0.384 OA
ENDBRANCH  18  19
ENDBRANCH  16  18
ENDBRANCH  14  16
BRANCH  11  24
HETATM   24  N5  UNL     1      39.820 -14.481  13.500  1.00  0.00    -0.186 N 
ATOM     25  H5  UNL     1      39.423 -13.707  14.032  1.00  0.00     0.185 HD
BRANCH  24  26
HETATM   26  C7  UNL     1      40.594 -14.128  12.382  1.00  0.00     0.221 C 
HETATM   27  N6  UNL     1      41.866 -14.026  12.500  1.00  0.00    -0.264 N 
ATOM     28  H6  UNL     1      42.283 -14.206  13.413  1.00  0.00     0.194 HD
BRANCH  27  29
HETATM   29  O3  UNL     1      42.693 -13.688  11.469  1.00  0.00    -0.289 OA
ATOM     30  H3  UNL     1      42.873 -12.791  11.212  1.00  0.00     0.244 HD
ENDBRANCH  27  29
ENDBRANCH  24  26
ENDBRANCH  11  24
BRANCH   5  31
HETATM   31  N2  UNL     1      35.609 -18.991  16.571  1.00  0.00    -0.224 N 
ATOM     32  H2  UNL     1      35.575 -19.816  17.168  1.00  0.00     0.177 HD
BRANCH  31  33
HETATM   33  C3  UNL     1      34.415 -18.210  16.414  1.00  0.00     0.164 C 
BRANCH  33  34
HETATM   34  C4  UNL     1      34.312 -17.113  17.475  1.00  0.00     0.184 C 
BRANCH  34  35
HETATM   35  O2  UNL     1      34.654 -15.883  16.911  1.00  0.00    -0.399 OA
ATOM     36  H2  UNL     1      35.215 -15.403  17.508  1.00  0.00     0.209 HD
ENDBRANCH  34  35
ENDBRANCH  33  34
ENDBRANCH  31  33
ENDBRANCH   5  31
TORSDOF 10
ENDMDL
MODEL 4
REMARK VINA RESULT: -6.815132293      2.692      5.534
REMARK  10 active torsions:
REMARK  status: ('A' for Active; 'I' for Inactive)
REMARK    1  A    between atoms: C2_5  and  N2_6 
REMARK    2  A    between atoms: N2_6  and  C3_8 
REMARK    3  A    between atoms: C3_8  and  C4_9 
REMARK    4  A    between atoms: C4_9  and  O2_10 
REMARK    5  A    between atoms: C6_17  and  N5_18 
REMARK    6  A    between atoms: N5_18  and  C7_20 
REMARK    7  A    between atoms: N6_21  and  O3_23 
REMARK    8  A    between atoms: C8_27  and  N8_28 
REMARK    9  A    between atoms: N8_28  and  C9_30 
REMARK   10  A    between atoms: C9_30  and  C10_31 
ROOT
HETATM    1  O1  UNL     1      41.084 -18.494  15.446  1.00  0.00    -0.266 OA
HETATM    2  C1  UNL     1      40.279 -17.613  15.019  1.00  0.00     0.277 A 
HETATM    3  N1  UNL     1      40.697 -16.460  14.498  1.00  0.00    -0.155 N 
ATOM      4  H1  UNL     1      41.696 -16.260  14.432  1.00  0.00     0.187 HD
HETATM    5  C2  UNL     1      39.785 -15.549  14.053  1.00  0.00     0.682 A 
HETATM    6  N3  UNL     1      38.468 -15.795  14.132  1.00  0.00    -0.175 N 
ATOM      7  H3  UNL     1      37.804 -15.098  13.792  1.00  0.00     0.186 HD
HETATM    8  C5  UNL     1      38.007 -16.961  14.658  1.00  0.00     0.156 A 
HETATM    9  N4  UNL     1      36.680 -17.197  14.731  1.00  0.00    -0.175 N 
ATOM     10  H4  UNL     1      36.004 -16.511  14.396  1.00  0.00     0.186 HD
HETATM   11  C6  UNL     1      36.283 -18.357  15.255  1.00  0.00     0.686 A 
HETATM   12  N7  UNL     1      37.182 -19.270  15.699  1.00  0.00    -0.175 N 
ATOM     13  H7  UNL     1      36.833 -20.144  16.092  1.00  0.00     0.186 HD
HETATM   14  C8  UNL     1      38.510 -19.078  15.647  1.00  0.00     0.136 A 
HETATM   15  C14 UNL     1      38.938 -17.882  15.108  1.00  0.00     0.122 A 
ENDROOT
BRANCH  14  16
HETATM   16  N8  UNL     1      39.372 -19.933  16.068  1.00  0.00    -0.372 N 
ATOM     17  H8  UNL     1      40.155 -19.640  16.653  1.00  0.00     0.161 HD
BRANCH  16  18
HETATM   18  C9  UNL     1      39.206 -21.310  15.694  1.00  0.00     0.153 C 
BRANCH  18  19
HETATM   19  C10 UNL     1      40.458 -22.106  15.627  1.00  0.00     0.139 C 
HETATM   20  C11 UNL     1      41.353 -21.771  14.457  1.00  0.00     0.035 C 
HETATM   21  C12 UNL     1      42.589 -22.595  14.850  1.00  0.00     0.029 C 
HETATM   22  C13 UNL     1      42.440 -22.667  16.338  1.00  0.00     0.168 C 
HETATM   23  O4  UNL     1      41.326 -21.896  16.695  1.00  0.00    -0.384 OA
ENDBRANCH  18  19
ENDBRANCH  16  18
ENDBRANCH  14  16
BRANCH  11  24
HETATM   24  N5  UNL     1      35.039 -18.621  15.350  1.00  0.00    -0.186 N 
ATOM     25  H5  UNL     1      34.415 -18.050  14.780  1.00  0.00     0.185 HD
BRANCH  24  26
HETATM   26  C7  UNL     1      34.423 -19.603  16.144  1.00  0.00     0.221 C 
HETATM   27  N6  UNL     1      34.059 -19.314  17.338  1.00  0.00    -0.264 N 
ATOM     28  H6  UNL     1      34.230 -18.369  17.680  1.00  0.00     0.194 HD
BRANCH  27  29
HETATM   29  O3  UNL     1      33.455 -20.205  18.177  1.00  0.00    -0.289 OA
ATOM     30  H3  UNL     1      33.929 -20.744  18.799  1.00  0.00     0.244 HD
ENDBRANCH  27  29
ENDBRANCH  24  26
ENDBRANCH  11  24
BRANCH   5  31
HETATM   31  N2  UNL     1      40.227 -14.452  13.558  1.00  0.00    -0.224 N 
ATOM     32  H2  UNL     1      40.099 -13.592  14.090  1.00  0.00     0.177 HD
BRANCH  31  33
HETATM   33  C3  UNL     1      40.894 -14.379  12.289  1.00  0.00     0.164 C 
BRANCH  33  34
HETATM   34  C4  UNL     1      42.412 -14.498  12.440  1.00  0.00     0.184 C 
BRANCH  34  35
HETATM   35  O2  UNL     1      42.781 -14.153  13.741  1.00  0.00    -0.399 OA
ATOM     36  H2  UNL     1      42.273 -14.661  14.362  1.00  0.00     0.209 HD
ENDBRANCH  34  35
ENDBRANCH  33  34
ENDBRANCH  31  33
ENDBRANCH   5  31
TORSDOF 10
ENDMDL
MODEL 5
REMARK VINA RESULT: -6.814767937      2.833      5.238
REMARK  10 active torsions:
REMARK  status: ('A' for Active; 'I' for Inactive)
REMARK    1  A    between atoms: C2_5  and  N2_6 
REMARK    2  A    between atoms: N2_6  and  C3_8 
REMARK    3  A    between atoms: C3_8  and  C4_9 
REMARK    4  A    between atoms: C4_9  and  O2_10 
REMARK    5  A    between atoms: C6_17  and  N5_18 
REMARK    6  A    between atoms: N5_18  and  C7_20 
REMARK    7  A    between atoms: N6_21  and  O3_23 
REMARK    8  A    between atoms: C8_27  and  N8_28 
REMARK    9  A    between atoms: N8_28  and  C9_30 
REMARK   10  A    between atoms: C9_30  and  C10_31 
ROOT
HETATM    1  O1  UNL     1      38.887 -20.253  15.431  1.00  0.00    -0.266 OA
HETATM    2  C1  UNL     1      38.154 -19.220  15.393  1.00  0.00     0.277 A 
HETATM    3  N1  UNL     1      36.899 -19.221  15.845  1.00  0.00    -0.155 N 
ATOM      4  H1  UNL     1      36.497 -20.072  16.239  1.00  0.00     0.187 HD
HETATM    5  C2  UNL     1      36.157 -18.080  15.779  1.00  0.00     0.682 A 
HETATM    6  N3  UNL     1      36.669 -16.950  15.264  1.00  0.00    -0.175 N 
ATOM      7  H3  UNL     1      36.094 -16.108  15.225  1.00  0.00     0.186 HD
HETATM    8  C5  UNL     1      37.945 -16.915  14.793  1.00  0.00     0.156 A 
HETATM    9  N4  UNL     1      38.448 -15.774  14.279  1.00  0.00    -0.175 N 
ATOM     10  H4  UNL     1      37.887 -14.923  14.233  1.00  0.00     0.186 HD
HETATM   11  C6  UNL     1      39.704 -15.795  13.832  1.00  0.00     0.686 A 
HETATM   12  N7  UNL     1      40.451 -16.924  13.894  1.00  0.00    -0.175 N 
ATOM     13  H7  UNL     1      41.408 -16.893  13.542  1.00  0.00     0.186 HD
HETATM   14  C8  UNL     1      39.993 -18.082  14.397  1.00  0.00     0.136 A 
HETATM   15  C14 UNL     1      38.694 -18.078  14.863  1.00  0.00     0.122 A 
ENDROOT
BRANCH  14  16
HETATM   16  N8  UNL     1      40.688 -19.159  14.458  1.00  0.00    -0.372 N 
ATOM     17  H8  UNL     1      40.249 -20.072  14.342  1.00  0.00     0.161 HD
BRANCH  16  18
HETATM   18  C9  UNL     1      42.101 -19.047  14.695  1.00  0.00     0.153 C 
BRANCH  18  19
HETATM   19  C10 UNL     1      42.493 -18.098  15.767  1.00  0.00     0.139 C 
HETATM   20  C11 UNL     1      43.537 -18.627  16.723  1.00  0.00     0.035 C 
HETATM   21  C12 UNL     1      43.834 -17.337  17.501  1.00  0.00     0.029 C 
HETATM   22  C13 UNL     1      43.465 -16.290  16.497  1.00  0.00     0.168 C 
HETATM   23  O4  UNL     1      43.117 -16.942  15.307  1.00  0.00    -0.384 OA
ENDBRANCH  18  19
ENDBRANCH  16  18
ENDBRANCH  14  16
BRANCH  11  24
HETATM   24  N5  UNL     1      40.221 -14.741  13.332  1.00  0.00    -0.186 N 
ATOM     25  H5  UNL     1      39.616 -13.921  13.293  1.00  0.00     0.185 HD
BRANCH  24  26
HETATM   26  C7  UNL     1      41.521 -14.573  12.829  1.00  0.00     0.221 C 
HETATM   27  N6  UNL     1      42.478 -14.280  13.630  1.00  0.00    -0.264 N 
ATOM     28  H6  UNL     1      42.262 -14.175  14.621  1.00  0.00     0.194 HD
BRANCH  27  29
HETATM   29  O3  UNL     1      43.768 -14.099  13.227  1.00  0.00    -0.289 OA
ATOM     30  H3  UNL     1      44.491 -13.959  13.828  1.00  0.00     0.244 HD
ENDBRANCH  27  29
ENDBRANCH  24  26
ENDBRANCH  11  24
BRANCH   5  31
HETATM   31  N2  UNL     1      34.956 -18.120  16.225  1.00  0.00    -0.224 N 
ATOM     32  H2  UNL     1      34.611 -17.329  16.768  1.00  0.00     0.177 HD
BRANCH  31  33
HETATM   33  C3  UNL     1      34.073 -19.228  15.995  1.00  0.00     0.164 C 
BRANCH  33  34
HETATM   34  C4  UNL     1      33.591 -19.850  17.308  1.00  0.00     0.184 C 
BRANCH  34  35
HETATM   35  O2  UNL     1      34.608 -19.776  18.261  1.00  0.00    -0.399 OA
ATOM     36  H2  UNL     1      35.453 -19.827  17.830  1.00  0.00     0.209 HD
ENDBRANCH  34  35
ENDBRANCH  33  34
ENDBRANCH  31  33
ENDBRANCH   5  31
TORSDOF 10
ENDMDL
