MODEL 1
REMARK VINA RESULT: -6.553007398      0.000      0.000
REMARK  7 active torsions:
REMARK  status: ('A' for Active; 'I' for Inactive)
REMARK    1  A    between atoms: N1_2  and  C2_3 
REMARK    2  A    between atoms: N1_2  and  S1_27 
REMARK    3  A    between atoms: C2_3  and  C3_4 
REMARK    4  A    between atoms: C3_4  and  N2_5 
REMARK    5  A    between atoms: C3_4  and  C9_22 
REMARK    6  A    between atoms: C5_11  and  N5_12 
REMARK    7  A    between atoms: C9_22  and  O3_25 
ROOT
HETATM    1  N2  UNL     1      38.463  18.231 -15.364  1.00  0.00    -0.242 N 
HETATM    2  N3  UNL     1      37.803  19.337 -15.676  1.00  0.00    -0.278 N 
ATOM      3  H3  UNL     1      38.208  20.274 -15.669  1.00  0.00     0.189 HD
HETATM    4  C4  UNL     1      36.531  19.061 -16.000  1.00  0.00     0.157 A 
HETATM    5  N4  UNL     1      35.461  19.792 -16.384  1.00  0.00    -0.174 N 
ATOM      6  H4  UNL     1      35.544  20.805 -16.475  1.00  0.00     0.186 HD
HETATM    7  C5  UNL     1      34.289  19.193 -16.644  1.00  0.00     0.680 A 
HETATM    8  N6  UNL     1      34.168  17.848 -16.524  1.00  0.00    -0.155 N 
ATOM      9  H6  UNL     1      33.268  17.413 -16.725  1.00  0.00     0.187 HD
HETATM   10  C6  UNL     1      35.190  17.078 -16.149  1.00  0.00     0.279 A 
HETATM   11  O1  UNL     1      35.114  15.833 -16.028  1.00  0.00    -0.266 OA
HETATM   12  C7  UNL     1      36.402  17.699 -15.881  1.00  0.00     0.147 A 
HETATM   13  C8  UNL     1      37.614  17.194 -15.483  1.00  0.00     0.282 A 
HETATM   14  O2  UNL     1      37.849  15.958 -15.276  1.00  0.00    -0.265 OA
ENDROOT
BRANCH   1  15
HETATM   15  C3  UNL     1      39.850  18.088 -14.959  1.00  0.00     0.184 C 
BRANCH  15  16
HETATM   16  C2  UNL     1      39.988  17.938 -13.465  1.00  0.00     0.108 C 
BRANCH  16  17
HETATM   17  N1  UNL     1      40.919  16.991 -13.051  1.00  0.00    -0.274 N 
HETATM   18  C1  UNL     1      40.710  15.631 -13.339  1.00  0.00     0.171 C 
BRANCH  17  19
HETATM   19  S1  UNL     1      41.957  17.374 -11.791  1.00  0.00     0.210 S 
HETATM   20  O4  UNL     1      42.605  18.721 -12.086  1.00  0.00    -0.578 OA
HETATM   21  O5  UNL     1      43.006  16.312 -11.637  1.00  0.00    -0.578 OA
HETATM   22  O6  UNL     1      41.063  17.532 -10.367  1.00  0.00    -0.578 OA
ENDBRANCH  17  19
ENDBRANCH  16  17
ENDBRANCH  15  16
BRANCH  15  23
HETATM   23  C9  UNL     1      40.648  19.262 -15.486  1.00  0.00     0.078 C 
HETATM   24  C10 UNL     1      42.022  18.831 -15.907  1.00  0.00     0.048 C 
HETATM   25  C11 UNL     1      40.660  20.427 -14.538  1.00  0.00     0.048 C 
BRANCH  23  26
HETATM   26  O3  UNL     1      39.982  19.686 -16.658  1.00  0.00    -0.388 OA
ATOM     27  H3  UNL     1      39.867  20.624 -16.566  1.00  0.00     0.210 HD
ENDBRANCH  23  26
ENDBRANCH  15  23
ENDBRANCH   1  15
BRANCH   7  28
HETATM   28  N5  UNL     1      33.271  19.909 -17.011  1.00  0.00    -0.234 N 
ATOM     29  H52 UNL     1      32.355  19.755 -16.587  1.00  0.00     0.174 HD
ATOM     30  H51 UNL     1      33.393  20.628 -17.724  1.00  0.00     0.174 HD
ENDBRANCH   7  28
TORSDOF 7
ENDMDL
MODEL 2
REMARK VINA RESULT: -6.551124994      1.898      2.126
REMARK  7 active torsions:
REMARK  status: ('A' for Active; 'I' for Inactive)
REMARK    1  A    between atoms: N1_2  and  C2_3 
REMARK    2  A    between atoms: N1_2  and  S1_27 
REMARK    3  A    between atoms: C2_3  and  C3_4 
REMARK    4  A    between atoms: C3_4  and  N2_5 
REMARK    5  A    between atoms: C3_4  and  C9_22 
REMARK    6  A    between atoms: C5_11  and  N5_12 
REMARK    7  A    between atoms: C9_22  and  O3_25 
ROOT
HETATM    1  N2  UNL     1      38.912  18.132 -15.337  1.00  0.00    -0.242 N 
HETATM    2  N3  UNL     1      38.243  18.752 -16.298  1.00  0.00    -0.278 N 
ATOM      3  H3  UNL     1      38.668  19.137 -17.142  1.00  0.00     0.189 HD
HETATM    4  C4  UNL     1      36.934  18.807 -16.012  1.00  0.00     0.157 A 
HETATM    5  N4  UNL     1      35.840  19.310 -16.627  1.00  0.00    -0.174 N 
ATOM      6  H4  UNL     1      35.935  19.778 -17.528  1.00  0.00     0.186 HD
HETATM    7  C5  UNL     1      34.631  19.196 -16.057  1.00  0.00     0.680 A 
HETATM    8  N6  UNL     1      34.495  18.577 -14.859  1.00  0.00    -0.155 N 
ATOM      9  H6  UNL     1      33.567  18.503 -14.443  1.00  0.00     0.187 HD
HETATM   10  C6  UNL     1      35.539  18.063 -14.208  1.00  0.00     0.279 A 
HETATM   11  O1  UNL     1      35.451  17.484 -13.100  1.00  0.00    -0.266 OA
HETATM   12  C7  UNL     1      36.790  18.180 -14.798  1.00  0.00     0.147 A 
HETATM   13  C8  UNL     1      38.032  17.764 -14.389  1.00  0.00     0.282 A 
HETATM   14  O2  UNL     1      38.263  17.144 -13.299  1.00  0.00    -0.265 OA
ENDROOT
BRANCH   1  15
HETATM   15  C3  UNL     1      40.337  17.862 -15.254  1.00  0.00     0.184 C 
BRANCH  15  16
HETATM   16  C2  UNL     1      40.628  16.609 -14.468  1.00  0.00     0.108 C 
BRANCH  16  17
HETATM   17  N1  UNL     1      41.864  16.025 -14.724  1.00  0.00    -0.274 N 
HETATM   18  C1  UNL     1      42.340  15.945 -16.045  1.00  0.00     0.171 C 
BRANCH  17  19
HETATM   19  S1  UNL     1      42.512  14.971 -13.593  1.00  0.00     0.210 S 
HETATM   20  O4  UNL     1      43.219  15.786 -12.517  1.00  0.00    -0.578 OA
HETATM   21  O5  UNL     1      43.474  14.025 -14.249  1.00  0.00    -0.578 OA
HETATM   22  O6  UNL     1      41.257  14.116 -12.852  1.00  0.00    -0.578 OA
ENDBRANCH  17  19
ENDBRANCH  16  17
ENDBRANCH  15  16
BRANCH  15  23
HETATM   23  C9  UNL     1      41.042  19.071 -14.677  1.00  0.00     0.078 C 
HETATM   24  C10 UNL     1      42.135  19.542 -15.590  1.00  0.00     0.048 C 
HETATM   25  C11 UNL     1      41.508  18.850 -13.266  1.00  0.00     0.048 C 
BRANCH  23  26
HETATM   26  O3  UNL     1      40.075  20.100 -14.640  1.00  0.00    -0.388 OA
ATOM     27  H3  UNL     1      40.555  20.901 -14.462  1.00  0.00     0.210 HD
ENDBRANCH  23  26
ENDBRANCH  15  23
ENDBRANCH   1  15
BRANCH   7  28
HETATM   28  N5  UNL     1      33.590  19.685 -16.661  1.00  0.00    -0.234 N 
ATOM     29  H52 UNL     1      33.678  20.523 -17.236  1.00  0.00     0.174 HD
ATOM     30  H51 UNL     1      32.687  19.224 -16.557  1.00  0.00     0.174 HD
ENDBRANCH   7  28
TORSDOF 7
ENDMDL
MODEL 3
REMARK VINA RESULT: -6.475548326      2.460      3.735
REMARK  7 active torsions:
REMARK  status: ('A' for Active; 'I' for Inactive)
REMARK    1  A    between atoms: N1_2  and  C2_3 
REMARK    2  A    between atoms: N1_2  and  S1_27 
REMARK    3  A    between atoms: C2_3  and  C3_4 
REMARK    4  A    between atoms: C3_4  and  N2_5 
REMARK    5  A    between atoms: C3_4  and  C9_22 
REMARK    6  A    between atoms: C5_11  and  N5_12 
REMARK    7  A    between atoms: C9_22  and  O3_25 
ROOT
HETATM    1  N2  UNL     1      39.118  17.929 -15.125  1.00  0.00    -0.242 N 
HETATM    2  N3  UNL     1      38.532  18.212 -16.279  1.00  0.00    -0.278 N 
ATOM      3  H3  UNL     1      39.021  18.549 -17.109  1.00  0.00     0.189 HD
HETATM    4  C4  UNL     1      37.210  17.996 -16.211  1.00  0.00     0.157 A 
HETATM    5  N4  UNL     1      36.174  18.119 -17.071  1.00  0.00    -0.174 N 
ATOM      6  H4  UNL     1      36.340  18.448 -18.022  1.00  0.00     0.186 HD
HETATM    7  C5  UNL     1      34.928  17.810 -16.680  1.00  0.00     0.680 A 
HETATM    8  N6  UNL     1      34.697  17.373 -15.418  1.00  0.00    -0.155 N 
ATOM      9  H6  UNL     1      33.743  17.145 -15.141  1.00  0.00     0.187 HD
HETATM   10  C6  UNL     1      35.681  17.232 -14.528  1.00  0.00     0.279 A 
HETATM   11  O1  UNL     1      35.503  16.831 -13.354  1.00  0.00    -0.266 OA
HETATM   12  C7  UNL     1      36.969  17.551 -14.934  1.00  0.00     0.147 A 
HETATM   13  C8  UNL     1      38.167  17.516 -14.267  1.00  0.00     0.282 A 
HETATM   14  O2  UNL     1      38.309  17.148 -13.054  1.00  0.00    -0.265 OA
ENDROOT
BRANCH   1  15
HETATM   15  C3  UNL     1      40.525  18.025 -14.776  1.00  0.00     0.184 C 
BRANCH  15  16
HETATM   16  C2  UNL     1      41.265  18.978 -15.680  1.00  0.00     0.108 C 
BRANCH  16  17
HETATM   17  N1  UNL     1      41.386  20.276 -15.196  1.00  0.00    -0.274 N 
HETATM   18  C1  UNL     1      41.909  20.498 -13.910  1.00  0.00     0.171 C 
BRANCH  17  19
HETATM   19  S1  UNL     1      40.446  21.485 -15.879  1.00  0.00     0.210 S 
HETATM   20  O4  UNL     1      40.869  22.824 -15.286  1.00  0.00    -0.578 OA
HETATM   21  O5  UNL     1      38.992  21.231 -15.613  1.00  0.00    -0.578 OA
HETATM   22  O6  UNL     1      40.741  21.541 -17.542  1.00  0.00    -0.578 OA
ENDBRANCH  17  19
ENDBRANCH  16  17
ENDBRANCH  15  16
BRANCH  15  23
HETATM   23  C9  UNL     1      41.138  16.640 -14.787  1.00  0.00     0.078 C 
HETATM   24  C10 UNL     1      41.653  16.270 -13.428  1.00  0.00     0.048 C 
HETATM   25  C11 UNL     1      42.162  16.470 -15.873  1.00  0.00     0.048 C 
BRANCH  23  26
HETATM   26  O3  UNL     1      40.077  15.751 -15.072  1.00  0.00    -0.388 OA
ATOM     27  H3  UNL     1      40.482  14.907 -15.232  1.00  0.00     0.210 HD
ENDBRANCH  23  26
ENDBRANCH  15  23
ENDBRANCH   1  15
BRANCH   7  28
HETATM   28  N5  UNL     1      33.945  17.933 -17.518  1.00  0.00    -0.234 N 
ATOM     29  H52 UNL     1      34.086  17.732 -18.509  1.00  0.00     0.174 HD
ATOM     30  H51 UNL     1      33.030  18.231 -17.180  1.00  0.00     0.174 HD
ENDBRANCH   7  28
TORSDOF 7
ENDMDL
MODEL 4
REMARK VINA RESULT: -6.460009922      2.574      3.626
REMARK  7 active torsions:
REMARK  status: ('A' for Active; 'I' for Inactive)
REMARK    1  A    between atoms: N1_2  and  C2_3 
REMARK    2  A    between atoms: N1_2  and  S1_27 
REMARK    3  A    between atoms: C2_3  and  C3_4 
REMARK    4  A    between atoms: C3_4  and  N2_5 
REMARK    5  A    between atoms: C3_4  and  C9_22 
REMARK    6  A    between atoms: C5_11  and  N5_12 
REMARK    7  A    between atoms: C9_22  and  O3_25 
ROOT
HETATM    1  N2  UNL     1      38.524  18.209 -15.321  1.00  0.00    -0.242 N 
HETATM    2  N3  UNL     1      38.032  18.186 -16.551  1.00  0.00    -0.278 N 
ATOM      3  H3  UNL     1      38.513  18.553 -17.373  1.00  0.00     0.189 HD
HETATM    4  C4  UNL     1      36.818  17.617 -16.572  1.00  0.00     0.157 A 
HETATM    5  N4  UNL     1      35.903  17.348 -17.530  1.00  0.00    -0.174 N 
ATOM      6  H4  UNL     1      36.093  17.603 -18.499  1.00  0.00     0.186 HD
HETATM    7  C5  UNL     1      34.746  16.747 -17.212  1.00  0.00     0.680 A 
HETATM    8  N6  UNL     1      34.484  16.405 -15.927  1.00  0.00    -0.155 N 
ATOM      9  H6  UNL     1      33.598  15.951 -15.707  1.00  0.00     0.187 HD
HETATM   10  C6  UNL     1      35.351  16.646 -14.942  1.00  0.00     0.279 A 
HETATM   11  O1  UNL     1      35.142  16.344 -13.743  1.00  0.00    -0.266 OA
HETATM   12  C7  UNL     1      36.548  17.267 -15.271  1.00  0.00     0.147 A 
HETATM   13  C8  UNL     1      37.619  17.643 -14.502  1.00  0.00     0.282 A 
HETATM   14  O2  UNL     1      37.701  17.466 -13.241  1.00  0.00    -0.265 OA
ENDROOT
BRANCH   1  15
HETATM   15  C3  UNL     1      39.799  18.734 -14.865  1.00  0.00     0.184 C 
BRANCH  15  16
HETATM   16  C2  UNL     1      40.390  19.711 -15.849  1.00  0.00     0.108 C 
BRANCH  16  17
HETATM   17  N1  UNL     1      40.361  21.042 -15.449  1.00  0.00    -0.274 N 
HETATM   18  C1  UNL     1      39.339  21.889 -15.911  1.00  0.00     0.171 C 
BRANCH  17  19
HETATM   19  S1  UNL     1      41.775  21.752 -14.892  1.00  0.00     0.210 S 
HETATM   20  O4  UNL     1      42.279  20.958 -13.694  1.00  0.00    -0.578 OA
HETATM   21  O5  UNL     1      41.526  23.180 -14.507  1.00  0.00    -0.578 OA
HETATM   22  O6  UNL     1      42.951  21.664 -16.102  1.00  0.00    -0.578 OA
ENDBRANCH  17  19
ENDBRANCH  16  17
ENDBRANCH  15  16
BRANCH  15  23
HETATM   23  C9  UNL     1      40.738  17.582 -14.574  1.00  0.00     0.078 C 
HETATM   24  C10 UNL     1      41.064  17.510 -13.111  1.00  0.00     0.048 C 
HETATM   25  C11 UNL     1      41.959  17.596 -15.450  1.00  0.00     0.048 C 
BRANCH  23  26
HETATM   26  O3  UNL     1      40.016  16.408 -14.885  1.00  0.00    -0.388 OA
ATOM     27  H3  UNL     1      39.458  16.241 -14.135  1.00  0.00     0.210 HD
ENDBRANCH  23  26
ENDBRANCH  15  23
ENDBRANCH   1  15
BRANCH   7  28
HETATM   28  N5  UNL     1      33.878  16.496 -18.144  1.00  0.00    -0.234 N 
ATOM     29  H52 UNL     1      33.228  17.221 -18.448  1.00  0.00     0.174 HD
ATOM     30  H51 UNL     1      33.853  15.571 -18.571  1.00  0.00     0.174 HD
ENDBRANCH   7  28
TORSDOF 7
ENDMDL
MODEL 5
REMARK VINA RESULT: -6.290630260      2.836      4.735
REMARK  7 active torsions:
REMARK  status: ('A' for Active; 'I' for Inactive)
REMARK    1  A    between atoms: N1_2  and  C2_3 
REMARK    2  A    between atoms: N1_2  and  S1_27 
REMARK    3  A    between atoms: C2_3  and  C3_4 
REMARK    4  A    between atoms: C3_4  and  N2_5 
REMARK    5  A    between atoms: C3_4  and  C9_22 
REMARK    6  A    between atoms: C5_11  and  N5_12 
REMARK    7  A    between atoms: C9_22  and  O3_25 
ROOT
HETATM    1  N2  UNL     1      41.051  17.064 -13.565  1.00  0.00    -0.242 N 
HETATM    2  N3  UNL     1      40.157  16.096 -13.708  1.00  0.00    -0.278 N 
ATOM      3  H3  UNL     1      40.296  15.131 -13.406  1.00  0.00     0.189 HD
HETATM    4  C4  UNL     1      39.045  16.554 -14.302  1.00  0.00     0.157 A 
HETATM    5  N4  UNL     1      37.865  16.010 -14.675  1.00  0.00    -0.174 N 
ATOM      6  H4  UNL     1      37.686  15.021 -14.505  1.00  0.00     0.186 HD
HETATM    7  C5  UNL     1      36.928  16.766 -15.267  1.00  0.00     0.680 A 
HETATM    8  N6  UNL     1      37.156  18.081 -15.498  1.00  0.00    -0.155 N 
ATOM      9  H6  UNL     1      36.431  18.637 -15.951  1.00  0.00     0.187 HD
HETATM   10  C6  UNL     1      38.302  18.671 -15.151  1.00  0.00     0.279 A 
HETATM   11  O1  UNL     1      38.547  19.884 -15.349  1.00  0.00    -0.266 OA
HETATM   12  C7  UNL     1      39.270  17.889 -14.538  1.00  0.00     0.147 A 
HETATM   13  C8  UNL     1      40.525  18.193 -14.074  1.00  0.00     0.282 A 
HETATM   14  O2  UNL     1      41.057  19.351 -14.134  1.00  0.00    -0.265 OA
ENDROOT
BRANCH   1  15
HETATM   15  C3  UNL     1      42.376  16.993 -12.976  1.00  0.00     0.184 C 
BRANCH  15  16
HETATM   16  C2  UNL     1      43.292  16.086 -13.758  1.00  0.00     0.108 C 
BRANCH  16  17
HETATM   17  N1  UNL     1      43.988  16.700 -14.793  1.00  0.00    -0.274 N 
HETATM   18  C1  UNL     1      44.938  17.696 -14.503  1.00  0.00     0.171 C 
BRANCH  17  19
HETATM   19  S1  UNL     1      43.342  16.661 -16.340  1.00  0.00     0.210 S 
HETATM   20  O4  UNL     1      43.061  18.090 -16.786  1.00  0.00    -0.578 OA
HETATM   21  O5  UNL     1      42.080  15.850 -16.358  1.00  0.00    -0.578 OA
HETATM   22  O6  UNL     1      44.481  16.003 -17.398  1.00  0.00    -0.578 OA
ENDBRANCH  17  19
ENDBRANCH  16  17
ENDBRANCH  15  16
BRANCH  15  23
HETATM   23  C9  UNL     1      42.257  16.567 -11.528  1.00  0.00     0.078 C 
HETATM   24  C10 UNL     1      41.283  17.438 -10.790  1.00  0.00     0.048 C 
HETATM   25  C11 UNL     1      43.591  16.463 -10.843  1.00  0.00     0.048 C 
BRANCH  23  26
HETATM   26  O3  UNL     1      41.700  15.269 -11.552  1.00  0.00    -0.388 OA
ATOM     27  H3  UNL     1      42.302  14.737 -12.059  1.00  0.00     0.210 HD
ENDBRANCH  23  26
ENDBRANCH  15  23
ENDBRANCH   1  15
BRANCH   7  28
HETATM   28  N5  UNL     1      35.800  16.228 -15.619  1.00  0.00    -0.234 N 
ATOM     29  H52 UNL     1      35.296  15.623 -14.970  1.00  0.00     0.174 HD
ATOM     30  H51 UNL     1      35.421  16.416 -16.546  1.00  0.00     0.174 HD
ENDBRANCH   7  28
TORSDOF 7
ENDMDL
