MODEL 1
REMARK VINA RESULT: -6.644456847      0.000      0.000
REMARK  9 active torsions:
REMARK  status: ('A' for Active; 'I' for Inactive)
REMARK    1  A    between atoms: N1_2  and  C2_4 
REMARK    2  A    between atoms: C3_7  and  N3_8 
REMARK    3  A    between atoms: N3_8  and  C4_10 
REMARK    4  A    between atoms: C4_10  and  C5_11 
REMARK    5  A    between atoms: C5_11  and  O1_12 
REMARK    6  A    between atoms: N5_17  and  C7_19 
REMARK    7  A    between atoms: C9_21  and  N6_22 
REMARK    8  A    between atoms: N6_22  and  C10_24 
REMARK    9  A    between atoms: C10_24  and  C11_25 
ROOT
HETATM    1  C2  UNL     1      38.100  18.928 -15.504  1.00  0.00     0.706 A 
HETATM    2  N2  UNL     1      36.773  18.780 -15.729  1.00  0.00    -0.022 N 
ATOM      3  H2  UNL     1      36.233  19.587 -16.041  1.00  0.00     0.203 HD
HETATM    4  C3  UNL     1      36.144  17.606 -15.554  1.00  0.00     0.707 A 
HETATM    5  N4  UNL     1      36.884  16.555 -15.140  1.00  0.00    -0.021 N 
ATOM      6  H4  UNL     1      36.426  15.654 -15.001  1.00  0.00     0.203 HD
HETATM    7  C6  UNL     1      38.197  16.655 -14.907  1.00  0.00     0.713 A 
HETATM    8  N5  UNL     1      38.862  15.642 -14.517  1.00  0.00    -0.175 N 
ATOM      9  H5  UNL     1      38.367  14.760 -14.389  1.00  0.00     0.186 HD
HETATM   10  N10 UNL     1      38.799  17.832 -15.086  1.00  0.00    -0.021 N 
ATOM     11  H10 UNL     1      39.800  17.915 -14.909  1.00  0.00     0.203 HD
ENDROOT
BRANCH   8  12
HETATM   12  C7  UNL     1      40.259  15.675 -14.249  1.00  0.00     0.125 A 
HETATM   13  C8  UNL     1      40.715  15.638 -12.941  1.00  0.00     0.097 A 
HETATM   14  C9  UNL     1      42.071  15.670 -12.702  1.00  0.00     0.105 A 
HETATM   15  N8  UNL     1      42.919  15.737 -13.752  1.00  0.00    -0.339 N 
HETATM   16  C15 UNL     1      42.485  15.773 -15.031  1.00  0.00     0.183 A 
ATOM     17  H8  UNL     1      43.923  15.761 -13.573  1.00  0.00     0.168 HD
HETATM   18  N9  UNL     1      41.153  15.740 -15.235  1.00  0.00    -0.338 N 
ATOM     19  H9  UNL     1      40.812  15.767 -16.196  1.00  0.00     0.168 HD
BRANCH  14  20
HETATM   20  N6  UNL     1      42.475  15.635 -11.479  1.00  0.00    -0.374 N 
ATOM     21  H6  UNL     1      42.183  14.849 -10.897  1.00  0.00     0.161 HD
BRANCH  20  22
HETATM   22  C10 UNL     1      43.314  16.643 -10.889  1.00  0.00     0.154 C 
BRANCH  22  23
HETATM   23  C11 UNL     1      42.597  17.966 -10.727  1.00  0.00     0.203 C 
HETATM   24  C12 UNL     1      41.436  17.746  -9.804  1.00  0.00     0.036 C 
HETATM   25  C13 UNL     1      42.094  17.784  -8.431  1.00  0.00     0.029 C 
HETATM   26  C14 UNL     1      43.393  18.506  -8.655  1.00  0.00     0.233 C 
HETATM   27  N7  UNL     1      43.410  18.923 -10.034  1.00  0.00    -0.069 N 
ATOM     28  H72 UNL     1      44.348  19.023 -10.422  1.00  0.00     0.277 HD
ATOM     29  H71 UNL     1      43.118  19.890 -10.175  1.00  0.00     0.277 HD
ENDBRANCH  22  23
ENDBRANCH  20  22
ENDBRANCH  14  20
ENDBRANCH   8  12
BRANCH   4  30
HETATM   30  N3  UNL     1      34.886  17.421 -15.756  1.00  0.00    -0.223 N 
ATOM     31  H3  UNL     1      34.314  17.148 -14.955  1.00  0.00     0.177 HD
BRANCH  30  32
HETATM   32  C4  UNL     1      34.230  17.571 -17.017  1.00  0.00     0.164 C 
BRANCH  32  33
HETATM   33  C5  UNL     1      33.769  19.000 -17.259  1.00  0.00     0.184 C 
BRANCH  33  34
HETATM   34  O1  UNL     1      34.711  19.595 -18.097  1.00  0.00    -0.399 OA
ATOM     35  H1  UNL     1      35.507  19.700 -17.589  1.00  0.00     0.209 HD
ENDBRANCH  33  34
ENDBRANCH  32  33
ENDBRANCH  30  32
ENDBRANCH   4  30
BRANCH   1  36
HETATM   36  N1  UNL     1      38.722  20.048 -15.666  1.00  0.00    -0.229 N 
HETATM   37  C1  UNL     1      40.030  20.245 -15.091  1.00  0.00     0.165 C 
ATOM     38  H1  UNL     1      38.285  20.796 -16.204  1.00  0.00     0.177 HD
ENDBRANCH   1  36
TORSDOF 9
ENDMDL
MODEL 2
REMARK VINA RESULT: -6.500362196      1.606      2.093
REMARK  9 active torsions:
REMARK  status: ('A' for Active; 'I' for Inactive)
REMARK    1  A    between atoms: N1_2  and  C2_4 
REMARK    2  A    between atoms: C3_7  and  N3_8 
REMARK    3  A    between atoms: N3_8  and  C4_10 
REMARK    4  A    between atoms: C4_10  and  C5_11 
REMARK    5  A    between atoms: C5_11  and  O1_12 
REMARK    6  A    between atoms: N5_17  and  C7_19 
REMARK    7  A    between atoms: C9_21  and  N6_22 
REMARK    8  A    between atoms: N6_22  and  C10_24 
REMARK    9  A    between atoms: C10_24  and  C11_25 
ROOT
HETATM    1  C2  UNL     1      38.217  18.779 -15.416  1.00  0.00     0.706 A 
HETATM    2  N2  UNL     1      37.118  18.086 -15.797  1.00  0.00    -0.022 N 
ATOM      3  H2  UNL     1      36.413  18.555 -16.364  1.00  0.00     0.203 HD
HETATM    4  C3  UNL     1      36.928  16.801 -15.455  1.00  0.00     0.707 A 
HETATM    5  N4  UNL     1      37.879  16.205 -14.704  1.00  0.00    -0.021 N 
ATOM      6  H4  UNL     1      37.754  15.230 -14.432  1.00  0.00     0.203 HD
HETATM    7  C6  UNL     1      38.981  16.850 -14.305  1.00  0.00     0.713 A 
HETATM    8  N5  UNL     1      39.857  16.256 -13.598  1.00  0.00    -0.175 N 
ATOM      9  H5  UNL     1      39.694  15.281 -13.348  1.00  0.00     0.186 HD
HETATM   10  N10 UNL     1      39.147  18.127 -14.658  1.00  0.00    -0.021 N 
ATOM     11  H10 UNL     1      39.985  18.624 -14.355  1.00  0.00     0.203 HD
ENDROOT
BRANCH   8  12
HETATM   12  C7  UNL     1      41.051  16.879 -13.138  1.00  0.00     0.125 A 
HETATM   13  C8  UNL     1      41.168  17.256 -11.810  1.00  0.00     0.097 A 
HETATM   14  C9  UNL     1      42.331  17.856 -11.384  1.00  0.00     0.105 A 
HETATM   15  N8  UNL     1      43.326  18.062 -12.275  1.00  0.00    -0.339 N 
HETATM   16  C15 UNL     1      43.221  17.699 -13.572  1.00  0.00     0.183 A 
ATOM     17  H8  UNL     1      44.187  18.507 -11.957  1.00  0.00     0.168 HD
HETATM   18  N9  UNL     1      42.073  17.113 -13.961  1.00  0.00    -0.338 N 
ATOM     19  H9  UNL     1      41.980  16.833 -14.937  1.00  0.00     0.168 HD
BRANCH  14  20
HETATM   20  N6  UNL     1      42.421  18.199 -10.145  1.00  0.00    -0.374 N 
ATOM     21  H6  UNL     1      42.869  19.088  -9.921  1.00  0.00     0.161 HD
BRANCH  20  22
HETATM   22  C10 UNL     1      41.925  17.396  -9.059  1.00  0.00     0.154 C 
BRANCH  22  23
HETATM   23  C11 UNL     1      42.938  17.247  -7.944  1.00  0.00     0.203 C 
HETATM   24  C12 UNL     1      42.459  16.155  -7.036  1.00  0.00     0.036 C 
HETATM   25  C13 UNL     1      42.891  14.895  -7.775  1.00  0.00     0.029 C 
HETATM   26  C14 UNL     1      43.974  15.360  -8.708  1.00  0.00     0.233 C 
HETATM   27  N7  UNL     1      44.192  16.758  -8.437  1.00  0.00    -0.069 N 
ATOM     28  H72 UNL     1      44.553  17.281  -9.235  1.00  0.00     0.277 HD
ATOM     29  H71 UNL     1      44.978  16.938  -7.812  1.00  0.00     0.277 HD
ENDBRANCH  22  23
ENDBRANCH  20  22
ENDBRANCH  14  20
ENDBRANCH   8  12
BRANCH   4  30
HETATM   30  N3  UNL     1      35.899  16.106 -15.795  1.00  0.00    -0.223 N 
ATOM     31  H3  UNL     1      36.001  15.091 -15.819  1.00  0.00     0.177 HD
BRANCH  30  32
HETATM   32  C4  UNL     1      34.624  16.651 -16.142  1.00  0.00     0.164 C 
BRANCH  32  33
HETATM   33  C5  UNL     1      34.426  16.738 -17.647  1.00  0.00     0.184 C 
BRANCH  33  34
HETATM   34  O1  UNL     1      34.839  18.011 -18.038  1.00  0.00    -0.399 OA
ATOM     35  H1  UNL     1      34.317  18.635 -17.547  1.00  0.00     0.209 HD
ENDBRANCH  33  34
ENDBRANCH  32  33
ENDBRANCH  30  32
ENDBRANCH   4  30
BRANCH   1  36
HETATM   36  N1  UNL     1      38.418  20.013 -15.735  1.00  0.00    -0.229 N 
HETATM   37  C1  UNL     1      39.650  20.670 -15.369  1.00  0.00     0.165 C 
ATOM     38  H1  UNL     1      37.702  20.527 -16.248  1.00  0.00     0.177 HD
ENDBRANCH   1  36
TORSDOF 9
ENDMDL
MODEL 3
REMARK VINA RESULT: -6.496562670      3.840      7.383
REMARK  9 active torsions:
REMARK  status: ('A' for Active; 'I' for Inactive)
REMARK    1  A    between atoms: N1_2  and  C2_4 
REMARK    2  A    between atoms: C3_7  and  N3_8 
REMARK    3  A    between atoms: N3_8  and  C4_10 
REMARK    4  A    between atoms: C4_10  and  C5_11 
REMARK    5  A    between atoms: C5_11  and  O1_12 
REMARK    6  A    between atoms: N5_17  and  C7_19 
REMARK    7  A    between atoms: C9_21  and  N6_22 
REMARK    8  A    between atoms: N6_22  and  C10_24 
REMARK    9  A    between atoms: C10_24  and  C11_25 
ROOT
HETATM    1  C2  UNL     1      41.094  21.357 -19.009  1.00  0.00     0.706 A 
HETATM    2  N2  UNL     1      40.832  22.569 -19.553  1.00  0.00    -0.022 N 
ATOM      3  H2  UNL     1      41.248  22.805 -20.453  1.00  0.00     0.203 HD
HETATM    4  C3  UNL     1      40.041  23.470 -18.946  1.00  0.00     0.707 A 
HETATM    5  N4  UNL     1      39.503  23.129 -17.754  1.00  0.00    -0.021 N 
ATOM      6  H4  UNL     1      38.901  23.799 -17.276  1.00  0.00     0.203 HD
HETATM    7  C6  UNL     1      39.734  21.944 -17.181  1.00  0.00     0.713 A 
HETATM    8  N5  UNL     1      39.210  21.657 -16.057  1.00  0.00    -0.175 N 
ATOM      9  H5  UNL     1      38.613  22.354 -15.612  1.00  0.00     0.186 HD
HETATM   10  N10 UNL     1      40.523  21.066 -17.803  1.00  0.00    -0.021 N 
ATOM     11  H10 UNL     1      40.704  20.160 -17.370  1.00  0.00     0.203 HD
ENDROOT
BRANCH   8  12
HETATM   12  C7  UNL     1      39.411  20.418 -15.388  1.00  0.00     0.125 A 
HETATM   13  C8  UNL     1      38.440  19.430 -15.453  1.00  0.00     0.097 A 
HETATM   14  C9  UNL     1      38.654  18.237 -14.799  1.00  0.00     0.105 A 
HETATM   15  N8  UNL     1      39.805  18.064 -14.113  1.00  0.00    -0.339 N 
HETATM   16  C15 UNL     1      40.757  19.020 -14.044  1.00  0.00     0.183 A 
ATOM     17  H8  UNL     1      39.960  17.179 -13.629  1.00  0.00     0.168 HD
HETATM   18  N9  UNL     1      40.522  20.177 -14.693  1.00  0.00    -0.338 N 
ATOM     19  H9  UNL     1      41.233  20.907 -14.649  1.00  0.00     0.168 HD
BRANCH  14  20
HETATM   20  N6  UNL     1      37.740  17.332 -14.871  1.00  0.00    -0.374 N 
ATOM     21  H6  UNL     1      37.689  16.636 -14.126  1.00  0.00     0.161 HD
BRANCH  20  22
HETATM   22  C10 UNL     1      36.787  17.247 -15.945  1.00  0.00     0.154 C 
BRANCH  22  23
HETATM   23  C11 UNL     1      35.406  16.860 -15.459  1.00  0.00     0.203 C 
HETATM   24  C12 UNL     1      34.882  17.991 -14.626  1.00  0.00     0.036 C 
HETATM   25  C13 UNL     1      34.382  18.973 -15.676  1.00  0.00     0.029 C 
HETATM   26  C14 UNL     1      34.190  18.138 -16.912  1.00  0.00     0.233 C 
HETATM   27  N7  UNL     1      34.473  16.774 -16.545  1.00  0.00    -0.069 N 
ATOM     28  H72 UNL     1      34.798  16.197 -17.322  1.00  0.00     0.277 HD
ATOM     29  H71 UNL     1      33.641  16.225 -16.330  1.00  0.00     0.277 HD
ENDBRANCH  22  23
ENDBRANCH  20  22
ENDBRANCH  14  20
ENDBRANCH   8  12
BRANCH   4  30
HETATM   30  N3  UNL     1      39.767  24.633 -19.426  1.00  0.00    -0.223 N 
ATOM     31  H3  UNL     1      39.491  25.362 -18.768  1.00  0.00     0.177 HD
BRANCH  30  32
HETATM   32  C4  UNL     1      39.820  24.976 -20.813  1.00  0.00     0.164 C 
BRANCH  32  33
HETATM   33  C5  UNL     1      38.713  24.307 -21.613  1.00  0.00     0.184 C 
BRANCH  33  34
HETATM   34  O1  UNL     1      39.297  23.249 -22.308  1.00  0.00    -0.399 OA
ATOM     35  H1  UNL     1      39.728  22.698 -21.665  1.00  0.00     0.209 HD
ENDBRANCH  33  34
ENDBRANCH  32  33
ENDBRANCH  30  32
ENDBRANCH   4  30
BRANCH   1  36
HETATM   36  N1  UNL     1      41.850  20.478 -19.576  1.00  0.00    -0.229 N 
HETATM   37  C1  UNL     1      43.284  20.553 -19.440  1.00  0.00     0.165 C 
ATOM     38  H1  UNL     1      41.431  19.726 -20.124  1.00  0.00     0.177 HD
ENDBRANCH   1  36
TORSDOF 9
ENDMDL
MODEL 4
REMARK VINA RESULT: -6.470931011      3.633      6.993
REMARK  9 active torsions:
REMARK  status: ('A' for Active; 'I' for Inactive)
REMARK    1  A    between atoms: N1_2  and  C2_4 
REMARK    2  A    between atoms: C3_7  and  N3_8 
REMARK    3  A    between atoms: N3_8  and  C4_10 
REMARK    4  A    between atoms: C4_10  and  C5_11 
REMARK    5  A    between atoms: C5_11  and  O1_12 
REMARK    6  A    between atoms: N5_17  and  C7_19 
REMARK    7  A    between atoms: C9_21  and  N6_22 
REMARK    8  A    between atoms: N6_22  and  C10_24 
REMARK    9  A    between atoms: C10_24  and  C11_25 
ROOT
HETATM    1  C2  UNL     1      39.061  17.148 -14.154  1.00  0.00     0.706 A 
HETATM    2  N2  UNL     1      37.997  16.392 -14.515  1.00  0.00    -0.022 N 
ATOM      3  H2  UNL     1      37.923  15.442 -14.154  1.00  0.00     0.203 HD
HETATM    4  C3  UNL     1      37.035  16.854 -15.332  1.00  0.00     0.707 A 
HETATM    5  N4  UNL     1      37.160  18.117 -15.794  1.00  0.00    -0.021 N 
ATOM      6  H4  UNL     1      36.441  18.487 -16.417  1.00  0.00     0.203 HD
HETATM    7  C6  UNL     1      38.193  18.899 -15.463  1.00  0.00     0.713 A 
HETATM    8  N5  UNL     1      38.277  20.085 -15.919  1.00  0.00    -0.175 N 
ATOM      9  H5  UNL     1      37.538  20.417 -16.537  1.00  0.00     0.186 HD
HETATM   10  N10 UNL     1      39.136  18.418 -14.651  1.00  0.00    -0.021 N 
ATOM     11  H10 UNL     1      39.927  19.009 -14.396  1.00  0.00     0.203 HD
ENDROOT
BRANCH   8  12
HETATM   12  C7  UNL     1      39.347  20.972 -15.610  1.00  0.00     0.125 A 
HETATM   13  C8  UNL     1      39.385  22.234 -16.180  1.00  0.00     0.097 A 
HETATM   14  C9  UNL     1      40.428  23.078 -15.868  1.00  0.00     0.105 A 
HETATM   15  N8  UNL     1      41.385  22.650 -15.016  1.00  0.00    -0.339 N 
HETATM   16  C15 UNL     1      41.356  21.421 -14.456  1.00  0.00     0.183 A 
ATOM     17  H8  UNL     1      42.156  23.277 -14.787  1.00  0.00     0.168 HD
HETATM   18  N9  UNL     1      40.325  20.616 -14.778  1.00  0.00    -0.338 N 
ATOM     19  H9  UNL     1      40.290  19.686 -14.361  1.00  0.00     0.168 HD
BRANCH  14  20
HETATM   20  N6  UNL     1      40.446  24.248 -16.408  1.00  0.00    -0.374 N 
ATOM     21  H6  UNL     1      40.939  24.364 -17.294  1.00  0.00     0.161 HD
BRANCH  20  22
HETATM   22  C10 UNL     1      39.809  25.401 -15.829  1.00  0.00     0.154 C 
BRANCH  22  23
HETATM   23  C11 UNL     1      39.179  26.296 -16.875  1.00  0.00     0.203 C 
HETATM   24  C12 UNL     1      37.898  25.652 -17.314  1.00  0.00     0.036 C 
HETATM   25  C13 UNL     1      36.932  26.047 -16.204  1.00  0.00     0.029 C 
HETATM   26  C14 UNL     1      37.572  27.243 -15.555  1.00  0.00     0.233 C 
HETATM   27  N7  UNL     1      38.760  27.546 -16.313  1.00  0.00    -0.069 N 
ATOM     28  H72 UNL     1      39.485  28.017 -15.770  1.00  0.00     0.277 HD
ATOM     29  H71 UNL     1      38.629  28.285 -17.003  1.00  0.00     0.277 HD
ENDBRANCH  22  23
ENDBRANCH  20  22
ENDBRANCH  14  20
ENDBRANCH   8  12
BRANCH   4  30
HETATM   30  N3  UNL     1      36.009  16.171 -15.701  1.00  0.00    -0.223 N 
ATOM     31  H3  UNL     1      36.114  15.158 -15.766  1.00  0.00     0.177 HD
BRANCH  30  32
HETATM   32  C4  UNL     1      34.732  16.726 -16.025  1.00  0.00     0.164 C 
BRANCH  32  33
HETATM   33  C5  UNL     1      34.405  16.592 -17.504  1.00  0.00     0.184 C 
BRANCH  33  34
HETATM   34  O1  UNL     1      35.073  17.624 -18.163  1.00  0.00    -0.399 OA
ATOM     35  H1  UNL     1      35.582  17.225 -18.859  1.00  0.00     0.209 HD
ENDBRANCH  33  34
ENDBRANCH  32  33
ENDBRANCH  30  32
ENDBRANCH   4  30
BRANCH   1  36
HETATM   36  N1  UNL     1      39.994  16.722 -13.370  1.00  0.00    -0.229 N 
HETATM   37  C1  UNL     1      41.022  17.622 -12.904  1.00  0.00     0.165 C 
ATOM     38  H1  UNL     1      40.005  15.745 -13.079  1.00  0.00     0.177 HD
ENDBRANCH   1  36
TORSDOF 9
ENDMDL
MODEL 5
REMARK VINA RESULT: -6.361720101      3.875      8.502
REMARK  9 active torsions:
REMARK  status: ('A' for Active; 'I' for Inactive)
REMARK    1  A    between atoms: N1_2  and  C2_4 
REMARK    2  A    between atoms: C3_7  and  N3_8 
REMARK    3  A    between atoms: N3_8  and  C4_10 
REMARK    4  A    between atoms: C4_10  and  C5_11 
REMARK    5  A    between atoms: C5_11  and  O1_12 
REMARK    6  A    between atoms: N5_17  and  C7_19 
REMARK    7  A    between atoms: C9_21  and  N6_22 
REMARK    8  A    between atoms: N6_22  and  C10_24 
REMARK    9  A    between atoms: C10_24  and  C11_25 
ROOT
HETATM    1  C2  UNL     1      44.140  15.666 -16.277  1.00  0.00     0.706 A 
HETATM    2  N2  UNL     1      45.032  14.666 -16.088  1.00  0.00    -0.022 N 
ATOM      3  H2  UNL     1      45.857  14.622 -16.685  1.00  0.00     0.203 HD
HETATM    4  C3  UNL     1      44.866  13.729 -15.138  1.00  0.00     0.707 A 
HETATM    5  N4  UNL     1      43.764  13.812 -14.363  1.00  0.00    -0.021 N 
ATOM      6  H4  UNL     1      43.618  13.111 -13.636  1.00  0.00     0.203 HD
HETATM    7  C6  UNL     1      42.857  14.783 -14.514  1.00  0.00     0.713 A 
HETATM    8  N5  UNL     1      41.829  14.829 -13.764  1.00  0.00    -0.175 N 
ATOM      9  H5  UNL     1      41.721  14.110 -13.050  1.00  0.00     0.186 HD
HETATM   10  N10 UNL     1      43.043  15.701 -15.464  1.00  0.00    -0.021 N 
ATOM     11  H10 UNL     1      42.354  16.444 -15.585  1.00  0.00     0.203 HD
ENDROOT
BRANCH   8  12
HETATM   12  C7  UNL     1      40.824  15.832 -13.868  1.00  0.00     0.125 A 
HETATM   13  C8  UNL     1      39.554  15.495 -14.308  1.00  0.00     0.097 A 
HETATM   14  C9  UNL     1      38.595  16.480 -14.400  1.00  0.00     0.105 A 
HETATM   15  N8  UNL     1      38.921  17.746 -14.061  1.00  0.00    -0.339 N 
HETATM   16  C15 UNL     1      40.157  18.084 -13.632  1.00  0.00     0.183 A 
ATOM     17  H8  UNL     1      38.209  18.473 -14.131  1.00  0.00     0.168 HD
HETATM   18  N9  UNL     1      41.075  17.101 -13.550  1.00  0.00    -0.338 N 
ATOM     19  H9  UNL     1      42.012  17.342 -13.227  1.00  0.00     0.168 HD
BRANCH  14  20
HETATM   20  N6  UNL     1      37.420  16.147 -14.811  1.00  0.00    -0.374 N 
ATOM     21  H6  UNL     1      37.025  15.265 -14.481  1.00  0.00     0.161 HD
BRANCH  20  22
HETATM   22  C10 UNL     1      36.634  16.950 -15.708  1.00  0.00     0.154 C 
BRANCH  22  23
HETATM   23  C11 UNL     1      35.150  16.850 -15.421  1.00  0.00     0.203 C 
HETATM   24  C12 UNL     1      34.751  18.073 -14.652  1.00  0.00     0.036 C 
HETATM   25  C13 UNL     1      34.602  19.120 -15.748  1.00  0.00     0.029 C 
HETATM   26  C14 UNL     1      34.421  18.321 -17.009  1.00  0.00     0.233 C 
HETATM   27  N7  UNL     1      34.376  16.933 -16.625  1.00  0.00    -0.069 N 
ATOM     28  H72 UNL     1      34.684  16.293 -17.358  1.00  0.00     0.277 HD
ATOM     29  H71 UNL     1      33.431  16.562 -16.534  1.00  0.00     0.277 HD
ENDBRANCH  22  23
ENDBRANCH  20  22
ENDBRANCH  14  20
ENDBRANCH   8  12
BRANCH   4  30
HETATM   30  N3  UNL     1      45.688  12.761 -14.924  1.00  0.00    -0.223 N 
ATOM     31  H3  UNL     1      46.048  12.648 -13.976  1.00  0.00     0.177 HD
BRANCH  30  32
HETATM   32  C4  UNL     1      46.134  11.834 -15.917  1.00  0.00     0.164 C 
BRANCH  32  33
HETATM   33  C5  UNL     1      46.082  10.396 -15.425  1.00  0.00     0.184 C 
BRANCH  33  34
HETATM   34  O1  UNL     1      44.873  10.242 -14.746  1.00  0.00    -0.399 OA
ATOM     35  H1  UNL     1      45.083  10.157 -13.823  1.00  0.00     0.209 HD
ENDBRANCH  33  34
ENDBRANCH  32  33
ENDBRANCH  30  32
ENDBRANCH   4  30
BRANCH   1  36
HETATM   36  N1  UNL     1      44.282  16.575 -17.183  1.00  0.00    -0.229 N 
HETATM   37  C1  UNL     1      44.899  16.255 -18.447  1.00  0.00     0.165 C 
ATOM     38  H1  UNL     1      43.955  17.524 -17.004  1.00  0.00     0.177 HD
ENDBRANCH   1  36
TORSDOF 9
ENDMDL
