MODEL 1
REMARK VINA RESULT: -8.232411120      0.000      0.000
REMARK  7 active torsions:
REMARK  status: ('A' for Active; 'I' for Inactive)
REMARK    1  A    between atoms: N1_1  and  C1_4 
REMARK    2  A    between atoms: C2_7  and  N3_8 
REMARK    3  A    between atoms: C7_18  and  N6_19 
REMARK    4  A    between atoms: N6_19  and  C8_21 
REMARK    5  A    between atoms: C8_21  and  C9_22 
REMARK    6  A    between atoms: C9_22  and  C10_23 
REMARK    7  A    between atoms: C10_23  and  C11_24 
ROOT
HETATM    1  C1  UNL     1      41.057  16.477 -15.148  1.00  0.00     0.705 A 
HETATM    2  N2  UNL     1      41.196  17.814 -15.139  1.00  0.00    -0.022 N 
ATOM      3  H2  UNL     1      42.118  18.207 -15.326  1.00  0.00     0.203 HD
HETATM    4  C2  UNL     1      40.161  18.671 -14.892  1.00  0.00     0.709 A 
HETATM    5  N5  UNL     1      38.969  18.115 -14.653  1.00  0.00    -0.021 N 
ATOM      6  H5  UNL     1      38.160  18.706 -14.463  1.00  0.00     0.203 HD
HETATM    7  C7  UNL     1      38.831  16.752 -14.663  1.00  0.00     0.707 A 
HETATM    8  N9  UNL     1      39.857  15.920 -14.907  1.00  0.00    -0.022 N 
ATOM      9  H9  UNL     1      39.731  14.908 -14.910  1.00  0.00     0.203 HD
ENDROOT
BRANCH   7  10
HETATM   10  N6  UNL     1      37.661  16.228 -14.427  1.00  0.00    -0.225 N 
ATOM     11  H6  UNL     1      37.265  15.554 -15.082  1.00  0.00     0.177 HD
BRANCH  10  12
HETATM   12  C8  UNL     1      36.914  16.603 -13.228  1.00  0.00     0.138 C 
BRANCH  12  13
HETATM   13  C9  UNL     1      35.458  16.681 -13.591  1.00  0.00     0.026 C 
BRANCH  13  14
HETATM   14  C10 UNL     1      35.082  18.087 -13.923  1.00  0.00     0.059 C 
BRANCH  14  15
HETATM   15  C11 UNL     1      34.606  18.179 -15.309  1.00  0.00     0.019 A 
HETATM   16  C12 UNL     1      34.138  19.286 -15.943  1.00  0.00     0.099 A 
HETATM   17  C13 UNL     1      33.744  19.202 -17.257  1.00  0.00     0.251 A 
HETATM   18  O1  UNL     1      33.310  20.234 -17.843  1.00  0.00    -0.268 OA
HETATM   19  N7  UNL     1      33.814  18.048 -17.913  1.00  0.00    -0.275 N 
HETATM   20  C14 UNL     1      34.275  16.934 -17.305  1.00  0.00     0.327 A 
ATOM     21  H7  UNL     1      33.517  18.003 -18.888  1.00  0.00     0.173 HD
HETATM   22  O2  UNL     1      34.315  15.879 -17.983  1.00  0.00    -0.247 OA
HETATM   23  N8  UNL     1      34.654  17.023 -16.034  1.00  0.00    -0.312 N 
ATOM     24  H8  UNL     1      35.001  16.181 -15.576  1.00  0.00     0.170 HD
ENDBRANCH  14  15
ENDBRANCH  13  14
ENDBRANCH  12  13
ENDBRANCH  10  12
ENDBRANCH   7  10
BRANCH   4  25
HETATM   25  N3  UNL     1      40.352  20.070 -14.896  1.00  0.00    -0.213 N 
HETATM   26  C3  UNL     1      41.500  20.675 -14.299  1.00  0.00     0.168 C 
HETATM   27  C4  UNL     1      41.942  21.884 -15.116  1.00  0.00     0.252 C 
HETATM   28  N4  UNL     1      40.865  22.774 -15.411  1.00  0.00    -0.072 N 
HETATM   29  C5  UNL     1      39.956  22.027 -16.296  1.00  0.00     0.252 C 
ATOM     30  H42 UNL     1      40.407  23.150 -14.580  1.00  0.00     0.277 HD
ATOM     31  H41 UNL     1      41.169  23.667 -15.798  1.00  0.00     0.277 HD
HETATM   32  C6  UNL     1      39.344  20.898 -15.515  1.00  0.00     0.168 C 
ENDBRANCH   4  25
BRANCH   1  33
HETATM   33  N1  UNL     1      42.042  15.677 -15.383  1.00  0.00    -0.234 N 
ATOM     34  H12 UNL     1      42.375  15.619 -16.346  1.00  0.00     0.174 HD
ATOM     35  H11 UNL     1      42.482  15.119 -14.653  1.00  0.00     0.174 HD
ENDBRANCH   1  33
TORSDOF 7
ENDMDL
MODEL 2
REMARK VINA RESULT: -8.120640100      1.785      2.987
REMARK  7 active torsions:
REMARK  status: ('A' for Active; 'I' for Inactive)
REMARK    1  A    between atoms: N1_1  and  C1_4 
REMARK    2  A    between atoms: C2_7  and  N3_8 
REMARK    3  A    between atoms: C7_18  and  N6_19 
REMARK    4  A    between atoms: N6_19  and  C8_21 
REMARK    5  A    between atoms: C8_21  and  C9_22 
REMARK    6  A    between atoms: C9_22  and  C10_23 
REMARK    7  A    between atoms: C10_23  and  C11_24 
ROOT
HETATM    1  C1  UNL     1      39.202  20.430 -15.487  1.00  0.00     0.705 A 
HETATM    2  N2  UNL     1      40.371  20.302 -14.837  1.00  0.00    -0.022 N 
ATOM      3  H2  UNL     1      41.018  21.090 -14.843  1.00  0.00     0.203 HD
HETATM    4  C2  UNL     1      40.733  19.167 -14.167  1.00  0.00     0.709 A 
HETATM    5  N5  UNL     1      39.855  18.159 -14.183  1.00  0.00    -0.021 N 
ATOM      6  H5  UNL     1      40.072  17.287 -13.700  1.00  0.00     0.203 HD
HETATM    7  C7  UNL     1      38.664  18.294 -14.846  1.00  0.00     0.707 A 
HETATM    8  N9  UNL     1      38.320  19.415 -15.501  1.00  0.00    -0.022 N 
ATOM      9  H9  UNL     1      37.428  19.493 -15.988  1.00  0.00     0.203 HD
ENDROOT
BRANCH   7  10
HETATM   10  N6  UNL     1      37.821  17.299 -14.851  1.00  0.00    -0.225 N 
ATOM     11  H6  UNL     1      37.554  16.864 -15.734  1.00  0.00     0.177 HD
BRANCH  10  12
HETATM   12  C8  UNL     1      37.257  16.806 -13.596  1.00  0.00     0.138 C 
BRANCH  12  13
HETATM   13  C9  UNL     1      35.770  16.680 -13.772  1.00  0.00     0.026 C 
BRANCH  13  14
HETATM   14  C10 UNL     1      35.157  18.025 -13.983  1.00  0.00     0.059 C 
BRANCH  14  15
HETATM   15  C11 UNL     1      34.635  18.143 -15.350  1.00  0.00     0.019 A 
HETATM   16  C12 UNL     1      34.163  19.265 -15.953  1.00  0.00     0.099 A 
HETATM   17  C13 UNL     1      33.722  19.205 -17.253  1.00  0.00     0.251 A 
HETATM   18  O1  UNL     1      33.285  20.252 -17.810  1.00  0.00    -0.268 OA
HETATM   19  N7  UNL     1      33.751  18.059 -17.927  1.00  0.00    -0.275 N 
HETATM   20  C14 UNL     1      34.214  16.931 -17.349  1.00  0.00     0.327 A 
ATOM     21  H7  UNL     1      33.419  18.032 -18.890  1.00  0.00     0.173 HD
HETATM   22  O2  UNL     1      34.213  15.884 -18.042  1.00  0.00    -0.247 OA
HETATM   23  N8  UNL     1      34.639  16.996 -16.092  1.00  0.00    -0.312 N 
ATOM     24  H8  UNL     1      34.988  16.142 -15.657  1.00  0.00     0.170 HD
ENDBRANCH  14  15
ENDBRANCH  13  14
ENDBRANCH  12  13
ENDBRANCH  10  12
ENDBRANCH   7  10
BRANCH   4  25
HETATM   25  N3  UNL     1      41.970  19.077 -13.494  1.00  0.00    -0.213 N 
HETATM   26  C3  UNL     1      43.016  20.027 -13.710  1.00  0.00     0.168 C 
HETATM   27  C4  UNL     1      43.763  20.290 -12.408  1.00  0.00     0.252 C 
HETATM   28  N4  UNL     1      44.157  19.088 -11.745  1.00  0.00    -0.072 N 
HETATM   29  C5  UNL     1      42.907  18.424 -11.340  1.00  0.00     0.252 C 
ATOM     30  H42 UNL     1      44.770  18.495 -12.305  1.00  0.00     0.277 HD
ATOM     31  H41 UNL     1      44.806  19.241 -10.974  1.00  0.00     0.277 HD
HETATM   32  C6  UNL     1      42.174  17.983 -12.576  1.00  0.00     0.168 C 
ENDBRANCH   4  25
BRANCH   1  33
HETATM   33  N1  UNL     1      38.870  21.507 -16.115  1.00  0.00    -0.234 N 
ATOM     34  H12 UNL     1      37.912  21.838 -16.000  1.00  0.00     0.174 HD
ATOM     35  H11 UNL     1      39.523  22.022 -16.706  1.00  0.00     0.174 HD
ENDBRANCH   1  33
TORSDOF 7
ENDMDL
MODEL 3
REMARK VINA RESULT: -7.991375934      1.442      3.311
REMARK  7 active torsions:
REMARK  status: ('A' for Active; 'I' for Inactive)
REMARK    1  A    between atoms: N1_1  and  C1_4 
REMARK    2  A    between atoms: C2_7  and  N3_8 
REMARK    3  A    between atoms: C7_18  and  N6_19 
REMARK    4  A    between atoms: N6_19  and  C8_21 
REMARK    5  A    between atoms: C8_21  and  C9_22 
REMARK    6  A    between atoms: C9_22  and  C10_23 
REMARK    7  A    between atoms: C10_23  and  C11_24 
ROOT
HETATM    1  C1  UNL     1      39.307  19.324 -15.535  1.00  0.00     0.705 A 
HETATM    2  N2  UNL     1      40.575  18.881 -15.511  1.00  0.00    -0.022 N 
ATOM      3  H2  UNL     1      41.322  19.530 -15.760  1.00  0.00     0.203 HD
HETATM    4  C2  UNL     1      40.913  17.602 -15.168  1.00  0.00     0.709 A 
HETATM    5  N5  UNL     1      39.905  16.784 -14.848  1.00  0.00    -0.021 N 
ATOM      6  H5  UNL     1      40.098  15.818 -14.583  1.00  0.00     0.203 HD
HETATM    7  C7  UNL     1      38.614  17.240 -14.873  1.00  0.00     0.707 A 
HETATM    8  N9  UNL     1      38.295  18.500 -15.212  1.00  0.00    -0.022 N 
ATOM      9  H9  UNL     1      37.326  18.818 -15.224  1.00  0.00     0.203 HD
ENDROOT
BRANCH   7  10
HETATM   10  N6  UNL     1      37.645  16.427 -14.558  1.00  0.00    -0.225 N 
ATOM     11  H6  UNL     1      37.385  15.675 -15.196  1.00  0.00     0.177 HD
BRANCH  10  12
HETATM   12  C8  UNL     1      36.928  16.590 -13.295  1.00  0.00     0.138 C 
BRANCH  12  13
HETATM   13  C9  UNL     1      35.459  16.675 -13.600  1.00  0.00     0.026 C 
BRANCH  13  14
HETATM   14  C10 UNL     1      35.079  18.082 -13.925  1.00  0.00     0.059 C 
BRANCH  14  15
HETATM   15  C11 UNL     1      34.599  18.177 -15.310  1.00  0.00     0.019 A 
HETATM   16  C12 UNL     1      34.132  19.286 -15.940  1.00  0.00     0.099 A 
HETATM   17  C13 UNL     1      33.733  19.206 -17.253  1.00  0.00     0.251 A 
HETATM   18  O1  UNL     1      33.300  20.240 -17.835  1.00  0.00    -0.268 OA
HETATM   19  N7  UNL     1      33.800  18.053 -17.912  1.00  0.00    -0.275 N 
HETATM   20  C14 UNL     1      34.261  16.938 -17.307  1.00  0.00     0.327 A 
ATOM     21  H7  UNL     1      33.500  18.011 -18.885  1.00  0.00     0.173 HD
HETATM   22  O2  UNL     1      34.297  15.884 -17.988  1.00  0.00    -0.247 OA
HETATM   23  N8  UNL     1      34.644  17.023 -16.038  1.00  0.00    -0.312 N 
ATOM     24  H8  UNL     1      34.991  16.179 -15.582  1.00  0.00     0.170 HD
ENDBRANCH  14  15
ENDBRANCH  13  14
ENDBRANCH  12  13
ENDBRANCH  10  12
ENDBRANCH   7  10
BRANCH   4  25
HETATM   25  N3  UNL     1      42.260  17.179 -15.152  1.00  0.00    -0.213 N 
HETATM   26  C3  UNL     1      43.248  17.843 -14.362  1.00  0.00     0.168 C 
HETATM   27  C4  UNL     1      44.244  16.831 -13.808  1.00  0.00     0.252 C 
HETATM   28  N4  UNL     1      44.753  15.951 -14.811  1.00  0.00    -0.072 N 
HETATM   29  C5  UNL     1      43.605  15.148 -15.262  1.00  0.00     0.252 C 
ATOM     30  H42 UNL     1      45.236  16.433 -15.569  1.00  0.00     0.277 HD
ATOM     31  H41 UNL     1      45.545  15.390 -14.498  1.00  0.00     0.277 HD
HETATM   32  C6  UNL     1      42.635  16.052 -15.971  1.00  0.00     0.168 C 
ENDBRANCH   4  25
BRANCH   1  33
HETATM   33  N1  UNL     1      39.000  20.535 -15.860  1.00  0.00    -0.234 N 
ATOM     34  H12 UNL     1      39.765  21.154 -16.130  1.00  0.00     0.174 HD
ATOM     35  H11 UNL     1      38.040  20.879 -15.855  1.00  0.00     0.174 HD
ENDBRANCH   1  33
TORSDOF 7
ENDMDL
MODEL 4
REMARK VINA RESULT: -7.915111836      2.623      3.327
REMARK  7 active torsions:
REMARK  status: ('A' for Active; 'I' for Inactive)
REMARK    1  A    between atoms: N1_1  and  C1_4 
REMARK    2  A    between atoms: C2_7  and  N3_8 
REMARK    3  A    between atoms: C7_18  and  N6_19 
REMARK    4  A    between atoms: N6_19  and  C8_21 
REMARK    5  A    between atoms: C8_21  and  C9_22 
REMARK    6  A    between atoms: C9_22  and  C10_23 
REMARK    7  A    between atoms: C10_23  and  C11_24 
ROOT
HETATM    1  C1  UNL     1      41.857  15.914 -14.693  1.00  0.00     0.705 A 
HETATM    2  N2  UNL     1      42.233  16.575 -13.584  1.00  0.00    -0.022 N 
ATOM      3  H2  UNL     1      43.230  16.688 -13.401  1.00  0.00     0.203 HD
HETATM    4  C2  UNL     1      41.343  17.102 -12.691  1.00  0.00     0.709 A 
HETATM    5  N5  UNL     1      40.047  16.932 -12.970  1.00  0.00    -0.021 N 
ATOM      6  H5  UNL     1      39.338  17.305 -12.338  1.00  0.00     0.203 HD
HETATM    7  C7  UNL     1      39.668  16.259 -14.100  1.00  0.00     0.707 A 
HETATM    8  N9  UNL     1      40.552  15.745 -14.970  1.00  0.00    -0.022 N 
ATOM      9  H9  UNL     1      40.247  15.247 -15.806  1.00  0.00     0.203 HD
ENDROOT
BRANCH   7  10
HETATM   10  N6  UNL     1      38.398  16.103 -14.354  1.00  0.00    -0.225 N 
ATOM     11  H6  UNL     1      38.037  15.178 -14.588  1.00  0.00     0.177 HD
BRANCH  10  12
HETATM   12  C8  UNL     1      37.491  17.248 -14.305  1.00  0.00     0.138 C 
BRANCH  12  13
HETATM   13  C9  UNL     1      36.180  16.780 -13.740  1.00  0.00     0.026 C 
BRANCH  13  14
HETATM   14  C10 UNL     1      35.158  17.864 -13.837  1.00  0.00     0.059 C 
BRANCH  14  15
HETATM   15  C11 UNL     1      34.688  18.007 -15.220  1.00  0.00     0.019 A 
HETATM   16  C12 UNL     1      34.279  19.147 -15.833  1.00  0.00     0.099 A 
HETATM   17  C13 UNL     1      33.880  19.108 -17.148  1.00  0.00     0.251 A 
HETATM   18  O1  UNL     1      33.501  20.173 -17.714  1.00  0.00    -0.268 OA
HETATM   19  N7  UNL     1      33.891  17.965 -17.826  1.00  0.00    -0.275 N 
HETATM   20  C14 UNL     1      34.293  16.818 -17.238  1.00  0.00     0.327 A 
ATOM     21  H7  UNL     1      33.592  17.953 -18.801  1.00  0.00     0.173 HD
HETATM   22  O2  UNL     1      34.278  15.774 -17.936  1.00  0.00    -0.247 OA
HETATM   23  N8  UNL     1      34.676  16.863 -15.967  1.00  0.00    -0.312 N 
ATOM     24  H8  UNL     1      34.979  15.996 -15.524  1.00  0.00     0.170 HD
ENDBRANCH  14  15
ENDBRANCH  13  14
ENDBRANCH  12  13
ENDBRANCH  10  12
ENDBRANCH   7  10
BRANCH   4  25
HETATM   25  N3  UNL     1      41.782  17.792 -11.541  1.00  0.00    -0.213 N 
HETATM   26  C3  UNL     1      41.083  17.704 -10.297  1.00  0.00     0.168 C 
HETATM   27  C4  UNL     1      42.071  17.717  -9.137  1.00  0.00     0.252 C 
HETATM   28  N4  UNL     1      43.019  18.781  -9.231  1.00  0.00    -0.072 N 
HETATM   29  C5  UNL     1      43.834  18.489 -10.423  1.00  0.00     0.252 C 
ATOM     30  H42 UNL     1      42.593  19.707  -9.246  1.00  0.00     0.277 HD
ATOM     31  H41 UNL     1      43.570  18.913  -8.383  1.00  0.00     0.277 HD
HETATM   32  C6  UNL     1      42.964  18.614 -11.643  1.00  0.00     0.168 C 
ENDBRANCH   4  25
BRANCH   1  33
HETATM   33  N1  UNL     1      42.706  15.420 -15.530  1.00  0.00    -0.234 N 
ATOM     34  H12 UNL     1      43.157  14.542 -15.273  1.00  0.00     0.174 HD
ATOM     35  H11 UNL     1      42.930  15.872 -16.416  1.00  0.00     0.174 HD
ENDBRANCH   1  33
TORSDOF 7
ENDMDL
MODEL 5
REMARK VINA RESULT: -7.909329451      0.552      1.568
REMARK  7 active torsions:
REMARK  status: ('A' for Active; 'I' for Inactive)
REMARK    1  A    between atoms: N1_1  and  C1_4 
REMARK    2  A    between atoms: C2_7  and  N3_8 
REMARK    3  A    between atoms: C7_18  and  N6_19 
REMARK    4  A    between atoms: N6_19  and  C8_21 
REMARK    5  A    between atoms: C8_21  and  C9_22 
REMARK    6  A    between atoms: C9_22  and  C10_23 
REMARK    7  A    between atoms: C10_23  and  C11_24 
ROOT
HETATM    1  C1  UNL     1      41.031  16.432 -15.117  1.00  0.00     0.705 A 
HETATM    2  N2  UNL     1      41.185  17.767 -15.117  1.00  0.00    -0.022 N 
ATOM      3  H2  UNL     1      42.109  18.149 -15.322  1.00  0.00     0.203 HD
HETATM    4  C2  UNL     1      40.165  18.637 -14.858  1.00  0.00     0.709 A 
HETATM    5  N5  UNL     1      38.971  18.095 -14.597  1.00  0.00    -0.021 N 
ATOM      6  H5  UNL     1      38.172  18.697 -14.396  1.00  0.00     0.203 HD
HETATM    7  C7  UNL     1      38.817  16.734 -14.597  1.00  0.00     0.707 A 
HETATM    8  N9  UNL     1      39.830  15.890 -14.853  1.00  0.00    -0.022 N 
ATOM      9  H9  UNL     1      39.692  14.879 -14.849  1.00  0.00     0.203 HD
ENDROOT
BRANCH   7  10
HETATM   10  N6  UNL     1      37.645  16.225 -14.339  1.00  0.00    -0.225 N 
ATOM     11  H6  UNL     1      37.237  15.541 -14.976  1.00  0.00     0.177 HD
BRANCH  10  12
HETATM   12  C8  UNL     1      36.915  16.629 -13.140  1.00  0.00     0.138 C 
BRANCH  12  13
HETATM   13  C9  UNL     1      35.456  16.722 -13.492  1.00  0.00     0.026 C 
BRANCH  13  14
HETATM   14  C10 UNL     1      35.124  18.099 -13.963  1.00  0.00     0.059 C 
BRANCH  14  15
HETATM   15  C11 UNL     1      34.658  18.068 -15.354  1.00  0.00     0.019 A 
HETATM   16  C12 UNL     1      34.774  17.041 -16.235  1.00  0.00     0.099 A 
HETATM   17  C13 UNL     1      34.266  17.172 -17.505  1.00  0.00     0.251 A 
HETATM   18  O1  UNL     1      34.376  16.213 -18.321  1.00  0.00    -0.268 OA
HETATM   19  N7  UNL     1      33.664  18.296 -17.881  1.00  0.00    -0.275 N 
HETATM   20  C14 UNL     1      33.537  19.331 -17.025  1.00  0.00     0.327 A 
ATOM     21  H7  UNL     1      33.293  18.377 -18.828  1.00  0.00     0.173 HD
HETATM   22  O2  UNL     1      32.957  20.362 -17.445  1.00  0.00    -0.247 OA
HETATM   23  N8  UNL     1      34.030  19.197 -15.798  1.00  0.00    -0.312 N 
ATOM     24  H8  UNL     1      33.934  19.980 -15.153  1.00  0.00     0.170 HD
ENDBRANCH  14  15
ENDBRANCH  13  14
ENDBRANCH  12  13
ENDBRANCH  10  12
ENDBRANCH   7  10
BRANCH   4  25
HETATM   25  N3  UNL     1      40.371  20.034 -14.873  1.00  0.00    -0.213 N 
HETATM   26  C3  UNL     1      41.518  20.632 -14.266  1.00  0.00     0.168 C 
HETATM   27  C4  UNL     1      41.984  21.828 -15.089  1.00  0.00     0.252 C 
HETATM   28  N4  UNL     1      40.921  22.727 -15.405  1.00  0.00    -0.072 N 
HETATM   29  C5  UNL     1      40.015  21.982 -16.295  1.00  0.00     0.252 C 
ATOM     30  H42 UNL     1      40.456  23.116 -14.584  1.00  0.00     0.277 HD
ATOM     31  H41 UNL     1      41.239  23.613 -15.797  1.00  0.00     0.277 HD
HETATM   32  C6  UNL     1      39.380  20.867 -15.512  1.00  0.00     0.168 C 
ENDBRANCH   4  25
BRANCH   1  33
HETATM   33  N1  UNL     1      42.003  15.620 -15.364  1.00  0.00    -0.234 N 
ATOM     34  H12 UNL     1      42.399  15.639 -16.304  1.00  0.00     0.174 HD
ATOM     35  H11 UNL     1      42.376  14.979 -14.663  1.00  0.00     0.174 HD
ENDBRANCH   1  33
TORSDOF 7
ENDMDL
