MODEL 1
REMARK VINA RESULT: -7.790076100      0.000      0.000
REMARK  7 active torsions:
REMARK  status: ('A' for Active; 'I' for Inactive)
REMARK    1  A    between atoms: C1_2  and  C2_4 
REMARK    2  A    between atoms: C2_4  and  C3_5 
REMARK    3  A    between atoms: C3_5  and  N1_6 
REMARK    4  A    between atoms: N1_6  and  C4_8 
REMARK    5  A    between atoms: C5_11  and  N3_12 
REMARK    6  A    between atoms: N3_12  and  C6_14 
REMARK    7  A    between atoms: C6_14  and  C7_15 
ROOT
HETATM    1  C4  UNL     1      39.069  18.517 -14.772  1.00  0.00     0.137 A 
HETATM    2  N2  UNL     1      37.742  18.431 -14.967  1.00  0.00    -0.176 N 
ATOM      3  H2  UNL     1      37.245  19.253 -15.309  1.00  0.00     0.186 HD
HETATM    4  C5  UNL     1      37.037  17.300 -14.727  1.00  0.00     0.682 A 
HETATM    5  N7  UNL     1      37.637  16.186 -14.276  1.00  0.00    -0.169 N 
ATOM      6  H7  UNL     1      37.101  15.336 -14.099  1.00  0.00     0.186 HD
HETATM    7  C9  UNL     1      38.976  16.225 -14.065  1.00  0.00     0.187 A 
HETATM    8  O4  UNL     1      39.630  15.176 -13.624  1.00  0.00    -0.242 OA
HETATM    9  C10 UNL     1      40.919  15.156 -13.402  1.00  0.00     0.374 A 
HETATM   10  O5  UNL     1      41.519  14.117 -12.974  1.00  0.00    -0.238 OA
HETATM   11  N8  UNL     1      41.656  16.269 -13.630  1.00  0.00    -0.268 N 
ATOM     12  H8  UNL     1      42.661  16.255 -13.458  1.00  0.00     0.174 HD
HETATM   13  C11 UNL     1      41.079  17.384 -14.079  1.00  0.00     0.268 A 
HETATM   14  O6  UNL     1      41.704  18.447 -14.309  1.00  0.00    -0.267 OA
HETATM   15  C12 UNL     1      39.708  17.373 -14.305  1.00  0.00     0.128 A 
ENDROOT
BRANCH   4  16
HETATM   16  N3  UNL     1      35.765  17.279 -14.934  1.00  0.00    -0.219 N 
ATOM     17  H3  UNL     1      35.322  16.400 -15.199  1.00  0.00     0.178 HD
BRANCH  16  18
HETATM   18  C6  UNL     1      34.943  18.467 -14.802  1.00  0.00     0.216 C 
BRANCH  18  19
HETATM   19  C7  UNL     1      34.538  18.991 -16.128  1.00  0.00     0.118 A 
HETATM   20  N4  UNL     1      35.201  18.988 -17.278  1.00  0.00    -0.283 N 
HETATM   21  N5  UNL     1      34.447  19.564 -18.205  1.00  0.00    -0.250 N 
ATOM     22  H4  UNL     1      36.135  18.607 -17.424  1.00  0.00     0.188 HD
HETATM   23  C8  UNL     1      33.278  19.944 -17.641  1.00  0.00     0.340 A 
ATOM     24  H5  UNL     1      34.706  19.697 -19.182  1.00  0.00     0.192 HD
HETATM   25  O3  UNL     1      32.343  20.521 -18.253  1.00  0.00    -0.245 OA
HETATM   26  N6  UNL     1      33.348  19.581 -16.349  1.00  0.00    -0.294 N 
ATOM     27  H6  UNL     1      32.621  19.730 -15.650  1.00  0.00     0.172 HD
ENDBRANCH  18  19
ENDBRANCH  16  18
ENDBRANCH   4  16
BRANCH   1  28
HETATM   28  N1  UNL     1      39.802  19.529 -14.965  1.00  0.00    -0.374 N 
ATOM     29  H1  UNL     1      40.790  19.450 -14.724  1.00  0.00     0.161 HD
BRANCH  28  30
HETATM   30  C3  UNL     1      39.343  20.783 -15.500  1.00  0.00     0.132 C 
BRANCH  30  31
HETATM   31  C2  UNL     1      40.512  21.614 -15.992  1.00  0.00     0.132 C 
BRANCH  31  32
HETATM   32  C1  UNL     1      41.086  21.115 -17.259  1.00  0.00     0.174 C 
HETATM   33  O1  UNL     1      41.847  20.118 -17.215  1.00  0.00    -0.648 OA
HETATM   34  O2  UNL     1      40.762  21.767 -18.443  1.00  0.00    -0.648 OA
ENDBRANCH  31  32
ENDBRANCH  30  31
ENDBRANCH  28  30
ENDBRANCH   1  28
TORSDOF 7
ENDMDL
MODEL 2
REMARK VINA RESULT: -7.707443411      1.482      4.661
REMARK  7 active torsions:
REMARK  status: ('A' for Active; 'I' for Inactive)
REMARK    1  A    between atoms: C1_2  and  C2_4 
REMARK    2  A    between atoms: C2_4  and  C3_5 
REMARK    3  A    between atoms: C3_5  and  N1_6 
REMARK    4  A    between atoms: N1_6  and  C4_8 
REMARK    5  A    between atoms: C5_11  and  N3_12 
REMARK    6  A    between atoms: N3_12  and  C6_14 
REMARK    7  A    between atoms: C6_14  and  C7_15 
ROOT
HETATM    1  C4  UNL     1      40.114  18.410 -14.105  1.00  0.00     0.137 A 
HETATM    2  N2  UNL     1      38.938  17.827 -14.399  1.00  0.00    -0.176 N 
ATOM      3  H2  UNL     1      38.764  16.882 -14.059  1.00  0.00     0.186 HD
HETATM    4  C5  UNL     1      37.977  18.443 -15.127  1.00  0.00     0.682 A 
HETATM    5  N7  UNL     1      38.149  19.688 -15.600  1.00  0.00    -0.169 N 
ATOM      6  H7  UNL     1      37.421  20.147 -16.147  1.00  0.00     0.186 HD
HETATM    7  C9  UNL     1      39.321  20.316 -15.329  1.00  0.00     0.187 A 
HETATM    8  O4  UNL     1      39.560  21.531 -15.760  1.00  0.00    -0.242 OA
HETATM    9  C10 UNL     1      40.670  22.186 -15.529  1.00  0.00     0.374 A 
HETATM   10  O5  UNL     1      40.867  23.366 -15.965  1.00  0.00    -0.238 OA
HETATM   11  N8  UNL     1      41.654  21.600 -14.805  1.00  0.00    -0.268 N 
ATOM     12  H8  UNL     1      42.520  22.109 -14.625  1.00  0.00     0.174 HD
HETATM   13  C11 UNL     1      41.501  20.366 -14.326  1.00  0.00     0.268 A 
HETATM   14  O6  UNL     1      42.373  19.769 -13.649  1.00  0.00    -0.267 OA
HETATM   15  C12 UNL     1      40.311  19.700 -14.588  1.00  0.00     0.128 A 
ENDROOT
BRANCH   4  16
HETATM   16  N3  UNL     1      36.869  17.833 -15.375  1.00  0.00    -0.219 N 
ATOM     17  H3  UNL     1      36.897  16.932 -15.851  1.00  0.00     0.178 HD
BRANCH  16  18
HETATM   18  C6  UNL     1      35.582  18.387 -14.999  1.00  0.00     0.216 C 
BRANCH  18  19
HETATM   19  C7  UNL     1      34.867  18.934 -16.178  1.00  0.00     0.118 A 
HETATM   20  N4  UNL     1      35.233  18.959 -17.453  1.00  0.00    -0.283 N 
HETATM   21  N5  UNL     1      34.276  19.546 -18.158  1.00  0.00    -0.250 N 
ATOM     22  H4  UNL     1      36.106  18.589 -17.828  1.00  0.00     0.188 HD
HETATM   23  C8  UNL     1      33.276  19.906 -17.321  1.00  0.00     0.340 A 
ATOM     24  H5  UNL     1      34.291  19.702 -19.167  1.00  0.00     0.192 HD
HETATM   25  O3  UNL     1      32.219  20.486 -17.678  1.00  0.00    -0.245 OA
HETATM   26  N6  UNL     1      33.657  19.518 -16.092  1.00  0.00    -0.294 N 
ATOM     27  H6  UNL     1      33.119  19.646 -15.236  1.00  0.00     0.172 HD
ENDBRANCH  18  19
ENDBRANCH  16  18
ENDBRANCH   4  16
BRANCH   1  28
HETATM   28  N1  UNL     1      41.064  17.909 -13.438  1.00  0.00    -0.374 N 
ATOM     29  H1  UNL     1      42.012  18.053 -13.786  1.00  0.00     0.161 HD
BRANCH  28  30
HETATM   30  C3  UNL     1      40.905  17.151 -12.227  1.00  0.00     0.132 C 
BRANCH  30  31
HETATM   31  C2  UNL     1      41.603  15.809 -12.339  1.00  0.00     0.132 C 
BRANCH  31  32
HETATM   32  C1  UNL     1      40.691  14.713 -12.728  1.00  0.00     0.174 C 
HETATM   33  O1  UNL     1      40.815  13.604 -12.153  1.00  0.00    -0.648 OA
HETATM   34  O2  UNL     1      39.738  14.952 -13.712  1.00  0.00    -0.648 OA
ENDBRANCH  31  32
ENDBRANCH  30  31
ENDBRANCH  28  30
ENDBRANCH   1  28
TORSDOF 7
ENDMDL
MODEL 3
REMARK VINA RESULT: -7.705911459      0.809      1.019
REMARK  7 active torsions:
REMARK  status: ('A' for Active; 'I' for Inactive)
REMARK    1  A    between atoms: C1_2  and  C2_4 
REMARK    2  A    between atoms: C2_4  and  C3_5 
REMARK    3  A    between atoms: C3_5  and  N1_6 
REMARK    4  A    between atoms: N1_6  and  C4_8 
REMARK    5  A    between atoms: C5_11  and  N3_12 
REMARK    6  A    between atoms: N3_12  and  C6_14 
REMARK    7  A    between atoms: C6_14  and  C7_15 
ROOT
HETATM    1  C4  UNL     1      39.188  18.233 -14.637  1.00  0.00     0.137 A 
HETATM    2  N2  UNL     1      37.937  17.944 -15.035  1.00  0.00    -0.176 N 
ATOM      3  H2  UNL     1      37.355  18.697 -15.401  1.00  0.00     0.186 HD
HETATM    4  C5  UNL     1      37.417  16.695 -14.970  1.00  0.00     0.682 A 
HETATM    5  N7  UNL     1      38.135  15.663 -14.498  1.00  0.00    -0.169 N 
ATOM      6  H7  UNL     1      37.738  14.725 -14.453  1.00  0.00     0.186 HD
HETATM    7  C9  UNL     1      39.404  15.907 -14.084  1.00  0.00     0.187 A 
HETATM    8  O4  UNL     1      40.164  14.949 -13.611  1.00  0.00    -0.242 OA
HETATM    9  C10 UNL     1      41.394  15.125 -13.198  1.00  0.00     0.374 A 
HETATM   10  O5  UNL     1      42.102  14.169 -12.743  1.00  0.00    -0.238 OA
HETATM   11  N8  UNL     1      41.946  16.361 -13.247  1.00  0.00    -0.268 N 
ATOM     12  H8  UNL     1      42.904  16.500 -12.926  1.00  0.00     0.174 HD
HETATM   13  C11 UNL     1      41.249  17.397 -13.714  1.00  0.00     0.268 A 
HETATM   14  O6  UNL     1      41.703  18.565 -13.785  1.00  0.00    -0.267 OA
HETATM   15  C12 UNL     1      39.948  17.176 -14.144  1.00  0.00     0.128 A 
ENDROOT
BRANCH   4  16
HETATM   16  N3  UNL     1      36.210  16.480 -15.368  1.00  0.00    -0.219 N 
ATOM     17  H3  UNL     1      35.546  16.053 -14.723  1.00  0.00     0.178 HD
BRANCH  16  18
HETATM   18  C6  UNL     1      35.765  16.826 -16.704  1.00  0.00     0.216 C 
BRANCH  18  19
HETATM   19  C7  UNL     1      34.873  18.011 -16.685  1.00  0.00     0.118 A 
HETATM   20  N4  UNL     1      34.440  18.727 -15.655  1.00  0.00    -0.283 N 
HETATM   21  N5  UNL     1      33.662  19.700 -16.111  1.00  0.00    -0.250 N 
ATOM     22  H4  UNL     1      34.668  18.558 -14.675  1.00  0.00     0.188 HD
HETATM   23  C8  UNL     1      33.593  19.606 -17.458  1.00  0.00     0.340 A 
ATOM     24  H5  UNL     1      33.193  20.402 -15.539  1.00  0.00     0.192 HD
HETATM   25  O3  UNL     1      32.933  20.382 -18.196  1.00  0.00    -0.245 OA
HETATM   26  N6  UNL     1      34.351  18.551 -17.802  1.00  0.00    -0.294 N 
ATOM     27  H6  UNL     1      34.505  18.215 -18.752  1.00  0.00     0.172 HD
ENDBRANCH  18  19
ENDBRANCH  16  18
ENDBRANCH   4  16
BRANCH   1  28
HETATM   28  N1  UNL     1      39.749  19.365 -14.659  1.00  0.00    -0.374 N 
ATOM     29  H1  UNL     1      40.612  19.475 -14.125  1.00  0.00     0.161 HD
BRANCH  28  30
HETATM   30  C3  UNL     1      39.261  20.509 -15.380  1.00  0.00     0.132 C 
BRANCH  30  31
HETATM   31  C2  UNL     1      40.411  21.387 -15.834  1.00  0.00     0.132 C 
BRANCH  31  32
HETATM   32  C1  UNL     1      41.135  20.837 -17.000  1.00  0.00     0.174 C 
HETATM   33  O1  UNL     1      41.881  19.844 -16.822  1.00  0.00    -0.648 OA
HETATM   34  O2  UNL     1      40.962  21.440 -18.240  1.00  0.00    -0.648 OA
ENDBRANCH  31  32
ENDBRANCH  30  31
ENDBRANCH  28  30
ENDBRANCH   1  28
TORSDOF 7
ENDMDL
MODEL 4
REMARK VINA RESULT: -7.657984740      2.143      4.806
REMARK  7 active torsions:
REMARK  status: ('A' for Active; 'I' for Inactive)
REMARK    1  A    between atoms: C1_2  and  C2_4 
REMARK    2  A    between atoms: C2_4  and  C3_5 
REMARK    3  A    between atoms: C3_5  and  N1_6 
REMARK    4  A    between atoms: N1_6  and  C4_8 
REMARK    5  A    between atoms: C5_11  and  N3_12 
REMARK    6  A    between atoms: N3_12  and  C6_14 
REMARK    7  A    between atoms: C6_14  and  C7_15 
ROOT
HETATM    1  C4  UNL     1      40.302  18.907 -14.122  1.00  0.00     0.137 A 
HETATM    2  N2  UNL     1      39.180  18.226 -14.409  1.00  0.00    -0.176 N 
ATOM      3  H2  UNL     1      39.074  17.281 -14.040  1.00  0.00     0.186 HD
HETATM    4  C5  UNL     1      38.184  18.741 -15.169  1.00  0.00     0.682 A 
HETATM    5  N7  UNL     1      38.266  19.979 -15.682  1.00  0.00    -0.169 N 
ATOM      6  H7  UNL     1      37.512  20.362 -16.252  1.00  0.00     0.186 HD
HETATM    7  C9  UNL     1      39.382  20.705 -15.419  1.00  0.00     0.187 A 
HETATM    8  O4  UNL     1      39.533  21.920 -15.887  1.00  0.00    -0.242 OA
HETATM    9  C10 UNL     1      40.585  22.666 -15.666  1.00  0.00     0.374 A 
HETATM   10  O5  UNL     1      40.696  23.843 -16.139  1.00  0.00    -0.238 OA
HETATM   11  N8  UNL     1      41.601  22.183 -14.911  1.00  0.00    -0.268 N 
ATOM     12  H8  UNL     1      42.422  22.763 -14.738  1.00  0.00     0.174 HD
HETATM   13  C11 UNL     1      41.537  20.957 -14.392  1.00  0.00     0.268 A 
HETATM   14  O6  UNL     1      42.443  20.452 -13.686  1.00  0.00    -0.267 OA
HETATM   15  C12 UNL     1      40.406  20.192 -14.645  1.00  0.00     0.128 A 
ENDROOT
BRANCH   4  16
HETATM   16  N3  UNL     1      37.130  18.039 -15.409  1.00  0.00    -0.219 N 
ATOM     17  H3  UNL     1      37.229  17.155 -15.908  1.00  0.00     0.178 HD
BRANCH  16  18
HETATM   18  C6  UNL     1      35.807  18.464 -14.992  1.00  0.00     0.216 C 
BRANCH  18  19
HETATM   19  C7  UNL     1      35.011  18.950 -16.145  1.00  0.00     0.118 A 
HETATM   20  N4  UNL     1      35.289  18.912 -17.442  1.00  0.00    -0.283 N 
HETATM   21  N5  UNL     1      34.283  19.461 -18.109  1.00  0.00    -0.250 N 
ATOM     22  H4  UNL     1      36.136  18.525 -17.857  1.00  0.00     0.188 HD
HETATM   23  C8  UNL     1      33.341  19.861 -17.224  1.00  0.00     0.340 A 
ATOM     24  H5  UNL     1      34.228  19.566 -19.122  1.00  0.00     0.192 HD
HETATM   25  O3  UNL     1      32.259  20.421 -17.536  1.00  0.00    -0.245 OA
HETATM   26  N6  UNL     1      33.807  19.536 -16.006  1.00  0.00    -0.294 N 
ATOM     27  H6  UNL     1      33.328  19.706 -15.122  1.00  0.00     0.172 HD
ENDBRANCH  18  19
ENDBRANCH  16  18
ENDBRANCH   4  16
BRANCH   1  28
HETATM   28  N1  UNL     1      41.279  18.504 -13.428  1.00  0.00    -0.374 N 
ATOM     29  H1  UNL     1      42.013  19.177 -13.209  1.00  0.00     0.161 HD
BRANCH  28  30
HETATM   30  C3  UNL     1      41.429  17.165 -12.924  1.00  0.00     0.132 C 
BRANCH  30  31
HETATM   31  C2  UNL     1      40.953  17.077 -11.487  1.00  0.00     0.132 C 
BRANCH  31  32
HETATM   32  C1  UNL     1      41.782  17.866 -10.552  1.00  0.00     0.174 C 
HETATM   33  O1  UNL     1      42.907  18.262 -10.944  1.00  0.00    -0.648 OA
HETATM   34  O2  UNL     1      41.286  18.137  -9.282  1.00  0.00    -0.648 OA
ENDBRANCH  31  32
ENDBRANCH  30  31
ENDBRANCH  28  30
ENDBRANCH   1  28
TORSDOF 7
ENDMDL
MODEL 5
REMARK VINA RESULT: -7.563633807      1.610      4.530
REMARK  7 active torsions:
REMARK  status: ('A' for Active; 'I' for Inactive)
REMARK    1  A    between atoms: C1_2  and  C2_4 
REMARK    2  A    between atoms: C2_4  and  C3_5 
REMARK    3  A    between atoms: C3_5  and  N1_6 
REMARK    4  A    between atoms: N1_6  and  C4_8 
REMARK    5  A    between atoms: C5_11  and  N3_12 
REMARK    6  A    between atoms: N3_12  and  C6_14 
REMARK    7  A    between atoms: C6_14  and  C7_15 
ROOT
HETATM    1  C4  UNL     1      39.500  16.385 -14.109  1.00  0.00     0.137 A 
HETATM    2  N2  UNL     1      38.278  15.986 -14.500  1.00  0.00    -0.176 N 
ATOM      3  H2  UNL     1      38.015  15.010 -14.361  1.00  0.00     0.186 HD
HETATM    4  C5  UNL     1      37.380  16.824 -15.071  1.00  0.00     0.682 A 
HETATM    5  N7  UNL     1      37.668  18.119 -15.278  1.00  0.00    -0.169 N 
ATOM      6  H7  UNL     1      36.988  18.746 -15.707  1.00  0.00     0.186 HD
HETATM    7  C9  UNL     1      38.891  18.568 -14.900  1.00  0.00     0.187 A 
HETATM    8  O4  UNL     1      39.243  19.819 -15.072  1.00  0.00    -0.242 OA
HETATM    9  C10 UNL     1      40.408  20.308 -14.727  1.00  0.00     0.374 A 
HETATM   10  O5  UNL     1      40.714  21.530 -14.911  1.00  0.00    -0.238 OA
HETATM   11  N8  UNL     1      41.330  19.498 -14.155  1.00  0.00    -0.268 N 
ATOM     12  H8  UNL     1      42.238  19.877 -13.885  1.00  0.00     0.174 HD
HETATM   13  C11 UNL     1      41.062  18.210 -13.939  1.00  0.00     0.268 A 
HETATM   14  O6  UNL     1      41.872  17.409 -13.414  1.00  0.00    -0.267 OA
HETATM   15  C12 UNL     1      39.817  17.724 -14.316  1.00  0.00     0.128 A 
ENDROOT
BRANCH   4  16
HETATM   16  N3  UNL     1      36.222  16.382 -15.424  1.00  0.00    -0.219 N 
ATOM     17  H3  UNL     1      35.690  15.811 -14.767  1.00  0.00     0.178 HD
BRANCH  16  18
HETATM   18  C6  UNL     1      35.651  16.669 -16.726  1.00  0.00     0.216 C 
BRANCH  18  19
HETATM   19  C7  UNL     1      34.808  17.889 -16.686  1.00  0.00     0.118 A 
HETATM   20  N4  UNL     1      34.376  18.585 -15.642  1.00  0.00    -0.283 N 
HETATM   21  N5  UNL     1      33.652  19.606 -16.082  1.00  0.00    -0.250 N 
ATOM     22  H4  UNL     1      34.569  18.371 -14.664  1.00  0.00     0.188 HD
HETATM   23  C8  UNL     1      33.617  19.564 -17.433  1.00  0.00     0.340 A 
ATOM     24  H5  UNL     1      33.196  20.307 -15.498  1.00  0.00     0.192 HD
HETATM   25  O3  UNL     1      33.011  20.393 -18.159  1.00  0.00    -0.245 OA
HETATM   26  N6  UNL     1      34.341  18.491 -17.795  1.00  0.00    -0.294 N 
ATOM     27  H6  UNL     1      34.508  18.183 -18.753  1.00  0.00     0.172 HD
ENDBRANCH  18  19
ENDBRANCH  16  18
ENDBRANCH   4  16
BRANCH   1  28
HETATM   28  N1  UNL     1      40.397  15.673 -13.574  1.00  0.00    -0.374 N 
ATOM     29  H1  UNL     1      41.336  16.066 -13.508  1.00  0.00     0.161 HD
BRANCH  28  30
HETATM   30  C3  UNL     1      40.190  14.348 -13.054  1.00  0.00     0.132 C 
BRANCH  30  31
HETATM   31  C2  UNL     1      41.165  14.056 -11.930  1.00  0.00     0.132 C 
BRANCH  31  32
HETATM   32  C1  UNL     1      42.558  14.427 -12.260  1.00  0.00     0.174 C 
HETATM   33  O1  UNL     1      43.237  15.023 -11.388  1.00  0.00    -0.648 OA
HETATM   34  O2  UNL     1      43.057  14.104 -13.516  1.00  0.00    -0.648 OA
ENDBRANCH  31  32
ENDBRANCH  30  31
ENDBRANCH  28  30
ENDBRANCH   1  28
TORSDOF 7
ENDMDL
