MODEL 1
REMARK VINA RESULT: -6.591474741      0.000      0.000
REMARK  3 active torsions:
REMARK  status: ('A' for Active; 'I' for Inactive)
REMARK    1  A    between atoms: N1_1  and  C1_5 
REMARK    2  A    between atoms: C1_5  and  C2_6 
REMARK    3  A    between atoms: C2_6  and  C3_7 
ROOT
HETATM    1  C3  UNL     1      34.239  18.318 -15.686  1.00  0.00     0.294 C 
HETATM    2  N2  UNL     1      34.532  17.598 -16.913  1.00  0.00    -0.328 N 
ATOM      3  H2  UNL     1      33.989  17.608 -17.777  1.00  0.00     0.164 HD
HETATM    4  C4  UNL     1      35.723  16.881 -16.667  1.00  0.00     0.298 C 
HETATM    5  O1  UNL     1      36.098  15.813 -17.242  1.00  0.00    -0.266 OA
HETATM    6  C5  UNL     1      36.456  17.611 -15.608  1.00  0.00     0.364 A 
HETATM    7  N3  UNL     1      36.910  16.619 -14.627  1.00  0.00    -0.295 N 
ATOM      8  H3  UNL     1      36.302  15.995 -14.097  1.00  0.00     0.167 HD
HETATM    9  C6  UNL     1      38.337  16.662 -14.529  1.00  0.00     0.313 A 
HETATM   10  O2  UNL     1      39.005  15.933 -13.770  1.00  0.00    -0.262 OA
HETATM   11  C7  UNL     1      38.806  17.690 -15.457  1.00  0.00     0.313 A 
HETATM   12  O3  UNL     1      40.027  17.992 -15.625  1.00  0.00    -0.262 OA
HETATM   13  N4  UNL     1      37.655  18.234 -16.088  1.00  0.00    -0.295 N 
ATOM     14  H4  UNL     1      37.679  18.972 -16.791  1.00  0.00     0.167 HD
HETATM   15  N5  UNL     1      35.517  18.528 -15.048  1.00  0.00     0.001 N 
ATOM     16  H51 UNL     1      35.463  18.463 -14.031  1.00  0.00     0.285 HD
ATOM     17  H52 UNL     1      35.830  19.497 -15.108  1.00  0.00     0.285 HD
ENDROOT
BRANCH   1  18
HETATM   18  C2  UNL     1      33.610  19.629 -16.084  1.00  0.00     0.082 C 
BRANCH  18  19
HETATM   19  C1  UNL     1      33.334  19.714 -17.568  1.00  0.00     0.233 C 
BRANCH  19  20
HETATM   20  N1  UNL     1      32.018  20.331 -17.711  1.00  0.00    -0.079 N 
ATOM     21  H13 UNL     1      31.263  19.652 -17.812  1.00  0.00     0.274 HD
ATOM     22  H12 UNL     1      31.681  20.768 -16.853  1.00  0.00     0.274 HD
ATOM     23  H11 UNL     1      32.085  20.979 -18.495  1.00  0.00     0.274 HD
ENDBRANCH  19  20
ENDBRANCH  18  19
ENDBRANCH   1  18
TORSDOF 3
ENDMDL
MODEL 2
REMARK VINA RESULT: -6.346074805      1.121      1.234
REMARK  3 active torsions:
REMARK  status: ('A' for Active; 'I' for Inactive)
REMARK    1  A    between atoms: N1_1  and  C1_5 
REMARK    2  A    between atoms: C1_5  and  C2_6 
REMARK    3  A    between atoms: C2_6  and  C3_7 
ROOT
HETATM    1  C3  UNL     1      33.845  18.966 -16.774  1.00  0.00     0.294 C 
HETATM    2  N2  UNL     1      33.885  17.664 -17.417  1.00  0.00    -0.328 N 
ATOM      3  H2  UNL     1      33.364  17.371 -18.244  1.00  0.00     0.164 HD
HETATM    4  C4  UNL     1      34.793  16.886 -16.666  1.00  0.00     0.298 C 
HETATM    5  O1  UNL     1      34.807  15.621 -16.567  1.00  0.00    -0.266 OA
HETATM    6  C5  UNL     1      35.729  17.828 -16.012  1.00  0.00     0.364 A 
HETATM    7  N3  UNL     1      35.858  17.413 -14.611  1.00  0.00    -0.295 N 
ATOM      8  H3  UNL     1      35.091  17.351 -13.942  1.00  0.00     0.167 HD
HETATM    9  C6  UNL     1      37.228  17.109 -14.326  1.00  0.00     0.313 A 
HETATM   10  O2  UNL     1      37.640  16.732 -13.213  1.00  0.00    -0.262 OA
HETATM   11  C7  UNL     1      37.986  17.328 -15.558  1.00  0.00     0.313 A 
HETATM   12  O3  UNL     1      39.238  17.151 -15.661  1.00  0.00    -0.262 OA
HETATM   13  N4  UNL     1      37.058  17.754 -16.545  1.00  0.00    -0.295 N 
ATOM     14  H4  UNL     1      37.305  17.979 -17.508  1.00  0.00     0.167 HD
HETATM   15  N5  UNL     1      35.132  19.119 -16.135  1.00  0.00     0.001 N 
ATOM     16  H51 UNL     1      35.070  19.610 -15.243  1.00  0.00     0.285 HD
ATOM     17  H52 UNL     1      35.733  19.785 -16.620  1.00  0.00     0.285 HD
ENDROOT
BRANCH   1  18
HETATM   18  C2  UNL     1      33.657  19.991 -17.862  1.00  0.00     0.082 C 
BRANCH  18  19
HETATM   19  C1  UNL     1      32.207  20.154 -18.261  1.00  0.00     0.233 C 
BRANCH  19  20
HETATM   20  N1  UNL     1      31.479  20.500 -17.043  1.00  0.00    -0.079 N 
ATOM     21  H13 UNL     1      30.615  19.972 -16.925  1.00  0.00     0.274 HD
ATOM     22  H12 UNL     1      31.940  20.181 -16.191  1.00  0.00     0.274 HD
ATOM     23  H11 UNL     1      31.334  21.510 -17.069  1.00  0.00     0.274 HD
ENDBRANCH  19  20
ENDBRANCH  18  19
ENDBRANCH   1  18
TORSDOF 3
ENDMDL
MODEL 3
REMARK VINA RESULT: -6.199740408      2.307      4.882
REMARK  3 active torsions:
REMARK  status: ('A' for Active; 'I' for Inactive)
REMARK    1  A    between atoms: N1_1  and  C1_5 
REMARK    2  A    between atoms: C1_5  and  C2_6 
REMARK    3  A    between atoms: C2_6  and  C3_7 
ROOT
HETATM    1  C3  UNL     1      38.726  17.241 -15.157  1.00  0.00     0.294 C 
HETATM    2  N2  UNL     1      37.858  17.228 -13.993  1.00  0.00    -0.328 N 
ATOM      3  H2  UNL     1      38.127  17.400 -13.024  1.00  0.00     0.164 HD
HETATM    4  C4  UNL     1      36.565  16.928 -14.475  1.00  0.00     0.298 C 
HETATM    5  O1  UNL     1      35.621  16.383 -13.825  1.00  0.00    -0.266 OA
HETATM    6  C5  UNL     1      36.519  17.370 -15.887  1.00  0.00     0.364 A 
HETATM    7  N3  UNL     1      35.905  16.287 -16.664  1.00  0.00    -0.295 N 
ATOM      8  H3  UNL     1      36.264  15.335 -16.732  1.00  0.00     0.167 HD
HETATM    9  C6  UNL     1      34.723  16.772 -17.309  1.00  0.00     0.313 A 
HETATM   10  O2  UNL     1      33.994  16.075 -18.041  1.00  0.00    -0.262 OA
HETATM   11  C7  UNL     1      34.575  18.180 -16.943  1.00  0.00     0.313 A 
HETATM   12  O3  UNL     1      33.626  18.922 -17.343  1.00  0.00    -0.262 OA
HETATM   13  N4  UNL     1      35.663  18.502 -16.090  1.00  0.00    -0.295 N 
ATOM     14  H4  UNL     1      35.817  19.421 -15.674  1.00  0.00     0.167 HD
HETATM   15  N5  UNL     1      37.875  17.599 -16.268  1.00  0.00     0.001 N 
ATOM     16  H51 UNL     1      38.129  17.114 -17.129  1.00  0.00     0.285 HD
ATOM     17  H52 UNL     1      38.036  18.552 -16.593  1.00  0.00     0.285 HD
ENDROOT
BRANCH   1  18
HETATM   18  C2  UNL     1      39.773  18.299 -14.915  1.00  0.00     0.082 C 
BRANCH  18  19
HETATM   19  C1  UNL     1      39.261  19.695 -15.191  1.00  0.00     0.233 C 
BRANCH  19  20
HETATM   20  N1  UNL     1      40.223  20.318 -16.097  1.00  0.00    -0.079 N 
ATOM     21  H13 UNL     1      41.192  20.089 -15.876  1.00  0.00     0.274 HD
ATOM     22  H12 UNL     1      40.210  19.920 -17.036  1.00  0.00     0.274 HD
ATOM     23  H11 UNL     1      40.031  21.319 -16.080  1.00  0.00     0.274 HD
ENDBRANCH  19  20
ENDBRANCH  18  19
ENDBRANCH   1  18
TORSDOF 3
ENDMDL
MODEL 4
REMARK VINA RESULT: -6.088845920      2.290      5.271
REMARK  3 active torsions:
REMARK  status: ('A' for Active; 'I' for Inactive)
REMARK    1  A    between atoms: N1_1  and  C1_5 
REMARK    2  A    between atoms: C1_5  and  C2_6 
REMARK    3  A    between atoms: C2_6  and  C3_7 
ROOT
HETATM    1  C3  UNL     1      38.657  17.356 -15.209  1.00  0.00     0.294 C 
HETATM    2  N2  UNL     1      37.796  17.299 -14.041  1.00  0.00    -0.328 N 
ATOM      3  H2  UNL     1      38.062  17.477 -13.072  1.00  0.00     0.164 HD
HETATM    4  C4  UNL     1      36.515  16.948 -14.518  1.00  0.00     0.298 C 
HETATM    5  O1  UNL     1      35.597  16.361 -13.867  1.00  0.00    -0.266 OA
HETATM    6  C5  UNL     1      36.442  17.396 -15.927  1.00  0.00     0.364 A 
HETATM    7  N3  UNL     1      35.870  16.294 -16.707  1.00  0.00    -0.295 N 
ATOM      8  H3  UNL     1      36.268  15.358 -16.784  1.00  0.00     0.167 HD
HETATM    9  C6  UNL     1      34.666  16.733 -17.344  1.00  0.00     0.313 A 
HETATM   10  O2  UNL     1      33.962  16.011 -18.077  1.00  0.00    -0.262 OA
HETATM   11  C7  UNL     1      34.461  18.131 -16.968  1.00  0.00     0.313 A 
HETATM   12  O3  UNL     1      33.480  18.835 -17.360  1.00  0.00    -0.262 OA
HETATM   13  N4  UNL     1      35.539  18.494 -16.119  1.00  0.00    -0.295 N 
ATOM     14  H4  UNL     1      35.656  19.415 -15.698  1.00  0.00     0.167 HD
HETATM   15  N5  UNL     1      37.786  17.684 -16.313  1.00  0.00     0.001 N 
ATOM     16  H51 UNL     1      38.055  17.215 -17.178  1.00  0.00     0.285 HD
ATOM     17  H52 UNL     1      37.905  18.645 -16.634  1.00  0.00     0.285 HD
ENDROOT
BRANCH   1  18
HETATM   18  C2  UNL     1      39.660  18.455 -14.966  1.00  0.00     0.082 C 
BRANCH  18  19
HETATM   19  C1  UNL     1      41.071  18.039 -15.316  1.00  0.00     0.233 C 
BRANCH  19  20
HETATM   20  N1  UNL     1      41.083  16.579 -15.327  1.00  0.00    -0.079 N 
ATOM     21  H13 UNL     1      40.911  16.167 -14.411  1.00  0.00     0.274 HD
ATOM     22  H12 UNL     1      40.278  16.171 -15.803  1.00  0.00     0.274 HD
ATOM     23  H11 UNL     1      41.976  16.300 -15.734  1.00  0.00     0.274 HD
ENDBRANCH  19  20
ENDBRANCH  18  19
ENDBRANCH   1  18
TORSDOF 3
ENDMDL
MODEL 5
REMARK VINA RESULT: -6.071240613      2.138      2.627
REMARK  3 active torsions:
REMARK  status: ('A' for Active; 'I' for Inactive)
REMARK    1  A    between atoms: N1_1  and  C1_5 
REMARK    2  A    between atoms: C1_5  and  C2_6 
REMARK    3  A    between atoms: C2_6  and  C3_7 
ROOT
HETATM    1  C3  UNL     1      35.065  18.182 -16.380  1.00  0.00     0.294 C 
HETATM    2  N2  UNL     1      34.571  17.488 -15.204  1.00  0.00    -0.328 N 
ATOM      3  H2  UNL     1      33.610  17.200 -15.019  1.00  0.00     0.164 HD
HETATM    4  C4  UNL     1      35.692  17.292 -14.369  1.00  0.00     0.298 C 
HETATM    5  O1  UNL     1      35.683  17.155 -13.107  1.00  0.00    -0.266 OA
HETATM    6  C5  UNL     1      36.885  17.276 -15.246  1.00  0.00     0.364 A 
HETATM    7  N3  UNL     1      37.899  18.131 -14.619  1.00  0.00    -0.295 N 
ATOM      8  H3  UNL     1      37.783  19.122 -14.406  1.00  0.00     0.167 HD
HETATM    9  C6  UNL     1      39.075  17.361 -14.352  1.00  0.00     0.313 A 
HETATM   10  O2  UNL     1      40.106  17.824 -13.825  1.00  0.00    -0.262 OA
HETATM   11  C7  UNL     1      38.814  15.997 -14.809  1.00  0.00     0.313 A 
HETATM   12  O3  UNL     1      39.652  15.047 -14.723  1.00  0.00    -0.262 OA
HETATM   13  N4  UNL     1      37.495  15.982 -15.334  1.00  0.00    -0.295 N 
ATOM     14  H4  UNL     1      37.041  15.157 -15.725  1.00  0.00     0.167 HD
HETATM   15  N5  UNL     1      36.450  17.794 -16.503  1.00  0.00     0.001 N 
ATOM     16  H51 UNL     1      37.042  18.554 -16.840  1.00  0.00     0.285 HD
ATOM     17  H52 UNL     1      36.609  17.143 -17.272  1.00  0.00     0.285 HD
ENDROOT
BRANCH   1  18
HETATM   18  C2  UNL     1      34.259  17.687 -17.555  1.00  0.00     0.082 C 
BRANCH  18  19
HETATM   19  C1  UNL     1      34.288  16.180 -17.685  1.00  0.00     0.233 C 
BRANCH  19  20
HETATM   20  N1  UNL     1      33.457  15.847 -18.839  1.00  0.00    -0.079 N 
ATOM     21  H13 UNL     1      33.497  16.547 -19.580  1.00  0.00     0.274 HD
ATOM     22  H12 UNL     1      33.818  15.064 -19.385  1.00  0.00     0.274 HD
ATOM     23  H11 UNL     1      32.515  15.690 -18.482  1.00  0.00     0.274 HD
ENDBRANCH  19  20
ENDBRANCH  18  19
ENDBRANCH   1  18
TORSDOF 3
ENDMDL
