MODEL 1
REMARK VINA RESULT: -6.437920729      0.000      0.000
REMARK  4 active torsions:
REMARK  status: ('A' for Active; 'I' for Inactive)
REMARK    1  A    between atoms: N1_1  and  N2_4 
REMARK    2  A    between atoms: N2_4  and  S1_6 
REMARK    3  A    between atoms: S1_6  and  N3_9 
REMARK    4  A    between atoms: N3_9  and  C1_11 
ROOT
HETATM    1  N3  UNL     1      37.627  17.926 -15.867  1.00  0.00    -0.252 N 
ATOM      2  H3  UNL     1      38.330  18.520 -16.308  1.00  0.00     0.182 HD
ENDROOT
BRANCH   1   3
HETATM    3  S1  UNL     1      38.114  16.932 -14.551  1.00  0.00     0.337 S 
HETATM    4  O1  UNL     1      36.918  16.739 -13.652  1.00  0.00    -0.181 OA
HETATM    5  O2  UNL     1      39.213  17.591 -13.790  1.00  0.00    -0.181 OA
BRANCH   3   6
HETATM    6  N2  UNL     1      38.638  15.384 -15.053  1.00  0.00    -0.216 N 
ATOM      7  H2  UNL     1      38.364  14.932 -15.925  1.00  0.00     0.201 HD
BRANCH   6   8
HETATM    8  N1  UNL     1      39.505  14.819 -14.091  1.00  0.00    -0.335 N 
ATOM      9  H12 UNL     1      39.268  14.010 -13.516  1.00  0.00     0.177 HD
ATOM     10  H11 UNL     1      40.386  15.332 -14.058  1.00  0.00     0.177 HD
ENDBRANCH   6   8
ENDBRANCH   3   6
ENDBRANCH   1   3
BRANCH   1  11
HETATM   11  C1  UNL     1      36.443  17.962 -16.320  1.00  0.00     0.121 A 
HETATM   12  C2  UNL     1      35.657  19.108 -16.321  1.00  0.00     0.066 A 
HETATM   13  C3  UNL     1      34.376  19.057 -16.835  1.00  0.00     0.096 A 
HETATM   14  N4  UNL     1      33.861  17.924 -17.340  1.00  0.00    -0.319 N 
HETATM   15  C4  UNL     1      34.628  16.828 -17.333  1.00  0.00     0.325 A 
ATOM     16  H4  UNL     1      32.914  17.900 -17.717  1.00  0.00     0.170 HD
HETATM   17  O3  UNL     1      34.183  15.745 -17.798  1.00  0.00    -0.247 OA
HETATM   18  N5  UNL     1      35.882  16.858 -16.835  1.00  0.00    -0.294 N 
ATOM     19  H5  UNL     1      36.431  15.998 -16.852  1.00  0.00     0.172 HD
ENDBRANCH   1  11
TORSDOF 4
ENDMDL
MODEL 2
REMARK VINA RESULT: -6.380250424      2.636      5.159
REMARK  4 active torsions:
REMARK  status: ('A' for Active; 'I' for Inactive)
REMARK    1  A    between atoms: N1_1  and  N2_4 
REMARK    2  A    between atoms: N2_4  and  S1_6 
REMARK    3  A    between atoms: S1_6  and  N3_9 
REMARK    4  A    between atoms: N3_9  and  C1_11 
ROOT
HETATM    1  N3  UNL     1      35.979  18.812 -16.603  1.00  0.00    -0.252 N 
ATOM      2  H3  UNL     1      36.571  19.425 -17.165  1.00  0.00     0.182 HD
ENDROOT
BRANCH   1   3
HETATM    3  S1  UNL     1      34.280  18.861 -16.866  1.00  0.00     0.337 S 
HETATM    4  O1  UNL     1      33.636  19.405 -15.615  1.00  0.00    -0.181 OA
HETATM    5  O2  UNL     1      33.764  17.492 -17.143  1.00  0.00    -0.181 OA
BRANCH   3   6
HETATM    6  N2  UNL     1      33.844  19.891 -18.160  1.00  0.00    -0.216 N 
ATOM      7  H2  UNL     1      34.500  20.296 -18.828  1.00  0.00     0.201 HD
BRANCH   6   8
HETATM    8  N1  UNL     1      32.446  20.101 -18.176  1.00  0.00    -0.335 N 
ATOM      9  H12 UNL     1      31.758  19.349 -18.205  1.00  0.00     0.177 HD
ATOM     10  H11 UNL     1      32.235  21.099 -18.154  1.00  0.00     0.177 HD
ENDBRANCH   6   8
ENDBRANCH   3   6
ENDBRANCH   1   3
BRANCH   1  11
HETATM   11  C1  UNL     1      36.537  18.056 -15.751  1.00  0.00     0.121 A 
HETATM   12  C2  UNL     1      37.887  17.726 -15.786  1.00  0.00     0.066 A 
HETATM   13  C3  UNL     1      38.412  16.895 -14.816  1.00  0.00     0.096 A 
HETATM   14  N4  UNL     1      37.652  16.390 -13.830  1.00  0.00    -0.319 N 
HETATM   15  C4  UNL     1      36.354  16.715 -13.808  1.00  0.00     0.325 A 
ATOM     16  H4  UNL     1      38.053  15.778 -13.119  1.00  0.00     0.170 HD
HETATM   17  O3  UNL     1      35.608  16.263 -12.900  1.00  0.00    -0.247 OA
HETATM   18  N5  UNL     1      35.823  17.526 -14.747  1.00  0.00    -0.294 N 
ATOM     19  H5  UNL     1      34.829  17.748 -14.690  1.00  0.00     0.172 HD
ENDBRANCH   1  11
TORSDOF 4
ENDMDL
MODEL 3
REMARK VINA RESULT: -5.996904088      1.417      1.534
REMARK  4 active torsions:
REMARK  status: ('A' for Active; 'I' for Inactive)
REMARK    1  A    between atoms: N1_1  and  N2_4 
REMARK    2  A    between atoms: N2_4  and  S1_6 
REMARK    3  A    between atoms: S1_6  and  N3_9 
REMARK    4  A    between atoms: N3_9  and  C1_11 
ROOT
HETATM    1  N3  UNL     1      36.919  16.411 -14.063  1.00  0.00    -0.252 N 
ATOM      2  H3  UNL     1      36.662  16.031 -13.151  1.00  0.00     0.182 HD
ENDROOT
BRANCH   1   3
HETATM    3  S1  UNL     1      38.586  16.452 -14.484  1.00  0.00     0.337 S 
HETATM    4  O1  UNL     1      39.343  17.026 -13.312  1.00  0.00    -0.181 OA
HETATM    5  O2  UNL     1      38.790  17.310 -15.684  1.00  0.00    -0.181 OA
BRANCH   3   6
HETATM    6  N2  UNL     1      39.224  14.897 -14.799  1.00  0.00    -0.216 N 
ATOM      7  H2  UNL     1      39.204  14.434 -15.707  1.00  0.00     0.201 HD
BRANCH   6   8
HETATM    8  N1  UNL     1      39.783  14.345 -13.625  1.00  0.00    -0.335 N 
ATOM      9  H12 UNL     1      39.278  14.247 -12.745  1.00  0.00     0.177 HD
ATOM     10  H11 UNL     1      40.751  14.065 -13.788  1.00  0.00     0.177 HD
ENDBRANCH   6   8
ENDBRANCH   3   6
ENDBRANCH   1   3
BRANCH   1  11
HETATM   11  C1  UNL     1      35.991  16.827 -14.821  1.00  0.00     0.121 A 
HETATM   12  C2  UNL     1      35.294  18.009 -14.601  1.00  0.00     0.066 A 
HETATM   13  C3  UNL     1      34.297  18.387 -15.480  1.00  0.00     0.096 A 
HETATM   14  N4  UNL     1      33.977  17.641 -16.551  1.00  0.00    -0.319 N 
HETATM   15  C4  UNL     1      34.656  16.506 -16.751  1.00  0.00     0.325 A 
ATOM     16  H4  UNL     1      33.240  17.933 -17.192  1.00  0.00     0.170 HD
HETATM   17  O3  UNL     1      34.388  15.779 -17.743  1.00  0.00    -0.247 OA
HETATM   18  N5  UNL     1      35.634  16.121 -15.903  1.00  0.00    -0.294 N 
ATOM     19  H5  UNL     1      36.126  15.248 -16.096  1.00  0.00     0.172 HD
ENDBRANCH   1  11
TORSDOF 4
ENDMDL
MODEL 4
REMARK VINA RESULT: -5.926741705      1.311      1.686
REMARK  4 active torsions:
REMARK  status: ('A' for Active; 'I' for Inactive)
REMARK    1  A    between atoms: N1_1  and  N2_4 
REMARK    2  A    between atoms: N2_4  and  S1_6 
REMARK    3  A    between atoms: S1_6  and  N3_9 
REMARK    4  A    between atoms: N3_9  and  C1_11 
ROOT
HETATM    1  N3  UNL     1      37.358  18.424 -15.734  1.00  0.00    -0.252 N 
ATOM      2  H3  UNL     1      37.901  19.270 -15.908  1.00  0.00     0.182 HD
ENDROOT
BRANCH   1   3
HETATM    3  S1  UNL     1      38.034  17.223 -14.705  1.00  0.00     0.337 S 
HETATM    4  O1  UNL     1      38.279  15.989 -15.538  1.00  0.00    -0.181 OA
HETATM    5  O2  UNL     1      37.089  16.904 -13.599  1.00  0.00    -0.181 OA
BRANCH   3   6
HETATM    6  N2  UNL     1      39.533  17.699 -14.033  1.00  0.00    -0.216 N 
ATOM      7  H2  UNL     1      40.079  17.141 -13.377  1.00  0.00     0.201 HD
BRANCH   6   8
HETATM    8  N1  UNL     1      39.908  18.974 -14.514  1.00  0.00    -0.335 N 
ATOM      9  H12 UNL     1      39.269  19.764 -14.592  1.00  0.00     0.177 HD
ATOM     10  H11 UNL     1      40.897  18.982 -14.767  1.00  0.00     0.177 HD
ENDBRANCH   6   8
ENDBRANCH   3   6
ENDBRANCH   1   3
BRANCH   1  11
HETATM   11  C1  UNL     1      36.222  18.317 -16.288  1.00  0.00     0.121 A 
HETATM   12  C2  UNL     1      35.362  19.391 -16.487  1.00  0.00     0.066 A 
HETATM   13  C3  UNL     1      34.142  19.184 -17.100  1.00  0.00     0.096 A 
HETATM   14  N4  UNL     1      33.755  17.966 -17.514  1.00  0.00    -0.319 N 
HETATM   15  C4  UNL     1      34.592  16.941 -17.316  1.00  0.00     0.325 A 
ATOM     16  H4  UNL     1      32.852  17.827 -17.965  1.00  0.00     0.170 HD
HETATM   17  O3  UNL     1      34.268  15.782 -17.689  1.00  0.00    -0.247 OA
HETATM   18  N5  UNL     1      35.789  17.124 -16.719  1.00  0.00    -0.294 N 
ATOM     19  H5  UNL     1      36.395  16.313 -16.590  1.00  0.00     0.172 HD
ENDBRANCH   1  11
TORSDOF 4
ENDMDL
MODEL 5
REMARK VINA RESULT: -5.912976354      2.957      5.366
REMARK  4 active torsions:
REMARK  status: ('A' for Active; 'I' for Inactive)
REMARK    1  A    between atoms: N1_1  and  N2_4 
REMARK    2  A    between atoms: N2_4  and  S1_6 
REMARK    3  A    between atoms: S1_6  and  N3_9 
REMARK    4  A    between atoms: N3_9  and  C1_11 
ROOT
HETATM    1  N3  UNL     1      34.281  17.557 -16.602  1.00  0.00    -0.252 N 
ATOM      2  H3  UNL     1      33.715  16.793 -16.971  1.00  0.00     0.182 HD
ENDROOT
BRANCH   1   3
HETATM    3  S1  UNL     1      33.884  19.162 -17.075  1.00  0.00     0.337 S 
HETATM    4  O1  UNL     1      35.033  19.698 -17.893  1.00  0.00    -0.181 OA
HETATM    5  O2  UNL     1      33.682  20.016 -15.871  1.00  0.00    -0.181 OA
BRANCH   3   6
HETATM    6  N2  UNL     1      32.479  19.234 -18.047  1.00  0.00    -0.216 N 
ATOM      7  H2  UNL     1      32.188  18.509 -18.703  1.00  0.00     0.201 HD
BRANCH   6   8
HETATM    8  N1  UNL     1      31.778  20.439 -17.815  1.00  0.00    -0.335 N 
ATOM      9  H12 UNL     1      31.872  21.273 -18.394  1.00  0.00     0.177 HD
ATOM     10  H11 UNL     1      31.176  20.349 -16.996  1.00  0.00     0.177 HD
ENDBRANCH   6   8
ENDBRANCH   3   6
ENDBRANCH   1   3
BRANCH   1  11
HETATM   11  C1  UNL     1      35.238  17.271 -15.820  1.00  0.00     0.121 A 
HETATM   12  C2  UNL     1      35.056  16.757 -14.541  1.00  0.00     0.066 A 
HETATM   13  C3  UNL     1      36.156  16.474 -13.756  1.00  0.00     0.096 A 
HETATM   14  N4  UNL     1      37.410  16.679 -14.194  1.00  0.00    -0.319 N 
HETATM   15  C4  UNL     1      37.571  17.174 -15.427  1.00  0.00     0.325 A 
ATOM     16  H4  UNL     1      38.213  16.465 -13.605  1.00  0.00     0.170 HD
HETATM   17  O3  UNL     1      38.730  17.381 -15.875  1.00  0.00    -0.247 OA
HETATM   18  N5  UNL     1      36.508  17.457 -16.209  1.00  0.00    -0.294 N 
ATOM     19  H5  UNL     1      36.679  17.832 -17.142  1.00  0.00     0.172 HD
ENDBRANCH   1  11
TORSDOF 4
ENDMDL
