MODEL 1
REMARK VINA RESULT: -6.056327497      0.000      0.000
REMARK  1 active torsions:
REMARK  status: ('A' for Active; 'I' for Inactive)
REMARK    1  A    between atoms: N3_11  and  C5_12 
ROOT
HETATM    1  N1  UNL     1      35.982  16.140 -13.490  1.00  0.00    -0.388 N 
ATOM      2  H11 UNL     1      35.033  16.336 -13.811  1.00  0.00     0.157 HD
ATOM      3  H12 UNL     1      36.161  15.492 -12.723  1.00  0.00     0.157 HD
HETATM    4  C1  UNL     1      36.970  16.750 -14.098  1.00  0.00     0.093 C 
HETATM    5  C2  UNL     1      38.340  16.467 -13.635  1.00  0.00     0.198 C 
HETATM    6  N2  UNL     1      39.347  16.855 -14.583  1.00  0.00    -0.353 N 
ATOM      7  H2  UNL     1      40.199  16.306 -14.700  1.00  0.00     0.162 HD
HETATM    8  C3  UNL     1      39.121  18.017 -15.347  1.00  0.00     0.235 C 
HETATM    9  O1  UNL     1      40.082  18.613 -15.890  1.00  0.00    -0.272 OA
HETATM   10  C4  UNL     1      37.764  18.568 -15.537  1.00  0.00     0.229 C 
HETATM   11  N3  UNL     1      36.720  17.654 -15.166  1.00  0.00    -0.338 N 
ENDROOT
BRANCH  11  12
HETATM   12  C5  UNL     1      35.439  17.590 -15.797  1.00  0.00     0.205 C 
HETATM   13  C6  UNL     1      35.109  18.724 -16.716  1.00  0.00     0.169 C 
HETATM   14  N4  UNL     1      34.012  18.083 -17.475  1.00  0.00    -0.361 N 
HETATM   15  C7  UNL     1      34.405  16.700 -17.529  1.00  0.00     0.185 C 
ATOM     16  H4  UNL     1      33.177  18.519 -17.865  1.00  0.00     0.162 HD
HETATM   17  N5  UNL     1      33.973  15.745 -18.492  1.00  0.00    -0.064 NA
HETATM   18  N6  UNL     1      35.215  16.424 -16.578  1.00  0.00    -0.342 N 
ATOM     19  H6  UNL     1      35.634  15.510 -16.406  1.00  0.00     0.164 HD
ENDBRANCH  11  12
TORSDOF 1
ENDMDL
MODEL 2
REMARK VINA RESULT: -5.568329876      1.489      2.274
REMARK  1 active torsions:
REMARK  status: ('A' for Active; 'I' for Inactive)
REMARK    1  A    between atoms: N3_11  and  C5_12 
ROOT
HETATM    1  N1  UNL     1      39.270  14.931 -14.376  1.00  0.00    -0.388 N 
ATOM      2  H11 UNL     1      38.292  14.643 -14.337  1.00  0.00     0.157 HD
ATOM      3  H12 UNL     1      40.026  14.279 -14.165  1.00  0.00     0.157 HD
HETATM    4  C1  UNL     1      39.528  16.172 -14.712  1.00  0.00     0.093 C 
HETATM    5  C2  UNL     1      40.940  16.587 -14.770  1.00  0.00     0.198 C 
HETATM    6  N2  UNL     1      41.140  17.805 -15.508  1.00  0.00    -0.353 N 
ATOM      7  H2  UNL     1      41.974  17.943 -16.079  1.00  0.00     0.162 HD
HETATM    8  C3  UNL     1      40.149  18.800 -15.417  1.00  0.00     0.235 C 
HETATM    9  O1  UNL     1      40.421  19.991 -15.702  1.00  0.00    -0.272 OA
HETATM   10  C4  UNL     1      38.770  18.486 -14.991  1.00  0.00     0.229 C 
HETATM   11  N3  UNL     1      38.475  17.080 -15.007  1.00  0.00    -0.338 N 
ENDROOT
BRANCH  11  12
HETATM   12  C5  UNL     1      37.189  16.527 -15.297  1.00  0.00     0.205 C 
HETATM   13  C6  UNL     1      36.099  16.871 -14.332  1.00  0.00     0.169 C 
HETATM   14  N4  UNL     1      34.935  16.544 -15.184  1.00  0.00    -0.361 N 
HETATM   15  C7  UNL     1      35.382  16.886 -16.509  1.00  0.00     0.185 C 
ATOM     16  H4  UNL     1      34.032  16.166 -14.901  1.00  0.00     0.162 HD
HETATM   17  N5  UNL     1      34.549  17.198 -17.619  1.00  0.00    -0.064 NA
HETATM   18  N6  UNL     1      36.660  16.877 -16.569  1.00  0.00    -0.342 N 
ATOM     19  H6  UNL     1      37.214  17.088 -17.399  1.00  0.00     0.164 HD
ENDBRANCH  11  12
TORSDOF 1
ENDMDL
MODEL 3
REMARK VINA RESULT: -5.527798618      2.242      5.025
REMARK  1 active torsions:
REMARK  status: ('A' for Active; 'I' for Inactive)
REMARK    1  A    between atoms: N3_11  and  C5_12 
ROOT
HETATM    1  N1  UNL     1      36.511  20.176 -16.010  1.00  0.00    -0.388 N 
ATOM      2  H11 UNL     1      37.209  20.148 -15.266  1.00  0.00     0.157 HD
ATOM      3  H12 UNL     1      36.251  21.052 -16.463  1.00  0.00     0.157 HD
HETATM    4  C1  UNL     1      35.956  19.044 -16.369  1.00  0.00     0.093 C 
HETATM    5  C2  UNL     1      34.949  19.084 -17.443  1.00  0.00     0.198 C 
HETATM    6  N2  UNL     1      34.696  17.795 -18.027  1.00  0.00    -0.353 N 
ATOM      7  H2  UNL     1      34.495  17.699 -19.022  1.00  0.00     0.162 HD
HETATM    8  C3  UNL     1      34.734  16.670 -17.181  1.00  0.00     0.235 C 
HETATM    9  O1  UNL     1      34.164  15.605 -17.520  1.00  0.00    -0.272 OA
HETATM   10  C4  UNL     1      35.438  16.699 -15.883  1.00  0.00     0.229 C 
HETATM   11  N3  UNL     1      36.319  17.823 -15.737  1.00  0.00    -0.338 N 
ENDROOT
BRANCH  11  12
HETATM   12  C5  UNL     1      37.540  17.803 -14.994  1.00  0.00     0.205 C 
HETATM   13  C6  UNL     1      37.702  16.665 -14.037  1.00  0.00     0.169 C 
HETATM   14  N4  UNL     1      39.168  16.733 -13.855  1.00  0.00    -0.361 N 
HETATM   15  C7  UNL     1      39.646  17.167 -15.142  1.00  0.00     0.185 C 
ATOM     16  H4  UNL     1      39.711  16.523 -13.018  1.00  0.00     0.162 HD
HETATM   17  N5  UNL     1      40.957  16.967 -15.659  1.00  0.00    -0.064 NA
HETATM   18  N6  UNL     1      38.720  17.772 -15.785  1.00  0.00    -0.342 N 
ATOM     19  H6  UNL     1      38.815  18.170 -16.720  1.00  0.00     0.164 HD
ENDBRANCH  11  12
TORSDOF 1
ENDMDL
MODEL 4
REMARK VINA RESULT: -5.228864783      1.339      1.996
REMARK  1 active torsions:
REMARK  status: ('A' for Active; 'I' for Inactive)
REMARK    1  A    between atoms: N3_11  and  C5_12 
ROOT
HETATM    1  N1  UNL     1      34.797  17.310 -14.205  1.00  0.00    -0.388 N 
ATOM      2  H11 UNL     1      34.198  17.795 -14.874  1.00  0.00     0.157 HD
ATOM      3  H12 UNL     1      34.419  16.896 -13.354  1.00  0.00     0.157 HD
HETATM    4  C1  UNL     1      36.078  17.233 -14.478  1.00  0.00     0.093 C 
HETATM    5  C2  UNL     1      36.943  16.532 -13.513  1.00  0.00     0.198 C 
HETATM    6  N2  UNL     1      38.216  16.159 -14.066  1.00  0.00    -0.353 N 
ATOM      7  H2  UNL     1      38.673  15.288 -13.794  1.00  0.00     0.162 HD
HETATM    8  C3  UNL     1      38.814  17.033 -14.994  1.00  0.00     0.235 C 
HETATM    9  O1  UNL     1      40.047  16.975 -15.214  1.00  0.00    -0.272 OA
HETATM   10  C4  UNL     1      38.022  18.037 -15.734  1.00  0.00     0.229 C 
HETATM   11  N3  UNL     1      36.605  17.810 -15.665  1.00  0.00    -0.338 N 
ENDROOT
BRANCH  11  12
HETATM   12  C5  UNL     1      35.683  18.128 -16.709  1.00  0.00     0.205 C 
HETATM   13  C6  UNL     1      34.697  17.058 -17.056  1.00  0.00     0.169 C 
HETATM   14  N4  UNL     1      33.703  17.892 -17.767  1.00  0.00    -0.361 N 
HETATM   15  C7  UNL     1      33.763  19.151 -17.071  1.00  0.00     0.185 C 
ATOM     16  H4  UNL     1      33.116  17.636 -18.560  1.00  0.00     0.162 HD
HETATM   17  N5  UNL     1      32.736  20.136 -17.033  1.00  0.00    -0.064 NA
HETATM   18  N6  UNL     1      34.885  19.281 -16.472  1.00  0.00    -0.342 N 
ATOM     19  H6  UNL     1      35.165  20.086 -15.912  1.00  0.00     0.164 HD
ENDBRANCH  11  12
TORSDOF 1
ENDMDL
MODEL 5
REMARK VINA RESULT: -5.174799687      2.559      3.812
REMARK  1 active torsions:
REMARK  status: ('A' for Active; 'I' for Inactive)
REMARK    1  A    between atoms: N3_11  and  C5_12 
ROOT
HETATM    1  N1  UNL     1      40.513  18.763 -14.025  1.00  0.00    -0.388 N 
ATOM      2  H11 UNL     1      39.749  19.073 -14.626  1.00  0.00     0.157 HD
ATOM      3  H12 UNL     1      41.240  19.407 -13.711  1.00  0.00     0.157 HD
HETATM    4  C1  UNL     1      40.533  17.502 -13.665  1.00  0.00     0.093 C 
HETATM    5  C2  UNL     1      41.635  17.053 -12.797  1.00  0.00     0.198 C 
HETATM    6  N2  UNL     1      41.367  15.799 -12.148  1.00  0.00    -0.353 N 
ATOM      7  H2  UNL     1      41.697  15.616 -11.200  1.00  0.00     0.162 HD
HETATM    8  C3  UNL     1      40.635  14.831 -12.862  1.00  0.00     0.235 C 
HETATM    9  O1  UNL     1      40.696  13.622 -12.531  1.00  0.00    -0.272 OA
HETATM   10  C4  UNL     1      39.781  15.195 -14.010  1.00  0.00     0.229 C 
HETATM   11  N3  UNL     1      39.520  16.605 -14.102  1.00  0.00    -0.338 N 
ENDROOT
BRANCH  11  12
HETATM   12  C5  UNL     1      38.311  17.173 -14.609  1.00  0.00     0.205 C 
HETATM   13  C6  UNL     1      38.372  17.696 -16.009  1.00  0.00     0.169 C 
HETATM   14  N4  UNL     1      36.922  17.738 -16.296  1.00  0.00    -0.361 N 
HETATM   15  C7  UNL     1      36.402  16.614 -15.562  1.00  0.00     0.185 C 
ATOM     16  H4  UNL     1      36.412  18.405 -16.875  1.00  0.00     0.162 HD
HETATM   17  N5  UNL     1      35.185  15.929 -15.832  1.00  0.00    -0.064 NA
HETATM   18  N6  UNL     1      37.192  16.296 -14.607  1.00  0.00    -0.342 N 
ATOM     19  H6  UNL     1      37.043  15.532 -13.948  1.00  0.00     0.164 HD
ENDBRANCH  11  12
TORSDOF 1
ENDMDL
