MODEL 1
REMARK VINA RESULT: -7.366645846      0.000      0.000
REMARK  0 active torsions:
REMARK  status: ('A' for Active; 'I' for Inactive)
ROOT
HETATM    1  C1  UNL     1      38.746  16.126 -14.149  1.00  0.00     0.045 C 
HETATM    2  C2  UNL     1      38.819  17.401 -14.459  1.00  0.00     0.057 A 
HETATM    3  N1  UNL     1      39.989  18.102 -14.218  1.00  0.00    -0.298 N 
ATOM      4  H1  UNL     1      40.816  17.735 -13.748  1.00  0.00     0.187 HD
HETATM    5  N2  UNL     1      39.858  19.311 -14.694  1.00  0.00    -0.265 N 
ATOM      6  H2  UNL     1      40.565  20.046 -14.659  1.00  0.00     0.190 HD
HETATM    7  C3  UNL     1      38.636  19.421 -15.236  1.00  0.00     0.274 A 
HETATM    8  O1  UNL     1      38.295  20.511 -15.762  1.00  0.00    -0.266 OA
HETATM    9  C4  UNL     1      37.931  18.218 -15.101  1.00  0.00     0.093 A 
HETATM   10  C5  UNL     1      36.680  18.063 -15.397  1.00  0.00     0.123 C 
HETATM   11  N3  UNL     1      36.036  19.160 -16.131  1.00  0.00    -0.303 N 
ATOM     12  H3  UNL     1      36.237  20.113 -15.828  1.00  0.00     0.171 HD
HETATM   13  C6  UNL     1      35.137  18.989 -17.253  1.00  0.00     0.328 C 
HETATM   14  O2  UNL     1      35.004  19.988 -18.011  1.00  0.00    -0.247 OA
HETATM   15  N4  UNL     1      34.399  17.801 -17.570  1.00  0.00    -0.260 N 
ATOM     16  H4  UNL     1      33.688  17.934 -18.290  1.00  0.00     0.175 HD
HETATM   17  C7  UNL     1      34.474  16.460 -17.063  1.00  0.00     0.331 C 
HETATM   18  O3  UNL     1      33.955  15.550 -17.752  1.00  0.00    -0.246 OA
HETATM   19  N5  UNL     1      35.110  16.099 -15.813  1.00  0.00    -0.273 N 
ATOM     20  H5  UNL     1      34.998  15.130 -15.518  1.00  0.00     0.173 HD
HETATM   21  C8  UNL     1      35.874  16.930 -14.945  1.00  0.00     0.277 C 
HETATM   22  O4  UNL     1      35.859  16.689 -13.699  1.00  0.00    -0.266 OA
ENDROOT
TORSDOF 0
ENDMDL
MODEL 2
REMARK VINA RESULT: -7.177453290      2.275      3.340
REMARK  0 active torsions:
REMARK  status: ('A' for Active; 'I' for Inactive)
ROOT
HETATM    1  C1  UNL     1      40.215  17.282 -17.319  1.00  0.00     0.045 C 
HETATM    2  C2  UNL     1      40.287  17.092 -16.020  1.00  0.00     0.057 A 
HETATM    3  N1  UNL     1      41.492  17.274 -15.363  1.00  0.00    -0.298 N 
ATOM      4  H1  UNL     1      42.385  17.487 -15.807  1.00  0.00     0.187 HD
HETATM    5  N2  UNL     1      41.297  17.127 -14.081  1.00  0.00    -0.265 N 
ATOM      6  H2  UNL     1      42.008  17.207 -13.355  1.00  0.00     0.190 HD
HETATM    7  C3  UNL     1      39.998  16.852 -13.881  1.00  0.00     0.274 A 
HETATM    8  O1  UNL     1      39.583  16.675 -12.707  1.00  0.00    -0.266 OA
HETATM    9  C4  UNL     1      39.313  16.814 -15.102  1.00  0.00     0.093 A 
HETATM   10  C5  UNL     1      38.084  16.433 -15.243  1.00  0.00     0.123 C 
HETATM   11  N3  UNL     1      37.306  16.251 -14.010  1.00  0.00    -0.303 N 
ATOM     12  H3  UNL     1      37.761  15.779 -13.229  1.00  0.00     0.171 HD
HETATM   13  C6  UNL     1      35.940  16.695 -13.821  1.00  0.00     0.328 C 
HETATM   14  O2  UNL     1      35.567  16.839 -12.625  1.00  0.00    -0.247 OA
HETATM   15  N4  UNL     1      34.993  16.979 -14.860  1.00  0.00    -0.260 N 
ATOM     16  H4  UNL     1      34.037  17.103 -14.527  1.00  0.00     0.175 HD
HETATM   17  C7  UNL     1      35.141  17.120 -16.281  1.00  0.00     0.331 C 
HETATM   18  O3  UNL     1      34.222  17.704 -16.904  1.00  0.00    -0.246 OA
HETATM   19  N5  UNL     1      36.280  16.634 -17.031  1.00  0.00    -0.273 N 
ATOM     20  H5  UNL     1      36.209  16.703 -18.046  1.00  0.00     0.173 HD
HETATM   21  C8  UNL     1      37.488  16.073 -16.528  1.00  0.00     0.277 C 
HETATM   22  O4  UNL     1      38.092  15.199 -17.223  1.00  0.00    -0.266 OA
ENDROOT
TORSDOF 0
ENDMDL
MODEL 3
REMARK VINA RESULT: -6.577350717      2.097      4.664
REMARK  0 active torsions:
REMARK  status: ('A' for Active; 'I' for Inactive)
ROOT
HETATM    1  C1  UNL     1      34.863  16.091 -15.798  1.00  0.00     0.045 C 
HETATM    2  C2  UNL     1      35.175  17.349 -16.018  1.00  0.00     0.057 A 
HETATM    3  N1  UNL     1      34.178  18.264 -16.312  1.00  0.00    -0.298 N 
ATOM      4  H1  UNL     1      33.191  18.046 -16.446  1.00  0.00     0.187 HD
HETATM    5  N2  UNL     1      34.711  19.453 -16.391  1.00  0.00    -0.265 N 
ATOM      6  H2  UNL     1      34.212  20.319 -16.595  1.00  0.00     0.190 HD
HETATM    7  C3  UNL     1      36.028  19.341 -16.159  1.00  0.00     0.274 A 
HETATM    8  O1  UNL     1      36.744  20.375 -16.181  1.00  0.00    -0.266 OA
HETATM    9  C4  UNL     1      36.371  18.004 -15.920  1.00  0.00     0.093 A 
HETATM   10  C5  UNL     1      37.583  17.565 -15.808  1.00  0.00     0.123 C 
HETATM   11  N3  UNL     1      38.642  18.578 -15.699  1.00  0.00    -0.303 N 
ATOM     12  H3  UNL     1      38.589  19.386 -16.318  1.00  0.00     0.171 HD
HETATM   13  C6  UNL     1      39.756  18.513 -14.776  1.00  0.00     0.328 C 
HETATM   14  O2  UNL     1      40.323  19.609 -14.517  1.00  0.00    -0.247 OA
HETATM   15  N4  UNL     1      40.260  17.329 -14.142  1.00  0.00    -0.260 N 
ATOM     16  H4  UNL     1      41.156  17.460 -13.671  1.00  0.00     0.175 HD
HETATM   17  C7  UNL     1      39.739  15.994 -14.049  1.00  0.00     0.331 C 
HETATM   18  O3  UNL     1      40.207  15.251 -13.153  1.00  0.00    -0.246 OA
HETATM   19  N5  UNL     1      38.712  15.461 -14.918  1.00  0.00    -0.273 N 
ATOM     20  H5  UNL     1      38.511  14.467 -14.815  1.00  0.00     0.173 HD
HETATM   21  C8  UNL     1      37.947  16.152 -15.900  1.00  0.00     0.277 C 
HETATM   22  O4  UNL     1      37.556  15.518 -16.928  1.00  0.00    -0.266 OA
ENDROOT
TORSDOF 0
ENDMDL
MODEL 4
REMARK VINA RESULT: -6.398688630      2.910      5.396
REMARK  0 active torsions:
REMARK  status: ('A' for Active; 'I' for Inactive)
ROOT
HETATM    1  C1  UNL     1      36.643  16.495 -15.874  1.00  0.00     0.045 C 
HETATM    2  C2  UNL     1      37.373  17.577 -15.717  1.00  0.00     0.057 A 
HETATM    3  N1  UNL     1      36.843  18.817 -16.030  1.00  0.00    -0.298 N 
ATOM      4  H1  UNL     1      35.928  18.984 -16.448  1.00  0.00     0.187 HD
HETATM    5  N2  UNL     1      37.708  19.738 -15.703  1.00  0.00    -0.265 N 
ATOM      6  H2  UNL     1      37.583  20.744 -15.819  1.00  0.00     0.190 HD
HETATM    7  C3  UNL     1      38.790  19.135 -15.186  1.00  0.00     0.274 A 
HETATM    8  O1  UNL     1      39.756  19.840 -14.796  1.00  0.00    -0.266 OA
HETATM    9  C4  UNL     1      38.620  17.745 -15.182  1.00  0.00     0.093 A 
HETATM   10  C5  UNL     1      39.546  16.893 -14.879  1.00  0.00     0.123 C 
HETATM   11  N3  UNL     1      40.774  17.439 -14.286  1.00  0.00    -0.303 N 
ATOM     12  H3  UNL     1      41.162  18.287 -14.698  1.00  0.00     0.171 HD
HETATM   13  C6  UNL     1      41.475  16.861 -13.157  1.00  0.00     0.328 C 
HETATM   14  O2  UNL     1      42.238  17.640 -12.524  1.00  0.00    -0.247 OA
HETATM   15  N4  UNL     1      41.375  15.503 -12.707  1.00  0.00    -0.260 N 
ATOM     16  H4  UNL     1      42.077  15.244 -12.013  1.00  0.00     0.175 HD
HETATM   17  C7  UNL     1      40.472  14.441 -13.051  1.00  0.00     0.331 C 
HETATM   18  O3  UNL     1      40.393  13.470 -12.262  1.00  0.00    -0.246 OA
HETATM   19  N5  UNL     1      39.653  14.428 -14.244  1.00  0.00    -0.273 N 
ATOM     20  H5  UNL     1      39.138  13.565 -14.423  1.00  0.00     0.173 HD
HETATM   21  C8  UNL     1      39.475  15.468 -15.199  1.00  0.00     0.277 C 
HETATM   22  O4  UNL     1      39.246  15.156 -16.408  1.00  0.00    -0.266 OA
ENDROOT
TORSDOF 0
ENDMDL
MODEL 5
REMARK VINA RESULT: -6.039811717      2.149      3.347
REMARK  0 active torsions:
REMARK  status: ('A' for Active; 'I' for Inactive)
ROOT
HETATM    1  C1  UNL     1      38.978  17.071 -13.617  1.00  0.00     0.045 C 
HETATM    2  C2  UNL     1      38.935  16.209 -14.609  1.00  0.00     0.057 A 
HETATM    3  N1  UNL     1      39.781  15.113 -14.606  1.00  0.00    -0.298 N 
ATOM      4  H1  UNL     1      40.512  14.927 -13.919  1.00  0.00     0.187 HD
HETATM    5  N2  UNL     1      39.491  14.356 -15.629  1.00  0.00    -0.265 N 
ATOM      6  H2  UNL     1      39.952  13.480 -15.875  1.00  0.00     0.190 HD
HETATM    7  C3  UNL     1      38.480  14.928 -16.302  1.00  0.00     0.274 A 
HETATM    8  O1  UNL     1      38.031  14.360 -17.331  1.00  0.00    -0.266 OA
HETATM    9  C4  UNL     1      38.096  16.124 -15.685  1.00  0.00     0.093 A 
HETATM   10  C5  UNL     1      37.249  16.968 -16.181  1.00  0.00     0.123 C 
HETATM   11  N3  UNL     1      36.482  16.519 -17.351  1.00  0.00    -0.303 N 
ATOM     12  H3  UNL     1      36.985  16.016 -18.081  1.00  0.00     0.171 HD
HETATM   13  C6  UNL     1      35.063  16.739 -17.544  1.00  0.00     0.328 C 
HETATM   14  O2  UNL     1      34.490  15.964 -18.357  1.00  0.00    -0.247 OA
HETATM   15  N4  UNL     1      34.269  17.745 -16.900  1.00  0.00    -0.260 N 
ATOM     16  H4  UNL     1      33.336  17.855 -17.298  1.00  0.00     0.175 HD
HETATM   17  C7  UNL     1      34.543  18.625 -15.799  1.00  0.00     0.331 C 
HETATM   18  O3  UNL     1      33.563  19.157 -15.225  1.00  0.00    -0.246 OA
HETATM   19  N5  UNL     1      35.873  18.931 -15.316  1.00  0.00    -0.273 N 
ATOM     20  H5  UNL     1      35.933  19.654 -14.600  1.00  0.00     0.173 HD
HETATM   21  C8  UNL     1      37.109  18.347 -15.715  1.00  0.00     0.277 C 
HETATM   22  O4  UNL     1      38.160  19.056 -15.678  1.00  0.00    -0.266 OA
ENDROOT
TORSDOF 0
ENDMDL
