MODEL 1
REMARK VINA RESULT: -7.533684154      0.000      0.000
REMARK  4 active torsions:
REMARK  status: ('A' for Active; 'I' for Inactive)
REMARK    1  A    between atoms: C4_7  and  C5_8 
REMARK    2  A    between atoms: C5_8  and  C6_9 
REMARK    3  A    between atoms: C7_10  and  O2_11 
REMARK    4  A    between atoms: N4_16  and  O3_17 
ROOT
HETATM    1  C1  UNL     1      32.407  20.283 -17.880  1.00  0.00     0.064 C 
HETATM    2  C2  UNL     1      33.095  19.311 -17.280  1.00  0.00     0.101 A 
HETATM    3  N1  UNL     1      33.417  19.386 -15.979  1.00  0.00    -0.309 N 
ATOM      4  H1  UNL     1      33.131  20.203 -15.439  1.00  0.00     0.170 HD
HETATM    5  C3  UNL     1      34.111  18.405 -15.375  1.00  0.00     0.262 A 
HETATM    6  O1  UNL     1      34.409  18.492 -14.136  1.00  0.00    -0.267 OA
HETATM    7  C4  UNL     1      34.531  17.271 -16.041  1.00  0.00     0.102 A 
HETATM    8  C8  UNL     1      34.195  17.203 -17.378  1.00  0.00     0.262 A 
HETATM    9  O4  UNL     1      34.543  16.206 -18.040  1.00  0.00    -0.267 OA
HETATM   10  N5  UNL     1      33.490  18.218 -17.957  1.00  0.00    -0.309 N 
ATOM     11  H5  UNL     1      33.253  18.146 -18.947  1.00  0.00     0.170 HD
ENDROOT
BRANCH   7  12
HETATM   12  C5  UNL     1      35.211  16.323 -15.416  1.00  0.00     0.060 C 
BRANCH  12  13
HETATM   13  C6  UNL     1      36.594  16.428 -14.994  1.00  0.00     0.132 A 
HETATM   14  C7  UNL     1      37.710  16.417 -15.816  1.00  0.00     0.184 A 
HETATM   15  N2  UNL     1      38.805  16.543 -15.029  1.00  0.00    -0.260 N 
HETATM   16  N3  UNL     1      38.384  16.629 -13.776  1.00  0.00     0.009 NA
ATOM     17  H2  UNL     1      39.775  16.569 -15.343  1.00  0.00     0.186 HD
HETATM   18  N4  UNL     1      37.054  16.561 -13.737  1.00  0.00    -0.143 N 
BRANCH  14  19
HETATM   19  O2  UNL     1      37.673  16.298 -17.184  1.00  0.00    -0.344 OA
ATOM     20  H2  UNL     1      37.273  16.927 -17.772  1.00  0.00     0.219 HD
ENDBRANCH  14  19
BRANCH  18  21
HETATM   21  O3  UNL     1      36.366  16.614 -12.693  1.00  0.00    -0.269 OA
ATOM     22  H3  UNL     1      36.211  17.381 -12.155  1.00  0.00     0.246 HD
ENDBRANCH  18  21
ENDBRANCH  12  13
ENDBRANCH   7  12
TORSDOF 4
ENDMDL
MODEL 2
REMARK VINA RESULT: -7.533556622      0.056      1.917
REMARK  4 active torsions:
REMARK  status: ('A' for Active; 'I' for Inactive)
REMARK    1  A    between atoms: C4_7  and  C5_8 
REMARK    2  A    between atoms: C5_8  and  C6_9 
REMARK    3  A    between atoms: C7_10  and  O2_11 
REMARK    4  A    between atoms: N4_16  and  O3_17 
ROOT
HETATM    1  C1  UNL     1      32.379  20.285 -17.916  1.00  0.00     0.064 C 
HETATM    2  C2  UNL     1      33.066  19.322 -17.300  1.00  0.00     0.101 A 
HETATM    3  N1  UNL     1      33.448  18.213 -17.953  1.00  0.00    -0.309 N 
ATOM      4  H1  UNL     1      33.208  18.105 -18.939  1.00  0.00     0.170 HD
HETATM    5  C3  UNL     1      34.141  17.242 -17.332  1.00  0.00     0.262 A 
HETATM    6  O1  UNL     1      34.497  16.194 -17.969  1.00  0.00    -0.267 OA
HETATM    7  C4  UNL     1      34.502  17.319 -16.002  1.00  0.00     0.102 A 
HETATM    8  C8  UNL     1      34.104  18.463 -15.339  1.00  0.00     0.262 A 
HETATM    9  O4  UNL     1      34.396  18.598 -14.134  1.00  0.00    -0.267 OA
HETATM   10  N5  UNL     1      33.402  19.427 -16.003  1.00  0.00    -0.309 N 
ATOM     11  H5  UNL     1      33.119  20.264 -15.492  1.00  0.00     0.170 HD
ENDROOT
BRANCH   7  12
HETATM   12  C5  UNL     1      35.184  16.346 -15.421  1.00  0.00     0.060 C 
BRANCH  12  13
HETATM   13  C6  UNL     1      36.565  16.438 -14.987  1.00  0.00     0.132 A 
HETATM   14  C7  UNL     1      37.687  16.413 -15.799  1.00  0.00     0.184 A 
HETATM   15  N2  UNL     1      38.777  16.530 -15.003  1.00  0.00    -0.260 N 
HETATM   16  N3  UNL     1      38.346  16.623 -13.753  1.00  0.00     0.009 NA
ATOM     17  H2  UNL     1      39.750  16.545 -15.309  1.00  0.00     0.186 HD
HETATM   18  N4  UNL     1      37.015  16.569 -13.726  1.00  0.00    -0.143 N 
BRANCH  14  19
HETATM   19  O2  UNL     1      37.662  16.290 -17.167  1.00  0.00    -0.344 OA
ATOM     20  H2  UNL     1      38.432  16.210 -17.718  1.00  0.00     0.219 HD
ENDBRANCH  14  19
BRANCH  18  21
HETATM   21  O3  UNL     1      36.318  16.632 -12.688  1.00  0.00    -0.269 OA
ATOM     22  H3  UNL     1      36.610  16.899 -11.825  1.00  0.00     0.246 HD
ENDBRANCH  18  21
ENDBRANCH  12  13
ENDBRANCH   7  12
TORSDOF 4
ENDMDL
MODEL 3
REMARK VINA RESULT: -7.422284221      0.545      2.657
REMARK  4 active torsions:
REMARK  status: ('A' for Active; 'I' for Inactive)
REMARK    1  A    between atoms: C4_7  and  C5_8 
REMARK    2  A    between atoms: C5_8  and  C6_9 
REMARK    3  A    between atoms: C7_10  and  O2_11 
REMARK    4  A    between atoms: N4_16  and  O3_17 
ROOT
HETATM    1  C1  UNL     1      32.406  20.304 -17.897  1.00  0.00     0.064 C 
HETATM    2  C2  UNL     1      33.069  19.319 -17.290  1.00  0.00     0.101 A 
HETATM    3  N1  UNL     1      33.383  18.187 -17.941  1.00  0.00    -0.309 N 
ATOM      4  H1  UNL     1      33.109  18.078 -18.917  1.00  0.00     0.170 HD
HETATM    5  C3  UNL     1      34.053  17.194 -17.328  1.00  0.00     0.262 A 
HETATM    6  O1  UNL     1      34.344  16.125 -17.961  1.00  0.00    -0.267 OA
HETATM    7  C4  UNL     1      34.456  17.270 -16.010  1.00  0.00     0.102 A 
HETATM    8  C8  UNL     1      34.128  18.437 -15.350  1.00  0.00     0.262 A 
HETATM    9  O4  UNL     1      34.462  18.573 -14.156  1.00  0.00    -0.267 OA
HETATM   10  N5  UNL     1      33.448  19.424 -16.005  1.00  0.00    -0.309 N 
ATOM     11  H5  UNL     1      33.217  20.278 -15.496  1.00  0.00     0.170 HD
ENDROOT
BRANCH   7  12
HETATM   12  C5  UNL     1      35.113  16.275 -15.437  1.00  0.00     0.060 C 
BRANCH  12  13
HETATM   13  C6  UNL     1      36.534  16.269 -15.150  1.00  0.00     0.132 A 
HETATM   14  C7  UNL     1      37.124  16.416 -13.905  1.00  0.00     0.184 A 
HETATM   15  N2  UNL     1      38.467  16.345 -14.071  1.00  0.00    -0.260 N 
HETATM   16  N3  UNL     1      38.695  16.163 -15.364  1.00  0.00     0.009 NA
ATOM     17  H2  UNL     1      39.171  16.419 -13.338  1.00  0.00     0.186 HD
HETATM   18  N4  UNL     1      37.542  16.114 -16.029  1.00  0.00    -0.143 N 
BRANCH  14  19
HETATM   19  O2  UNL     1      36.437  16.599 -12.730  1.00  0.00    -0.344 OA
ATOM     20  H2  UNL     1      35.499  16.484 -12.627  1.00  0.00     0.219 HD
ENDBRANCH  14  19
BRANCH  18  21
HETATM   21  O3  UNL     1      37.435  15.951 -17.265  1.00  0.00    -0.269 OA
ATOM     22  H3  UNL     1      36.627  15.914 -17.763  1.00  0.00     0.246 HD
ENDBRANCH  18  21
ENDBRANCH  12  13
ENDBRANCH   7  12
TORSDOF 4
ENDMDL
MODEL 4
REMARK VINA RESULT: -7.407409118      0.545      1.842
REMARK  4 active torsions:
REMARK  status: ('A' for Active; 'I' for Inactive)
REMARK    1  A    between atoms: C4_7  and  C5_8 
REMARK    2  A    between atoms: C5_8  and  C6_9 
REMARK    3  A    between atoms: C7_10  and  O2_11 
REMARK    4  A    between atoms: N4_16  and  O3_17 
ROOT
HETATM    1  C1  UNL     1      32.453  20.335 -17.871  1.00  0.00     0.064 C 
HETATM    2  C2  UNL     1      33.106  19.337 -17.275  1.00  0.00     0.101 A 
HETATM    3  N1  UNL     1      33.471  19.416 -15.986  1.00  0.00    -0.309 N 
ATOM      4  H1  UNL     1      33.245  20.255 -15.452  1.00  0.00     0.170 HD
HETATM    5  C3  UNL     1      34.130  18.409 -15.384  1.00  0.00     0.262 A 
HETATM    6  O1  UNL     1      34.469  18.500 -14.157  1.00  0.00    -0.267 OA
HETATM    7  C4  UNL     1      34.469  17.243 -16.043  1.00  0.00     0.102 A 
HETATM    8  C8  UNL     1      34.090  17.172 -17.368  1.00  0.00     0.262 A 
HETATM    9  O4  UNL     1      34.364  16.147 -18.023  1.00  0.00    -0.267 OA
HETATM   10  N5  UNL     1      33.422  18.215 -17.944  1.00  0.00    -0.309 N 
ATOM     11  H5  UNL     1      33.151  18.139 -18.925  1.00  0.00     0.170 HD
ENDROOT
BRANCH   7  12
HETATM   12  C5  UNL     1      35.117  16.271 -15.422  1.00  0.00     0.060 C 
BRANCH  12  13
HETATM   13  C6  UNL     1      36.539  16.262 -15.140  1.00  0.00     0.132 A 
HETATM   14  C7  UNL     1      37.134  16.406 -13.898  1.00  0.00     0.184 A 
HETATM   15  N2  UNL     1      38.476  16.334 -14.070  1.00  0.00    -0.260 N 
HETATM   16  N3  UNL     1      38.699  16.153 -15.363  1.00  0.00     0.009 NA
ATOM     17  H2  UNL     1      39.184  16.404 -13.339  1.00  0.00     0.186 HD
HETATM   18  N4  UNL     1      37.542  16.107 -16.023  1.00  0.00    -0.143 N 
BRANCH  14  19
HETATM   19  O2  UNL     1      36.452  16.588 -12.719  1.00  0.00    -0.344 OA
ATOM     20  H2  UNL     1      36.787  17.062 -11.967  1.00  0.00     0.219 HD
ENDBRANCH  14  19
BRANCH  18  21
HETATM   21  O3  UNL     1      37.430  15.947 -17.259  1.00  0.00    -0.269 OA
ATOM     22  H3  UNL     1      37.826  15.257 -17.779  1.00  0.00     0.246 HD
ENDBRANCH  18  21
ENDBRANCH  12  13
ENDBRANCH   7  12
TORSDOF 4
ENDMDL
MODEL 5
REMARK VINA RESULT: -6.975829107      2.072      2.555
REMARK  4 active torsions:
REMARK  status: ('A' for Active; 'I' for Inactive)
REMARK    1  A    between atoms: C4_7  and  C5_8 
REMARK    2  A    between atoms: C5_8  and  C6_9 
REMARK    3  A    between atoms: C7_10  and  O2_11 
REMARK    4  A    between atoms: N4_16  and  O3_17 
ROOT
HETATM    1  C1  UNL     1      32.935  19.469 -17.645  1.00  0.00     0.064 C 
HETATM    2  C2  UNL     1      33.999  18.919 -17.060  1.00  0.00     0.101 A 
HETATM    3  N1  UNL     1      35.068  19.658 -16.722  1.00  0.00    -0.309 N 
ATOM      4  H1  UNL     1      35.066  20.660 -16.917  1.00  0.00     0.170 HD
HETATM    5  C3  UNL     1      36.141  19.103 -16.132  1.00  0.00     0.262 A 
HETATM    6  O1  UNL     1      37.149  19.820 -15.817  1.00  0.00    -0.267 OA
HETATM    7  C4  UNL     1      36.215  17.756 -15.837  1.00  0.00     0.102 A 
HETATM    8  C8  UNL     1      35.112  17.004 -16.189  1.00  0.00     0.262 A 
HETATM    9  O4  UNL     1      35.111  15.781 -15.951  1.00  0.00    -0.267 OA
HETATM   10  N5  UNL     1      34.040  17.603 -16.787  1.00  0.00    -0.309 N 
ATOM     11  H5  UNL     1      33.236  17.028 -17.037  1.00  0.00     0.170 HD
ENDROOT
BRANCH   7  12
HETATM   12  C5  UNL     1      37.286  17.241 -15.255  1.00  0.00     0.060 C 
BRANCH  12  13
HETATM   13  C6  UNL     1      38.488  16.815 -15.945  1.00  0.00     0.132 A 
HETATM   14  C7  UNL     1      38.736  15.556 -16.467  1.00  0.00     0.184 A 
HETATM   15  N2  UNL     1      39.968  15.577 -17.032  1.00  0.00    -0.260 N 
HETATM   16  N3  UNL     1      40.458  16.797 -16.866  1.00  0.00     0.009 NA
ATOM     17  H2  UNL     1      40.431  14.798 -17.500  1.00  0.00     0.186 HD
HETATM   18  N4  UNL     1      39.579  17.556 -16.212  1.00  0.00    -0.143 N 
BRANCH  14  19
HETATM   19  O2  UNL     1      37.864  14.497 -16.405  1.00  0.00    -0.344 OA
ATOM     20  H2  UNL     1      37.030  14.508 -15.950  1.00  0.00     0.219 HD
ENDBRANCH  14  19
BRANCH  18  21
HETATM   21  O3  UNL     1      39.759  18.756 -15.908  1.00  0.00    -0.269 OA
ATOM     22  H3  UNL     1      39.520  19.514 -16.428  1.00  0.00     0.246 HD
ENDBRANCH  18  21
ENDBRANCH  12  13
ENDBRANCH   7  12
TORSDOF 4
ENDMDL
