MODEL 1
REMARK VINA RESULT: -6.117462168      0.000      0.000
REMARK  2 active torsions:
REMARK  status: ('A' for Active; 'I' for Inactive)
REMARK    1  A    between atoms: C6_9  and  N2_10 
REMARK    2  A    between atoms: N2_10  and  N3_12 
ROOT
HETATM    1  C1  UNL     1      34.802  16.554 -17.011  1.00  0.00     0.063 C 
HETATM    2  C2  UNL     1      35.978  16.483 -16.419  1.00  0.00     0.098 A 
HETATM    3  N1  UNL     1      36.043  16.639 -15.100  1.00  0.00    -0.309 N 
ATOM      4  H1  UNL     1      35.190  16.810 -14.569  1.00  0.00     0.170 HD
HETATM    5  C3  UNL     1      37.233  16.572 -14.458  1.00  0.00     0.260 A 
HETATM    6  O1  UNL     1      37.224  16.730 -13.198  1.00  0.00    -0.267 OA
HETATM    7  C4  UNL     1      38.386  16.342 -15.160  1.00  0.00     0.081 A 
HETATM    8  C5  UNL     1      39.604  16.271 -14.524  1.00  0.00     0.067 A 
HETATM    9  C6  UNL     1      39.786  16.409 -13.240  1.00  0.00     0.124 C 
HETATM   10  C7  UNL     1      40.736  16.033 -15.308  1.00  0.00     0.261 A 
HETATM   11  O2  UNL     1      41.854  15.963 -14.767  1.00  0.00    -0.267 OA
HETATM   12  N4  UNL     1      40.596  15.887 -16.628  1.00  0.00    -0.288 N 
ATOM     13  H4  UNL     1      41.432  15.715 -17.187  1.00  0.00     0.172 HD
HETATM   14  C8  UNL     1      39.425  15.954 -17.252  1.00  0.00     0.276 A 
HETATM   15  O3  UNL     1      39.292  15.813 -18.509  1.00  0.00    -0.266 OA
HETATM   16  C9  UNL     1      38.300  16.187 -16.494  1.00  0.00     0.119 A 
HETATM   17  N5  UNL     1      37.112  16.258 -17.106  1.00  0.00    -0.338 N 
ATOM     18  H5  UNL     1      37.066  16.138 -18.118  1.00  0.00     0.167 HD
ENDROOT
BRANCH   9  19
HETATM   19  N2  UNL     1      41.099  16.321 -12.641  1.00  0.00    -0.317 N 
ATOM     20  H2  UNL     1      41.579  15.424 -12.572  1.00  0.00     0.185 HD
BRANCH  19  21
HETATM   21  N3  UNL     1      41.694  17.474 -12.163  1.00  0.00    -0.345 N 
ATOM     22  H32 UNL     1      41.798  18.279 -12.779  1.00  0.00     0.176 HD
ATOM     23  H31 UNL     1      42.019  17.496 -11.197  1.00  0.00     0.176 HD
ENDBRANCH  19  21
ENDBRANCH   9  19
TORSDOF 2
ENDMDL
MODEL 2
REMARK VINA RESULT: -6.038272770      2.738      5.334
REMARK  2 active torsions:
REMARK  status: ('A' for Active; 'I' for Inactive)
REMARK    1  A    between atoms: C6_9  and  N2_10 
REMARK    2  A    between atoms: N2_10  and  N3_12 
ROOT
HETATM    1  C1  UNL     1      42.540  19.514 -13.572  1.00  0.00     0.063 C 
HETATM    2  C2  UNL     1      41.340  19.152 -13.982  1.00  0.00     0.098 A 
HETATM    3  N1  UNL     1      40.579  20.047 -14.605  1.00  0.00    -0.309 N 
ATOM      4  H1  UNL     1      40.930  20.993 -14.755  1.00  0.00     0.170 HD
HETATM    5  C3  UNL     1      39.342  19.713 -15.040  1.00  0.00     0.260 A 
HETATM    6  O1  UNL     1      38.668  20.616 -15.627  1.00  0.00    -0.267 OA
HETATM    7  C4  UNL     1      38.859  18.447 -14.844  1.00  0.00     0.081 A 
HETATM    8  C5  UNL     1      37.603  18.090 -15.280  1.00  0.00     0.067 A 
HETATM    9  C6  UNL     1      36.773  18.883 -15.900  1.00  0.00     0.124 C 
HETATM   10  C7  UNL     1      37.180  16.779 -15.044  1.00  0.00     0.261 A 
HETATM   11  O2  UNL     1      36.051  16.420 -15.424  1.00  0.00    -0.267 OA
HETATM   12  N4  UNL     1      37.998  15.933 -14.412  1.00  0.00    -0.288 N 
ATOM     13  H4  UNL     1      37.674  14.980 -14.246  1.00  0.00     0.172 HD
HETATM   14  C8  UNL     1      39.211  16.268 -13.987  1.00  0.00     0.276 A 
HETATM   15  O3  UNL     1      39.990  15.463 -13.386  1.00  0.00    -0.266 OA
HETATM   16  C9  UNL     1      39.644  17.555 -14.212  1.00  0.00     0.119 A 
HETATM   17  N5  UNL     1      40.863  17.910 -13.791  1.00  0.00    -0.338 N 
ATOM     18  H5  UNL     1      41.444  17.221 -13.313  1.00  0.00     0.167 HD
ENDROOT
BRANCH   9  19
HETATM   19  N2  UNL     1      35.467  18.435 -16.329  1.00  0.00    -0.317 N 
ATOM     20  H2  UNL     1      34.735  18.240 -15.646  1.00  0.00     0.185 HD
BRANCH  19  21
HETATM   21  N3  UNL     1      35.226  18.275 -17.681  1.00  0.00    -0.345 N 
ATOM     22  H32 UNL     1      35.806  18.772 -18.357  1.00  0.00     0.176 HD
ATOM     23  H31 UNL     1      34.469  17.661 -17.978  1.00  0.00     0.176 HD
ENDBRANCH  19  21
ENDBRANCH   9  19
TORSDOF 2
ENDMDL
MODEL 3
REMARK VINA RESULT: -6.015135677      2.576      3.088
REMARK  2 active torsions:
REMARK  status: ('A' for Active; 'I' for Inactive)
REMARK    1  A    between atoms: C6_9  and  N2_10 
REMARK    2  A    between atoms: N2_10  and  N3_12 
ROOT
HETATM    1  C1  UNL     1      34.236  19.663 -16.882  1.00  0.00     0.063 C 
HETATM    2  C2  UNL     1      35.293  18.962 -16.524  1.00  0.00     0.098 A 
HETATM    3  N1  UNL     1      35.216  17.635 -16.536  1.00  0.00    -0.309 N 
ATOM      4  H1  UNL     1      34.348  17.181 -16.818  1.00  0.00     0.170 HD
HETATM    5  C3  UNL     1      36.281  16.881 -16.175  1.00  0.00     0.260 A 
HETATM    6  O1  UNL     1      36.139  15.619 -16.208  1.00  0.00    -0.267 OA
HETATM    7  C4  UNL     1      37.453  17.478 -15.794  1.00  0.00     0.081 A 
HETATM    8  C5  UNL     1      38.545  16.728 -15.423  1.00  0.00     0.067 A 
HETATM    9  C6  UNL     1      38.583  15.424 -15.396  1.00  0.00     0.124 C 
HETATM   10  C7  UNL     1      39.706  17.408 -15.047  1.00  0.00     0.261 A 
HETATM   11  O2  UNL     1      40.714  16.764 -14.706  1.00  0.00    -0.267 OA
HETATM   12  N4  UNL     1      39.712  18.744 -15.059  1.00  0.00    -0.288 N 
ATOM     13  H4  UNL     1      40.567  19.226 -14.780  1.00  0.00     0.172 HD
HETATM   14  C8  UNL     1      38.663  19.477 -15.414  1.00  0.00     0.276 A 
HETATM   15  O3  UNL     1      38.668  20.749 -15.427  1.00  0.00    -0.266 OA
HETATM   16  C9  UNL     1      37.511  18.823 -15.788  1.00  0.00     0.119 A 
HETATM   17  N5  UNL     1      36.445  19.545 -16.149  1.00  0.00    -0.338 N 
ATOM     18  H5  UNL     1      36.508  20.563 -16.138  1.00  0.00     0.167 HD
ENDROOT
BRANCH   9  19
HETATM   19  N2  UNL     1      39.770  14.703 -14.996  1.00  0.00    -0.317 N 
ATOM     20  H2  UNL     1      40.569  14.628 -15.626  1.00  0.00     0.185 HD
BRANCH  19  21
HETATM   21  N3  UNL     1      39.806  14.117 -13.744  1.00  0.00    -0.345 N 
ATOM     22  H32 UNL     1      40.528  14.393 -13.079  1.00  0.00     0.176 HD
ATOM     23  H31 UNL     1      39.105  13.415 -13.508  1.00  0.00     0.176 HD
ENDBRANCH  19  21
ENDBRANCH   9  19
TORSDOF 2
ENDMDL
MODEL 4
REMARK VINA RESULT: -6.009578947      1.759      1.826
REMARK  2 active torsions:
REMARK  status: ('A' for Active; 'I' for Inactive)
REMARK    1  A    between atoms: C6_9  and  N2_10 
REMARK    2  A    between atoms: N2_10  and  N3_12 
ROOT
HETATM    1  C1  UNL     1      34.793  17.568 -17.058  1.00  0.00     0.063 C 
HETATM    2  C2  UNL     1      36.054  17.532 -16.675  1.00  0.00     0.098 A 
HETATM    3  N1  UNL     1      36.576  18.602 -16.084  1.00  0.00    -0.309 N 
ATOM      4  H1  UNL     1      35.999  19.430 -15.935  1.00  0.00     0.170 HD
HETATM    5  C3  UNL     1      37.867  18.602 -15.676  1.00  0.00     0.260 A 
HETATM    6  O1  UNL     1      38.301  19.658 -15.119  1.00  0.00    -0.267 OA
HETATM    7  C4  UNL     1      38.652  17.497 -15.870  1.00  0.00     0.081 A 
HETATM    8  C5  UNL     1      39.967  17.480 -15.463  1.00  0.00     0.067 A 
HETATM    9  C6  UNL     1      40.581  18.469 -14.875  1.00  0.00     0.124 C 
HETATM   10  C7  UNL     1      40.705  16.316 -15.693  1.00  0.00     0.261 A 
HETATM   11  O2  UNL     1      41.897  16.263 -15.339  1.00  0.00    -0.267 OA
HETATM   12  N4  UNL     1      40.116  15.278 -16.294  1.00  0.00    -0.288 N 
ATOM     13  H4  UNL     1      40.669  14.436 -16.456  1.00  0.00     0.172 HD
HETATM   14  C8  UNL     1      38.849  15.286 -16.690  1.00  0.00     0.276 A 
HETATM   15  O3  UNL     1      38.287  14.297 -17.261  1.00  0.00    -0.266 OA
HETATM   16  C9  UNL     1      38.107  16.424 -16.470  1.00  0.00     0.119 A 
HETATM   17  N5  UNL     1      36.829  16.448 -16.863  1.00  0.00    -0.338 N 
ATOM     18  H5  UNL     1      36.432  15.626 -17.317  1.00  0.00     0.167 HD
ENDROOT
BRANCH   9  19
HETATM   19  N2  UNL     1      41.967  18.377 -14.474  1.00  0.00    -0.317 N 
ATOM     20  H2  UNL     1      42.706  18.306 -15.174  1.00  0.00     0.185 HD
BRANCH  19  21
HETATM   21  N3  UNL     1      42.276  18.386 -13.127  1.00  0.00    -0.345 N 
ATOM     22  H32 UNL     1      42.409  17.503 -12.635  1.00  0.00     0.176 HD
ATOM     23  H31 UNL     1      42.364  19.281 -12.647  1.00  0.00     0.176 HD
ENDBRANCH  19  21
ENDBRANCH   9  19
TORSDOF 2
ENDMDL
MODEL 5
REMARK VINA RESULT: -5.988667089      2.681      5.251
REMARK  2 active torsions:
REMARK  status: ('A' for Active; 'I' for Inactive)
REMARK    1  A    between atoms: C6_9  and  N2_10 
REMARK    2  A    between atoms: N2_10  and  N3_12 
ROOT
HETATM    1  C1  UNL     1      43.291  18.197 -12.820  1.00  0.00     0.063 C 
HETATM    2  C2  UNL     1      42.078  18.038 -13.311  1.00  0.00     0.098 A 
HETATM    3  N1  UNL     1      41.482  16.857 -13.179  1.00  0.00    -0.309 N 
ATOM      4  H1  UNL     1      41.967  16.096 -12.706  1.00  0.00     0.170 HD
HETATM    5  C3  UNL     1      40.236  16.657 -13.670  1.00  0.00     0.260 A 
HETATM    6  O1  UNL     1      39.726  15.504 -13.511  1.00  0.00    -0.267 OA
HETATM    7  C4  UNL     1      39.574  17.671 -14.308  1.00  0.00     0.081 A 
HETATM    8  C5  UNL     1      38.307  17.485 -14.814  1.00  0.00     0.067 A 
HETATM    9  C6  UNL     1      37.630  16.373 -14.743  1.00  0.00     0.124 C 
HETATM   10  C7  UNL     1      37.695  18.567 -15.452  1.00  0.00     0.261 A 
HETATM   11  O2  UNL     1      36.550  18.436 -15.921  1.00  0.00    -0.267 OA
HETATM   12  N4  UNL     1      38.353  19.726 -15.548  1.00  0.00    -0.288 N 
ATOM     13  H4  UNL     1      37.893  20.505 -16.018  1.00  0.00     0.172 HD
HETATM   14  C8  UNL     1      39.576  19.914 -15.064  1.00  0.00     0.276 A 
HETATM   15  O3  UNL     1      40.202  21.018 -15.154  1.00  0.00    -0.266 OA
HETATM   16  C9  UNL     1      40.193  18.859 -14.432  1.00  0.00     0.119 A 
HETATM   17  N5  UNL     1      41.424  19.032 -13.939  1.00  0.00    -0.338 N 
ATOM     18  H5  UNL     1      41.878  19.940 -14.042  1.00  0.00     0.167 HD
ENDROOT
BRANCH   9  19
HETATM   19  N2  UNL     1      36.300  16.253 -15.298  1.00  0.00    -0.317 N 
ATOM     20  H2  UNL     1      36.152  16.305 -16.306  1.00  0.00     0.185 HD
BRANCH  19  21
HETATM   21  N3  UNL     1      35.232  16.066 -14.441  1.00  0.00    -0.345 N 
ATOM     22  H32 UNL     1      34.478  16.753 -14.418  1.00  0.00     0.176 HD
ATOM     23  H31 UNL     1      35.218  15.240 -13.842  1.00  0.00     0.176 HD
ENDBRANCH  19  21
ENDBRANCH   9  19
TORSDOF 2
ENDMDL
