MODEL 1
REMARK VINA RESULT: -6.515255844      0.000      0.000
REMARK  7 active torsions:
REMARK  status: ('A' for Active; 'I' for Inactive)
REMARK    1  A    between atoms: C2_2  and  C3_3 
REMARK    2  A    between atoms: C3_3  and  N1_4 
REMARK    3  A    between atoms: N1_4  and  C4_5 
REMARK       I    between atoms: N1_4  and  C10_14 
REMARK    4  A    between atoms: C4_5  and  C5_6 
REMARK       I    between atoms: C5_6  and  N2_8 
REMARK    5  A    between atoms: N2_8  and  C6_10 
REMARK    6  A    between atoms: C10_14  and  C11_16 
REMARK       I    between atoms: C11_16  and  N3_18 
REMARK    7  A    between atoms: N3_18  and  C12_20 
ROOT
HETATM    1  N1  UNL     1      14.908 -11.356  20.749  1.00  0.00    -0.335 N 
HETATM    2  C10 UNL     1      14.848 -12.590  21.419  1.00  0.00     0.311 C 
HETATM    3  O2  UNL     1      13.695 -12.968  21.833  1.00  0.00    -0.262 OA
ENDROOT
BRANCH   2   4
HETATM    4  C11 UNL     1      15.934 -13.495  21.702  1.00  0.00     0.310 C 
HETATM    5  O3  UNL     1      16.248 -14.369  20.867  1.00  0.00    -0.262 OA
HETATM    6  N3  UNL     1      16.661 -13.423  22.905  1.00  0.00    -0.342 N 
ATOM      7  H3  UNL     1      16.396 -12.705  23.579  1.00  0.00     0.163 HD
BRANCH   6   8
HETATM    8  C12 UNL     1      17.757 -14.298  23.244  1.00  0.00     0.055 C 
HETATM    9  C13 UNL     1      17.247 -15.727  23.196  1.00  0.00     0.040 C 
HETATM   10  C14 UNL     1      18.382 -13.967  24.570  1.00  0.00     0.060 C 
HETATM   11  C15 UNL     1      19.673 -13.242  24.177  1.00  0.00     0.239 C 
HETATM   12  N4  UNL     1      20.085 -13.858  22.941  1.00  0.00    -0.072 N 
HETATM   13  C16 UNL     1      20.955 -14.996  23.168  1.00  0.00     0.272 C 
HETATM   14  C17 UNL     1      20.838 -12.922  22.104  1.00  0.00     0.272 C 
HETATM   15  C18 UNL     1      18.879 -14.180  22.245  1.00  0.00     0.267 C 
ENDBRANCH   6   8
ENDBRANCH   2   4
BRANCH   1  16
HETATM   16  C3  UNL     1      13.647 -10.602  20.606  1.00  0.00     0.126 C 
BRANCH  16  17
HETATM   17  C2  UNL     1      13.652  -9.422  21.529  1.00  0.00     0.015 C 
HETATM   18  C1  UNL     1      12.532  -9.469  22.536  1.00  0.00     0.006 C 
ENDBRANCH  16  17
ENDBRANCH   1  16
BRANCH   1  19
HETATM   19  C4  UNL     1      16.052 -10.735  20.165  1.00  0.00     0.228 C 
BRANCH  19  20
HETATM   20  C5  UNL     1      16.416 -11.302  18.847  1.00  0.00     0.236 C 
HETATM   21  O1  UNL     1      17.410 -12.082  18.724  1.00  0.00    -0.272 OA
HETATM   22  N2  UNL     1      15.654 -10.980  17.694  1.00  0.00    -0.352 N 
ATOM     23  H2  UNL     1      14.859 -10.351  17.806  1.00  0.00     0.163 HD
BRANCH  22  24
HETATM   24  C6  UNL     1      15.936 -11.487  16.377  1.00  0.00     0.022 C 
HETATM   25  C7  UNL     1      15.885 -12.979  16.260  1.00  0.00     0.037 C 
HETATM   26  C8  UNL     1      14.937 -10.929  15.374  1.00  0.00     0.037 C 
HETATM   27  C9  UNL     1      17.354 -11.053  15.976  1.00  0.00     0.037 C 
ENDBRANCH  22  24
ENDBRANCH  19  20
ENDBRANCH   1  19
TORSDOF 7
ENDMDL
MODEL 2
REMARK VINA RESULT: -6.387363607      1.203      1.932
REMARK  7 active torsions:
REMARK  status: ('A' for Active; 'I' for Inactive)
REMARK    1  A    between atoms: C2_2  and  C3_3 
REMARK    2  A    between atoms: C3_3  and  N1_4 
REMARK    3  A    between atoms: N1_4  and  C4_5 
REMARK       I    between atoms: N1_4  and  C10_14 
REMARK    4  A    between atoms: C4_5  and  C5_6 
REMARK       I    between atoms: C5_6  and  N2_8 
REMARK    5  A    between atoms: N2_8  and  C6_10 
REMARK    6  A    between atoms: C10_14  and  C11_16 
REMARK       I    between atoms: C11_16  and  N3_18 
REMARK    7  A    between atoms: N3_18  and  C12_20 
ROOT
HETATM    1  N1  UNL     1      15.408 -11.967  20.819  1.00  0.00    -0.335 N 
HETATM    2  C10 UNL     1      15.882 -13.177  21.354  1.00  0.00     0.311 C 
HETATM    3  O2  UNL     1      15.004 -13.987  21.818  1.00  0.00    -0.262 OA
ENDROOT
BRANCH   2   4
HETATM    4  C11 UNL     1      17.249 -13.626  21.448  1.00  0.00     0.310 C 
HETATM    5  O3  UNL     1      17.629 -14.603  20.768  1.00  0.00    -0.262 OA
HETATM    6  N3  UNL     1      18.178 -12.990  22.290  1.00  0.00    -0.342 N 
ATOM      7  H3  UNL     1      17.857 -12.194  22.840  1.00  0.00     0.163 HD
BRANCH   6   8
HETATM    8  C12 UNL     1      19.558 -13.392  22.426  1.00  0.00     0.055 C 
HETATM    9  C13 UNL     1      20.261 -13.105  21.111  1.00  0.00     0.040 C 
HETATM   10  C14 UNL     1      19.712 -14.826  22.846  1.00  0.00     0.060 C 
HETATM   11  C15 UNL     1      20.066 -14.720  24.332  1.00  0.00     0.239 C 
HETATM   12  N4  UNL     1      20.824 -13.500  24.449  1.00  0.00    -0.072 N 
HETATM   13  C16 UNL     1      22.245 -13.727  24.267  1.00  0.00     0.272 C 
HETATM   14  C17 UNL     1      20.667 -12.899  25.775  1.00  0.00     0.272 C 
HETATM   15  C18 UNL     1      20.255 -12.596  23.499  1.00  0.00     0.267 C 
ENDBRANCH   6   8
ENDBRANCH   2   4
BRANCH   1  16
HETATM   16  C3  UNL     1      13.952 -11.732  20.862  1.00  0.00     0.126 C 
BRANCH  16  17
HETATM   17  C2  UNL     1      13.668 -10.401  21.488  1.00  0.00     0.015 C 
HETATM   18  C1  UNL     1      12.211 -10.216  21.823  1.00  0.00     0.006 C 
ENDBRANCH  16  17
ENDBRANCH   1  16
BRANCH   1  19
HETATM   19  C4  UNL     1      16.170 -10.923  20.214  1.00  0.00     0.228 C 
BRANCH  19  20
HETATM   20  C5  UNL     1      16.581 -11.229  18.825  1.00  0.00     0.236 C 
HETATM   21  O1  UNL     1      17.755 -11.638  18.567  1.00  0.00    -0.272 OA
HETATM   22  N2  UNL     1      15.664 -11.068  17.755  1.00  0.00    -0.352 N 
ATOM     23  H2  UNL     1      14.724 -10.738  17.975  1.00  0.00     0.163 HD
BRANCH  22  24
HETATM   24  C6  UNL     1      15.978 -11.343  16.377  1.00  0.00     0.022 C 
HETATM   25  C7  UNL     1      17.332 -10.871  15.942  1.00  0.00     0.037 C 
HETATM   26  C8  UNL     1      15.925 -12.841  16.115  1.00  0.00     0.037 C 
HETATM   27  C9  UNL     1      14.947 -10.634  15.487  1.00  0.00     0.037 C 
ENDBRANCH  22  24
ENDBRANCH  19  20
ENDBRANCH   1  19
TORSDOF 7
ENDMDL
MODEL 3
REMARK VINA RESULT: -6.119422109      3.569      6.420
REMARK  7 active torsions:
REMARK  status: ('A' for Active; 'I' for Inactive)
REMARK    1  A    between atoms: C2_2  and  C3_3 
REMARK    2  A    between atoms: C3_3  and  N1_4 
REMARK    3  A    between atoms: N1_4  and  C4_5 
REMARK       I    between atoms: N1_4  and  C10_14 
REMARK    4  A    between atoms: C4_5  and  C5_6 
REMARK       I    between atoms: C5_6  and  N2_8 
REMARK    5  A    between atoms: N2_8  and  C6_10 
REMARK    6  A    between atoms: C10_14  and  C11_16 
REMARK       I    between atoms: C11_16  and  N3_18 
REMARK    7  A    between atoms: N3_18  and  C12_20 
ROOT
HETATM    1  N1  UNL     1      18.603 -13.328  20.742  1.00  0.00    -0.335 N 
HETATM    2  C10 UNL     1      17.262 -13.745  20.701  1.00  0.00     0.311 C 
HETATM    3  O2  UNL     1      16.398 -12.877  20.322  1.00  0.00    -0.262 OA
ENDROOT
BRANCH   2   4
HETATM    4  C11 UNL     1      16.730 -15.042  21.035  1.00  0.00     0.310 C 
HETATM    5  O3  UNL     1      16.354 -15.813  20.126  1.00  0.00    -0.262 OA
HETATM    6  N3  UNL     1      16.618 -15.473  22.369  1.00  0.00    -0.342 N 
ATOM      7  H3  UNL     1      16.928 -14.836  23.103  1.00  0.00     0.163 HD
BRANCH   6   8
HETATM    8  C12 UNL     1      16.096 -16.758  22.767  1.00  0.00     0.055 C 
HETATM    9  C13 UNL     1      14.630 -16.809  22.374  1.00  0.00     0.040 C 
HETATM   10  C14 UNL     1      16.299 -17.047  24.227  1.00  0.00     0.060 C 
HETATM   11  C15 UNL     1      17.474 -18.028  24.230  1.00  0.00     0.239 C 
HETATM   12  N4  UNL     1      17.329 -18.789  23.015  1.00  0.00    -0.072 N 
HETATM   13  C16 UNL     1      16.517 -19.975  23.213  1.00  0.00     0.272 C 
HETATM   14  C17 UNL     1      18.625 -19.253  22.517  1.00  0.00     0.272 C 
HETATM   15  C18 UNL     1      16.800 -17.879  22.047  1.00  0.00     0.267 C 
ENDBRANCH   6   8
ENDBRANCH   2   4
BRANCH   1  16
HETATM   16  C3  UNL     1      18.890 -11.928  20.370  1.00  0.00     0.126 C 
BRANCH  16  17
HETATM   17  C2  UNL     1      20.302 -11.808  19.888  1.00  0.00     0.015 C 
HETATM   18  C1  UNL     1      20.394 -11.671  18.390  1.00  0.00     0.006 C 
ENDBRANCH  16  17
ENDBRANCH   1  16
BRANCH   1  19
HETATM   19  C4  UNL     1      19.748 -14.105  21.091  1.00  0.00     0.228 C 
BRANCH  19  20
HETATM   20  C5  UNL     1      20.137 -13.969  22.513  1.00  0.00     0.236 C 
HETATM   21  O1  UNL     1      19.339 -14.305  23.442  1.00  0.00    -0.272 OA
HETATM   22  N2  UNL     1      21.413 -13.457  22.860  1.00  0.00    -0.352 N 
ATOM     23  H2  UNL     1      22.044 -13.189  22.104  1.00  0.00     0.163 HD
BRANCH  22  24
HETATM   24  C6  UNL     1      21.873 -13.293  24.214  1.00  0.00     0.022 C 
HETATM   25  C7  UNL     1      21.080 -12.314  25.025  1.00  0.00     0.037 C 
HETATM   26  C8  UNL     1      21.823 -14.622  24.951  1.00  0.00     0.037 C 
HETATM   27  C9  UNL     1      23.321 -12.782  24.183  1.00  0.00     0.037 C 
ENDBRANCH  22  24
ENDBRANCH  19  20
ENDBRANCH   1  19
TORSDOF 7
ENDMDL
MODEL 4
REMARK VINA RESULT: -6.090282378      2.421      6.954
REMARK  7 active torsions:
REMARK  status: ('A' for Active; 'I' for Inactive)
REMARK    1  A    between atoms: C2_2  and  C3_3 
REMARK    2  A    between atoms: C3_3  and  N1_4 
REMARK    3  A    between atoms: N1_4  and  C4_5 
REMARK       I    between atoms: N1_4  and  C10_14 
REMARK    4  A    between atoms: C4_5  and  C5_6 
REMARK       I    between atoms: C5_6  and  N2_8 
REMARK    5  A    between atoms: N2_8  and  C6_10 
REMARK    6  A    between atoms: C10_14  and  C11_16 
REMARK       I    between atoms: C11_16  and  N3_18 
REMARK    7  A    between atoms: N3_18  and  C12_20 
ROOT
HETATM    1  N1  UNL     1      19.753 -13.493  23.823  1.00  0.00    -0.335 N 
HETATM    2  C10 UNL     1      19.906 -13.180  22.462  1.00  0.00     0.311 C 
HETATM    3  O2  UNL     1      21.093 -12.911  22.060  1.00  0.00    -0.262 OA
ENDROOT
BRANCH   2   4
HETATM    4  C11 UNL     1      18.882 -13.121  21.449  1.00  0.00     0.310 C 
HETATM    5  O3  UNL     1      19.149 -13.454  20.275  1.00  0.00    -0.262 OA
HETATM    6  N3  UNL     1      17.574 -12.696  21.745  1.00  0.00    -0.342 N 
ATOM      7  H3  UNL     1      17.366 -12.427  22.707  1.00  0.00     0.163 HD
BRANCH   6   8
HETATM    8  C12 UNL     1      16.507 -12.618  20.776  1.00  0.00     0.055 C 
HETATM    9  C13 UNL     1      16.257 -14.017  20.241  1.00  0.00     0.040 C 
HETATM   10  C14 UNL     1      16.787 -11.634  19.676  1.00  0.00     0.060 C 
HETATM   11  C15 UNL     1      15.923 -10.428  20.055  1.00  0.00     0.239 C 
HETATM   12  N4  UNL     1      14.762 -10.989  20.699  1.00  0.00    -0.072 N 
HETATM   13  C16 UNL     1      13.703 -11.274  19.749  1.00  0.00     0.272 C 
HETATM   14  C17 UNL     1      14.198 -10.062  21.683  1.00  0.00     0.272 C 
HETATM   15  C18 UNL     1      15.228 -12.137  21.411  1.00  0.00     0.267 C 
ENDBRANCH   6   8
ENDBRANCH   2   4
BRANCH   1  16
HETATM   16  C3  UNL     1      20.965 -13.461  24.666  1.00  0.00     0.126 C 
BRANCH  16  17
HETATM   17  C2  UNL     1      21.050 -12.152  25.387  1.00  0.00     0.015 C 
HETATM   18  C1  UNL     1      20.862 -12.295  26.875  1.00  0.00     0.006 C 
ENDBRANCH  16  17
ENDBRANCH   1  16
BRANCH   1  19
HETATM   19  C4  UNL     1      18.554 -13.860  24.505  1.00  0.00     0.228 C 
BRANCH  19  20
HETATM   20  C5  UNL     1      18.151 -15.264  24.264  1.00  0.00     0.236 C 
HETATM   21  O1  UNL     1      18.860 -16.229  24.689  1.00  0.00    -0.272 OA
HETATM   22  N2  UNL     1      16.960 -15.555  23.550  1.00  0.00    -0.352 N 
ATOM     23  H2  UNL     1      16.401 -14.771  23.213  1.00  0.00     0.163 HD
BRANCH  22  24
HETATM   24  C6  UNL     1      16.494 -16.888  23.273  1.00  0.00     0.022 C 
HETATM   25  C7  UNL     1      16.348 -17.760  24.482  1.00  0.00     0.037 C 
HETATM   26  C8  UNL     1      15.133 -16.839  22.595  1.00  0.00     0.037 C 
HETATM   27  C9  UNL     1      17.501 -17.577  22.341  1.00  0.00     0.037 C 
ENDBRANCH  22  24
ENDBRANCH  19  20
ENDBRANCH   1  19
TORSDOF 7
ENDMDL
MODEL 5
REMARK VINA RESULT: -6.042402086      2.887      6.070
REMARK  7 active torsions:
REMARK  status: ('A' for Active; 'I' for Inactive)
REMARK    1  A    between atoms: C2_2  and  C3_3 
REMARK    2  A    between atoms: C3_3  and  N1_4 
REMARK    3  A    between atoms: N1_4  and  C4_5 
REMARK       I    between atoms: N1_4  and  C10_14 
REMARK    4  A    between atoms: C4_5  and  C5_6 
REMARK       I    between atoms: C5_6  and  N2_8 
REMARK    5  A    between atoms: N2_8  and  C6_10 
REMARK    6  A    between atoms: C10_14  and  C11_16 
REMARK       I    between atoms: C11_16  and  N3_18 
REMARK    7  A    between atoms: N3_18  and  C12_20 
ROOT
HETATM    1  N1  UNL     1      18.440 -12.730  21.402  1.00  0.00    -0.335 N 
HETATM    2  C10 UNL     1      17.470 -13.264  22.267  1.00  0.00     0.311 C 
HETATM    3  O2  UNL     1      16.369 -12.618  22.370  1.00  0.00    -0.262 OA
ENDROOT
BRANCH   2   4
HETATM    4  C11 UNL     1      17.560 -14.463  23.062  1.00  0.00     0.310 C 
HETATM    5  O3  UNL     1      17.805 -14.381  24.285  1.00  0.00    -0.262 OA
HETATM    6  N3  UNL     1      17.379 -15.739  22.498  1.00  0.00    -0.342 N 
ATOM      7  H3  UNL     1      17.179 -15.795  21.499  1.00  0.00     0.163 HD
BRANCH   6   8
HETATM    8  C12 UNL     1      17.456 -16.974  23.241  1.00  0.00     0.055 C 
HETATM    9  C13 UNL     1      16.218 -17.072  24.115  1.00  0.00     0.040 C 
HETATM   10  C14 UNL     1      18.722 -17.098  24.040  1.00  0.00     0.060 C 
HETATM   11  C15 UNL     1      19.567 -18.070  23.211  1.00  0.00     0.239 C 
HETATM   12  N4  UNL     1      18.615 -18.961  22.597  1.00  0.00    -0.072 N 
HETATM   13  C16 UNL     1      18.347 -20.119  23.428  1.00  0.00     0.272 C 
HETATM   14  C17 UNL     1      19.111 -19.474  21.319  1.00  0.00     0.272 C 
HETATM   15  C18 UNL     1      17.460 -18.166  22.319  1.00  0.00     0.267 C 
ENDBRANCH   6   8
ENDBRANCH   2   4
BRANCH   1  16
HETATM   16  C3  UNL     1      18.112 -11.467  20.713  1.00  0.00     0.126 C 
BRANCH  16  17
HETATM   17  C2  UNL     1      17.915 -11.720  19.250  1.00  0.00     0.015 C 
HETATM   18  C1  UNL     1      16.462 -11.712  18.851  1.00  0.00     0.006 C 
ENDBRANCH  16  17
ENDBRANCH   1  16
BRANCH   1  19
HETATM   19  C4  UNL     1      19.722 -13.273  21.087  1.00  0.00     0.228 C 
BRANCH  19  20
HETATM   20  C5  UNL     1      20.510 -13.644  22.284  1.00  0.00     0.236 C 
HETATM   21  O1  UNL     1      21.126 -14.753  22.341  1.00  0.00    -0.272 OA
HETATM   22  N2  UNL     1      20.588 -12.762  23.391  1.00  0.00    -0.352 N 
ATOM     23  H2  UNL     1      20.088 -11.875  23.333  1.00  0.00     0.163 HD
BRANCH  22  24
HETATM   24  C6  UNL     1      21.332 -13.042  24.592  1.00  0.00     0.022 C 
HETATM   25  C7  UNL     1      21.138 -14.424  25.135  1.00  0.00     0.037 C 
HETATM   26  C8  UNL     1      22.822 -12.870  24.340  1.00  0.00     0.037 C 
HETATM   27  C9  UNL     1      20.885 -12.061  25.686  1.00  0.00     0.037 C 
ENDBRANCH  22  24
ENDBRANCH  19  20
ENDBRANCH   1  19
TORSDOF 7
ENDMDL
