MODEL 1
REMARK VINA RESULT: -8.028907011      0.000      0.000
REMARK  7 active torsions:
REMARK  status: ('A' for Active; 'I' for Inactive)
REMARK    1  A    between atoms: C3_3  and  N1_4 
REMARK    2  A    between atoms: C15_17  and  C16_18 
REMARK    3  A    between atoms: C16_18  and  N2_19 
REMARK    4  A    between atoms: N2_19  and  C17_22 
REMARK    5  A    between atoms: C17_22  and  C18_23 
REMARK    6  A    between atoms: C19_24  and  C20_25 
REMARK    7  A    between atoms: C20_25  and  N3_26 
ROOT
HETATM    1  C1  UNL     1      20.771 -12.413  26.781  1.00  0.00     0.098 C 
HETATM    2  C2  UNL     1      21.278 -12.616  25.688  1.00  0.00    -0.168 C 
HETATM    3  C3  UNL     1      21.887 -12.827  24.366  1.00  0.00     0.206 C 
ENDROOT
BRANCH   3   4
HETATM    4  N1  UNL     1      21.253 -13.911  23.655  1.00  0.00    -0.329 N 
HETATM    5  C4  UNL     1      21.618 -15.258  23.775  1.00  0.00     0.222 C 
HETATM    6  O1  UNL     1      22.376 -15.748  24.639  1.00  0.00    -0.273 OA
HETATM    7  C5  UNL     1      20.959 -16.032  22.702  1.00  0.00     0.110 C 
HETATM    8  C6  UNL     1      19.935 -15.099  22.087  1.00  0.00     0.032 A 
HETATM    9  C7  UNL     1      20.402 -14.476  20.809  1.00  0.00     0.005 A 
HETATM   10  C13 UNL     1      20.133 -13.745  22.735  1.00  0.00     0.063 A 
HETATM   11  C8  UNL     1      19.681 -13.246  20.294  1.00  0.00     0.003 A 
HETATM   12  C14 UNL     1      20.508 -13.080  21.460  1.00  0.00     0.028 A 
HETATM   13  C9  UNL     1      18.230 -13.164  20.311  1.00  0.00     0.005 A 
HETATM   14  C10 UNL     1      17.408 -12.792  21.396  1.00  0.00     0.019 A 
HETATM   15  C15 UNL     1      17.685 -11.706  20.414  1.00  0.00     0.024 A 
HETATM   16  C11 UNL     1      17.826 -12.773  22.773  1.00  0.00    -0.023 C 
HETATM   17  C12 UNL     1      18.930 -13.153  23.365  1.00  0.00     0.001 C 
BRANCH  15  18
HETATM   18  C16 UNL     1      16.691 -11.291  19.387  1.00  0.00     0.239 C 
BRANCH  18  19
HETATM   19  N2  UNL     1      15.664 -10.451  19.935  1.00  0.00    -0.065 N 
ATOM     20  H22 UNL     1      15.701 -10.400  20.954  1.00  0.00     0.278 HD
ATOM     21  H21 UNL     1      15.823  -9.462  19.741  1.00  0.00     0.278 HD
BRANCH  19  22
HETATM   22  C17 UNL     1      14.385 -10.915  19.448  1.00  0.00     0.325 C 
BRANCH  22  23
HETATM   23  C18 UNL     1      13.451 -11.099  20.585  1.00  0.00    -0.077 C 
HETATM   24  C19 UNL     1      12.706 -11.236  21.541  1.00  0.00    -0.075 C 
BRANCH  24  25
HETATM   25  C20 UNL     1      11.847 -11.379  22.697  1.00  0.00     0.364 C 
BRANCH  25  26
HETATM   26  N3  UNL     1      11.479 -10.150  23.321  1.00  0.00     0.090 N 
HETATM   27  C21 UNL     1      11.175 -10.216  24.717  1.00  0.00     0.310 C 
HETATM   28  C22 UNL     1      12.440  -9.086  23.063  1.00  0.00     0.310 C 
ENDBRANCH  25  26
ENDBRANCH  24  25
ENDBRANCH  22  23
ENDBRANCH  19  22
ENDBRANCH  18  19
ENDBRANCH  15  18
ENDBRANCH   3   4
TORSDOF 7
ENDMDL
MODEL 2
REMARK VINA RESULT: -7.961122532      0.815      1.046
REMARK  7 active torsions:
REMARK  status: ('A' for Active; 'I' for Inactive)
REMARK    1  A    between atoms: C3_3  and  N1_4 
REMARK    2  A    between atoms: C15_17  and  C16_18 
REMARK    3  A    between atoms: C16_18  and  N2_19 
REMARK    4  A    between atoms: N2_19  and  C17_22 
REMARK    5  A    between atoms: C17_22  and  C18_23 
REMARK    6  A    between atoms: C19_24  and  C20_25 
REMARK    7  A    between atoms: C20_25  and  N3_26 
ROOT
HETATM    1  C1  UNL     1      20.807 -12.276  26.730  1.00  0.00     0.098 C 
HETATM    2  C2  UNL     1      21.322 -12.559  25.658  1.00  0.00    -0.168 C 
HETATM    3  C3  UNL     1      21.937 -12.868  24.358  1.00  0.00     0.206 C 
ENDROOT
BRANCH   3   4
HETATM    4  N1  UNL     1      21.372 -14.058  23.771  1.00  0.00    -0.329 N 
HETATM    5  C4  UNL     1      21.966 -15.325  23.820  1.00  0.00     0.222 C 
HETATM    6  O1  UNL     1      22.934 -15.664  24.533  1.00  0.00    -0.273 OA
HETATM    7  C5  UNL     1      21.261 -16.224  22.881  1.00  0.00     0.110 C 
HETATM    8  C6  UNL     1      20.007 -15.482  22.462  1.00  0.00     0.032 A 
HETATM    9  C7  UNL     1      20.133 -14.828  21.121  1.00  0.00     0.005 A 
HETATM   10  C13 UNL     1      20.094 -14.098  23.067  1.00  0.00     0.063 A 
HETATM   11  C8  UNL     1      19.142 -13.743  20.748  1.00  0.00     0.003 A 
HETATM   12  C14 UNL     1      20.124 -13.415  21.746  1.00  0.00     0.028 A 
HETATM   13  C9  UNL     1      17.724 -13.894  21.024  1.00  0.00     0.005 A 
HETATM   14  C10 UNL     1      17.057 -13.629  22.240  1.00  0.00     0.019 A 
HETATM   15  C15 UNL     1      16.976 -12.539  21.226  1.00  0.00     0.024 A 
HETATM   16  C11 UNL     1      17.704 -13.506  23.520  1.00  0.00    -0.023 C 
HETATM   17  C12 UNL     1      18.943 -13.689  23.903  1.00  0.00     0.001 C 
BRANCH  15  18
HETATM   18  C16 UNL     1      15.762 -12.316  20.395  1.00  0.00     0.239 C 
BRANCH  18  19
HETATM   19  N2  UNL     1      15.906 -11.189  19.518  1.00  0.00    -0.065 N 
ATOM     20  H22 UNL     1      16.329 -10.383  19.980  1.00  0.00     0.278 HD
ATOM     21  H21 UNL     1      16.624 -11.334  18.808  1.00  0.00     0.278 HD
BRANCH  19  22
HETATM   22  C17 UNL     1      14.612 -10.885  18.947  1.00  0.00     0.325 C 
BRANCH  22  23
HETATM   23  C18 UNL     1      13.700 -10.392  20.007  1.00  0.00    -0.077 C 
HETATM   24  C19 UNL     1      12.972  -9.966  20.888  1.00  0.00    -0.075 C 
BRANCH  24  25
HETATM   25  C20 UNL     1      12.136  -9.433  21.942  1.00  0.00     0.364 C 
BRANCH  25  26
HETATM   26  N3  UNL     1      12.060 -10.247  23.111  1.00  0.00     0.090 N 
HETATM   27  C21 UNL     1      11.318  -9.710  24.209  1.00  0.00     0.310 C 
HETATM   28  C22 UNL     1      11.615 -11.603  22.817  1.00  0.00     0.310 C 
ENDBRANCH  25  26
ENDBRANCH  24  25
ENDBRANCH  22  23
ENDBRANCH  19  22
ENDBRANCH  18  19
ENDBRANCH  15  18
ENDBRANCH   3   4
TORSDOF 7
ENDMDL
MODEL 3
REMARK VINA RESULT: -7.891073771      1.356      1.759
REMARK  7 active torsions:
REMARK  status: ('A' for Active; 'I' for Inactive)
REMARK    1  A    between atoms: C3_3  and  N1_4 
REMARK    2  A    between atoms: C15_17  and  C16_18 
REMARK    3  A    between atoms: C16_18  and  N2_19 
REMARK    4  A    between atoms: N2_19  and  C17_22 
REMARK    5  A    between atoms: C17_22  and  C18_23 
REMARK    6  A    between atoms: C19_24  and  C20_25 
REMARK    7  A    between atoms: C20_25  and  N3_26 
ROOT
HETATM    1  C1  UNL     1      20.827 -12.414  26.029  1.00  0.00     0.098 C 
HETATM    2  C2  UNL     1      19.942 -13.051  25.476  1.00  0.00    -0.168 C 
HETATM    3  C3  UNL     1      18.872 -13.833  24.838  1.00  0.00     0.206 C 
ENDROOT
BRANCH   3   4
HETATM    4  N1  UNL     1      19.282 -14.347  23.554  1.00  0.00    -0.329 N 
HETATM    5  C4  UNL     1      20.356 -15.223  23.357  1.00  0.00     0.222 C 
HETATM    6  O1  UNL     1      20.977 -15.847  24.242  1.00  0.00    -0.273 OA
HETATM    7  C5  UNL     1      20.653 -15.302  21.910  1.00  0.00     0.110 C 
HETATM    8  C6  UNL     1      19.492 -14.623  21.212  1.00  0.00     0.032 A 
HETATM    9  C7  UNL     1      19.797 -13.218  20.796  1.00  0.00     0.005 A 
HETATM   10  C13 UNL     1      18.613 -14.036  22.294  1.00  0.00     0.063 A 
HETATM   11  C8  UNL     1      18.644 -12.294  20.457  1.00  0.00     0.003 A 
HETATM   12  C14 UNL     1      18.823 -12.635  21.843  1.00  0.00     0.028 A 
HETATM   13  C9  UNL     1      17.528 -12.753  19.647  1.00  0.00     0.005 A 
HETATM   14  C10 UNL     1      16.395 -13.473  20.083  1.00  0.00     0.019 A 
HETATM   15  C15 UNL     1      16.191 -12.004  19.940  1.00  0.00     0.024 A 
HETATM   16  C11 UNL     1      16.309 -14.192  21.327  1.00  0.00    -0.023 C 
HETATM   17  C12 UNL     1      17.191 -14.447  22.261  1.00  0.00     0.001 C 
BRANCH  15  18
HETATM   18  C16 UNL     1      15.488 -11.409  18.771  1.00  0.00     0.239 C 
BRANCH  18  19
HETATM   19  N2  UNL     1      14.320 -10.671  19.158  1.00  0.00    -0.065 N 
ATOM     20  H22 UNL     1      14.525  -9.693  19.365  1.00  0.00     0.278 HD
ATOM     21  H21 UNL     1      13.678 -10.517  18.380  1.00  0.00     0.278 HD
BRANCH  19  22
HETATM   22  C17 UNL     1      13.694 -11.354  20.268  1.00  0.00     0.325 C 
BRANCH  22  23
HETATM   23  C18 UNL     1      13.338 -10.375  21.324  1.00  0.00    -0.077 C 
HETATM   24  C19 UNL     1      13.066  -9.549  22.178  1.00  0.00    -0.075 C 
BRANCH  24  25
HETATM   25  C20 UNL     1      12.764  -8.541  23.172  1.00  0.00     0.364 C 
BRANCH  25  26
HETATM   26  N3  UNL     1      11.507  -8.708  23.826  1.00  0.00     0.090 N 
HETATM   27  C21 UNL     1      11.264  -9.989  24.413  1.00  0.00     0.310 C 
HETATM   28  C22 UNL     1      11.238  -7.650  24.791  1.00  0.00     0.310 C 
ENDBRANCH  25  26
ENDBRANCH  24  25
ENDBRANCH  22  23
ENDBRANCH  19  22
ENDBRANCH  18  19
ENDBRANCH  15  18
ENDBRANCH   3   4
TORSDOF 7
ENDMDL
MODEL 4
REMARK VINA RESULT: -7.541421256      1.190      2.690
REMARK  7 active torsions:
REMARK  status: ('A' for Active; 'I' for Inactive)
REMARK    1  A    between atoms: C3_3  and  N1_4 
REMARK    2  A    between atoms: C15_17  and  C16_18 
REMARK    3  A    between atoms: C16_18  and  N2_19 
REMARK    4  A    between atoms: N2_19  and  C17_22 
REMARK    5  A    between atoms: C17_22  and  C18_23 
REMARK    6  A    between atoms: C19_24  and  C20_25 
REMARK    7  A    between atoms: C20_25  and  N3_26 
ROOT
HETATM    1  C1  UNL     1      19.677 -18.241  24.163  1.00  0.00     0.098 C 
HETATM    2  C2  UNL     1      20.376 -17.321  23.763  1.00  0.00    -0.168 C 
HETATM    3  C3  UNL     1      21.244 -16.232  23.289  1.00  0.00     0.206 C 
ENDROOT
BRANCH   3   4
HETATM    4  N1  UNL     1      20.857 -14.961  23.850  1.00  0.00    -0.329 N 
HETATM    5  C4  UNL     1      21.175 -14.537  25.146  1.00  0.00     0.222 C 
HETATM    6  O1  UNL     1      21.992 -15.073  25.924  1.00  0.00    -0.273 OA
HETATM    7  C5  UNL     1      20.381 -13.331  25.466  1.00  0.00     0.110 C 
HETATM    8  C6  UNL     1      19.762 -12.884  24.156  1.00  0.00     0.032 A 
HETATM    9  C7  UNL     1      18.332 -13.304  24.011  1.00  0.00     0.005 A 
HETATM   10  C13 UNL     1      20.102 -13.941  23.128  1.00  0.00     0.063 A 
HETATM   11  C8  UNL     1      17.708 -13.287  22.630  1.00  0.00     0.003 A 
HETATM   12  C14 UNL     1      18.681 -14.312  22.894  1.00  0.00     0.028 A 
HETATM   13  C9  UNL     1      17.927 -12.175  21.720  1.00  0.00     0.005 A 
HETATM   14  C10 UNL     1      19.033 -11.975  20.866  1.00  0.00     0.019 A 
HETATM   15  C15 UNL     1      17.831 -12.568  20.213  1.00  0.00     0.024 A 
HETATM   16  C11 UNL     1      20.302 -12.641  20.998  1.00  0.00    -0.023 C 
HETATM   17  C12 UNL     1      20.782 -13.453  21.907  1.00  0.00     0.001 C 
BRANCH  15  18
HETATM   18  C16 UNL     1      16.906 -11.763  19.371  1.00  0.00     0.239 C 
BRANCH  18  19
HETATM   19  N2  UNL     1      15.561 -12.262  19.414  1.00  0.00    -0.065 N 
ATOM     20  H22 UNL     1      15.433 -13.097  18.842  1.00  0.00     0.278 HD
ATOM     21  H21 UNL     1      15.325 -12.674  20.317  1.00  0.00     0.278 HD
BRANCH  19  22
HETATM   22  C17 UNL     1      14.663 -11.191  19.042  1.00  0.00     0.325 C 
BRANCH  22  23
HETATM   23  C18 UNL     1      14.076 -10.581  20.259  1.00  0.00    -0.077 C 
HETATM   24  C19 UNL     1      13.585 -10.054  21.243  1.00  0.00    -0.075 C 
BRANCH  24  25
HETATM   25  C20 UNL     1      12.986  -9.400  22.387  1.00  0.00     0.364 C 
BRANCH  25  26
HETATM   26  N3  UNL     1      11.763  -9.982  22.833  1.00  0.00     0.090 N 
HETATM   27  C21 UNL     1      11.677 -11.408  22.761  1.00  0.00     0.310 C 
HETATM   28  C22 UNL     1      11.378  -9.520  24.160  1.00  0.00     0.310 C 
ENDBRANCH  25  26
ENDBRANCH  24  25
ENDBRANCH  22  23
ENDBRANCH  19  22
ENDBRANCH  18  19
ENDBRANCH  15  18
ENDBRANCH   3   4
TORSDOF 7
ENDMDL
MODEL 5
REMARK VINA RESULT: -7.513416431      1.238      1.576
REMARK  7 active torsions:
REMARK  status: ('A' for Active; 'I' for Inactive)
REMARK    1  A    between atoms: C3_3  and  N1_4 
REMARK    2  A    between atoms: C15_17  and  C16_18 
REMARK    3  A    between atoms: C16_18  and  N2_19 
REMARK    4  A    between atoms: N2_19  and  C17_22 
REMARK    5  A    between atoms: C17_22  and  C18_23 
REMARK    6  A    between atoms: C19_24  and  C20_25 
REMARK    7  A    between atoms: C20_25  and  N3_26 
ROOT
HETATM    1  C1  UNL     1      20.798 -12.111  26.777  1.00  0.00     0.098 C 
HETATM    2  C2  UNL     1      21.296 -12.669  25.810  1.00  0.00    -0.168 C 
HETATM    3  C3  UNL     1      21.893 -13.313  24.630  1.00  0.00     0.206 C 
ENDROOT
BRANCH   3   4
HETATM    4  N1  UNL     1      21.256 -14.572  24.331  1.00  0.00    -0.329 N 
HETATM    5  C4  UNL     1      21.673 -15.810  24.833  1.00  0.00     0.222 C 
HETATM    6  O1  UNL     1      22.497 -16.000  25.753  1.00  0.00    -0.273 OA
HETATM    7  C5  UNL     1      20.978 -16.887  24.096  1.00  0.00     0.110 C 
HETATM    8  C6  UNL     1      19.888 -16.204  23.295  1.00  0.00     0.032 A 
HETATM    9  C7  UNL     1      20.257 -15.999  21.858  1.00  0.00     0.005 A 
HETATM   10  C13 UNL     1      20.078 -14.714  23.481  1.00  0.00     0.063 A 
HETATM   11  C8  UNL     1      19.465 -14.998  21.041  1.00  0.00     0.003 A 
HETATM   12  C14 UNL     1      20.354 -14.468  22.041  1.00  0.00     0.028 A 
HETATM   13  C9  UNL     1      18.016 -14.935  21.129  1.00  0.00     0.005 A 
HETATM   14  C10 UNL     1      17.247 -14.259  22.100  1.00  0.00     0.019 A 
HETATM   15  C15 UNL     1      17.428 -13.525  20.816  1.00  0.00     0.024 A 
HETATM   16  C11 UNL     1      17.745 -13.810  23.374  1.00  0.00    -0.023 C 
HETATM   17  C12 UNL     1      18.895 -13.974  23.978  1.00  0.00     0.001 C 
BRANCH  15  18
HETATM   18  C16 UNL     1      16.362 -13.460  19.780  1.00  0.00     0.239 C 
BRANCH  18  19
HETATM   19  N2  UNL     1      15.215 -12.723  20.228  1.00  0.00    -0.065 N 
ATOM     20  H22 UNL     1      14.377 -12.932  19.684  1.00  0.00     0.278 HD
ATOM     21  H21 UNL     1      14.875 -13.041  21.135  1.00  0.00     0.278 HD
BRANCH  19  22
HETATM   22  C17 UNL     1      15.544 -11.315  20.220  1.00  0.00     0.325 C 
BRANCH  22  23
HETATM   23  C18 UNL     1      14.560 -10.565  21.037  1.00  0.00    -0.077 C 
HETATM   24  C19 UNL     1      13.768  -9.921  21.704  1.00  0.00    -0.075 C 
BRANCH  24  25
HETATM   25  C20 UNL     1      12.846  -9.123  22.485  1.00  0.00     0.364 C 
BRANCH  25  26
HETATM   26  N3  UNL     1      11.673  -9.815  22.910  1.00  0.00     0.090 N 
HETATM   27  C21 UNL     1      11.683 -11.236  22.749  1.00  0.00     0.310 C 
HETATM   28  C22 UNL     1      11.282  -9.462  24.268  1.00  0.00     0.310 C 
ENDBRANCH  25  26
ENDBRANCH  24  25
ENDBRANCH  22  23
ENDBRANCH  19  22
ENDBRANCH  18  19
ENDBRANCH  15  18
ENDBRANCH   3   4
TORSDOF 7
ENDMDL
