MODEL 1
REMARK VINA RESULT: -7.978579969      0.000      0.000
REMARK  7 active torsions:
REMARK  status: ('A' for Active; 'I' for Inactive)
REMARK    1  A    between atoms: C5_5  and  O1_6 
REMARK    2  A    between atoms: O1_6  and  C6_7 
REMARK    3  A    between atoms: C6_7  and  C7_9 
REMARK    4  A    between atoms: C7_9  and  N1_10 
REMARK    5  A    between atoms: N2_13  and  C10_14 
REMARK    6  A    between atoms: C10_14  and  C11_15 
REMARK    7  A    between atoms: C11_15  and  C12_16 
ROOT
HETATM    1  N1  UNL     1      17.507 -12.155  20.234  1.00  0.00     0.101 N 
HETATM    2  C8  UNL     1      17.136 -10.917  20.834  1.00  0.00     0.301 C 
HETATM    3  C9  UNL     1      15.699 -10.530  20.597  1.00  0.00     0.268 C 
HETATM    4  N2  UNL     1      14.779 -11.599  20.813  1.00  0.00    -0.055 N 
HETATM    5  C14 UNL     1      15.141 -12.565  21.799  1.00  0.00     0.273 A 
HETATM    6  C15 UNL     1      15.246 -12.904  20.407  1.00  0.00     0.244 A 
HETATM    7  C16 UNL     1      16.452 -12.814  19.540  1.00  0.00     0.308 C 
ENDROOT
BRANCH   1   8
HETATM    8  C7  UNL     1      18.659 -11.999  19.339  1.00  0.00     0.383 C 
BRANCH   8   9
HETATM    9  C6  UNL     1      19.911 -12.185  20.091  1.00  0.00     0.287 C 
HETATM   10  O2  UNL     1      20.884 -11.430  19.893  1.00  0.00    -0.263 OA
BRANCH   9  11
HETATM   11  O1  UNL     1      20.138 -13.153  21.036  1.00  0.00    -0.315 OA
BRANCH  11  12
HETATM   12  C5  UNL     1      19.653 -13.119  22.326  1.00  0.00     0.136 C 
HETATM   13  C4  UNL     1      20.870 -13.171  23.253  1.00  0.00     0.070 C 
HETATM   14  C2  UNL     1      20.529 -13.300  24.680  1.00  0.00     0.056 C 
HETATM   15  C1  UNL     1      21.015 -12.009  25.368  1.00  0.00     0.045 C 
HETATM   16  C3  UNL     1      21.365 -14.406  25.344  1.00  0.00     0.045 C 
HETATM   17  O3  UNL     1      19.250 -13.470  25.043  1.00  0.00    -0.381 OA
HETATM   18  C18 UNL     1      18.290 -13.824  24.190  1.00  0.00     0.171 C 
HETATM   19  C17 UNL     1      18.710 -14.159  22.765  1.00  0.00     0.059 C 
ENDBRANCH  11  12
ENDBRANCH   9  11
ENDBRANCH   8   9
ENDBRANCH   1   8
BRANCH   4  20
HETATM   20  C10 UNL     1      13.404 -11.351  20.444  1.00  0.00     0.244 C 
BRANCH  20  21
HETATM   21  C11 UNL     1      12.966 -10.156  21.294  1.00  0.00     0.088 C 
BRANCH  21  22
HETATM   22  C12 UNL     1      12.043 -10.620  22.355  1.00  0.00     0.044 A 
HETATM   23  C13 UNL     1      11.606 -10.122  23.540  1.00  0.00     0.133 A 
HETATM   24  N3  UNL     1      10.844 -11.209  23.744  1.00  0.00    -0.310 N 
HETATM   25  N4  UNL     1      11.268 -11.691  22.595  1.00  0.00    -0.304 N 
ATOM     26  H3  UNL     1      10.208 -11.525  24.477  1.00  0.00     0.186 HD
ATOM     27  H4  UNL     1      11.079 -12.551  22.081  1.00  0.00     0.186 HD
ENDBRANCH  21  22
ENDBRANCH  20  21
ENDBRANCH   4  20
TORSDOF 7
ENDMDL
MODEL 2
REMARK VINA RESULT: -7.928022709      1.199      2.036
REMARK  7 active torsions:
REMARK  status: ('A' for Active; 'I' for Inactive)
REMARK    1  A    between atoms: C5_5  and  O1_6 
REMARK    2  A    between atoms: O1_6  and  C6_7 
REMARK    3  A    between atoms: C6_7  and  C7_9 
REMARK    4  A    between atoms: C7_9  and  N1_10 
REMARK    5  A    between atoms: N2_13  and  C10_14 
REMARK    6  A    between atoms: C10_14  and  C11_15 
REMARK    7  A    between atoms: C11_15  and  C12_16 
ROOT
HETATM    1  N1  UNL     1      17.550 -12.949  20.415  1.00  0.00     0.101 N 
HETATM    2  C8  UNL     1      16.347 -13.707  20.490  1.00  0.00     0.301 C 
HETATM    3  C9  UNL     1      15.219 -12.995  21.190  1.00  0.00     0.268 C 
HETATM    4  N2  UNL     1      15.048 -11.644  20.763  1.00  0.00    -0.055 N 
HETATM    5  C14 UNL     1      15.393 -11.353  19.409  1.00  0.00     0.273 A 
HETATM    6  C15 UNL     1      16.270 -10.934  20.467  1.00  0.00     0.244 A 
HETATM    7  C16 UNL     1      17.465 -11.648  20.991  1.00  0.00     0.308 C 
ENDROOT
BRANCH   1   8
HETATM    8  C7  UNL     1      18.685 -13.671  21.003  1.00  0.00     0.383 C 
BRANCH   8   9
HETATM    9  C6  UNL     1      19.937 -12.947  20.734  1.00  0.00     0.287 C 
HETATM   10  O2  UNL     1      20.172 -12.494  19.596  1.00  0.00    -0.263 OA
BRANCH   9  11
HETATM   11  O1  UNL     1      20.931 -12.704  21.647  1.00  0.00    -0.315 OA
BRANCH  11  12
HETATM   12  C5  UNL     1      21.135 -13.435  22.798  1.00  0.00     0.136 C 
HETATM   13  C4  UNL     1      20.296 -12.771  23.893  1.00  0.00     0.070 C 
HETATM   14  C2  UNL     1      20.515 -13.332  25.237  1.00  0.00     0.056 C 
HETATM   15  C1  UNL     1      19.183 -13.978  25.668  1.00  0.00     0.045 C 
HETATM   16  C3  UNL     1      20.730 -12.213  26.268  1.00  0.00     0.045 C 
HETATM   17  O3  UNL     1      21.466 -14.258  25.421  1.00  0.00    -0.381 OA
HETATM   18  C18 UNL     1      22.431 -14.500  24.535  1.00  0.00     0.171 C 
HETATM   19  C17 UNL     1      22.503 -13.590  23.316  1.00  0.00     0.059 C 
ENDBRANCH  11  12
ENDBRANCH   9  11
ENDBRANCH   8   9
ENDBRANCH   1   8
BRANCH   4  20
HETATM   20  C10 UNL     1      14.098 -10.848  21.505  1.00  0.00     0.244 C 
BRANCH  20  21
HETATM   21  C11 UNL     1      12.812 -11.677  21.536  1.00  0.00     0.088 C 
BRANCH  21  22
HETATM   22  C12 UNL     1      11.926 -11.169  22.608  1.00  0.00     0.044 A 
HETATM   23  C13 UNL     1      11.807 -10.003  23.293  1.00  0.00     0.133 A 
HETATM   24  N3  UNL     1      10.780 -10.494  24.003  1.00  0.00    -0.310 N 
HETATM   25  N4  UNL     1      10.895 -11.626  23.340  1.00  0.00    -0.304 N 
ATOM     26  H3  UNL     1      10.170 -10.142  24.742  1.00  0.00     0.186 HD
ATOM     27  H4  UNL     1      10.391 -12.512  23.369  1.00  0.00     0.186 HD
ENDBRANCH  21  22
ENDBRANCH  20  21
ENDBRANCH   4  20
TORSDOF 7
ENDMDL
MODEL 3
REMARK VINA RESULT: -7.846763900      1.633      2.216
REMARK  7 active torsions:
REMARK  status: ('A' for Active; 'I' for Inactive)
REMARK    1  A    between atoms: C5_5  and  O1_6 
REMARK    2  A    between atoms: O1_6  and  C6_7 
REMARK    3  A    between atoms: C6_7  and  C7_9 
REMARK    4  A    between atoms: C7_9  and  N1_10 
REMARK    5  A    between atoms: N2_13  and  C10_14 
REMARK    6  A    between atoms: C10_14  and  C11_15 
REMARK    7  A    between atoms: C11_15  and  C12_16 
ROOT
HETATM    1  N1  UNL     1      17.318 -12.684  20.330  1.00  0.00     0.101 N 
HETATM    2  C8  UNL     1      16.219 -13.522  20.675  1.00  0.00     0.301 C 
HETATM    3  C9  UNL     1      15.118 -12.809  21.416  1.00  0.00     0.268 C 
HETATM    4  N2  UNL     1      14.756 -11.559  20.832  1.00  0.00    -0.055 N 
HETATM    5  C14 UNL     1      14.899 -11.450  19.416  1.00  0.00     0.273 A 
HETATM    6  C15 UNL     1      15.851 -10.801  20.274  1.00  0.00     0.244 A 
HETATM    7  C16 UNL     1      17.170 -11.323  20.724  1.00  0.00     0.308 C 
ENDROOT
BRANCH   1   8
HETATM    8  C7  UNL     1      18.585 -13.209  20.852  1.00  0.00     0.383 C 
BRANCH   8   9
HETATM    9  C6  UNL     1      18.324 -14.290  21.816  1.00  0.00     0.287 C 
HETATM   10  O2  UNL     1      18.244 -15.474  21.430  1.00  0.00    -0.263 OA
BRANCH   9  11
HETATM   11  O1  UNL     1      18.147 -14.130  23.167  1.00  0.00    -0.315 OA
BRANCH  11  12
HETATM   12  C5  UNL     1      19.104 -14.399  24.121  1.00  0.00     0.136 C 
HETATM   13  C4  UNL     1      19.920 -13.115  24.296  1.00  0.00     0.070 C 
HETATM   14  C2  UNL     1      21.093 -13.267  25.172  1.00  0.00     0.056 C 
HETATM   15  C1  UNL     1      20.844 -12.373  26.403  1.00  0.00     0.045 C 
HETATM   16  C3  UNL     1      22.344 -12.656  24.522  1.00  0.00     0.045 C 
HETATM   17  O3  UNL     1      21.418 -14.481  25.640  1.00  0.00    -0.381 OA
HETATM   18  C18 UNL     1      20.928 -15.612  25.136  1.00  0.00     0.171 C 
HETATM   19  C17 UNL     1      20.050 -15.502  23.897  1.00  0.00     0.059 C 
ENDBRANCH  11  12
ENDBRANCH   9  11
ENDBRANCH   8   9
ENDBRANCH   1   8
BRANCH   4  20
HETATM   20  C10 UNL     1      13.826 -10.743  21.578  1.00  0.00     0.244 C 
BRANCH  20  21
HETATM   21  C11 UNL     1      12.636 -11.656  21.879  1.00  0.00     0.088 C 
BRANCH  21  22
HETATM   22  C12 UNL     1      11.794 -11.037  22.928  1.00  0.00     0.044 A 
HETATM   23  C13 UNL     1      11.722  -9.813  23.513  1.00  0.00     0.133 A 
HETATM   24  N3  UNL     1      10.706 -10.217  24.292  1.00  0.00    -0.310 N 
HETATM   25  N4  UNL     1      10.776 -11.403  23.725  1.00  0.00    -0.304 N 
ATOM     26  H3  UNL     1      10.128  -9.787  25.014  1.00  0.00     0.186 HD
ATOM     27  H4  UNL     1      10.254 -12.271  23.845  1.00  0.00     0.186 HD
ENDBRANCH  21  22
ENDBRANCH  20  21
ENDBRANCH   4  20
TORSDOF 7
ENDMDL
MODEL 4
REMARK VINA RESULT: -7.778086042      1.300      1.796
REMARK  7 active torsions:
REMARK  status: ('A' for Active; 'I' for Inactive)
REMARK    1  A    between atoms: C5_5  and  O1_6 
REMARK    2  A    between atoms: O1_6  and  C6_7 
REMARK    3  A    between atoms: C6_7  and  C7_9 
REMARK    4  A    between atoms: C7_9  and  N1_10 
REMARK    5  A    between atoms: N2_13  and  C10_14 
REMARK    6  A    between atoms: C10_14  and  C11_15 
REMARK    7  A    between atoms: C11_15  and  C12_16 
ROOT
HETATM    1  N1  UNL     1      17.042 -11.880  20.581  1.00  0.00     0.101 N 
HETATM    2  C8  UNL     1      16.192 -12.964  20.943  1.00  0.00     0.301 C 
HETATM    3  C9  UNL     1      14.811 -12.541  21.370  1.00  0.00     0.268 C 
HETATM    4  N2  UNL     1      14.216 -11.580  20.499  1.00  0.00    -0.055 N 
HETATM    5  C14 UNL     1      14.586 -11.649  19.122  1.00  0.00     0.273 A 
HETATM    6  C15 UNL     1      15.126 -10.604  19.947  1.00  0.00     0.244 A 
HETATM    7  C16 UNL     1      16.429 -10.596  20.664  1.00  0.00     0.308 C 
ENDROOT
BRANCH   1   8
HETATM    8  C7  UNL     1      18.284 -11.880  21.363  1.00  0.00     0.383 C 
BRANCH   8   9
HETATM    9  C6  UNL     1      19.310 -12.681  20.677  1.00  0.00     0.287 C 
HETATM   10  O2  UNL     1      19.816 -12.280  19.610  1.00  0.00    -0.263 OA
BRANCH   9  11
HETATM   11  O1  UNL     1      19.799 -13.889  21.106  1.00  0.00    -0.315 OA
BRANCH  11  12
HETATM   12  C5  UNL     1      20.151 -14.176  22.407  1.00  0.00     0.136 C 
HETATM   13  C4  UNL     1      21.131 -13.084  22.846  1.00  0.00     0.070 C 
HETATM   14  C2  UNL     1      21.734 -13.320  24.169  1.00  0.00     0.056 C 
HETATM   15  C1  UNL     1      21.241 -12.184  25.087  1.00  0.00     0.045 C 
HETATM   16  C3  UNL     1      23.256 -13.116  24.119  1.00  0.00     0.045 C 
HETATM   17  O3  UNL     1      21.488 -14.469  24.814  1.00  0.00    -0.381 OA
HETATM   18  C18 UNL     1      20.971 -15.543  24.221  1.00  0.00     0.171 C 
HETATM   19  C17 UNL     1      20.765 -15.477  22.714  1.00  0.00     0.059 C 
ENDBRANCH  11  12
ENDBRANCH   9  11
ENDBRANCH   8   9
ENDBRANCH   1   8
BRANCH   4  20
HETATM   20  C10 UNL     1      12.964 -11.004  20.932  1.00  0.00     0.244 C 
BRANCH  20  21
HETATM   21  C11 UNL     1      12.418 -11.968  21.987  1.00  0.00     0.088 C 
BRANCH  21  22
HETATM   22  C12 UNL     1      11.679 -11.202  23.018  1.00  0.00     0.044 A 
HETATM   23  C13 UNL     1      11.733  -9.936  23.505  1.00  0.00     0.133 A 
HETATM   24  N3  UNL     1      10.727 -10.193  24.356  1.00  0.00    -0.310 N 
HETATM   25  N4  UNL     1      10.675 -11.421  23.883  1.00  0.00    -0.304 N 
ATOM     26  H3  UNL     1      10.220  -9.663  25.065  1.00  0.00     0.186 HD
ATOM     27  H4  UNL     1      10.092 -12.231  24.094  1.00  0.00     0.186 HD
ENDBRANCH  21  22
ENDBRANCH  20  21
ENDBRANCH   4  20
TORSDOF 7
ENDMDL
MODEL 5
REMARK VINA RESULT: -7.654286151      1.332      2.282
REMARK  7 active torsions:
REMARK  status: ('A' for Active; 'I' for Inactive)
REMARK    1  A    between atoms: C5_5  and  O1_6 
REMARK    2  A    between atoms: O1_6  and  C6_7 
REMARK    3  A    between atoms: C6_7  and  C7_9 
REMARK    4  A    between atoms: C7_9  and  N1_10 
REMARK    5  A    between atoms: N2_13  and  C10_14 
REMARK    6  A    between atoms: C10_14  and  C11_15 
REMARK    7  A    between atoms: C11_15  and  C12_16 
ROOT
HETATM    1  N1  UNL     1      17.644 -13.135  21.085  1.00  0.00     0.101 N 
HETATM    2  C8  UNL     1      16.387 -13.804  21.117  1.00  0.00     0.301 C 
HETATM    3  C9  UNL     1      15.219 -12.895  21.394  1.00  0.00     0.268 C 
HETATM    4  N2  UNL     1      15.237 -11.694  20.625  1.00  0.00    -0.055 N 
HETATM    5  C14 UNL     1      15.834 -11.773  19.330  1.00  0.00     0.273 A 
HETATM    6  C15 UNL     1      16.547 -11.129  20.399  1.00  0.00     0.244 A 
HETATM    7  C16 UNL     1      17.570 -11.728  21.297  1.00  0.00     0.308 C 
ENDROOT
BRANCH   1   8
HETATM    8  C7  UNL     1      18.596 -13.723  22.036  1.00  0.00     0.383 C 
BRANCH   8   9
HETATM    9  C6  UNL     1      19.975 -13.497  21.574  1.00  0.00     0.287 C 
HETATM   10  O2  UNL     1      20.350 -13.939  20.469  1.00  0.00    -0.263 OA
BRANCH   9  11
HETATM   11  O1  UNL     1      20.947 -12.819  22.263  1.00  0.00    -0.315 OA
BRANCH  11  12
HETATM   12  C5  UNL     1      21.381 -13.143  23.530  1.00  0.00     0.136 C 
HETATM   13  C4  UNL     1      21.370 -14.671  23.620  1.00  0.00     0.070 C 
HETATM   14  C2  UNL     1      21.660 -15.193  24.966  1.00  0.00     0.056 C 
HETATM   15  C1  UNL     1      22.989 -15.968  24.861  1.00  0.00     0.045 C 
HETATM   16  C3  UNL     1      20.639 -16.268  25.367  1.00  0.00     0.045 C 
HETATM   17  O3  UNL     1      21.794 -14.341  25.992  1.00  0.00    -0.381 OA
HETATM   18  C18 UNL     1      21.394 -13.071  25.944  1.00  0.00     0.171 C 
HETATM   19  C17 UNL     1      20.649 -12.621  24.694  1.00  0.00     0.059 C 
ENDBRANCH  11  12
ENDBRANCH   9  11
ENDBRANCH   8   9
ENDBRANCH   1   8
BRANCH   4  20
HETATM   20  C10 UNL     1      14.242 -10.700  20.955  1.00  0.00     0.244 C 
BRANCH  20  21
HETATM   21  C11 UNL     1      12.910 -11.452  20.975  1.00  0.00     0.088 C 
BRANCH  21  22
HETATM   22  C12 UNL     1      12.121 -11.023  22.153  1.00  0.00     0.044 A 
HETATM   23  C13 UNL     1      12.050  -9.899  22.911  1.00  0.00     0.133 A 
HETATM   24  N3  UNL     1      11.102 -10.451  23.686  1.00  0.00    -0.310 N 
HETATM   25  N4  UNL     1      11.171 -11.541  22.950  1.00  0.00    -0.304 N 
ATOM     26  H3  UNL     1      10.560 -10.153  24.497  1.00  0.00     0.186 HD
ATOM     27  H4  UNL     1      10.687 -12.438  22.976  1.00  0.00     0.186 HD
ENDBRANCH  21  22
ENDBRANCH  20  21
ENDBRANCH   4  20
TORSDOF 7
ENDMDL
