MODEL 1
REMARK VINA RESULT: -7.069086620      0.000      0.000
REMARK  6 active torsions:
REMARK  status: ('A' for Active; 'I' for Inactive)
REMARK    1  A    between atoms: C2_2  and  C3_3 
REMARK    2  A    between atoms: C3_3  and  N1_4 
REMARK    3  A    between atoms: N1_4  and  C4_6 
REMARK    4  A    between atoms: N2_10  and  S1_11 
REMARK    5  A    between atoms: S1_11  and  C8_14 
REMARK    6  A    between atoms: C11_17  and  C12_18 
REMARK       I    between atoms: N3_21  and  C15_22 
ROOT
HETATM    1  C4  UNL     1      19.546 -13.286  22.801  1.00  0.00     0.095 C 
HETATM    2  C5  UNL     1      18.839 -12.869  21.479  1.00  0.00     0.033 C 
HETATM    3  C6  UNL     1      17.409 -12.908  21.772  1.00  0.00     0.013 C 
HETATM    4  C7  UNL     1      16.575 -11.764  21.180  1.00  0.00     0.112 C 
HETATM    5  N2  UNL     1      15.320 -12.116  21.836  1.00  0.00    -0.209 NA
HETATM    6  C10 UNL     1      15.185 -13.538  21.703  1.00  0.00     0.118 C 
HETATM    7  C11 UNL     1      16.607 -14.082  21.398  1.00  0.00    -0.007 C 
HETATM    8  C14 UNL     1      16.933 -15.274  22.208  1.00  0.00     0.138 C 
HETATM    9  N3  UNL     1      18.126 -15.275  22.994  1.00  0.00    -0.334 N 
HETATM   10  C15 UNL     1      17.972 -15.937  24.251  1.00  0.00     0.330 C 
HETATM   11  N4  UNL     1      16.719 -16.495  24.582  1.00  0.00    -0.040 NA
HETATM   12  O3  UNL     1      18.927 -16.031  25.061  1.00  0.00    -0.251 OA
HETATM   13  C16 UNL     1      19.466 -14.789  22.794  1.00  0.00     0.152 C 
ENDROOT
BRANCH   1  14
HETATM   14  N1  UNL     1      20.868 -12.789  22.781  1.00  0.00    -0.412 N 
ATOM     15  H1  UNL     1      21.288 -12.391  21.941  1.00  0.00     0.153 HD
BRANCH  14  16
HETATM   16  C3  UNL     1      21.584 -12.882  24.027  1.00  0.00     0.141 C 
BRANCH  16  17
HETATM   17  C2  UNL     1      20.843 -12.118  25.061  1.00  0.00    -0.018 C 
HETATM   18  C1  UNL     1      20.870 -12.510  26.312  1.00  0.00     0.008 C 
ENDBRANCH  16  17
ENDBRANCH  14  16
ENDBRANCH   1  14
BRANCH   7  19
HETATM   19  C12 UNL     1      16.552 -14.426  19.932  1.00  0.00     0.008 C 
HETATM   20  C13 UNL     1      16.316 -15.942  19.877  1.00  0.00     0.006 C 
ENDBRANCH   7  19
BRANCH   5  21
HETATM   21  S1  UNL     1      13.990 -11.188  21.444  1.00  0.00     0.211 S 
HETATM   22  O1  UNL     1      14.253  -9.724  21.649  1.00  0.00    -0.211 OA
HETATM   23  O2  UNL     1      13.707 -11.357  19.955  1.00  0.00    -0.211 OA
BRANCH  21  24
HETATM   24  C8  UNL     1      12.483 -11.590  22.277  1.00  0.00     0.153 C 
HETATM   25  C9  UNL     1      11.973 -10.288  22.907  1.00  0.00     0.022 C 
ENDBRANCH  21  24
ENDBRANCH   5  21
TORSDOF 6
ENDMDL
MODEL 2
REMARK VINA RESULT: -6.611434016      1.748      2.095
REMARK  6 active torsions:
REMARK  status: ('A' for Active; 'I' for Inactive)
REMARK    1  A    between atoms: C2_2  and  C3_3 
REMARK    2  A    between atoms: C3_3  and  N1_4 
REMARK    3  A    between atoms: N1_4  and  C4_6 
REMARK    4  A    between atoms: N2_10  and  S1_11 
REMARK    5  A    between atoms: S1_11  and  C8_14 
REMARK    6  A    between atoms: C11_17  and  C12_18 
REMARK       I    between atoms: N3_21  and  C15_22 
ROOT
HETATM    1  C4  UNL     1      18.730 -13.084  22.392  1.00  0.00     0.095 C 
HETATM    2  C5  UNL     1      18.514 -11.937  21.364  1.00  0.00     0.033 C 
HETATM    3  C6  UNL     1      17.085 -11.941  21.066  1.00  0.00     0.013 C 
HETATM    4  C7  UNL     1      16.424 -10.562  20.945  1.00  0.00     0.112 C 
HETATM    5  N2  UNL     1      15.053 -11.045  20.815  1.00  0.00    -0.209 NA
HETATM    6  C10 UNL     1      15.103 -12.142  19.893  1.00  0.00     0.118 C 
HETATM    7  C11 UNL     1      16.581 -12.616  19.862  1.00  0.00    -0.007 C 
HETATM    8  C14 UNL     1      16.696 -14.087  19.945  1.00  0.00     0.138 C 
HETATM    9  N3  UNL     1      17.519 -14.664  20.960  1.00  0.00    -0.334 N 
HETATM   10  C15 UNL     1      16.980 -15.869  21.505  1.00  0.00     0.330 C 
HETATM   11  N4  UNL     1      15.747 -16.351  21.017  1.00  0.00    -0.040 NA
HETATM   12  O3  UNL     1      17.581 -16.506  22.406  1.00  0.00    -0.251 OA
HETATM   13  C16 UNL     1      18.792 -14.324  21.541  1.00  0.00     0.152 C 
ENDROOT
BRANCH   1  14
HETATM   14  N1  UNL     1      19.920 -12.830  23.110  1.00  0.00    -0.412 N 
ATOM     15  H1  UNL     1      20.742 -12.414  22.672  1.00  0.00     0.153 HD
BRANCH  14  16
HETATM   16  C3  UNL     1      19.894 -13.196  24.502  1.00  0.00     0.141 C 
BRANCH  16  17
HETATM   17  C2  UNL     1      20.769 -12.266  25.257  1.00  0.00    -0.018 C 
HETATM   18  C1  UNL     1      20.837 -12.344  26.564  1.00  0.00     0.008 C 
ENDBRANCH  16  17
ENDBRANCH  14  16
ENDBRANCH   1  14
BRANCH   7  19
HETATM   19  C12 UNL     1      17.090 -12.111  18.538  1.00  0.00     0.008 C 
HETATM   20  C13 UNL     1      15.885 -12.166  17.587  1.00  0.00     0.006 C 
ENDBRANCH   7  19
BRANCH   5  21
HETATM   21  S1  UNL     1      13.878  -9.889  20.557  1.00  0.00     0.211 S 
HETATM   22  O1  UNL     1      14.389  -8.504  20.834  1.00  0.00    -0.211 OA
HETATM   23  O2  UNL     1      13.503  -9.908  19.079  1.00  0.00    -0.211 OA
BRANCH  21  24
HETATM   24  C8  UNL     1      12.367 -10.097  21.449  1.00  0.00     0.153 C 
HETATM   25  C9  UNL     1      12.508  -9.286  22.743  1.00  0.00     0.022 C 
ENDBRANCH  21  24
ENDBRANCH   5  21
TORSDOF 6
ENDMDL
MODEL 3
REMARK VINA RESULT: -6.579244880      1.726      2.105
REMARK  6 active torsions:
REMARK  status: ('A' for Active; 'I' for Inactive)
REMARK    1  A    between atoms: C2_2  and  C3_3 
REMARK    2  A    between atoms: C3_3  and  N1_4 
REMARK    3  A    between atoms: N1_4  and  C4_6 
REMARK    4  A    between atoms: N2_10  and  S1_11 
REMARK    5  A    between atoms: S1_11  and  C8_14 
REMARK    6  A    between atoms: C11_17  and  C12_18 
REMARK       I    between atoms: N3_21  and  C15_22 
ROOT
HETATM    1  C4  UNL     1      18.358 -13.749  23.238  1.00  0.00     0.095 C 
HETATM    2  C5  UNL     1      18.200 -12.419  22.448  1.00  0.00     0.033 C 
HETATM    3  C6  UNL     1      16.928 -12.533  21.740  1.00  0.00     0.013 C 
HETATM    4  C7  UNL     1      16.065 -11.266  21.708  1.00  0.00     0.112 C 
HETATM    5  N2  UNL     1      14.898 -11.874  21.077  1.00  0.00    -0.209 NA
HETATM    6  C10 UNL     1      15.402 -12.689  20.009  1.00  0.00     0.118 C 
HETATM    7  C11 UNL     1      16.900 -12.945  20.329  1.00  0.00    -0.007 C 
HETATM    8  C14 UNL     1      17.275 -14.362  20.142  1.00  0.00     0.138 C 
HETATM    9  N3  UNL     1      17.899 -15.063  21.219  1.00  0.00    -0.334 N 
HETATM   10  C15 UNL     1      17.483 -16.426  21.320  1.00  0.00     0.330 C 
HETATM   11  N4  UNL     1      16.541 -16.925  20.397  1.00  0.00    -0.040 NA
HETATM   12  O3  UNL     1      17.940 -17.185  22.212  1.00  0.00    -0.251 OA
HETATM   13  C16 UNL     1      18.883 -14.718  22.213  1.00  0.00     0.152 C 
ENDROOT
BRANCH   1  14
HETATM   14  N1  UNL     1      19.244 -13.531  24.317  1.00  0.00    -0.412 N 
ATOM     15  H1  UNL     1      19.006 -13.783  25.276  1.00  0.00     0.153 HD
BRANCH  14  16
HETATM   16  C3  UNL     1      20.505 -12.930  23.971  1.00  0.00     0.141 C 
BRANCH  16  17
HETATM   17  C2  UNL     1      20.946 -12.065  25.093  1.00  0.00    -0.018 C 
HETATM   18  C1  UNL     1      20.831 -12.484  26.330  1.00  0.00     0.008 C 
ENDBRANCH  16  17
ENDBRANCH  14  16
ENDBRANCH   1  14
BRANCH   7  19
HETATM   19  C12 UNL     1      17.630 -12.062  19.351  1.00  0.00     0.008 C 
HETATM   20  C13 UNL     1      16.666 -11.875  18.170  1.00  0.00     0.006 C 
ENDBRANCH   7  19
BRANCH   5  21
HETATM   21  S1  UNL     1      13.630 -10.852  20.717  1.00  0.00     0.211 S 
HETATM   22  O1  UNL     1      13.738 -10.298  19.325  1.00  0.00    -0.211 OA
HETATM   23  O2  UNL     1      12.338 -11.662  20.745  1.00  0.00    -0.211 OA
BRANCH  21  24
HETATM   24  C8  UNL     1      13.381  -9.495  21.821  1.00  0.00     0.153 C 
HETATM   25  C9  UNL     1      12.093  -9.796  22.598  1.00  0.00     0.022 C 
ENDBRANCH  21  24
ENDBRANCH   5  21
TORSDOF 6
ENDMDL
MODEL 4
REMARK VINA RESULT: -6.523770872      3.458      6.599
REMARK  6 active torsions:
REMARK  status: ('A' for Active; 'I' for Inactive)
REMARK    1  A    between atoms: C2_2  and  C3_3 
REMARK    2  A    between atoms: C3_3  and  N1_4 
REMARK    3  A    between atoms: N1_4  and  C4_6 
REMARK    4  A    between atoms: N2_10  and  S1_11 
REMARK    5  A    between atoms: S1_11  and  C8_14 
REMARK    6  A    between atoms: C11_17  and  C12_18 
REMARK       I    between atoms: N3_21  and  C15_22 
ROOT
HETATM    1  C4  UNL     1      17.601 -12.833  20.027  1.00  0.00     0.095 C 
HETATM    2  C5  UNL     1      18.090 -12.300  21.403  1.00  0.00     0.033 C 
HETATM    3  C6  UNL     1      18.852 -13.394  21.999  1.00  0.00     0.013 C 
HETATM    4  C7  UNL     1      20.141 -12.991  22.727  1.00  0.00     0.112 C 
HETATM    5  N2  UNL     1      20.612 -14.346  22.994  1.00  0.00    -0.209 NA
HETATM    6  C10 UNL     1      19.469 -15.083  23.453  1.00  0.00     0.118 C 
HETATM    7  C11 UNL     1      18.222 -14.285  22.984  1.00  0.00    -0.007 C 
HETATM    8  C14 UNL     1      17.195 -15.160  22.384  1.00  0.00     0.138 C 
HETATM    9  N3  UNL     1      16.708 -14.863  21.074  1.00  0.00    -0.334 N 
HETATM   10  C15 UNL     1      16.451 -16.029  20.290  1.00  0.00     0.330 C 
HETATM   11  N4  UNL     1      16.692 -17.300  20.854  1.00  0.00    -0.040 NA
HETATM   12  O3  UNL     1      16.014 -15.945  19.115  1.00  0.00    -0.251 OA
HETATM   13  C16 UNL     1      16.383 -13.650  20.369  1.00  0.00     0.152 C 
ENDROOT
BRANCH   1  14
HETATM   14  N1  UNL     1      17.326 -11.731  19.187  1.00  0.00    -0.412 N 
ATOM     15  H1  UNL     1      18.015 -11.003  19.001  1.00  0.00     0.153 HD
BRANCH  14  16
HETATM   16  C3  UNL     1      16.007 -11.705  18.611  1.00  0.00     0.141 C 
BRANCH  16  17
HETATM   17  C2  UNL     1      16.125 -11.832  17.138  1.00  0.00    -0.018 C 
HETATM   18  C1  UNL     1      16.914 -11.026  16.471  1.00  0.00     0.008 C 
ENDBRANCH  16  17
ENDBRANCH  14  16
ENDBRANCH   1  14
BRANCH   7  19
HETATM   19  C12 UNL     1      17.712 -13.644  24.248  1.00  0.00     0.008 C 
HETATM   20  C13 UNL     1      17.861 -14.716  25.339  1.00  0.00     0.006 C 
ENDBRANCH   7  19
BRANCH   5  21
HETATM   21  S1  UNL     1      22.013 -14.484  23.890  1.00  0.00     0.211 S 
HETATM   22  O1  UNL     1      22.803 -15.701  23.503  1.00  0.00    -0.211 OA
HETATM   23  O2  UNL     1      22.905 -13.289  23.574  1.00  0.00    -0.211 OA
BRANCH  21  24
HETATM   24  C8  UNL     1      21.819 -14.500  25.647  1.00  0.00     0.153 C 
HETATM   25  C9  UNL     1      21.405 -13.080  26.052  1.00  0.00     0.022 C 
ENDBRANCH  21  24
ENDBRANCH   5  21
TORSDOF 6
ENDMDL
MODEL 5
REMARK VINA RESULT: -6.357404459      2.958      6.847
REMARK  6 active torsions:
REMARK  status: ('A' for Active; 'I' for Inactive)
REMARK    1  A    between atoms: C2_2  and  C3_3 
REMARK    2  A    between atoms: C3_3  and  N1_4 
REMARK    3  A    between atoms: N1_4  and  C4_6 
REMARK    4  A    between atoms: N2_10  and  S1_11 
REMARK    5  A    between atoms: S1_11  and  C8_14 
REMARK    6  A    between atoms: C11_17  and  C12_18 
REMARK       I    between atoms: N3_21  and  C15_22 
ROOT
HETATM    1  C4  UNL     1      16.300 -12.715  21.888  1.00  0.00     0.095 C 
HETATM    2  C5  UNL     1      16.946 -13.812  22.783  1.00  0.00     0.033 C 
HETATM    3  C6  UNL     1      18.345 -13.422  22.931  1.00  0.00     0.013 C 
HETATM    4  C7  UNL     1      18.946 -13.613  24.329  1.00  0.00     0.112 C 
HETATM    5  N2  UNL     1      20.228 -12.973  24.048  1.00  0.00    -0.209 NA
HETATM    6  C10 UNL     1      20.651 -13.472  22.772  1.00  0.00     0.118 C 
HETATM    7  C11 UNL     1      19.378 -14.030  22.080  1.00  0.00    -0.007 C 
HETATM    8  C14 UNL     1      19.277 -13.600  20.670  1.00  0.00     0.138 C 
HETATM    9  N3  UNL     1      18.087 -12.946  20.225  1.00  0.00    -0.334 N 
HETATM   10  C15 UNL     1      18.336 -11.905  19.279  1.00  0.00     0.330 C 
HETATM   11  N4  UNL     1      19.666 -11.632  18.895  1.00  0.00    -0.040 NA
HETATM   12  O3  UNL     1      17.397 -11.232  18.785  1.00  0.00    -0.251 OA
HETATM   13  C16 UNL     1      16.682 -13.119  20.489  1.00  0.00     0.152 C 
ENDROOT
BRANCH   1  14
HETATM   14  N1  UNL     1      14.905 -12.710  22.115  1.00  0.00    -0.412 N 
ATOM     15  H1  UNL     1      14.458 -13.357  22.764  1.00  0.00     0.153 HD
BRANCH  14  16
HETATM   16  C3  UNL     1      14.159 -11.732  21.368  1.00  0.00     0.141 C 
BRANCH  16  17
HETATM   17  C2  UNL     1      12.733 -11.813  21.766  1.00  0.00    -0.018 C 
HETATM   18  C1  UNL     1      12.150 -10.786  22.334  1.00  0.00     0.008 C 
ENDBRANCH  16  17
ENDBRANCH  14  16
ENDBRANCH   1  14
BRANCH   7  19
HETATM   19  C12 UNL     1      19.543 -15.524  22.177  1.00  0.00     0.008 C 
HETATM   20  C13 UNL     1      20.586 -15.890  21.110  1.00  0.00     0.006 C 
ENDBRANCH   7  19
BRANCH   5  21
HETATM   21  S1  UNL     1      21.353 -12.989  25.280  1.00  0.00     0.211 S 
HETATM   22  O1  UNL     1      22.662 -12.394  24.845  1.00  0.00    -0.211 OA
HETATM   23  O2  UNL     1      20.844 -12.097  26.407  1.00  0.00    -0.211 OA
BRANCH  21  24
HETATM   24  C8  UNL     1      21.689 -14.562  26.013  1.00  0.00     0.153 C 
HETATM   25  C9  UNL     1      22.455 -15.377  24.963  1.00  0.00     0.022 C 
ENDBRANCH  21  24
ENDBRANCH   5  21
TORSDOF 6
ENDMDL
