MODEL 1
REMARK VINA RESULT: -5.734534695      0.000      0.000
REMARK  7 active torsions:
REMARK  status: ('A' for Active; 'I' for Inactive)
REMARK    1  A    between atoms: N1_2  and  C3_4 
REMARK    2  A    between atoms: C3_4  and  C4_5 
REMARK    3  A    between atoms: C4_5  and  N2_6 
REMARK       I    between atoms: N2_6  and  C5_8 
REMARK    4  A    between atoms: C5_8  and  C6_10 
REMARK    5  A    between atoms: C12_16  and  C13_17 
REMARK    6  A    between atoms: C13_17  and  S1_18 
REMARK    7  A    between atoms: S1_18  and  N3_19 
ROOT
HETATM    1  C6  UNL     1      17.679 -13.784  22.677  1.00  0.00     0.118 C 
HETATM    2  C7  UNL     1      18.877 -12.921  23.111  1.00  0.00     0.051 C 
HETATM    3  C8  UNL     1      19.755 -14.063  23.504  1.00  0.00     0.202 C 
HETATM    4  C9  UNL     1      18.792 -15.033  24.206  1.00  0.00     0.017 C 
HETATM    5  C10 UNL     1      19.362 -16.227  24.874  1.00  0.00     0.019 C 
HETATM    6  C11 UNL     1      17.802 -14.424  25.148  1.00  0.00     0.019 C 
HETATM    7  C12 UNL     1      18.361 -15.133  22.764  1.00  0.00     0.164 C 
HETATM    8  N4  UNL     1      19.719 -14.913  22.311  1.00  0.00    -0.058 N 
HETATM    9  C14 UNL     1      19.917 -14.337  21.027  1.00  0.00     0.273 C 
HETATM   10  C15 UNL     1      20.697 -15.959  22.428  1.00  0.00     0.273 C 
ENDROOT
BRANCH   1  11
HETATM   11  C5  UNL     1      17.188 -13.304  21.417  1.00  0.00     0.224 C 
HETATM   12  N2  UNL     1      17.127 -11.896  21.235  1.00  0.00    -0.359 N 
ATOM     13  H2  UNL     1      17.434 -11.300  22.004  1.00  0.00     0.162 HD
HETATM   14  O1  UNL     1      16.788 -13.961  20.416  1.00  0.00    -0.273 OA
BRANCH  12  15
HETATM   15  C4  UNL     1      16.661 -11.257  20.030  1.00  0.00     0.152 C 
BRANCH  15  16
HETATM   16  C3  UNL     1      15.157 -11.302  19.992  1.00  0.00     0.290 C 
BRANCH  16  17
HETATM   17  N1  UNL     1      14.508 -10.951  21.211  1.00  0.00     0.081 N 
HETATM   18  C1  UNL     1      13.553 -11.902  21.679  1.00  0.00     0.309 C 
HETATM   19  C2  UNL     1      14.022  -9.608  21.265  1.00  0.00     0.309 C 
ENDBRANCH  16  17
ENDBRANCH  15  16
ENDBRANCH  12  15
ENDBRANCH   1  11
BRANCH   7  20
HETATM   20  C13 UNL     1      17.704 -16.298  22.240  1.00  0.00     0.204 C 
BRANCH  20  21
HETATM   21  S1  UNL     1      16.131 -16.787  22.693  1.00  0.00     0.226 S 
HETATM   22  O2  UNL     1      15.874 -17.093  24.117  1.00  0.00    -0.206 OA
HETATM   23  O3  UNL     1      15.886 -18.134  21.985  1.00  0.00    -0.206 OA
BRANCH  21  24
HETATM   24  N3  UNL     1      14.839 -15.801  22.119  1.00  0.00    -0.328 N 
ATOM     25  H32 UNL     1      15.013 -15.019  21.488  1.00  0.00     0.168 HD
ATOM     26  H31 UNL     1      13.906 -16.049  22.448  1.00  0.00     0.168 HD
ENDBRANCH  21  24
ENDBRANCH  20  21
ENDBRANCH   7  20
TORSDOF 7
ENDMDL
MODEL 2
REMARK VINA RESULT: -5.458842453      1.742      1.997
REMARK  7 active torsions:
REMARK  status: ('A' for Active; 'I' for Inactive)
REMARK    1  A    between atoms: N1_2  and  C3_4 
REMARK    2  A    between atoms: C3_4  and  C4_5 
REMARK    3  A    between atoms: C4_5  and  N2_6 
REMARK       I    between atoms: N2_6  and  C5_8 
REMARK    4  A    between atoms: C5_8  and  C6_10 
REMARK    5  A    between atoms: C12_16  and  C13_17 
REMARK    6  A    between atoms: C13_17  and  S1_18 
REMARK    7  A    between atoms: S1_18  and  N3_19 
ROOT
HETATM    1  C6  UNL     1      17.703 -14.744  23.171  1.00  0.00     0.118 C 
HETATM    2  C7  UNL     1      17.857 -13.773  24.353  1.00  0.00     0.051 C 
HETATM    3  C8  UNL     1      19.233 -14.212  24.735  1.00  0.00     0.202 C 
HETATM    4  C9  UNL     1      19.182 -15.739  24.570  1.00  0.00     0.017 C 
HETATM    5  C10 UNL     1      20.351 -16.532  25.020  1.00  0.00     0.019 C 
HETATM    6  C11 UNL     1      17.954 -16.424  25.080  1.00  0.00     0.019 C 
HETATM    7  C12 UNL     1      19.128 -15.256  23.142  1.00  0.00     0.164 C 
HETATM    8  N4  UNL     1      19.957 -14.113  23.465  1.00  0.00    -0.058 N 
HETATM    9  C14 UNL     1      19.833 -12.942  22.670  1.00  0.00     0.273 C 
HETATM   10  C15 UNL     1      21.365 -14.285  23.693  1.00  0.00     0.273 C 
ENDROOT
BRANCH   1  11
HETATM   11  C5  UNL     1      17.170 -14.031  22.045  1.00  0.00     0.224 C 
HETATM   12  N2  UNL     1      16.308 -12.934  22.317  1.00  0.00    -0.359 N 
ATOM     13  H2  UNL     1      16.113 -12.710  23.293  1.00  0.00     0.162 HD
HETATM   14  O1  UNL     1      17.353 -14.236  20.813  1.00  0.00    -0.273 OA
BRANCH  12  15
HETATM   15  C4  UNL     1      15.695 -12.118  21.300  1.00  0.00     0.152 C 
BRANCH  15  16
HETATM   16  C3  UNL     1      14.198 -12.184  21.443  1.00  0.00     0.290 C 
BRANCH  16  17
HETATM   17  N1  UNL     1      13.575 -10.974  21.862  1.00  0.00     0.081 N 
HETATM   18  C1  UNL     1      12.149 -11.016  21.907  1.00  0.00     0.309 C 
HETATM   19  C2  UNL     1      14.072  -9.794  21.226  1.00  0.00     0.309 C 
ENDBRANCH  16  17
ENDBRANCH  15  16
ENDBRANCH  12  15
ENDBRANCH   1  11
BRANCH   7  20
HETATM   20  C13 UNL     1      19.573 -16.065  22.042  1.00  0.00     0.204 C 
BRANCH  20  21
HETATM   21  S1  UNL     1      18.773 -17.481  21.520  1.00  0.00     0.226 S 
HETATM   22  O2  UNL     1      18.473 -18.528  22.521  1.00  0.00    -0.206 OA
HETATM   23  O3  UNL     1      19.744 -18.181  20.547  1.00  0.00    -0.206 OA
BRANCH  21  24
HETATM   24  N3  UNL     1      17.360 -17.242  20.561  1.00  0.00    -0.328 N 
ATOM     25  H32 UNL     1      17.427 -16.928  19.593  1.00  0.00     0.168 HD
ATOM     26  H31 UNL     1      16.470 -17.433  21.021  1.00  0.00     0.168 HD
ENDBRANCH  21  24
ENDBRANCH  20  21
ENDBRANCH   7  20
TORSDOF 7
ENDMDL
MODEL 3
REMARK VINA RESULT: -5.429438797      3.220      4.450
REMARK  7 active torsions:
REMARK  status: ('A' for Active; 'I' for Inactive)
REMARK    1  A    between atoms: N1_2  and  C3_4 
REMARK    2  A    between atoms: C3_4  and  C4_5 
REMARK    3  A    between atoms: C4_5  and  N2_6 
REMARK       I    between atoms: N2_6  and  C5_8 
REMARK    4  A    between atoms: C5_8  and  C6_10 
REMARK    5  A    between atoms: C12_16  and  C13_17 
REMARK    6  A    between atoms: C13_17  and  S1_18 
REMARK    7  A    between atoms: S1_18  and  N3_19 
ROOT
HETATM    1  C6  UNL     1      20.025 -15.295  21.981  1.00  0.00     0.118 C 
HETATM    2  C7  UNL     1      18.608 -15.651  21.502  1.00  0.00     0.051 C 
HETATM    3  C8  UNL     1      18.178 -16.313  22.769  1.00  0.00     0.202 C 
HETATM    4  C9  UNL     1      19.420 -17.107  23.201  1.00  0.00     0.017 C 
HETATM    5  C10 UNL     1      19.299 -18.024  24.358  1.00  0.00     0.019 C 
HETATM    6  C11 UNL     1      20.149 -17.844  22.122  1.00  0.00     0.019 C 
HETATM    7  C12 UNL     1      19.848 -15.680  23.435  1.00  0.00     0.164 C 
HETATM    8  N4  UNL     1      18.494 -15.297  23.777  1.00  0.00    -0.058 N 
HETATM    9  C14 UNL     1      18.100 -13.948  23.568  1.00  0.00     0.273 C 
HETATM   10  C15 UNL     1      17.934 -15.678  25.044  1.00  0.00     0.273 C 
ENDROOT
BRANCH   1  11
HETATM   11  C5  UNL     1      20.313 -13.935  21.626  1.00  0.00     0.224 C 
HETATM   12  N2  UNL     1      19.604 -13.386  20.523  1.00  0.00    -0.359 N 
ATOM     13  H2  UNL     1      18.931 -13.983  20.042  1.00  0.00     0.162 HD
HETATM   14  O1  UNL     1      21.124 -13.127  22.157  1.00  0.00    -0.273 OA
BRANCH  12  15
HETATM   15  C4  UNL     1      19.777 -12.039  20.042  1.00  0.00     0.152 C 
BRANCH  15  16
HETATM   16  C3  UNL     1      18.553 -11.229  20.376  1.00  0.00     0.290 C 
BRANCH  16  17
HETATM   17  N1  UNL     1      17.309 -11.865  20.095  1.00  0.00     0.081 N 
HETATM   18  C1  UNL     1      16.810 -11.654  18.776  1.00  0.00     0.309 C 
HETATM   19  C2  UNL     1      16.307 -11.688  21.100  1.00  0.00     0.309 C 
ENDBRANCH  16  17
ENDBRANCH  15  16
ENDBRANCH  12  15
ENDBRANCH   1  11
BRANCH   7  20
HETATM   20  C13 UNL     1      20.861 -15.332  24.393  1.00  0.00     0.204 C 
BRANCH  20  21
HETATM   21  S1  UNL     1      22.534 -15.551  24.130  1.00  0.00     0.226 S 
HETATM   22  O2  UNL     1      22.961 -16.513  23.089  1.00  0.00    -0.206 OA
HETATM   23  O3  UNL     1      23.091 -16.159  25.432  1.00  0.00    -0.206 OA
BRANCH  21  24
HETATM   24  N3  UNL     1      23.464 -14.112  23.938  1.00  0.00    -0.328 N 
ATOM     25  H32 UNL     1      23.054 -13.270  23.535  1.00  0.00     0.168 HD
ATOM     26  H31 UNL     1      24.435 -14.162  24.250  1.00  0.00     0.168 HD
ENDBRANCH  21  24
ENDBRANCH  20  21
ENDBRANCH   7  20
TORSDOF 7
ENDMDL
MODEL 4
REMARK VINA RESULT: -5.293900148      2.079      2.669
REMARK  7 active torsions:
REMARK  status: ('A' for Active; 'I' for Inactive)
REMARK    1  A    between atoms: N1_2  and  C3_4 
REMARK    2  A    between atoms: C3_4  and  C4_5 
REMARK    3  A    between atoms: C4_5  and  N2_6 
REMARK       I    between atoms: N2_6  and  C5_8 
REMARK    4  A    between atoms: C5_8  and  C6_10 
REMARK    5  A    between atoms: C12_16  and  C13_17 
REMARK    6  A    between atoms: C13_17  and  S1_18 
REMARK    7  A    between atoms: S1_18  and  N3_19 
ROOT
HETATM    1  C6  UNL     1      17.856 -14.983  23.290  1.00  0.00     0.118 C 
HETATM    2  C7  UNL     1      17.870 -13.958  24.437  1.00  0.00     0.051 C 
HETATM    3  C8  UNL     1      19.305 -14.152  24.800  1.00  0.00     0.202 C 
HETATM    4  C9  UNL     1      19.504 -15.671  24.685  1.00  0.00     0.017 C 
HETATM    5  C10 UNL     1      20.795 -16.245  25.133  1.00  0.00     0.019 C 
HETATM    6  C11 UNL     1      18.415 -16.530  25.245  1.00  0.00     0.019 C 
HETATM    7  C12 UNL     1      19.346 -15.254  23.245  1.00  0.00     0.164 C 
HETATM    8  N4  UNL     1      19.981 -13.981  23.510  1.00  0.00    -0.058 N 
HETATM    9  C14 UNL     1      19.651 -12.875  22.681  1.00  0.00     0.273 C 
HETATM   10  C15 UNL     1      21.402 -13.911  23.711  1.00  0.00     0.273 C 
ENDROOT
BRANCH   1  11
HETATM   11  C5  UNL     1      17.194 -14.407  22.155  1.00  0.00     0.224 C 
HETATM   12  N2  UNL     1      16.350 -13.288  22.391  1.00  0.00    -0.359 N 
ATOM     13  H2  UNL     1      16.258 -12.953  23.350  1.00  0.00     0.162 HD
HETATM   14  O1  UNL     1      17.245 -14.754  20.942  1.00  0.00    -0.273 OA
BRANCH  12  15
HETATM   15  C4  UNL     1      15.617 -12.598  21.361  1.00  0.00     0.152 C 
BRANCH  15  16
HETATM   16  C3  UNL     1      16.381 -11.372  20.940  1.00  0.00     0.290 C 
BRANCH  16  17
HETATM   17  N1  UNL     1      16.900 -11.405  19.615  1.00  0.00     0.081 N 
HETATM   18  C1  UNL     1      16.084 -12.090  18.666  1.00  0.00     0.309 C 
HETATM   19  C2  UNL     1      18.280 -11.769  19.521  1.00  0.00     0.309 C 
ENDBRANCH  16  17
ENDBRANCH  15  16
ENDBRANCH  12  15
ENDBRANCH   1  11
BRANCH   7  20
HETATM   20  C13 UNL     1      19.898 -16.018  22.160  1.00  0.00     0.204 C 
BRANCH  20  21
HETATM   21  S1  UNL     1      19.380 -17.593  21.746  1.00  0.00     0.226 S 
HETATM   22  O2  UNL     1      19.490 -18.659  22.766  1.00  0.00    -0.206 OA
HETATM   23  O3  UNL     1      20.324 -18.068  20.624  1.00  0.00    -0.206 OA
BRANCH  21  24
HETATM   24  N3  UNL     1      17.819 -17.708  21.022  1.00  0.00    -0.328 N 
ATOM     25  H32 UNL     1      17.428 -16.933  20.488  1.00  0.00     0.168 HD
ATOM     26  H31 UNL     1      17.325 -18.589  21.162  1.00  0.00     0.168 HD
ENDBRANCH  21  24
ENDBRANCH  20  21
ENDBRANCH   7  20
TORSDOF 7
ENDMDL
MODEL 5
REMARK VINA RESULT: -5.190780401      1.628      2.027
REMARK  7 active torsions:
REMARK  status: ('A' for Active; 'I' for Inactive)
REMARK    1  A    between atoms: N1_2  and  C3_4 
REMARK    2  A    between atoms: C3_4  and  C4_5 
REMARK    3  A    between atoms: C4_5  and  N2_6 
REMARK       I    between atoms: N2_6  and  C5_8 
REMARK    4  A    between atoms: C5_8  and  C6_10 
REMARK    5  A    between atoms: C12_16  and  C13_17 
REMARK    6  A    between atoms: C13_17  and  S1_18 
REMARK    7  A    between atoms: S1_18  and  N3_19 
ROOT
HETATM    1  C6  UNL     1      18.801 -13.587  23.269  1.00  0.00     0.118 C 
HETATM    2  C7  UNL     1      19.962 -12.717  22.758  1.00  0.00     0.051 C 
HETATM    3  C8  UNL     1      21.049 -13.659  23.158  1.00  0.00     0.202 C 
HETATM    4  C9  UNL     1      20.590 -14.178  24.529  1.00  0.00     0.017 C 
HETATM    5  C10 UNL     1      21.522 -15.031  25.304  1.00  0.00     0.019 C 
HETATM    6  C11 UNL     1      20.025 -13.163  25.471  1.00  0.00     0.019 C 
HETATM    7  C12 UNL     1      19.607 -14.829  23.589  1.00  0.00     0.164 C 
HETATM    8  N4  UNL     1      20.612 -14.919  22.550  1.00  0.00    -0.058 N 
HETATM    9  C14 UNL     1      20.183 -14.939  21.195  1.00  0.00     0.273 C 
HETATM   10  C15 UNL     1      21.662 -15.895  22.644  1.00  0.00     0.273 C 
ENDROOT
BRANCH   1  11
HETATM   11  C5  UNL     1      17.773 -13.632  22.269  1.00  0.00     0.224 C 
HETATM   12  N2  UNL     1      17.682 -12.528  21.378  1.00  0.00    -0.359 N 
ATOM     13  H2  UNL     1      18.347 -11.764  21.493  1.00  0.00     0.162 HD
HETATM   14  O1  UNL     1      16.910 -14.528  22.053  1.00  0.00    -0.273 OA
BRANCH  12  15
HETATM   15  C4  UNL     1      16.709 -12.423  20.321  1.00  0.00     0.152 C 
BRANCH  15  16
HETATM   16  C3  UNL     1      16.093 -11.049  20.345  1.00  0.00     0.290 C 
BRANCH  16  17
HETATM   17  N1  UNL     1      14.697 -11.015  20.622  1.00  0.00     0.081 N 
HETATM   18  C1  UNL     1      14.197  -9.746  21.039  1.00  0.00     0.309 C 
HETATM   19  C2  UNL     1      14.221 -12.090  21.435  1.00  0.00     0.309 C 
ENDBRANCH  16  17
ENDBRANCH  15  16
ENDBRANCH  12  15
ENDBRANCH   1  11
BRANCH   7  20
HETATM   20  C13 UNL     1      18.929 -16.053  23.916  1.00  0.00     0.204 C 
BRANCH  20  21
HETATM   21  S1  UNL     1      17.581 -16.144  24.961  1.00  0.00     0.226 S 
HETATM   22  O2  UNL     1      17.312 -15.000  25.860  1.00  0.00    -0.206 OA
HETATM   23  O3  UNL     1      17.876 -17.304  25.932  1.00  0.00    -0.206 OA
BRANCH  21  24
HETATM   24  N3  UNL     1      16.090 -16.610  24.232  1.00  0.00    -0.328 N 
ATOM     25  H32 UNL     1      15.860 -16.331  23.279  1.00  0.00     0.168 HD
ATOM     26  H31 UNL     1      15.466 -17.173  24.810  1.00  0.00     0.168 HD
ENDBRANCH  21  24
ENDBRANCH  20  21
ENDBRANCH   7  20
TORSDOF 7
ENDMDL
