MODEL 1
REMARK VINA RESULT: -5.752179822      0.000      0.000
REMARK  7 active torsions:
REMARK  status: ('A' for Active; 'I' for Inactive)
REMARK    1  A    between atoms: C3_4  and  C4_5 
REMARK    2  A    between atoms: C4_5  and  O1_6 
REMARK    3  A    between atoms: C4_5  and  C5_8 
REMARK    4  A    between atoms: C5_8  and  N2_9 
REMARK    5  A    between atoms: N2_9  and  C6_11 
REMARK    6  A    between atoms: C6_11  and  C7_12 
REMARK    7  A    between atoms: C10_15  and  C12_17 
ROOT
HETATM    1  C1  UNL     1      20.772  -9.763   9.423  1.00  0.00     0.309 C 
HETATM    2  N1  UNL     1      21.367  -8.581   8.878  1.00  0.00     0.085 N 
HETATM    3  C2  UNL     1      22.696  -8.323   9.391  1.00  0.00     0.280 C 
HETATM    4  C3  UNL     1      22.952  -6.919   8.810  1.00  0.00     0.060 C 
HETATM    5  C10 UNL     1      21.611  -6.334   8.649  1.00  0.00     0.055 C 
HETATM    6  C11 UNL     1      21.088  -6.160   7.269  1.00  0.00     0.023 C 
HETATM    7  C14 UNL     1      20.695  -7.357   9.340  1.00  0.00     0.287 C 
ENDROOT
BRANCH   4   8
HETATM    8  C4  UNL     1      23.775  -7.159   7.593  1.00  0.00     0.142 C 
BRANCH   8   9
HETATM    9  O1  UNL     1      24.507  -8.345   7.903  1.00  0.00    -0.393 OA
ATOM     10  H1  UNL     1      23.841  -8.951   8.205  1.00  0.00     0.210 HD
ENDBRANCH   8   9
BRANCH   8  11
HETATM   11  C5  UNL     1      24.846  -6.126   7.312  1.00  0.00     0.150 C 
BRANCH  11  12
HETATM   12  N2  UNL     1      26.041  -6.469   8.018  1.00  0.00    -0.399 N 
ATOM     13  H2  UNL     1      26.550  -7.322   7.786  1.00  0.00     0.158 HD
BRANCH  12  14
HETATM   14  C6  UNL     1      26.505  -5.625   9.029  1.00  0.00     0.060 C 
BRANCH  14  15
HETATM   15  C7  UNL     1      25.632  -4.564   9.587  1.00  0.00     0.024 A 
HETATM   16  C8  UNL     1      26.070  -3.136   9.152  1.00  0.00     0.010 A 
HETATM   17  C9  UNL     1      25.966  -3.583  10.610  1.00  0.00     0.010 A 
ENDBRANCH  14  15
ENDBRANCH  12  14
ENDBRANCH  11  12
ENDBRANCH   8  11
ENDBRANCH   4   8
BRANCH   5  18
HETATM   18  C12 UNL     1      21.422  -5.029   9.391  1.00  0.00     0.249 C 
HETATM   19  C13 UNL     1      20.505  -5.118  10.566  1.00  0.00     0.091 C 
HETATM   20  F1  UNL     1      22.590  -4.454   9.778  1.00  0.00    -0.206 F 
HETATM   21  F2  UNL     1      20.823  -4.144   8.480  1.00  0.00    -0.206 F 
ENDBRANCH   5  18
TORSDOF 7
ENDMDL
MODEL 2
REMARK VINA RESULT: -5.727937096      3.149      4.252
REMARK  7 active torsions:
REMARK  status: ('A' for Active; 'I' for Inactive)
REMARK    1  A    between atoms: C3_4  and  C4_5 
REMARK    2  A    between atoms: C4_5  and  O1_6 
REMARK    3  A    between atoms: C4_5  and  C5_8 
REMARK    4  A    between atoms: C5_8  and  N2_9 
REMARK    5  A    between atoms: N2_9  and  C6_11 
REMARK    6  A    between atoms: C6_11  and  C7_12 
REMARK    7  A    between atoms: C10_15  and  C12_17 
ROOT
HETATM    1  C1  UNL     1      25.516  -9.754   3.584  1.00  0.00     0.309 C 
HETATM    2  N1  UNL     1      25.385  -8.491   4.243  1.00  0.00     0.085 N 
HETATM    3  C2  UNL     1      26.531  -8.151   5.059  1.00  0.00     0.280 C 
HETATM    4  C3  UNL     1      25.998  -6.898   5.782  1.00  0.00     0.060 C 
HETATM    5  C10 UNL     1      24.537  -7.080   5.810  1.00  0.00     0.055 C 
HETATM    6  C11 UNL     1      23.710  -6.202   4.942  1.00  0.00     0.023 C 
HETATM    7  C14 UNL     1      24.350  -8.514   5.289  1.00  0.00     0.287 C 
ENDROOT
BRANCH   4   8
HETATM    8  C4  UNL     1      26.559  -5.753   5.016  1.00  0.00     0.142 C 
BRANCH   8   9
HETATM    9  O1  UNL     1      27.880  -6.180   4.679  1.00  0.00    -0.393 OA
ATOM     10  H1  UNL     1      28.305  -5.387   4.377  1.00  0.00     0.210 HD
ENDBRANCH   8   9
BRANCH   8  11
HETATM   11  C5  UNL     1      26.773  -4.479   5.805  1.00  0.00     0.150 C 
BRANCH  11  12
HETATM   12  N2  UNL     1      26.923  -4.791   7.191  1.00  0.00    -0.399 N 
ATOM     13  H2  UNL     1      27.488  -5.590   7.481  1.00  0.00     0.158 HD
BRANCH  12  14
HETATM   14  C6  UNL     1      26.289  -3.993   8.146  1.00  0.00     0.060 C 
BRANCH  14  15
HETATM   15  C7  UNL     1      26.210  -4.429   9.561  1.00  0.00     0.024 A 
HETATM   16  C8  UNL     1      24.765  -4.347  10.134  1.00  0.00     0.010 A 
HETATM   17  C9  UNL     1      25.959  -3.603  10.733  1.00  0.00     0.010 A 
ENDBRANCH  14  15
ENDBRANCH  12  14
ENDBRANCH  11  12
ENDBRANCH   8  11
ENDBRANCH   4   8
BRANCH   5  18
HETATM   18  C12 UNL     1      23.946  -7.056   7.202  1.00  0.00     0.249 C 
HETATM   19  C13 UNL     1      24.848  -7.596   8.262  1.00  0.00     0.091 C 
HETATM   20  F1  UNL     1      23.499  -5.829   7.578  1.00  0.00    -0.206 F 
HETATM   21  F2  UNL     1      22.822  -7.897   7.164  1.00  0.00    -0.206 F 
ENDBRANCH   5  18
TORSDOF 7
ENDMDL
MODEL 3
REMARK VINA RESULT: -5.702052192      1.780      5.114
REMARK  7 active torsions:
REMARK  status: ('A' for Active; 'I' for Inactive)
REMARK    1  A    between atoms: C3_4  and  C4_5 
REMARK    2  A    between atoms: C4_5  and  O1_6 
REMARK    3  A    between atoms: C4_5  and  C5_8 
REMARK    4  A    between atoms: C5_8  and  N2_9 
REMARK    5  A    between atoms: N2_9  and  C6_11 
REMARK    6  A    between atoms: C6_11  and  C7_12 
REMARK    7  A    between atoms: C10_15  and  C12_17 
ROOT
HETATM    1  C1  UNL     1      27.591  -4.940   4.994  1.00  0.00     0.309 C 
HETATM    2  N1  UNL     1      26.873  -5.309   6.176  1.00  0.00     0.085 N 
HETATM    3  C2  UNL     1      25.445  -5.419   5.965  1.00  0.00     0.280 C 
HETATM    4  C3  UNL     1      24.961  -5.595   7.418  1.00  0.00     0.060 C 
HETATM    5  C10 UNL     1      25.990  -4.928   8.234  1.00  0.00     0.055 C 
HETATM    6  C11 UNL     1      26.885  -5.782   9.058  1.00  0.00     0.023 C 
HETATM    7  C14 UNL     1      26.880  -4.240   7.186  1.00  0.00     0.287 C 
ENDROOT
BRANCH   4   8
HETATM    8  C4  UNL     1      24.766  -7.061   7.576  1.00  0.00     0.142 C 
BRANCH   8   9
HETATM    9  O1  UNL     1      24.334  -7.491   6.284  1.00  0.00    -0.393 OA
ATOM     10  H1  UNL     1      23.666  -8.140   6.472  1.00  0.00     0.210 HD
ENDBRANCH   8   9
BRANCH   8  11
HETATM   11  C5  UNL     1      23.640  -7.477   8.500  1.00  0.00     0.150 C 
BRANCH  11  12
HETATM   12  N2  UNL     1      22.451  -6.761   8.160  1.00  0.00    -0.399 N 
ATOM     13  H2  UNL     1      22.239  -6.547   7.185  1.00  0.00     0.158 HD
BRANCH  12  14
HETATM   14  C6  UNL     1      21.582  -6.356   9.175  1.00  0.00     0.060 C 
BRANCH  14  15
HETATM   15  C7  UNL     1      21.081  -4.961   9.229  1.00  0.00     0.024 A 
HETATM   16  C8  UNL     1      20.930  -4.433  10.684  1.00  0.00     0.010 A 
HETATM   17  C9  UNL     1      19.777  -4.502   9.683  1.00  0.00     0.010 A 
ENDBRANCH  14  15
ENDBRANCH  12  14
ENDBRANCH  11  12
ENDBRANCH   8  11
ENDBRANCH   4   8
BRANCH   5  18
HETATM   18  C12 UNL     1      25.448  -3.826   9.117  1.00  0.00     0.249 C 
HETATM   19  C13 UNL     1      25.993  -3.829  10.507  1.00  0.00     0.091 C 
HETATM   20  F1  UNL     1      25.593  -2.585   8.583  1.00  0.00    -0.206 F 
HETATM   21  F2  UNL     1      24.067  -4.056   9.226  1.00  0.00    -0.206 F 
ENDBRANCH   5  18
TORSDOF 7
ENDMDL
MODEL 4
REMARK VINA RESULT: -5.536001494      1.307      1.517
REMARK  7 active torsions:
REMARK  status: ('A' for Active; 'I' for Inactive)
REMARK    1  A    between atoms: C3_4  and  C4_5 
REMARK    2  A    between atoms: C4_5  and  O1_6 
REMARK    3  A    between atoms: C4_5  and  C5_8 
REMARK    4  A    between atoms: C5_8  and  N2_9 
REMARK    5  A    between atoms: N2_9  and  C6_11 
REMARK    6  A    between atoms: C6_11  and  C7_12 
REMARK    7  A    between atoms: C10_15  and  C12_17 
ROOT
HETATM    1  C1  UNL     1      23.124 -10.340   9.279  1.00  0.00     0.309 C 
HETATM    2  N1  UNL     1      23.231  -9.089   8.592  1.00  0.00     0.085 N 
HETATM    3  C2  UNL     1      24.251  -8.222   9.141  1.00  0.00     0.280 C 
HETATM    4  C3  UNL     1      23.965  -6.924   8.360  1.00  0.00     0.060 C 
HETATM    5  C10 UNL     1      22.534  -7.003   8.023  1.00  0.00     0.055 C 
HETATM    6  C11 UNL     1      22.167  -7.235   6.602  1.00  0.00     0.023 C 
HETATM    7  C14 UNL     1      22.054  -8.234   8.808  1.00  0.00     0.287 C 
ENDROOT
BRANCH   4   8
HETATM    8  C4  UNL     1      24.960  -6.923   7.253  1.00  0.00     0.142 C 
BRANCH   8   9
HETATM    9  O1  UNL     1      26.134  -7.478   7.847  1.00  0.00    -0.393 OA
ATOM     10  H1  UNL     1      26.149  -8.373   7.529  1.00  0.00     0.210 HD
ENDBRANCH   8   9
BRANCH   8  11
HETATM   11  C5  UNL     1      25.400  -5.558   6.769  1.00  0.00     0.150 C 
BRANCH  11  12
HETATM   12  N2  UNL     1      26.583  -5.160   7.464  1.00  0.00    -0.399 N 
ATOM     13  H2  UNL     1      27.440  -5.708   7.378  1.00  0.00     0.158 HD
BRANCH  12  14
HETATM   14  C6  UNL     1      26.557  -4.015   8.263  1.00  0.00     0.060 C 
BRANCH  14  15
HETATM   15  C7  UNL     1      25.530  -3.856   9.320  1.00  0.00     0.024 A 
HETATM   16  C8  UNL     1      26.129  -3.359  10.668  1.00  0.00     0.010 A 
HETATM   17  C9  UNL     1      25.350  -4.667  10.516  1.00  0.00     0.010 A 
ENDBRANCH  14  15
ENDBRANCH  12  14
ENDBRANCH  11  12
ENDBRANCH   8  11
ENDBRANCH   4   8
BRANCH   5  18
HETATM   18  C12 UNL     1      21.723  -5.833   8.533  1.00  0.00     0.249 C 
HETATM   19  C13 UNL     1      20.812  -6.165   9.669  1.00  0.00     0.091 C 
HETATM   20  F1  UNL     1      22.480  -4.755   8.868  1.00  0.00    -0.206 F 
HETATM   21  F2  UNL     1      20.904  -5.430   7.466  1.00  0.00    -0.206 F 
ENDBRANCH   5  18
TORSDOF 7
ENDMDL
MODEL 5
REMARK VINA RESULT: -5.526770116      2.429      3.017
REMARK  7 active torsions:
REMARK  status: ('A' for Active; 'I' for Inactive)
REMARK    1  A    between atoms: C3_4  and  C4_5 
REMARK    2  A    between atoms: C4_5  and  O1_6 
REMARK    3  A    between atoms: C4_5  and  C5_8 
REMARK    4  A    between atoms: C5_8  and  N2_9 
REMARK    5  A    between atoms: N2_9  and  C6_11 
REMARK    6  A    between atoms: C6_11  and  C7_12 
REMARK    7  A    between atoms: C10_15  and  C12_17 
ROOT
HETATM    1  C1  UNL     1      23.654 -10.003   9.126  1.00  0.00     0.309 C 
HETATM    2  N1  UNL     1      23.707  -8.665   8.622  1.00  0.00     0.085 N 
HETATM    3  C2  UNL     1      24.593  -7.804   9.377  1.00  0.00     0.280 C 
HETATM    4  C3  UNL     1      24.260  -6.438   8.747  1.00  0.00     0.060 C 
HETATM    5  C10 UNL     1      22.878  -6.580   8.261  1.00  0.00     0.055 C 
HETATM    6  C11 UNL     1      22.659  -6.643   6.792  1.00  0.00     0.023 C 
HETATM    7  C14 UNL     1      22.443  -7.942   8.828  1.00  0.00     0.287 C 
ENDROOT
BRANCH   4   8
HETATM    8  C4  UNL     1      25.344  -6.207   7.754  1.00  0.00     0.142 C 
BRANCH   8   9
HETATM    9  O1  UNL     1      26.442  -6.968   8.261  1.00  0.00    -0.393 OA
ATOM     10  H1  UNL     1      26.253  -7.855   7.979  1.00  0.00     0.210 HD
ENDBRANCH   8   9
BRANCH   8  11
HETATM   11  C5  UNL     1      25.877  -4.792   7.681  1.00  0.00     0.150 C 
BRANCH  11  12
HETATM   12  N2  UNL     1      27.250  -4.815   7.284  1.00  0.00    -0.399 N 
ATOM     13  H2  UNL     1      27.921  -5.397   7.786  1.00  0.00     0.158 HD
BRANCH  12  14
HETATM   14  C6  UNL     1      27.663  -4.034   6.204  1.00  0.00     0.060 C 
BRANCH  14  15
HETATM   15  C7  UNL     1      28.397  -4.643   5.068  1.00  0.00     0.024 A 
HETATM   16  C8  UNL     1      27.754  -4.312   3.691  1.00  0.00     0.010 A 
HETATM   17  C9  UNL     1      27.961  -5.735   4.211  1.00  0.00     0.010 A 
ENDBRANCH  14  15
ENDBRANCH  12  14
ENDBRANCH  11  12
ENDBRANCH   8  11
ENDBRANCH   4   8
BRANCH   5  18
HETATM   18  C12 UNL     1      21.922  -5.559   8.835  1.00  0.00     0.249 C 
HETATM   19  C13 UNL     1      20.985  -6.102   9.863  1.00  0.00     0.091 C 
HETATM   20  F1  UNL     1      22.543  -4.458   9.334  1.00  0.00    -0.206 F 
HETATM   21  F2  UNL     1      21.129  -5.118   7.762  1.00  0.00    -0.206 F 
ENDBRANCH   5  18
TORSDOF 7
ENDMDL
