MODEL 1
REMARK VINA RESULT: -7.641344223      0.000      0.000
REMARK  5 active torsions:
REMARK  status: ('A' for Active; 'I' for Inactive)
REMARK    1  A    between atoms: C1_2  and  C2_3 
REMARK       I    between atoms: C1_2  and  N1_12 
REMARK    2  A    between atoms: C2_3  and  C3_4 
REMARK    3  A    between atoms: N1_12  and  C9_14 
REMARK    4  A    between atoms: C9_14  and  C10_15 
REMARK       I    between atoms: C10_15  and  N2_17 
REMARK    5  A    between atoms: N3_20  and  C13_21 
ROOT
HETATM    1  C9  UNL     1      49.638  51.892  36.367  1.00  0.00     0.225 C 
ENDROOT
BRANCH   1   2
HETATM    2  N1  UNL     1      48.442  51.704  35.607  1.00  0.00    -0.352 N 
HETATM    3  C1  UNL     1      47.179  51.317  36.135  1.00  0.00     0.218 C 
HETATM    4  O1  UNL     1      47.110  51.129  37.391  1.00  0.00    -0.274 OA
ATOM      5  H1  UNL     1      48.499  51.861  34.601  1.00  0.00     0.162 HD
BRANCH   3   6
HETATM    6  C2  UNL     1      45.982  51.134  35.301  1.00  0.00     0.107 C 
BRANCH   6   7
HETATM    7  C3  UNL     1      46.357  50.905  33.846  1.00  0.00    -0.005 C 
HETATM    8  C4  UNL     1      46.078  49.519  33.394  1.00  0.00     0.011 C 
HETATM    9  C5  UNL     1      45.428  49.565  32.027  1.00  0.00     0.079 C 
HETATM   10  C6  UNL     1      44.104  50.312  32.210  1.00  0.00     0.243 C 
HETATM   11  F1  UNL     1      43.465  49.718  33.281  1.00  0.00    -0.206 F 
HETATM   12  F2  UNL     1      43.295  50.187  31.106  1.00  0.00    -0.206 F 
HETATM   13  C7  UNL     1      44.363  51.756  32.584  1.00  0.00     0.079 C 
HETATM   14  C8  UNL     1      45.800  51.992  32.962  1.00  0.00     0.011 C 
ENDBRANCH   6   7
ENDBRANCH   3   6
ENDBRANCH   1   2
BRANCH   1  15
HETATM   15  C10 UNL     1      50.606  50.785  36.301  1.00  0.00     0.237 C 
HETATM   16  O2  UNL     1      50.211  49.619  36.552  1.00  0.00    -0.272 OA
HETATM   17  N2  UNL     1      51.967  51.006  35.961  1.00  0.00    -0.347 N 
HETATM   18  C11 UNL     1      52.919  49.930  35.895  1.00  0.00     0.156 C 
HETATM   19  C20 UNL     1      52.469  52.331  35.660  1.00  0.00     0.156 C 
HETATM   20  C12 UNL     1      54.330  50.393  36.127  1.00  0.00     0.292 C 
HETATM   21  N3  UNL     1      54.717  51.527  35.315  1.00  0.00     0.096 N 
HETATM   22  C19 UNL     1      53.601  52.114  34.647  1.00  0.00     0.292 C 
BRANCH  21  23
HETATM   23  C13 UNL     1      55.775  51.119  34.449  1.00  0.00     0.223 C 
HETATM   24  C14 UNL     1      56.558  52.271  33.870  1.00  0.00     0.036 C 
HETATM   25  C15 UNL     1      57.250  53.012  34.968  1.00  0.00     0.002 C 
HETATM   26  C16 UNL     1      58.422  52.133  35.425  1.00  0.00     0.000 C 
HETATM   27  C17 UNL     1      58.178  50.706  35.056  1.00  0.00     0.002 C 
HETATM   28  C18 UNL     1      56.740  50.273  35.245  1.00  0.00     0.036 C 
ENDBRANCH  21  23
ENDBRANCH   1  15
TORSDOF 5
ENDMDL
MODEL 2
REMARK VINA RESULT: -7.445799130      4.527     10.072
REMARK  5 active torsions:
REMARK  status: ('A' for Active; 'I' for Inactive)
REMARK    1  A    between atoms: C1_2  and  C2_3 
REMARK       I    between atoms: C1_2  and  N1_12 
REMARK    2  A    between atoms: C2_3  and  C3_4 
REMARK    3  A    between atoms: N1_12  and  C9_14 
REMARK    4  A    between atoms: C9_14  and  C10_15 
REMARK       I    between atoms: C10_15  and  N2_17 
REMARK    5  A    between atoms: N3_20  and  C13_21 
ROOT
HETATM    1  C9  UNL     1      51.340  50.824  35.628  1.00  0.00     0.225 C 
ENDROOT
BRANCH   1   2
HETATM    2  N1  UNL     1      52.352  49.819  35.719  1.00  0.00    -0.352 N 
HETATM    3  C1  UNL     1      53.655  50.004  36.261  1.00  0.00     0.218 C 
HETATM    4  O1  UNL     1      53.937  51.161  36.706  1.00  0.00    -0.274 OA
ATOM      5  H1  UNL     1      52.122  48.890  35.367  1.00  0.00     0.162 HD
BRANCH   3   6
HETATM    6  C2  UNL     1      54.658  48.930  36.324  1.00  0.00     0.107 C 
BRANCH   6   7
HETATM    7  C3  UNL     1      55.411  48.807  35.011  1.00  0.00    -0.005 C 
HETATM    8  C4  UNL     1      56.876  48.985  35.172  1.00  0.00     0.011 C 
HETATM    9  C5  UNL     1      57.597  47.926  34.365  1.00  0.00     0.079 C 
HETATM   10  C6  UNL     1      57.184  46.579  34.966  1.00  0.00     0.243 C 
HETATM   11  F1  UNL     1      57.375  46.685  36.330  1.00  0.00    -0.206 F 
HETATM   12  F2  UNL     1      57.974  45.554  34.502  1.00  0.00    -0.206 F 
HETATM   13  C7  UNL     1      55.709  46.331  34.735  1.00  0.00     0.079 C 
HETATM   14  C8  UNL     1      54.996  47.567  34.258  1.00  0.00     0.011 C 
ENDBRANCH   6   7
ENDBRANCH   3   6
ENDBRANCH   1   2
BRANCH   1  15
HETATM   15  C10 UNL     1      49.985  50.390  36.001  1.00  0.00     0.237 C 
HETATM   16  O2  UNL     1      49.812  49.836  37.115  1.00  0.00    -0.272 OA
HETATM   17  N2  UNL     1      48.877  50.583  35.135  1.00  0.00    -0.347 N 
HETATM   18  C11 UNL     1      47.549  50.160  35.493  1.00  0.00     0.156 C 
HETATM   19  C20 UNL     1      49.025  51.219  33.842  1.00  0.00     0.156 C 
HETATM   20  C12 UNL     1      46.687  49.890  34.291  1.00  0.00     0.292 C 
HETATM   21  N3  UNL     1      46.685  50.959  33.316  1.00  0.00     0.096 N 
HETATM   22  C19 UNL     1      47.690  51.934  33.588  1.00  0.00     0.292 C 
BRANCH  21  23
HETATM   23  C13 UNL     1      45.361  51.485  33.229  1.00  0.00     0.223 C 
HETATM   24  C14 UNL     1      45.063  52.151  31.909  1.00  0.00     0.036 C 
HETATM   25  C15 UNL     1      45.128  51.139  30.810  1.00  0.00     0.002 C 
HETATM   26  C16 UNL     1      43.866  50.274  30.931  1.00  0.00     0.000 C 
HETATM   27  C17 UNL     1      43.317  50.345  32.318  1.00  0.00     0.002 C 
HETATM   28  C18 UNL     1      44.387  50.344  33.390  1.00  0.00     0.036 C 
ENDBRANCH  21  23
ENDBRANCH   1  15
TORSDOF 5
ENDMDL
MODEL 3
REMARK VINA RESULT: -7.371009947      3.943      9.342
REMARK  5 active torsions:
REMARK  status: ('A' for Active; 'I' for Inactive)
REMARK    1  A    between atoms: C1_2  and  C2_3 
REMARK       I    between atoms: C1_2  and  N1_12 
REMARK    2  A    between atoms: C2_3  and  C3_4 
REMARK    3  A    between atoms: N1_12  and  C9_14 
REMARK    4  A    between atoms: C9_14  and  C10_15 
REMARK       I    between atoms: C10_15  and  N2_17 
REMARK    5  A    between atoms: N3_20  and  C13_21 
ROOT
HETATM    1  C9  UNL     1      48.729  51.658  36.838  1.00  0.00     0.225 C 
ENDROOT
BRANCH   1   2
HETATM    2  N1  UNL     1      49.781  50.696  36.721  1.00  0.00    -0.352 N 
HETATM    3  C1  UNL     1      50.969  50.859  35.956  1.00  0.00     0.218 C 
HETATM    4  O1  UNL     1      51.107  51.957  35.329  1.00  0.00    -0.274 OA
ATOM      5  H1  UNL     1      49.670  49.818  37.229  1.00  0.00     0.162 HD
BRANCH   3   6
HETATM    6  C2  UNL     1      52.015  49.829  35.868  1.00  0.00     0.107 C 
BRANCH   6   7
HETATM    7  C3  UNL     1      53.290  50.394  35.267  1.00  0.00    -0.005 C 
HETATM    8  C4  UNL     1      54.400  50.475  36.250  1.00  0.00     0.011 C 
HETATM    9  C5  UNL     1      55.674  49.976  35.603  1.00  0.00     0.079 C 
HETATM   10  C6  UNL     1      55.424  48.509  35.246  1.00  0.00     0.243 C 
HETATM   11  F1  UNL     1      54.925  47.909  36.385  1.00  0.00    -0.206 F 
HETATM   12  F2  UNL     1      56.589  47.866  34.899  1.00  0.00    -0.206 F 
HETATM   13  C7  UNL     1      54.358  48.402  34.177  1.00  0.00     0.079 C 
HETATM   14  C8  UNL     1      53.634  49.705  33.970  1.00  0.00     0.011 C 
ENDBRANCH   6   7
ENDBRANCH   3   6
ENDBRANCH   1   2
BRANCH   1  15
HETATM   15  C10 UNL     1      47.396  51.187  36.429  1.00  0.00     0.237 C 
HETATM   16  O2  UNL     1      46.580  50.833  37.317  1.00  0.00    -0.272 OA
HETATM   17  N2  UNL     1      47.016  51.127  35.063  1.00  0.00    -0.347 N 
HETATM   18  C11 UNL     1      45.715  50.668  34.655  1.00  0.00     0.156 C 
HETATM   19  C20 UNL     1      47.920  51.528  34.004  1.00  0.00     0.156 C 
HETATM   20  C12 UNL     1      45.711  50.113  33.258  1.00  0.00     0.292 C 
HETATM   21  N3  UNL     1      46.325  50.983  32.278  1.00  0.00     0.096 N 
HETATM   22  C19 UNL     1      47.018  52.072  32.887  1.00  0.00     0.292 C 
BRANCH  21  23
HETATM   23  C13 UNL     1      45.327  51.373  31.336  1.00  0.00     0.223 C 
HETATM   24  C14 UNL     1      45.862  51.577  29.941  1.00  0.00     0.036 C 
HETATM   25  C15 UNL     1      46.382  50.281  29.407  1.00  0.00     0.002 C 
HETATM   26  C16 UNL     1      45.158  49.419  29.070  1.00  0.00     0.000 C 
HETATM   27  C17 UNL     1      43.966  49.881  29.841  1.00  0.00     0.002 C 
HETATM   28  C18 UNL     1      44.289  50.279  31.266  1.00  0.00     0.036 C 
ENDBRANCH  21  23
ENDBRANCH   1  15
TORSDOF 5
ENDMDL
MODEL 4
REMARK VINA RESULT: -7.358574828      4.958     10.349
REMARK  5 active torsions:
REMARK  status: ('A' for Active; 'I' for Inactive)
REMARK    1  A    between atoms: C1_2  and  C2_3 
REMARK       I    between atoms: C1_2  and  N1_12 
REMARK    2  A    between atoms: C2_3  and  C3_4 
REMARK    3  A    between atoms: N1_12  and  C9_14 
REMARK    4  A    between atoms: C9_14  and  C10_15 
REMARK       I    between atoms: C10_15  and  N2_17 
REMARK    5  A    between atoms: N3_20  and  C13_21 
ROOT
HETATM    1  C9  UNL     1      51.883  50.674  35.103  1.00  0.00     0.225 C 
ENDROOT
BRANCH   1   2
HETATM    2  N1  UNL     1      53.022  50.013  35.658  1.00  0.00    -0.352 N 
HETATM    3  C1  UNL     1      53.694  48.899  35.082  1.00  0.00     0.218 C 
HETATM    4  O1  UNL     1      53.243  48.460  33.977  1.00  0.00    -0.274 OA
ATOM      5  H1  UNL     1      53.385  50.370  36.542  1.00  0.00     0.162 HD
BRANCH   3   6
HETATM    6  C2  UNL     1      54.861  48.256  35.704  1.00  0.00     0.107 C 
BRANCH   6   7
HETATM    7  C3  UNL     1      55.456  47.199  34.789  1.00  0.00    -0.005 C 
HETATM    8  C4  UNL     1      56.754  47.616  34.202  1.00  0.00     0.011 C 
HETATM    9  C5  UNL     1      57.728  46.459  34.277  1.00  0.00     0.079 C 
HETATM   10  C6  UNL     1      57.921  46.162  35.767  1.00  0.00     0.243 C 
HETATM   11  F1  UNL     1      58.206  47.370  36.372  1.00  0.00    -0.206 F 
HETATM   12  F2  UNL     1      58.983  45.315  35.981  1.00  0.00    -0.206 F 
HETATM   13  C7  UNL     1      56.633  45.647  36.372  1.00  0.00     0.079 C 
HETATM   14  C8  UNL     1      55.459  45.844  35.451  1.00  0.00     0.011 C 
ENDBRANCH   6   7
ENDBRANCH   3   6
ENDBRANCH   1   2
BRANCH   1  15
HETATM   15  C10 UNL     1      50.581  50.240  35.636  1.00  0.00     0.237 C 
HETATM   16  O2  UNL     1      50.548  49.651  36.746  1.00  0.00    -0.272 OA
HETATM   17  N2  UNL     1      49.373  50.472  34.929  1.00  0.00    -0.347 N 
HETATM   18  C11 UNL     1      48.097  50.051  35.444  1.00  0.00     0.156 C 
HETATM   19  C20 UNL     1      49.360  51.150  33.649  1.00  0.00     0.156 C 
HETATM   20  C12 UNL     1      47.082  49.829  34.358  1.00  0.00     0.292 C 
HETATM   21  N3  UNL     1      46.968  50.931  33.426  1.00  0.00     0.096 N 
HETATM   22  C19 UNL     1      48.014  51.886  33.594  1.00  0.00     0.292 C 
BRANCH  21  23
HETATM   23  C13 UNL     1      45.652  51.472  33.529  1.00  0.00     0.223 C 
HETATM   24  C14 UNL     1      45.205  52.211  32.293  1.00  0.00     0.036 C 
HETATM   25  C15 UNL     1      45.120  51.260  31.142  1.00  0.00     0.002 C 
HETATM   26  C16 UNL     1      43.870  50.400  31.370  1.00  0.00     0.000 C 
HETATM   27  C17 UNL     1      43.494  50.400  32.816  1.00  0.00     0.002 C 
HETATM   28  C18 UNL     1      44.686  50.332  33.747  1.00  0.00     0.036 C 
ENDBRANCH  21  23
ENDBRANCH   1  15
TORSDOF 5
ENDMDL
MODEL 5
REMARK VINA RESULT: -7.329874599      1.382      1.745
REMARK  5 active torsions:
REMARK  status: ('A' for Active; 'I' for Inactive)
REMARK    1  A    between atoms: C1_2  and  C2_3 
REMARK       I    between atoms: C1_2  and  N1_12 
REMARK    2  A    between atoms: C2_3  and  C3_4 
REMARK    3  A    between atoms: N1_12  and  C9_14 
REMARK    4  A    between atoms: C9_14  and  C10_15 
REMARK       I    between atoms: C10_15  and  N2_17 
REMARK    5  A    between atoms: N3_20  and  C13_21 
ROOT
HETATM    1  C9  UNL     1      49.404  51.211  35.307  1.00  0.00     0.225 C 
ENDROOT
BRANCH   1   2
HETATM    2  N1  UNL     1      48.848  50.656  34.112  1.00  0.00    -0.352 N 
HETATM    3  C1  UNL     1      48.004  51.343  33.196  1.00  0.00     0.218 C 
HETATM    4  O1  UNL     1      47.727  52.555  33.462  1.00  0.00    -0.274 OA
ATOM      5  H1  UNL     1      49.077  49.685  33.898  1.00  0.00     0.162 HD
BRANCH   3   6
HETATM    6  C2  UNL     1      47.457  50.716  31.983  1.00  0.00     0.107 C 
BRANCH   6   7
HETATM    7  C3  UNL     1      46.415  49.667  32.331  1.00  0.00    -0.005 C 
HETATM    8  C4  UNL     1      45.787  49.901  33.656  1.00  0.00     0.011 C 
HETATM    9  C5  UNL     1      44.292  49.697  33.540  1.00  0.00     0.079 C 
HETATM   10  C6  UNL     1      43.793  50.756  32.553  1.00  0.00     0.243 C 
HETATM   11  F1  UNL     1      44.314  51.962  32.978  1.00  0.00    -0.206 F 
HETATM   12  F2  UNL     1      42.422  50.854  32.565  1.00  0.00    -0.206 F 
HETATM   13  C7  UNL     1      44.347  50.488  31.170  1.00  0.00     0.079 C 
HETATM   14  C8  UNL     1      45.447  49.462  31.192  1.00  0.00     0.011 C 
ENDBRANCH   6   7
ENDBRANCH   3   6
ENDBRANCH   1   2
BRANCH   1  15
HETATM   15  C10 UNL     1      50.573  50.500  35.847  1.00  0.00     0.237 C 
HETATM   16  O2  UNL     1      50.386  49.536  36.632  1.00  0.00    -0.272 OA
HETATM   17  N2  UNL     1      51.897  50.875  35.502  1.00  0.00    -0.347 N 
HETATM   18  C11 UNL     1      53.045  50.185  36.027  1.00  0.00     0.156 C 
HETATM   19  C20 UNL     1      52.164  51.977  34.599  1.00  0.00     0.156 C 
HETATM   20  C12 UNL     1      54.275  51.050  36.055  1.00  0.00     0.292 C 
HETATM   21  N3  UNL     1      54.553  51.717  34.802  1.00  0.00     0.096 N 
HETATM   22  C19 UNL     1      53.469  51.605  33.882  1.00  0.00     0.292 C 
BRANCH  21  23
HETATM   23  C13 UNL     1      55.801  51.236  34.305  1.00  0.00     0.223 C 
HETATM   24  C14 UNL     1      56.580  52.269  33.529  1.00  0.00     0.036 C 
HETATM   25  C15 UNL     1      56.957  53.398  34.434  1.00  0.00     0.002 C 
HETATM   26  C16 UNL     1      58.084  52.881  35.339  1.00  0.00     0.000 C 
HETATM   27  C17 UNL     1      58.052  51.390  35.410  1.00  0.00     0.002 C 
HETATM   28  C18 UNL     1      56.651  50.820  35.481  1.00  0.00     0.036 C 
ENDBRANCH  21  23
ENDBRANCH   1  15
TORSDOF 5
ENDMDL
