MODEL 1
REMARK VINA RESULT: -8.034658662      0.000      0.000
REMARK  6 active torsions:
REMARK  status: ('A' for Active; 'I' for Inactive)
REMARK    1  A    between atoms: C1_2  and  C2_4 
REMARK    2  A    between atoms: C2_4  and  C19_25 
REMARK    3  A    between atoms: C3_5  and  C4_6 
REMARK       I    between atoms: C4_6  and  N1_8 
REMARK    4  A    between atoms: C6_10  and  C7_11 
REMARK    5  A    between atoms: C7_11  and  C8_12 
REMARK    6  A    between atoms: C8_12  and  C9_13 
REMARK       I    between atoms: C9_13  and  N2_15 
ROOT
HETATM    1  C4  UNL     1      46.255  50.947  36.316  1.00  0.00     0.244 C 
HETATM    2  O3  UNL     1      45.833  52.133  36.501  1.00  0.00    -0.268 OA
HETATM    3  N1  UNL     1      46.189  50.549  34.941  1.00  0.00    -0.343 N 
HETATM    4  C5  UNL     1      45.712  51.335  33.859  1.00  0.00     0.131 C 
HETATM    5  C6  UNL     1      45.483  50.463  32.674  1.00  0.00     0.010 C 
HETATM    6  C14 UNL     1      46.007  49.123  33.070  1.00  0.00     0.014 C 
HETATM    7  C15 UNL     1      47.117  48.636  32.181  1.00  0.00     0.007 C 
HETATM    8  C16 UNL     1      48.120  48.076  33.157  1.00  0.00     0.002 C 
HETATM    9  C17 UNL     1      48.119  49.174  34.234  1.00  0.00     0.026 C 
HETATM   10  C18 UNL     1      46.602  49.270  34.454  1.00  0.00     0.092 C 
ENDROOT
BRANCH   1  11
HETATM   11  C3  UNL     1      46.746  50.081  37.333  1.00  0.00     0.094 C 
HETATM   12  C2  UNL     1      47.780  50.137  38.063  1.00  0.00     0.087 C 
BRANCH  12  13
HETATM   13  C1  UNL     1      48.836  51.102  38.130  1.00  0.00     0.210 C 
HETATM   14  O1  UNL     1      48.988  51.931  39.048  1.00  0.00    -0.644 OA
HETATM   15  O2  UNL     1      49.811  51.155  37.083  1.00  0.00    -0.644 OA
ENDBRANCH  12  13
BRANCH  12  16
HETATM   16  C19 UNL     1      47.954  48.970  39.066  1.00  0.00     0.393 C 
HETATM   17  F1  UNL     1      47.177  49.290  40.142  1.00  0.00    -0.209 F 
HETATM   18  F2  UNL     1      47.474  47.807  38.507  1.00  0.00    -0.209 F 
ENDBRANCH  12  16
ENDBRANCH   1  11
BRANCH   5  19
HETATM   19  C7  UNL     1      44.015  50.404  32.255  1.00  0.00     0.016 C 
BRANCH  19  20
HETATM   20  C8  UNL     1      43.887  50.302  30.757  1.00  0.00     0.103 C 
BRANCH  20  21
HETATM   21  C9  UNL     1      44.494  51.506  30.094  1.00  0.00     0.219 C 
HETATM   22  O4  UNL     1      44.020  52.648  30.318  1.00  0.00    -0.273 OA
HETATM   23  N2  UNL     1      45.594  51.405  29.214  1.00  0.00    -0.352 N 
HETATM   24  C10 UNL     1      46.225  50.137  28.882  1.00  0.00     0.126 A 
HETATM   25  C13 UNL     1      46.232  52.488  28.542  1.00  0.00     0.126 A 
HETATM   26  C11 UNL     1      47.361  50.446  27.962  1.00  0.00     0.021 A 
HETATM   27  C12 UNL     1      47.368  51.939  27.743  1.00  0.00     0.021 A 
ENDBRANCH  20  21
ENDBRANCH  19  20
ENDBRANCH   5  19
TORSDOF 6
ENDMDL
MODEL 2
REMARK VINA RESULT: -7.812146128      3.629      7.582
REMARK  6 active torsions:
REMARK  status: ('A' for Active; 'I' for Inactive)
REMARK    1  A    between atoms: C1_2  and  C2_4 
REMARK    2  A    between atoms: C2_4  and  C19_25 
REMARK    3  A    between atoms: C3_5  and  C4_6 
REMARK       I    between atoms: C4_6  and  N1_8 
REMARK    4  A    between atoms: C6_10  and  C7_11 
REMARK    5  A    between atoms: C7_11  and  C8_12 
REMARK    6  A    between atoms: C8_12  and  C9_13 
REMARK       I    between atoms: C9_13  and  N2_15 
ROOT
HETATM    1  C4  UNL     1      48.691  48.300  32.826  1.00  0.00     0.244 C 
HETATM    2  O3  UNL     1      49.782  48.624  33.397  1.00  0.00    -0.268 OA
HETATM    3  N1  UNL     1      47.637  49.235  33.088  1.00  0.00    -0.343 N 
HETATM    4  C5  UNL     1      47.727  50.404  33.887  1.00  0.00     0.131 C 
HETATM    5  C6  UNL     1      46.359  50.906  34.191  1.00  0.00     0.010 C 
HETATM    6  C14 UNL     1      45.442  50.047  33.386  1.00  0.00     0.014 C 
HETATM    7  C15 UNL     1      44.615  50.826  32.402  1.00  0.00     0.007 C 
HETATM    8  C16 UNL     1      44.687  49.988  31.151  1.00  0.00     0.002 C 
HETATM    9  C17 UNL     1      46.182  49.630  31.127  1.00  0.00     0.026 C 
HETATM   10  C18 UNL     1      46.310  49.114  32.569  1.00  0.00     0.092 C 
ENDROOT
BRANCH   1  11
HETATM   11  C3  UNL     1      48.499  47.149  32.012  1.00  0.00     0.094 C 
HETATM   12  C2  UNL     1      47.954  46.030  32.248  1.00  0.00     0.087 C 
BRANCH  12  13
HETATM   13  C1  UNL     1      47.326  45.517  33.428  1.00  0.00     0.210 C 
HETATM   14  O1  UNL     1      46.885  46.214  34.362  1.00  0.00    -0.644 OA
HETATM   15  O2  UNL     1      47.174  44.102  33.589  1.00  0.00    -0.644 OA
ENDBRANCH  12  13
BRANCH  12  16
HETATM   16  C19 UNL     1      47.952  45.026  31.068  1.00  0.00     0.393 C 
HETATM   17  F1  UNL     1      47.770  45.778  29.944  1.00  0.00    -0.209 F 
HETATM   18  F2  UNL     1      49.179  44.406  30.990  1.00  0.00    -0.209 F 
ENDBRANCH  12  16
ENDBRANCH   1  11
BRANCH   5  19
HETATM   19  C7  UNL     1      46.026  50.859  35.682  1.00  0.00     0.016 C 
BRANCH  19  20
HETATM   20  C8  UNL     1      46.898  49.858  36.395  1.00  0.00     0.103 C 
BRANCH  20  21
HETATM   21  C9  UNL     1      47.648  50.519  37.518  1.00  0.00     0.219 C 
HETATM   22  O4  UNL     1      48.205  51.630  37.327  1.00  0.00    -0.273 OA
HETATM   23  N2  UNL     1      47.755  49.934  38.798  1.00  0.00    -0.352 N 
HETATM   24  C10 UNL     1      47.151  48.654  39.133  1.00  0.00     0.126 A 
HETATM   25  C13 UNL     1      48.444  50.487  39.917  1.00  0.00     0.126 A 
HETATM   26  C11 UNL     1      47.452  48.397  40.574  1.00  0.00     0.021 A 
HETATM   27  C12 UNL     1      48.274  49.560  41.076  1.00  0.00     0.021 A 
ENDBRANCH  20  21
ENDBRANCH  19  20
ENDBRANCH   5  19
TORSDOF 6
ENDMDL
MODEL 3
REMARK VINA RESULT: -7.650709840      3.563      7.990
REMARK  6 active torsions:
REMARK  status: ('A' for Active; 'I' for Inactive)
REMARK    1  A    between atoms: C1_2  and  C2_4 
REMARK    2  A    between atoms: C2_4  and  C19_25 
REMARK    3  A    between atoms: C3_5  and  C4_6 
REMARK       I    between atoms: C4_6  and  N1_8 
REMARK    4  A    between atoms: C6_10  and  C7_11 
REMARK    5  A    between atoms: C7_11  and  C8_12 
REMARK    6  A    between atoms: C8_12  and  C9_13 
REMARK       I    between atoms: C9_13  and  N2_15 
ROOT
HETATM    1  C4  UNL     1      44.582  51.554  31.758  1.00  0.00     0.244 C 
HETATM    2  O3  UNL     1      43.504  52.005  32.262  1.00  0.00    -0.268 OA
HETATM    3  N1  UNL     1      45.304  50.715  32.668  1.00  0.00    -0.343 N 
HETATM    4  C5  UNL     1      44.921  50.386  33.994  1.00  0.00     0.131 C 
HETATM    5  C6  UNL     1      46.080  49.789  34.714  1.00  0.00     0.010 C 
HETATM    6  C14 UNL     1      47.143  49.636  33.678  1.00  0.00     0.014 C 
HETATM    7  C15 UNL     1      47.584  48.211  33.489  1.00  0.00     0.007 C 
HETATM    8  C16 UNL     1      47.666  48.071  31.991  1.00  0.00     0.002 C 
HETATM    9  C17 UNL     1      46.367  48.774  31.562  1.00  0.00     0.026 C 
HETATM   10  C18 UNL     1      46.545  50.076  32.359  1.00  0.00     0.092 C 
ENDROOT
BRANCH   1  11
HETATM   11  C3  UNL     1      45.054  51.830  30.444  1.00  0.00     0.094 C 
HETATM   12  C2  UNL     1      45.726  52.796  29.974  1.00  0.00     0.087 C 
BRANCH  12  13
HETATM   13  C1  UNL     1      46.260  53.967  30.601  1.00  0.00     0.210 C 
HETATM   14  O1  UNL     1      45.991  55.138  30.270  1.00  0.00    -0.644 OA
HETATM   15  O2  UNL     1      47.174  53.828  31.694  1.00  0.00    -0.644 OA
ENDBRANCH  12  13
BRANCH  12  16
HETATM   16  C19 UNL     1      46.038  52.717  28.459  1.00  0.00     0.393 C 
HETATM   17  F1  UNL     1      47.228  52.055  28.361  1.00  0.00    -0.209 F 
HETATM   18  F2  UNL     1      45.067  51.974  27.827  1.00  0.00    -0.209 F 
ENDBRANCH  12  16
ENDBRANCH   1  11
BRANCH   5  19
HETATM   19  C7  UNL     1      46.548  50.640  35.894  1.00  0.00     0.016 C 
BRANCH  19  20
HETATM   20  C8  UNL     1      48.001  50.381  36.200  1.00  0.00     0.103 C 
BRANCH  20  21
HETATM   21  C9  UNL     1      48.325  50.798  37.608  1.00  0.00     0.219 C 
HETATM   22  O4  UNL     1      48.913  51.889  37.816  1.00  0.00    -0.273 OA
HETATM   23  N2  UNL     1      47.989  50.001  38.724  1.00  0.00    -0.352 N 
HETATM   24  C10 UNL     1      47.307  48.722  38.603  1.00  0.00     0.126 A 
HETATM   25  C13 UNL     1      48.256  50.316  40.088  1.00  0.00     0.126 A 
HETATM   26  C11 UNL     1      47.100  48.209  39.992  1.00  0.00     0.021 A 
HETATM   27  C12 UNL     1      47.703  49.219  40.938  1.00  0.00     0.021 A 
ENDBRANCH  20  21
ENDBRANCH  19  20
ENDBRANCH   5  19
TORSDOF 6
ENDMDL
MODEL 4
REMARK VINA RESULT: -7.643851410      3.417      7.878
REMARK  6 active torsions:
REMARK  status: ('A' for Active; 'I' for Inactive)
REMARK    1  A    between atoms: C1_2  and  C2_4 
REMARK    2  A    between atoms: C2_4  and  C19_25 
REMARK    3  A    between atoms: C3_5  and  C4_6 
REMARK       I    between atoms: C4_6  and  N1_8 
REMARK    4  A    between atoms: C6_10  and  C7_11 
REMARK    5  A    between atoms: C7_11  and  C8_12 
REMARK    6  A    between atoms: C8_12  and  C9_13 
REMARK       I    between atoms: C9_13  and  N2_15 
ROOT
HETATM    1  C4  UNL     1      45.578  49.634  33.063  1.00  0.00     0.244 C 
HETATM    2  O3  UNL     1      44.716  49.738  33.994  1.00  0.00    -0.268 OA
HETATM    3  N1  UNL     1      46.922  49.608  33.560  1.00  0.00    -0.343 N 
HETATM    4  C5  UNL     1      47.318  49.692  34.920  1.00  0.00     0.131 C 
HETATM    5  C6  UNL     1      48.778  49.978  34.997  1.00  0.00     0.010 C 
HETATM    6  C14 UNL     1      49.262  49.903  33.587  1.00  0.00     0.014 C 
HETATM    7  C15 UNL     1      50.318  48.852  33.380  1.00  0.00     0.007 C 
HETATM    8  C16 UNL     1      49.898  48.191  32.093  1.00  0.00     0.002 C 
HETATM    9  C17 UNL     1      48.385  48.046  32.321  1.00  0.00     0.026 C 
HETATM   10  C18 UNL     1      48.082  49.495  32.732  1.00  0.00     0.092 C 
ENDROOT
BRANCH   1  11
HETATM   11  C3  UNL     1      45.281  49.549  31.674  1.00  0.00     0.094 C 
HETATM   12  C2  UNL     1      44.742  50.371  30.875  1.00  0.00     0.087 C 
BRANCH  12  13
HETATM   13  C1  UNL     1      44.233  51.693  31.083  1.00  0.00     0.210 C 
HETATM   14  O1  UNL     1      43.336  51.993  31.895  1.00  0.00    -0.644 OA
HETATM   15  O2  UNL     1      44.765  52.782  30.321  1.00  0.00    -0.644 OA
ENDBRANCH  12  13
BRANCH  12  16
HETATM   16  C19 UNL     1      44.597  49.883  29.412  1.00  0.00     0.393 C 
HETATM   17  F1  UNL     1      45.212  48.665  29.367  1.00  0.00    -0.209 F 
HETATM   18  F2  UNL     1      43.264  49.715  29.112  1.00  0.00    -0.209 F 
ENDBRANCH  12  16
ENDBRANCH   1  11
BRANCH   5  19
HETATM   19  C7  UNL     1      49.085  51.331  35.637  1.00  0.00     0.016 C 
BRANCH  19  20
HETATM   20  C8  UNL     1      48.035  51.695  36.655  1.00  0.00     0.103 C 
BRANCH  20  21
HETATM   21  C9  UNL     1      48.565  51.506  38.048  1.00  0.00     0.219 C 
HETATM   22  O4  UNL     1      49.433  52.296  38.498  1.00  0.00    -0.273 OA
HETATM   23  N2  UNL     1      48.122  50.461  38.887  1.00  0.00    -0.352 N 
HETATM   24  C10 UNL     1      47.121  49.489  38.474  1.00  0.00     0.126 A 
HETATM   25  C13 UNL     1      48.568  50.206  40.217  1.00  0.00     0.126 A 
HETATM   26  C11 UNL     1      46.896  48.577  39.637  1.00  0.00     0.021 A 
HETATM   27  C12 UNL     1      47.815  49.030  40.746  1.00  0.00     0.021 A 
ENDBRANCH  20  21
ENDBRANCH  19  20
ENDBRANCH   5  19
TORSDOF 6
ENDMDL
MODEL 5
REMARK VINA RESULT: -7.636688124      3.556      7.665
REMARK  6 active torsions:
REMARK  status: ('A' for Active; 'I' for Inactive)
REMARK    1  A    between atoms: C1_2  and  C2_4 
REMARK    2  A    between atoms: C2_4  and  C19_25 
REMARK    3  A    between atoms: C3_5  and  C4_6 
REMARK       I    between atoms: C4_6  and  N1_8 
REMARK    4  A    between atoms: C6_10  and  C7_11 
REMARK    5  A    between atoms: C7_11  and  C8_12 
REMARK    6  A    between atoms: C8_12  and  C9_13 
REMARK       I    between atoms: C9_13  and  N2_15 
ROOT
HETATM    1  C4  UNL     1      48.348  48.361  33.107  1.00  0.00     0.244 C 
HETATM    2  O3  UNL     1      49.503  48.701  33.521  1.00  0.00    -0.268 OA
HETATM    3  N1  UNL     1      47.355  49.361  33.369  1.00  0.00    -0.343 N 
HETATM    4  C5  UNL     1      47.565  50.607  34.016  1.00  0.00     0.131 C 
HETATM    5  C6  UNL     1      46.252  51.195  34.401  1.00  0.00     0.010 C 
HETATM    6  C14 UNL     1      45.229  50.290  33.799  1.00  0.00     0.014 C 
HETATM    7  C15 UNL     1      44.323  50.989  32.823  1.00  0.00     0.007 C 
HETATM    8  C16 UNL     1      44.236  50.015  31.676  1.00  0.00     0.002 C 
HETATM    9  C17 UNL     1      45.708  49.597  31.538  1.00  0.00     0.026 C 
HETATM   10  C18 UNL     1      45.977  49.238  33.008  1.00  0.00     0.092 C 
ENDROOT
BRANCH   1  11
HETATM   11  C3  UNL     1      48.036  47.136  32.455  1.00  0.00     0.094 C 
HETATM   12  C2  UNL     1      48.754  46.320  31.802  1.00  0.00     0.087 C 
BRANCH  12  13
HETATM   13  C1  UNL     1      50.150  46.338  31.486  1.00  0.00     0.210 C 
HETATM   14  O1  UNL     1      51.057  45.929  32.237  1.00  0.00    -0.644 OA
HETATM   15  O2  UNL     1      50.581  46.855  30.223  1.00  0.00    -0.644 OA
ENDBRANCH  12  13
BRANCH  12  16
HETATM   16  C19 UNL     1      48.014  45.081  31.240  1.00  0.00     0.393 C 
HETATM   17  F1  UNL     1      48.981  44.295  30.684  1.00  0.00    -0.209 F 
HETATM   18  F2  UNL     1      47.424  44.389  32.274  1.00  0.00    -0.209 F 
ENDBRANCH  12  16
ENDBRANCH   1  11
BRANCH   5  19
HETATM   19  C7  UNL     1      46.081  51.326  35.914  1.00  0.00     0.016 C 
BRANCH  19  20
HETATM   20  C8  UNL     1      46.725  50.167  36.630  1.00  0.00     0.103 C 
BRANCH  20  21
HETATM   21  C9  UNL     1      47.632  50.661  37.722  1.00  0.00     0.219 C 
HETATM   22  O4  UNL     1      48.320  51.697  37.540  1.00  0.00    -0.273 OA
HETATM   23  N2  UNL     1      47.745  49.998  38.963  1.00  0.00    -0.352 N 
HETATM   24  C10 UNL     1      46.998  48.792  39.284  1.00  0.00     0.126 A 
HETATM   25  C13 UNL     1      48.578  50.393  40.051  1.00  0.00     0.126 A 
HETATM   26  C11 UNL     1      47.359  48.419  40.686  1.00  0.00     0.021 A 
HETATM   27  C12 UNL     1      48.363  49.434  41.176  1.00  0.00     0.021 A 
ENDBRANCH  20  21
ENDBRANCH  19  20
ENDBRANCH   5  19
TORSDOF 6
ENDMDL
