MODEL 1
REMARK VINA RESULT: -7.397662958      0.000      0.000
REMARK  6 active torsions:
REMARK  status: ('A' for Active; 'I' for Inactive)
REMARK       I    between atoms: N1_2  and  C2_4 
REMARK    1  A    between atoms: C2_4  and  C3_6 
REMARK    2  A    between atoms: N2_9  and  S1_10 
REMARK    3  A    between atoms: S1_10  and  C6_13 
REMARK    4  A    between atoms: C6_13  and  C7_14 
REMARK    5  A    between atoms: C7_14  and  C8_15 
REMARK    6  A    between atoms: C15_22  and  C16_23 
ROOT
HETATM    1  C3  UNL     1      54.316  48.411  35.635  1.00  0.00     0.090 C 
HETATM    2  C4  UNL     1      53.391  48.372  34.417  1.00  0.00     0.030 C 
HETATM    3  C5  UNL     1      52.287  49.389  34.517  1.00  0.00     0.108 C 
HETATM    4  N2  UNL     1      52.379  50.179  35.731  1.00  0.00    -0.210 NA
HETATM    5  C14 UNL     1      53.685  50.818  35.707  1.00  0.00     0.118 C 
HETATM    6  C15 UNL     1      54.758  49.760  35.987  1.00  0.00     0.085 C 
ENDROOT
BRANCH   4   7
HETATM    7  S1  UNL     1      51.150  51.396  35.662  1.00  0.00     0.211 S 
HETATM    8  O2  UNL     1      50.605  51.632  37.042  1.00  0.00    -0.211 OA
HETATM    9  O3  UNL     1      51.830  52.637  35.124  1.00  0.00    -0.211 OA
BRANCH   7  10
HETATM   10  C6  UNL     1      49.832  50.948  34.605  1.00  0.00     0.158 C 
BRANCH  10  11
HETATM   11  C7  UNL     1      48.469  51.374  35.061  1.00  0.00     0.021 C 
BRANCH  11  12
HETATM   12  C8  UNL     1      47.489  50.283  35.304  1.00  0.00    -0.014 C 
HETATM   13  C9  UNL     1      47.522  49.395  34.043  1.00  0.00     0.005 C 
HETATM   14  C10 UNL     1      46.283  48.564  33.965  1.00  0.00     0.000 C 
HETATM   15  C11 UNL     1      45.114  49.479  33.621  1.00  0.00     0.000 C 
HETATM   16  C12 UNL     1      45.465  50.898  34.044  1.00  0.00     0.000 C 
HETATM   17  C13 UNL     1      46.080  50.812  35.434  1.00  0.00     0.005 C 
ENDBRANCH  11  12
ENDBRANCH  10  11
ENDBRANCH   7  10
ENDBRANCH   4   7
BRANCH   6  18
HETATM   18  C16 UNL     1      56.029  50.311  35.476  1.00  0.00     0.245 C 
HETATM   19  C17 UNL     1      56.346  51.732  35.774  1.00  0.00     0.090 C 
HETATM   20  F1  UNL     1      56.039  50.197  34.065  1.00  0.00    -0.206 F 
HETATM   21  F2  UNL     1      57.132  49.518  35.846  1.00  0.00    -0.206 F 
ENDBRANCH   6  18
BRANCH   1  22
HETATM   22  C2  UNL     1      55.276  47.335  35.458  1.00  0.00     0.222 C 
HETATM   23  N1  UNL     1      55.806  46.496  36.476  1.00  0.00    -0.365 N 
HETATM   24  C1  UNL     1      56.770  45.440  36.188  1.00  0.00     0.149 C 
ATOM     25  H1  UNL     1      55.503  46.638  37.440  1.00  0.00     0.161 HD
HETATM   26  O1  UNL     1      55.704  47.100  34.274  1.00  0.00    -0.273 OA
ENDBRANCH   1  22
TORSDOF 6
ENDMDL
MODEL 2
REMARK VINA RESULT: -7.314186967      6.274      8.903
REMARK  6 active torsions:
REMARK  status: ('A' for Active; 'I' for Inactive)
REMARK       I    between atoms: N1_2  and  C2_4 
REMARK    1  A    between atoms: C2_4  and  C3_6 
REMARK    2  A    between atoms: N2_9  and  S1_10 
REMARK    3  A    between atoms: S1_10  and  C6_13 
REMARK    4  A    between atoms: C6_13  and  C7_14 
REMARK    5  A    between atoms: C7_14  and  C8_15 
REMARK    6  A    between atoms: C15_22  and  C16_23 
ROOT
HETATM    1  C3  UNL     1      46.988  53.274  31.694  1.00  0.00     0.090 C 
HETATM    2  C4  UNL     1      48.262  52.441  31.544  1.00  0.00     0.030 C 
HETATM    3  C5  UNL     1      48.658  51.782  32.838  1.00  0.00     0.108 C 
HETATM    4  N2  UNL     1      47.724  52.074  33.909  1.00  0.00    -0.210 NA
HETATM    5  C14 UNL     1      46.422  51.610  33.456  1.00  0.00     0.118 C 
HETATM    6  C15 UNL     1      45.906  52.566  32.375  1.00  0.00     0.085 C 
ENDROOT
BRANCH   4   7
HETATM    7  S1  UNL     1      48.205  51.154  35.293  1.00  0.00     0.211 S 
HETATM    8  O2  UNL     1      49.335  50.238  34.914  1.00  0.00    -0.211 OA
HETATM    9  O3  UNL     1      48.648  52.166  36.328  1.00  0.00    -0.211 OA
BRANCH   7  10
HETATM   10  C6  UNL     1      46.896  50.193  35.939  1.00  0.00     0.158 C 
BRANCH  10  11
HETATM   11  C7  UNL     1      46.693  50.295  37.420  1.00  0.00     0.021 C 
BRANCH  11  12
HETATM   12  C8  UNL     1      47.298  49.212  38.239  1.00  0.00    -0.014 C 
HETATM   13  C9  UNL     1      46.420  49.095  39.502  1.00  0.00     0.005 C 
HETATM   14  C10 UNL     1      47.169  48.394  40.589  1.00  0.00     0.000 C 
HETATM   15  C11 UNL     1      48.256  49.330  41.102  1.00  0.00     0.000 C 
HETATM   16  C12 UNL     1      48.582  50.340  40.011  1.00  0.00     0.000 C 
HETATM   17  C13 UNL     1      48.691  49.569  38.703  1.00  0.00     0.005 C 
ENDBRANCH  11  12
ENDBRANCH  10  11
ENDBRANCH   7  10
ENDBRANCH   4   7
BRANCH   6  18
HETATM   18  C16 UNL     1      44.878  51.821  31.619  1.00  0.00     0.245 C 
HETATM   19  C17 UNL     1      44.025  50.855  32.359  1.00  0.00     0.090 C 
HETATM   20  F1  UNL     1      45.517  51.074  30.599  1.00  0.00    -0.206 F 
HETATM   21  F2  UNL     1      44.044  52.681  30.879  1.00  0.00    -0.206 F 
ENDBRANCH   6  18
BRANCH   1  22
HETATM   22  C2  UNL     1      46.765  53.920  30.412  1.00  0.00     0.222 C 
HETATM   23  N1  UNL     1      47.295  53.516  29.156  1.00  0.00    -0.365 N 
HETATM   24  C1  UNL     1      47.005  54.239  27.922  1.00  0.00     0.149 C 
ATOM     25  H1  UNL     1      47.898  52.695  29.116  1.00  0.00     0.161 HD
HETATM   26  O1  UNL     1      46.018  54.960  30.384  1.00  0.00    -0.273 OA
ENDBRANCH   1  22
TORSDOF 6
ENDMDL
MODEL 3
REMARK VINA RESULT: -7.251524721      6.464      9.178
REMARK  6 active torsions:
REMARK  status: ('A' for Active; 'I' for Inactive)
REMARK       I    between atoms: N1_2  and  C2_4 
REMARK    1  A    between atoms: C2_4  and  C3_6 
REMARK    2  A    between atoms: N2_9  and  S1_10 
REMARK    3  A    between atoms: S1_10  and  C6_13 
REMARK    4  A    between atoms: C6_13  and  C7_14 
REMARK    5  A    between atoms: C7_14  and  C8_15 
REMARK    6  A    between atoms: C15_22  and  C16_23 
ROOT
HETATM    1  C3  UNL     1      45.762  52.057  31.912  1.00  0.00     0.090 C 
HETATM    2  C4  UNL     1      47.135  51.390  31.813  1.00  0.00     0.030 C 
HETATM    3  C5  UNL     1      47.807  51.287  33.155  1.00  0.00     0.108 C 
HETATM    4  N2  UNL     1      46.983  51.820  34.223  1.00  0.00    -0.210 NA
HETATM    5  C14 UNL     1      45.739  51.067  34.196  1.00  0.00     0.118 C 
HETATM    6  C15 UNL     1      44.923  51.506  32.975  1.00  0.00     0.085 C 
ENDROOT
BRANCH   4   7
HETATM    7  S1  UNL     1      47.797  51.517  35.719  1.00  0.00     0.211 S 
HETATM    8  O2  UNL     1      49.245  51.895  35.583  1.00  0.00    -0.211 OA
HETATM    9  O3  UNL     1      47.102  52.382  36.749  1.00  0.00    -0.211 OA
BRANCH   7  10
HETATM   10  C6  UNL     1      47.696  49.840  36.201  1.00  0.00     0.158 C 
BRANCH  10  11
HETATM   11  C7  UNL     1      46.837  49.565  37.397  1.00  0.00     0.021 C 
BRANCH  11  12
HETATM   12  C8  UNL     1      47.458  48.753  38.477  1.00  0.00    -0.014 C 
HETATM   13  C9  UNL     1      46.534  48.902  39.704  1.00  0.00     0.005 C 
HETATM   14  C10 UNL     1      47.269  48.534  40.952  1.00  0.00     0.000 C 
HETATM   15  C11 UNL     1      48.288  49.628  41.247  1.00  0.00     0.000 C 
HETATM   16  C12 UNL     1      48.611  50.355  39.950  1.00  0.00     0.000 C 
HETATM   17  C13 UNL     1      48.811  49.292  38.878  1.00  0.00     0.005 C 
ENDBRANCH  11  12
ENDBRANCH  10  11
ENDBRANCH   7  10
ENDBRANCH   4   7
BRANCH   6  18
HETATM   18  C16 UNL     1      43.958  50.420  32.708  1.00  0.00     0.245 C 
HETATM   19  C17 UNL     1      42.516  50.770  32.620  1.00  0.00     0.090 C 
HETATM   20  F1  UNL     1      44.062  49.456  33.739  1.00  0.00    -0.206 F 
HETATM   21  F2  UNL     1      44.309  49.674  31.567  1.00  0.00    -0.206 F 
ENDBRANCH   6  18
BRANCH   1  22
HETATM   22  C2  UNL     1      45.262  52.174  30.553  1.00  0.00     0.222 C 
HETATM   23  N1  UNL     1      45.890  51.687  29.373  1.00  0.00    -0.365 N 
HETATM   24  C1  UNL     1      45.298  51.858  28.051  1.00  0.00     0.149 C 
ATOM     25  H1  UNL     1      46.784  51.203  29.455  1.00  0.00     0.161 HD
HETATM   26  O1  UNL     1      44.144  52.772  30.373  1.00  0.00    -0.273 OA
ENDBRANCH   1  22
TORSDOF 6
ENDMDL
MODEL 4
REMARK VINA RESULT: -7.234624320      5.280      7.202
REMARK  6 active torsions:
REMARK  status: ('A' for Active; 'I' for Inactive)
REMARK       I    between atoms: N1_2  and  C2_4 
REMARK    1  A    between atoms: C2_4  and  C3_6 
REMARK    2  A    between atoms: N2_9  and  S1_10 
REMARK    3  A    between atoms: S1_10  and  C6_13 
REMARK    4  A    between atoms: C6_13  and  C7_14 
REMARK    5  A    between atoms: C7_14  and  C8_15 
REMARK    6  A    between atoms: C15_22  and  C16_23 
ROOT
HETATM    1  C3  UNL     1      59.546  49.707  34.751  1.00  0.00     0.090 C 
HETATM    2  C4  UNL     1      59.570  48.651  33.645  1.00  0.00     0.030 C 
HETATM    3  C5  UNL     1      59.076  47.316  34.133  1.00  0.00     0.108 C 
HETATM    4  N2  UNL     1      58.673  47.357  35.525  1.00  0.00    -0.210 NA
HETATM    5  C14 UNL     1      57.635  48.372  35.622  1.00  0.00     0.118 C 
HETATM    6  C15 UNL     1      58.282  49.755  35.484  1.00  0.00     0.085 C 
ENDROOT
BRANCH   4   7
HETATM    7  S1  UNL     1      57.997  45.815  35.924  1.00  0.00     0.211 S 
HETATM    8  O2  UNL     1      58.540  44.776  34.985  1.00  0.00    -0.211 OA
HETATM    9  O3  UNL     1      58.421  45.536  37.351  1.00  0.00    -0.211 OA
BRANCH   7  10
HETATM   10  C6  UNL     1      56.252  45.809  35.823  1.00  0.00     0.158 C 
BRANCH  10  11
HETATM   11  C7  UNL     1      55.686  45.376  34.504  1.00  0.00     0.021 C 
BRANCH  11  12
HETATM   12  C8  UNL     1      55.231  46.464  33.599  1.00  0.00    -0.014 C 
HETATM   13  C9  UNL     1      54.364  47.401  34.464  1.00  0.00     0.005 C 
HETATM   14  C10 UNL     1      53.488  48.243  33.596  1.00  0.00     0.000 C 
HETATM   15  C11 UNL     1      52.407  47.351  32.997  1.00  0.00     0.000 C 
HETATM   16  C12 UNL     1      52.907  45.914  32.997  1.00  0.00     0.000 C 
HETATM   17  C13 UNL     1      54.344  45.940  32.493  1.00  0.00     0.005 C 
ENDBRANCH  11  12
ENDBRANCH  10  11
ENDBRANCH   7  10
ENDBRANCH   4   7
BRANCH   6  18
HETATM   18  C16 UNL     1      57.201  50.682  35.093  1.00  0.00     0.245 C 
HETATM   19  C17 UNL     1      57.296  52.096  35.540  1.00  0.00     0.090 C 
HETATM   20  F1  UNL     1      55.975  50.193  35.607  1.00  0.00    -0.206 F 
HETATM   21  F2  UNL     1      56.969  50.664  33.704  1.00  0.00    -0.206 F 
ENDBRANCH   6  18
BRANCH   1  22
HETATM   22  C2  UNL     1      60.122  50.914  34.181  1.00  0.00     0.222 C 
HETATM   23  N1  UNL     1      60.878  51.900  34.872  1.00  0.00    -0.365 N 
HETATM   24  C1  UNL     1      61.414  53.079  34.200  1.00  0.00     0.149 C 
ATOM     25  H1  UNL     1      61.052  51.780  35.869  1.00  0.00     0.161 HD
HETATM   26  O1  UNL     1      59.944  51.133  32.932  1.00  0.00    -0.273 OA
ENDBRANCH   1  22
TORSDOF 6
ENDMDL
MODEL 5
REMARK VINA RESULT: -7.234454682      3.834      8.496
REMARK  6 active torsions:
REMARK  status: ('A' for Active; 'I' for Inactive)
REMARK       I    between atoms: N1_2  and  C2_4 
REMARK    1  A    between atoms: C2_4  and  C3_6 
REMARK    2  A    between atoms: N2_9  and  S1_10 
REMARK    3  A    between atoms: S1_10  and  C6_13 
REMARK    4  A    between atoms: C6_13  and  C7_14 
REMARK    5  A    between atoms: C7_14  and  C8_15 
REMARK    6  A    between atoms: C15_22  and  C16_23 
ROOT
HETATM    1  C3  UNL     1      47.448  51.497  33.757  1.00  0.00     0.090 C 
HETATM    2  C4  UNL     1      48.421  50.543  33.062  1.00  0.00     0.030 C 
HETATM    3  C5  UNL     1      49.822  50.684  33.594  1.00  0.00     0.108 C 
HETATM    4  N2  UNL     1      49.908  51.670  34.654  1.00  0.00    -0.210 NA
HETATM    5  C14 UNL     1      48.988  51.236  35.694  1.00  0.00     0.118 C 
HETATM    6  C15 UNL     1      47.552  51.475  35.215  1.00  0.00     0.085 C 
ENDROOT
BRANCH   4   7
HETATM    7  S1  UNL     1      51.522  51.637  35.275  1.00  0.00     0.211 S 
HETATM    8  O2  UNL     1      52.132  53.005  35.148  1.00  0.00    -0.211 OA
HETATM    9  O3  UNL     1      51.397  51.229  36.728  1.00  0.00    -0.211 OA
BRANCH   7  10
HETATM   10  C6  UNL     1      52.534  50.489  34.431  1.00  0.00     0.158 C 
BRANCH  10  11
HETATM   11  C7  UNL     1      52.945  49.287  35.227  1.00  0.00     0.021 C 
BRANCH  11  12
HETATM   12  C8  UNL     1      54.214  49.412  35.993  1.00  0.00    -0.014 C 
HETATM   13  C9  UNL     1      55.089  50.408  35.205  1.00  0.00     0.005 C 
HETATM   14  C10 UNL     1      56.522  50.261  35.600  1.00  0.00     0.000 C 
HETATM   15  C11 UNL     1      57.041  48.943  35.038  1.00  0.00     0.000 C 
HETATM   16  C12 UNL     1      55.859  48.013  34.810  1.00  0.00     0.000 C 
HETATM   17  C13 UNL     1      54.970  48.105  36.043  1.00  0.00     0.005 C 
ENDBRANCH  11  12
ENDBRANCH  10  11
ENDBRANCH   7  10
ENDBRANCH   4   7
BRANCH   6  18
HETATM   18  C16 UNL     1      46.690  50.599  36.035  1.00  0.00     0.245 C 
HETATM   19  C17 UNL     1      47.194  50.165  37.363  1.00  0.00     0.090 C 
HETATM   20  F1  UNL     1      46.428  49.412  35.310  1.00  0.00    -0.206 F 
HETATM   21  F2  UNL     1      45.399  51.138  36.199  1.00  0.00    -0.206 F 
ENDBRANCH   6  18
BRANCH   1  22
HETATM   22  C2  UNL     1      46.163  51.326  33.099  1.00  0.00     0.222 C 
HETATM   23  N1  UNL     1      45.055  52.216  33.159  1.00  0.00    -0.365 N 
HETATM   24  C1  UNL     1      43.806  51.947  32.456  1.00  0.00     0.149 C 
ATOM     25  H1  UNL     1      45.137  53.069  33.711  1.00  0.00     0.161 HD
HETATM   26  O1  UNL     1      45.986  50.275  32.389  1.00  0.00    -0.273 OA
ENDBRANCH   1  22
TORSDOF 6
ENDMDL
