MODEL 1
REMARK VINA RESULT: -6.929912066      0.000      0.000
REMARK  4 active torsions:
REMARK  status: ('A' for Active; 'I' for Inactive)
REMARK    1  A    between atoms: C2_6  and  C3_7 
REMARK    2  A    between atoms: C3_7  and  C4_8 
REMARK    3  A    between atoms: N3_13  and  C7_14 
REMARK    4  A    between atoms: N5_25  and  C16_26 
ROOT
HETATM    1  C3  UNL     1      21.976  18.438  60.910  1.00  0.00     0.054 C 
HETATM    2  C13 UNL     1      21.689  18.292  59.480  1.00  0.00     0.023 C 
HETATM    3  C14 UNL     1      20.731  19.495  59.536  1.00  0.00     0.003 C 
HETATM    4  C15 UNL     1      20.653  19.228  61.024  1.00  0.00     0.023 C 
ENDROOT
BRANCH   1   5
HETATM    5  C2  UNL     1      23.082  19.418  61.216  1.00  0.00     0.084 A 
HETATM    6  S1  UNL     1      23.115  20.693  62.366  1.00  0.00    -0.037 SA
HETATM    7  C1  UNL     1      24.697  21.255  62.047  1.00  0.00     0.161 A 
HETATM    8  N1  UNL     1      25.385  22.238  62.581  1.00  0.00    -0.378 N 
HETATM    9  N5  UNL     1      25.092  20.421  61.076  1.00  0.00    -0.266 N 
ATOM     10  H12 UNL     1      25.084  22.873  63.320  1.00  0.00     0.158 HD
ATOM     11  H11 UNL     1      26.329  22.574  62.390  1.00  0.00     0.158 HD
HETATM   12  N4  UNL     1      24.279  19.527  60.685  1.00  0.00    -0.292 N 
ATOM     13  H4  UNL     1      24.561  18.881  59.946  1.00  0.00     0.187 HD
BRANCH   9  14
HETATM   14  C16 UNL     1      26.455  20.561  60.496  1.00  0.00     0.110 A 
HETATM   15  C17 UNL     1      26.960  19.383  59.697  1.00  0.00     0.029 A 
HETATM   16  C18 UNL     1      27.518  19.590  61.054  1.00  0.00     0.029 A 
ENDBRANCH   9  14
ENDBRANCH   1   5
BRANCH   1  17
HETATM   17  C4  UNL     1      21.922  17.340  61.846  1.00  0.00     0.045 A 
HETATM   18  C5  UNL     1      20.731  16.959  62.483  1.00  0.00     0.046 A 
HETATM   19  C6  UNL     1      21.007  15.909  63.300  1.00  0.00     0.109 A 
HETATM   20  N2  UNL     1      22.307  15.637  63.187  1.00  0.00    -0.309 N 
HETATM   21  N3  UNL     1      22.846  16.501  62.313  1.00  0.00    -0.291 N 
ATOM     22  H2  UNL     1      22.807  14.898  63.680  1.00  0.00     0.186 HD
BRANCH  21  23
HETATM   23  C7  UNL     1      24.233  16.513  61.940  1.00  0.00     0.108 C 
HETATM   24  C8  UNL     1      24.466  15.867  60.577  1.00  0.00     0.027 C 
HETATM   25  C9  UNL     1      24.448  14.379  60.609  1.00  0.00     0.002 C 
HETATM   26  C10 UNL     1      25.741  13.904  61.268  1.00  0.00     0.000 C 
HETATM   27  C11 UNL     1      26.136  14.962  62.267  1.00  0.00     0.002 C 
HETATM   28  C12 UNL     1      24.941  15.578  62.937  1.00  0.00     0.027 C 
ENDBRANCH  21  23
ENDBRANCH   1  17
TORSDOF 4
ENDMDL
MODEL 2
REMARK VINA RESULT: -6.744965161      3.260      7.154
REMARK  4 active torsions:
REMARK  status: ('A' for Active; 'I' for Inactive)
REMARK    1  A    between atoms: C2_6  and  C3_7 
REMARK    2  A    between atoms: C3_7  and  C4_8 
REMARK    3  A    between atoms: N3_13  and  C7_14 
REMARK    4  A    between atoms: N5_25  and  C16_26 
ROOT
HETATM    1  C3  UNL     1      22.339  16.002  62.629  1.00  0.00     0.054 C 
HETATM    2  C13 UNL     1      23.051  15.584  61.418  1.00  0.00     0.023 C 
HETATM    3  C14 UNL     1      23.917  14.617  62.244  1.00  0.00     0.003 C 
HETATM    4  C15 UNL     1      23.545  15.472  63.437  1.00  0.00     0.023 C 
ENDROOT
BRANCH   1   5
HETATM    5  C2  UNL     1      21.168  15.119  62.986  1.00  0.00     0.084 A 
HETATM    6  S1  UNL     1      21.154  13.454  63.408  1.00  0.00    -0.037 SA
HETATM    7  C1  UNL     1      19.471  13.289  63.652  1.00  0.00     0.161 A 
HETATM    8  N1  UNL     1      18.750  12.247  63.998  1.00  0.00    -0.378 N 
HETATM    9  N5  UNL     1      19.035  14.528  63.392  1.00  0.00    -0.266 N 
ATOM     10  H12 UNL     1      19.083  11.303  64.196  1.00  0.00     0.158 HD
ATOM     11  H11 UNL     1      17.745  12.149  64.144  1.00  0.00     0.158 HD
HETATM   12  N4  UNL     1      19.890  15.410  63.066  1.00  0.00    -0.292 N 
ATOM     13  H4  UNL     1      19.578  16.360  62.865  1.00  0.00     0.187 HD
BRANCH   9  14
HETATM   14  C16 UNL     1      17.582  14.834  63.497  1.00  0.00     0.110 A 
HETATM   15  C17 UNL     1      17.203  16.293  63.412  1.00  0.00     0.029 A 
HETATM   16  C18 UNL     1      17.162  15.643  64.743  1.00  0.00     0.029 A 
ENDBRANCH   9  14
ENDBRANCH   1   5
BRANCH   1  17
HETATM   17  C4  UNL     1      22.132  17.385  62.990  1.00  0.00     0.045 A 
HETATM   18  C5  UNL     1      22.632  17.928  64.183  1.00  0.00     0.046 A 
HETATM   19  C6  UNL     1      22.269  19.236  64.236  1.00  0.00     0.109 A 
HETATM   20  N2  UNL     1      21.574  19.509  63.132  1.00  0.00    -0.309 N 
HETATM   21  N3  UNL     1      21.498  18.392  62.392  1.00  0.00    -0.291 N 
ATOM     22  H2  UNL     1      21.169  20.413  62.890  1.00  0.00     0.186 HD
BRANCH  21  23
HETATM   23  C7  UNL     1      20.820  18.304  61.128  1.00  0.00     0.108 C 
HETATM   24  C8  UNL     1      21.665  18.860  59.985  1.00  0.00     0.027 C 
HETATM   25  C9  UNL     1      21.679  20.346  59.917  1.00  0.00     0.002 C 
HETATM   26  C10 UNL     1      20.321  20.809  59.393  1.00  0.00     0.000 C 
HETATM   27  C11 UNL     1      19.305  19.798  59.860  1.00  0.00     0.002 C 
HETATM   28  C12 UNL     1      19.625  19.270  61.229  1.00  0.00     0.027 C 
ENDBRANCH  21  23
ENDBRANCH   1  17
TORSDOF 4
ENDMDL
MODEL 3
REMARK VINA RESULT: -6.742014271      2.993      5.732
REMARK  4 active torsions:
REMARK  status: ('A' for Active; 'I' for Inactive)
REMARK    1  A    between atoms: C2_6  and  C3_7 
REMARK    2  A    between atoms: C3_7  and  C4_8 
REMARK    3  A    between atoms: N3_13  and  C7_14 
REMARK    4  A    between atoms: N5_25  and  C16_26 
ROOT
HETATM    1  C3  UNL     1      22.091  17.590  62.897  1.00  0.00     0.054 C 
HETATM    2  C13 UNL     1      22.575  18.250  64.113  1.00  0.00     0.023 C 
HETATM    3  C14 UNL     1      21.606  19.422  63.879  1.00  0.00     0.003 C 
HETATM    4  C15 UNL     1      21.580  18.974  62.434  1.00  0.00     0.023 C 
ENDROOT
BRANCH   1   5
HETATM    5  C2  UNL     1      20.866  16.736  63.111  1.00  0.00     0.084 A 
HETATM    6  S1  UNL     1      19.207  17.168  62.989  1.00  0.00    -0.037 SA
HETATM    7  C1  UNL     1      18.540  15.642  63.371  1.00  0.00     0.161 A 
HETATM    8  N1  UNL     1      17.290  15.248  63.465  1.00  0.00    -0.378 N 
HETATM    9  N5  UNL     1      19.640  14.904  63.566  1.00  0.00    -0.266 N 
ATOM     10  H12 UNL     1      16.452  15.811  63.316  1.00  0.00     0.158 HD
ATOM     11  H11 UNL     1      16.892  14.338  63.693  1.00  0.00     0.158 HD
HETATM   12  N4  UNL     1      20.772  15.466  63.432  1.00  0.00    -0.292 N 
ATOM     13  H4  UNL     1      21.622  14.921  63.577  1.00  0.00     0.187 HD
BRANCH   9  14
HETATM   14  C16 UNL     1      19.507  13.465  63.923  1.00  0.00     0.110 A 
HETATM   15  C17 UNL     1      20.635  12.565  63.478  1.00  0.00     0.029 A 
HETATM   16  C18 UNL     1      19.357  12.496  62.731  1.00  0.00     0.029 A 
ENDBRANCH   9  14
ENDBRANCH   1   5
BRANCH   1  17
HETATM   17  C4  UNL     1      22.967  17.072  61.873  1.00  0.00     0.045 A 
HETATM   18  C5  UNL     1      22.869  17.473  60.532  1.00  0.00     0.046 A 
HETATM   19  C6  UNL     1      23.818  16.808  59.822  1.00  0.00     0.109 A 
HETATM   20  N2  UNL     1      24.484  16.025  60.670  1.00  0.00    -0.309 N 
HETATM   21  N3  UNL     1      23.966  16.191  61.897  1.00  0.00    -0.291 N 
ATOM     22  H2  UNL     1      25.257  15.406  60.428  1.00  0.00     0.186 HD
BRANCH  21  23
HETATM   23  C7  UNL     1      24.432  15.505  63.070  1.00  0.00     0.108 C 
HETATM   24  C8  UNL     1      25.952  15.552  63.196  1.00  0.00     0.027 C 
HETATM   25  C9  UNL     1      26.657  14.589  62.308  1.00  0.00     0.002 C 
HETATM   26  C10 UNL     1      26.462  13.186  62.879  1.00  0.00     0.000 C 
HETATM   27  C11 UNL     1      25.120  13.178  63.567  1.00  0.00     0.002 C 
HETATM   28  C12 UNL     1      24.109  14.017  62.838  1.00  0.00     0.027 C 
ENDBRANCH  21  23
ENDBRANCH   1  17
TORSDOF 4
ENDMDL
MODEL 4
REMARK VINA RESULT: -6.484888552      3.140      6.040
REMARK  4 active torsions:
REMARK  status: ('A' for Active; 'I' for Inactive)
REMARK    1  A    between atoms: C2_6  and  C3_7 
REMARK    2  A    between atoms: C3_7  and  C4_8 
REMARK    3  A    between atoms: N3_13  and  C7_14 
REMARK    4  A    between atoms: N5_25  and  C16_26 
ROOT
HETATM    1  C3  UNL     1      22.488  17.033  62.776  1.00  0.00     0.054 C 
HETATM    2  C13 UNL     1      22.862  17.796  63.971  1.00  0.00     0.023 C 
HETATM    3  C14 UNL     1      21.657  18.731  63.767  1.00  0.00     0.003 C 
HETATM    4  C15 UNL     1      21.677  18.270  62.326  1.00  0.00     0.023 C 
ENDROOT
BRANCH   1   5
HETATM    5  C2  UNL     1      21.482  15.940  63.038  1.00  0.00     0.084 A 
HETATM    6  S1  UNL     1      21.751  14.287  63.422  1.00  0.00    -0.037 SA
HETATM    7  C1  UNL     1      20.116  13.809  63.554  1.00  0.00     0.161 A 
HETATM    8  N1  UNL     1      19.581  12.641  63.831  1.00  0.00    -0.378 N 
HETATM    9  N5  UNL     1      19.474  14.955  63.295  1.00  0.00    -0.266 N 
ATOM     10  H12 UNL     1      20.070  11.768  64.028  1.00  0.00     0.158 HD
ATOM     11  H11 UNL     1      18.605  12.356  63.910  1.00  0.00     0.158 HD
HETATM   12  N4  UNL     1      20.169  15.989  63.044  1.00  0.00    -0.292 N 
ATOM     13  H4  UNL     1      19.699  16.872  62.844  1.00  0.00     0.187 HD
BRANCH   9  14
HETATM   14  C16 UNL     1      17.987  14.986  63.314  1.00  0.00     0.110 A 
HETATM   15  C17 UNL     1      17.350  16.354  63.250  1.00  0.00     0.029 A 
HETATM   16  C18 UNL     1      17.352  15.651  64.554  1.00  0.00     0.029 A 
ENDBRANCH   9  14
ENDBRANCH   1   5
BRANCH   1  17
HETATM   17  C4  UNL     1      23.419  16.702  61.724  1.00  0.00     0.045 A 
HETATM   18  C5  UNL     1      23.300  17.228  60.428  1.00  0.00     0.046 A 
HETATM   19  C6  UNL     1      24.312  16.725  59.674  1.00  0.00     0.109 A 
HETATM   20  N2  UNL     1      25.037  15.922  60.452  1.00  0.00    -0.309 N 
HETATM   21  N3  UNL     1      24.493  15.914  61.679  1.00  0.00    -0.291 N 
ATOM     22  H2  UNL     1      25.865  15.401  60.164  1.00  0.00     0.186 HD
BRANCH  21  23
HETATM   23  C7  UNL     1      25.004  15.156  62.786  1.00  0.00     0.108 C 
HETATM   24  C8  UNL     1      26.274  15.773  63.365  1.00  0.00     0.027 C 
HETATM   25  C9  UNL     1      27.496  15.497  62.562  1.00  0.00     0.002 C 
HETATM   26  C10 UNL     1      27.881  14.034  62.774  1.00  0.00     0.000 C 
HETATM   27  C11 UNL     1      26.601  13.276  63.017  1.00  0.00     0.002 C 
HETATM   28  C12 UNL     1      25.465  13.812  62.192  1.00  0.00     0.027 C 
ENDBRANCH  21  23
ENDBRANCH   1  17
TORSDOF 4
ENDMDL
MODEL 5
REMARK VINA RESULT: -6.483648115      2.368      6.433
REMARK  4 active torsions:
REMARK  status: ('A' for Active; 'I' for Inactive)
REMARK    1  A    between atoms: C2_6  and  C3_7 
REMARK    2  A    between atoms: C3_7  and  C4_8 
REMARK    3  A    between atoms: N3_13  and  C7_14 
REMARK    4  A    between atoms: N5_25  and  C16_26 
ROOT
HETATM    1  C3  UNL     1      23.902  17.236  61.014  1.00  0.00     0.054 C 
HETATM    2  C13 UNL     1      24.037  16.938  59.585  1.00  0.00     0.023 C 
HETATM    3  C14 UNL     1      25.430  16.331  59.830  1.00  0.00     0.003 C 
HETATM    4  C15 UNL     1      25.441  17.141  61.108  1.00  0.00     0.023 C 
ENDROOT
BRANCH   1   5
HETATM    5  C2  UNL     1      23.356  16.089  61.829  1.00  0.00     0.084 A 
HETATM    6  S1  UNL     1      24.035  14.536  62.108  1.00  0.00    -0.037 SA
HETATM    7  C1  UNL     1      22.797  13.916  63.108  1.00  0.00     0.161 A 
HETATM    8  N1  UNL     1      22.668  12.746  63.692  1.00  0.00    -0.378 N 
HETATM    9  N5  UNL     1      21.945  14.947  63.160  1.00  0.00    -0.266 N 
ATOM     10  H12 UNL     1      23.317  11.960  63.653  1.00  0.00     0.158 HD
ATOM     11  H11 UNL     1      21.929  12.376  64.290  1.00  0.00     0.158 HD
HETATM   12  N4  UNL     1      22.243  16.005  62.522  1.00  0.00    -0.292 N 
ATOM     13  H4  UNL     1      21.607  16.803  62.548  1.00  0.00     0.187 HD
BRANCH   9  14
HETATM   14  C16 UNL     1      20.694  14.830  63.957  1.00  0.00     0.110 A 
HETATM   15  C17 UNL     1      19.493  14.274  63.230  1.00  0.00     0.029 A 
HETATM   16  C18 UNL     1      19.527  15.730  63.500  1.00  0.00     0.029 A 
ENDBRANCH   9  14
ENDBRANCH   1   5
BRANCH   1  17
HETATM   17  C4  UNL     1      23.501  18.527  61.519  1.00  0.00     0.045 A 
HETATM   18  C5  UNL     1      24.391  19.372  62.200  1.00  0.00     0.046 A 
HETATM   19  C6  UNL     1      23.719  20.499  62.552  1.00  0.00     0.109 A 
HETATM   20  N2  UNL     1      22.465  20.376  62.116  1.00  0.00    -0.309 N 
HETATM   21  N3  UNL     1      22.345  19.190  61.499  1.00  0.00    -0.291 N 
ATOM     22  H2  UNL     1      21.723  21.066  62.231  1.00  0.00     0.186 HD
BRANCH  21  23
HETATM   23  C7  UNL     1      21.131  18.709  60.901  1.00  0.00     0.108 C 
HETATM   24  C8  UNL     1      20.906  19.293  59.509  1.00  0.00     0.027 C 
HETATM   25  C9  UNL     1      20.392  20.689  59.521  1.00  0.00     0.002 C 
HETATM   26  C10 UNL     1      18.927  20.651  59.950  1.00  0.00     0.000 C 
HETATM   27  C11 UNL     1      18.776  19.478  60.886  1.00  0.00     0.002 C 
HETATM   28  C12 UNL     1      19.989  19.291  61.753  1.00  0.00     0.027 C 
ENDBRANCH  21  23
ENDBRANCH   1  17
TORSDOF 4
ENDMDL
