MODEL 1
REMARK VINA RESULT: -9.477004518      0.000      0.000
REMARK  5 active torsions:
REMARK  status: ('A' for Active; 'I' for Inactive)
REMARK    1  A    between atoms: C2_3  and  C3_4 
REMARK    2  A    between atoms: C3_4  and  C4_5 
REMARK    3  A    between atoms: C5_7  and  O2_8 
REMARK    4  A    between atoms: C13_21  and  S1_22 
REMARK    5  A    between atoms: S1_22  and  C14_23 
ROOT
HETATM    1  C1  UNL     1      15.915  14.538  66.327  1.00  0.00     0.159 C 
HETATM    2  N1  UNL     1      15.839  15.222  65.040  1.00  0.00    -0.319 N 
HETATM    3  C2  UNL     1      16.830  15.306  64.118  1.00  0.00     0.105 A 
HETATM    4  N2  UNL     1      16.311  16.006  63.103  1.00  0.00    -0.286 N 
ATOM      5  H2  UNL     1      16.804  16.246  62.243  1.00  0.00     0.188 HD
HETATM    6  N3  UNL     1      15.084  16.333  63.378  1.00  0.00    -0.278 N 
ATOM      7  H3  UNL     1      14.469  16.869  62.766  1.00  0.00     0.189 HD
HETATM    8  C13 UNL     1      14.740  15.852  64.607  1.00  0.00     0.162 A 
ENDROOT
BRANCH   3   9
HETATM    9  C3  UNL     1      18.194  14.741  64.221  1.00  0.00     0.143 C 
BRANCH   9  10
HETATM   10  C4  UNL     1      19.227  15.675  63.717  1.00  0.00     0.070 A 
HETATM   11  O1  UNL     1      18.987  16.833  63.150  1.00  0.00    -0.291 OA
HETATM   12  C5  UNL     1      20.056  17.458  62.801  1.00  0.00     0.190 A 
HETATM   13  C6  UNL     1      21.138  16.682  63.149  1.00  0.00     0.009 A 
HETATM   14  C7  UNL     1      20.598  15.546  63.733  1.00  0.00    -0.017 A 
HETATM   15  C12 UNL     1      22.543  17.061  62.916  1.00  0.00     0.044 C 
HETATM   16  C8  UNL     1      21.341  14.378  64.278  1.00  0.00     0.042 C 
HETATM   17  C9  UNL     1      22.327  13.920  63.194  1.00  0.00     0.005 C 
HETATM   18  C10 UNL     1      23.533  14.792  63.138  1.00  0.00     0.001 C 
HETATM   19  C11 UNL     1      23.337  15.983  62.206  1.00  0.00     0.005 C 
BRANCH  12  20
HETATM   20  O2  UNL     1      20.102  18.694  62.185  1.00  0.00    -0.340 OA
ATOM     21  H2  UNL     1      19.355  19.254  62.010  1.00  0.00     0.220 HD
ENDBRANCH  12  20
ENDBRANCH   9  10
ENDBRANCH   3   9
BRANCH   8  22
HETATM   22  S1  UNL     1      13.169  16.099  65.340  1.00  0.00    -0.087 SA
BRANCH  22  23
HETATM   23  C14 UNL     1      11.756  15.585  64.399  1.00  0.00     0.055 C 
HETATM   24  C15 UNL     1      10.690  14.994  65.289  1.00  0.00     0.015 C 
HETATM   25  C16 UNL     1      10.392  13.631  64.746  1.00  0.00     0.001 C 
HETATM   26  C17 UNL     1      10.709  13.738  63.288  1.00  0.00     0.001 C 
HETATM   27  C18 UNL     1      11.999  14.549  63.340  1.00  0.00     0.015 C 
ENDBRANCH  22  23
ENDBRANCH   8  22
TORSDOF 5
ENDMDL
MODEL 2
REMARK VINA RESULT: -9.162184140      1.588      2.440
REMARK  5 active torsions:
REMARK  status: ('A' for Active; 'I' for Inactive)
REMARK    1  A    between atoms: C2_3  and  C3_4 
REMARK    2  A    between atoms: C3_4  and  C4_5 
REMARK    3  A    between atoms: C5_7  and  O2_8 
REMARK    4  A    between atoms: C13_21  and  S1_22 
REMARK    5  A    between atoms: S1_22  and  C14_23 
ROOT
HETATM    1  C1  UNL     1      16.581  15.253  66.071  1.00  0.00     0.159 C 
HETATM    2  N1  UNL     1      15.974  15.685  64.816  1.00  0.00    -0.319 N 
HETATM    3  C2  UNL     1      16.631  16.173  63.735  1.00  0.00     0.105 A 
HETATM    4  N2  UNL     1      15.682  16.420  62.825  1.00  0.00    -0.286 N 
ATOM      5  H2  UNL     1      15.847  16.797  61.892  1.00  0.00     0.188 HD
HETATM    6  N3  UNL     1      14.518  16.108  63.311  1.00  0.00    -0.278 N 
ATOM      7  H3  UNL     1      13.632  16.204  62.815  1.00  0.00     0.189 HD
HETATM    8  C13 UNL     1      14.657  15.634  64.582  1.00  0.00     0.162 A 
ENDROOT
BRANCH   3   9
HETATM    9  C3  UNL     1      18.089  16.383  63.598  1.00  0.00     0.143 C 
BRANCH   9  10
HETATM   10  C4  UNL     1      18.829  15.107  63.453  1.00  0.00     0.070 A 
HETATM   11  O1  UNL     1      18.294  13.912  63.524  1.00  0.00    -0.291 OA
HETATM   12  C5  UNL     1      19.148  12.964  63.362  1.00  0.00     0.190 A 
HETATM   13  C6  UNL     1      20.385  13.533  63.161  1.00  0.00     0.009 A 
HETATM   14  C7  UNL     1      20.171  14.901  63.221  1.00  0.00    -0.017 A 
HETATM   15  C12 UNL     1      21.625  12.769  62.932  1.00  0.00     0.044 C 
HETATM   16  C8  UNL     1      21.188  15.977  63.074  1.00  0.00     0.042 C 
HETATM   17  C9  UNL     1      22.341  15.644  64.031  1.00  0.00     0.005 C 
HETATM   18  C10 UNL     1      23.231  14.584  63.480  1.00  0.00     0.001 C 
HETATM   19  C11 UNL     1      22.755  13.185  63.852  1.00  0.00     0.005 C 
BRANCH  12  20
HETATM   20  O2  UNL     1      18.866  11.611  63.388  1.00  0.00    -0.340 OA
ATOM     21  H2  UNL     1      19.139  10.976  62.736  1.00  0.00     0.220 HD
ENDBRANCH  12  20
ENDBRANCH   9  10
ENDBRANCH   3   9
BRANCH   8  22
HETATM   22  S1  UNL     1      13.311  15.121  65.578  1.00  0.00    -0.087 SA
BRANCH  22  23
HETATM   23  C14 UNL     1      11.702  15.165  64.835  1.00  0.00     0.055 C 
HETATM   24  C15 UNL     1      10.655  14.592  65.761  1.00  0.00     0.015 C 
HETATM   25  C16 UNL     1       9.963  13.506  64.997  1.00  0.00     0.001 C 
HETATM   26  C17 UNL     1      10.095  13.919  63.566  1.00  0.00     0.001 C 
HETATM   27  C18 UNL     1      11.539  14.410  63.547  1.00  0.00     0.015 C 
ENDBRANCH  22  23
ENDBRANCH   8  22
TORSDOF 5
ENDMDL
MODEL 3
REMARK VINA RESULT: -9.150984666      1.712      2.770
REMARK  5 active torsions:
REMARK  status: ('A' for Active; 'I' for Inactive)
REMARK    1  A    between atoms: C2_3  and  C3_4 
REMARK    2  A    between atoms: C3_4  and  C4_5 
REMARK    3  A    between atoms: C5_7  and  O2_8 
REMARK    4  A    between atoms: C13_21  and  S1_22 
REMARK    5  A    between atoms: S1_22  and  C14_23 
ROOT
HETATM    1  C1  UNL     1      14.907  16.065  63.934  1.00  0.00     0.159 C 
HETATM    2  N1  UNL     1      15.647  15.377  64.988  1.00  0.00    -0.319 N 
HETATM    3  C2  UNL     1      16.996  15.295  65.096  1.00  0.00     0.105 A 
HETATM    4  N2  UNL     1      17.220  14.590  66.210  1.00  0.00    -0.286 N 
ATOM      5  H2  UNL     1      18.140  14.349  66.577  1.00  0.00     0.188 HD
HETATM    6  N3  UNL     1      16.087  14.257  66.753  1.00  0.00    -0.278 N 
ATOM      7  H3  UNL     1      15.986  13.715  67.611  1.00  0.00     0.189 HD
HETATM    8  C13 UNL     1      15.054  14.739  66.004  1.00  0.00     0.162 A 
ENDROOT
BRANCH   3   9
HETATM    9  C3  UNL     1      18.001  15.869  64.173  1.00  0.00     0.143 C 
BRANCH   9  10
HETATM   10  C4  UNL     1      19.086  14.910  63.859  1.00  0.00     0.070 A 
HETATM   11  O1  UNL     1      18.986  13.604  63.937  1.00  0.00    -0.291 OA
HETATM   12  C5  UNL     1      20.069  12.993  63.608  1.00  0.00     0.190 A 
HETATM   13  C6  UNL     1      21.009  13.939  63.271  1.00  0.00     0.009 A 
HETATM   14  C7  UNL     1      20.372  15.159  63.434  1.00  0.00    -0.017 A 
HETATM   15  C12 UNL     1      22.382  13.629  62.834  1.00  0.00     0.044 C 
HETATM   16  C8  UNL     1      20.950  16.511  63.209  1.00  0.00     0.042 C 
HETATM   17  C9  UNL     1      22.276  16.572  63.980  1.00  0.00     0.005 C 
HETATM   18  C10 UNL     1      23.372  15.869  63.256  1.00  0.00     0.001 C 
HETATM   19  C11 UNL     1      23.437  14.389  63.613  1.00  0.00     0.005 C 
BRANCH  12  20
HETATM   20  O2  UNL     1      20.249  11.622  63.598  1.00  0.00    -0.340 OA
ATOM     21  H2  UNL     1      20.947  11.152  64.039  1.00  0.00     0.220 HD
ENDBRANCH  12  20
ENDBRANCH   9  10
ENDBRANCH   3   9
BRANCH   8  22
HETATM   22  S1  UNL     1      13.368  14.486  66.402  1.00  0.00    -0.087 SA
BRANCH  22  23
HETATM   23  C14 UNL     1      12.224  14.439  65.049  1.00  0.00     0.055 C 
HETATM   24  C15 UNL     1      11.432  15.721  64.954  1.00  0.00     0.015 C 
HETATM   25  C16 UNL     1       9.988  15.331  64.984  1.00  0.00     0.001 C 
HETATM   26  C17 UNL     1       9.966  13.950  64.408  1.00  0.00     0.001 C 
HETATM   27  C18 UNL     1      11.194  13.346  65.083  1.00  0.00     0.015 C 
ENDBRANCH  22  23
ENDBRANCH   8  22
TORSDOF 5
ENDMDL
MODEL 4
REMARK VINA RESULT: -8.976541941      2.916      8.940
REMARK  5 active torsions:
REMARK  status: ('A' for Active; 'I' for Inactive)
REMARK    1  A    between atoms: C2_3  and  C3_4 
REMARK    2  A    between atoms: C3_4  and  C4_5 
REMARK    3  A    between atoms: C5_7  and  O2_8 
REMARK    4  A    between atoms: C13_21  and  S1_22 
REMARK    5  A    between atoms: S1_22  and  C14_23 
ROOT
HETATM    1  C1  UNL     1      19.335  17.850  62.970  1.00  0.00     0.159 C 
HETATM    2  N1  UNL     1      19.283  16.416  63.235  1.00  0.00    -0.319 N 
HETATM    3  C2  UNL     1      18.161  15.675  63.409  1.00  0.00     0.105 A 
HETATM    4  N2  UNL     1      18.590  14.423  63.609  1.00  0.00    -0.286 N 
ATOM      5  H2  UNL     1      17.989  13.616  63.773  1.00  0.00     0.188 HD
HETATM    6  N3  UNL     1      19.888  14.394  63.563  1.00  0.00    -0.278 N 
ATOM      7  H3  UNL     1      20.459  13.558  63.686  1.00  0.00     0.189 HD
HETATM    8  C13 UNL     1      20.373  15.646  63.326  1.00  0.00     0.162 A 
ENDROOT
BRANCH   3   9
HETATM    9  C3  UNL     1      16.761  16.156  63.381  1.00  0.00     0.143 C 
BRANCH   9  10
HETATM   10  C4  UNL     1      15.951  15.587  64.484  1.00  0.00     0.070 A 
HETATM   11  O1  UNL     1      16.422  14.866  65.474  1.00  0.00    -0.291 OA
HETATM   12  C5  UNL     1      15.515  14.493  66.305  1.00  0.00     0.190 A 
HETATM   13  C6  UNL     1      14.307  14.988  65.871  1.00  0.00     0.009 A 
HETATM   14  C7  UNL     1      14.596  15.685  64.708  1.00  0.00    -0.017 A 
HETATM   15  C12 UNL     1      13.023  14.777  66.564  1.00  0.00     0.044 C 
HETATM   16  C8  UNL     1      13.635  16.409  63.833  1.00  0.00     0.042 C 
HETATM   17  C9  UNL     1      12.486  15.441  63.522  1.00  0.00     0.005 C 
HETATM   18  C10 UNL     1      11.528  15.332  64.658  1.00  0.00     0.001 C 
HETATM   19  C11 UNL     1      11.936  14.249  65.649  1.00  0.00     0.005 C 
BRANCH  12  20
HETATM   20  O2  UNL     1      15.725  13.728  67.437  1.00  0.00    -0.340 OA
ATOM     21  H2  UNL     1      15.048  13.304  67.952  1.00  0.00     0.220 HD
ENDBRANCH  12  20
ENDBRANCH   9  10
ENDBRANCH   3   9
BRANCH   8  22
HETATM   22  S1  UNL     1      22.080  16.017  63.208  1.00  0.00    -0.087 SA
BRANCH  22  23
HETATM   23  C14 UNL     1      23.106  14.824  62.393  1.00  0.00     0.055 C 
HETATM   24  C15 UNL     1      24.057  14.163  63.363  1.00  0.00     0.015 C 
HETATM   25  C16 UNL     1      25.433  14.358  62.806  1.00  0.00     0.001 C 
HETATM   26  C17 UNL     1      25.223  14.460  61.329  1.00  0.00     0.001 C 
HETATM   27  C18 UNL     1      23.977  15.337  61.282  1.00  0.00     0.015 C 
ENDBRANCH  22  23
ENDBRANCH   8  22
TORSDOF 5
ENDMDL
MODEL 5
REMARK VINA RESULT: -8.923318294      2.596      8.978
REMARK  5 active torsions:
REMARK  status: ('A' for Active; 'I' for Inactive)
REMARK    1  A    between atoms: C2_3  and  C3_4 
REMARK    2  A    between atoms: C3_4  and  C4_5 
REMARK    3  A    between atoms: C5_7  and  O2_8 
REMARK    4  A    between atoms: C13_21  and  S1_22 
REMARK    5  A    between atoms: S1_22  and  C14_23 
ROOT
HETATM    1  C1  UNL     1      16.103  14.638  66.181  1.00  0.00     0.159 C 
HETATM    2  N1  UNL     1      16.251  15.285  64.881  1.00  0.00    -0.319 N 
HETATM    3  C2  UNL     1      15.292  15.979  64.219  1.00  0.00     0.105 A 
HETATM    4  N2  UNL     1      15.874  16.398  63.090  1.00  0.00    -0.286 N 
ATOM      5  H2  UNL     1      15.418  16.953  62.366  1.00  0.00     0.188 HD
HETATM    6  N3  UNL     1      17.108  15.991  63.056  1.00  0.00    -0.278 N 
ATOM      7  H3  UNL     1      17.765  16.178  62.300  1.00  0.00     0.189 HD
HETATM    8  C13 UNL     1      17.391  15.275  64.181  1.00  0.00     0.162 A 
ENDROOT
BRANCH   3   9
HETATM    9  C3  UNL     1      13.899  16.217  64.660  1.00  0.00     0.143 C 
BRANCH   9  10
HETATM   10  C4  UNL     1      12.940  15.294  64.009  1.00  0.00     0.070 A 
HETATM   11  O1  UNL     1      12.955  14.961  62.740  1.00  0.00    -0.291 OA
HETATM   12  C5  UNL     1      12.016  14.141  62.421  1.00  0.00     0.190 A 
HETATM   13  C6  UNL     1      11.279  13.873  63.551  1.00  0.00     0.009 A 
HETATM   14  C7  UNL     1      11.877  14.614  64.560  1.00  0.00    -0.017 A 
HETATM   15  C12 UNL     1      10.116  12.970  63.591  1.00  0.00     0.044 C 
HETATM   16  C8  UNL     1      11.461  14.689  65.986  1.00  0.00     0.042 C 
HETATM   17  C9  UNL     1       9.959  15.003  66.005  1.00  0.00     0.005 C 
HETATM   18  C10 UNL     1       9.135  13.795  65.720  1.00  0.00     0.001 C 
HETATM   19  C11 UNL     1       8.895  13.604  64.228  1.00  0.00     0.005 C 
BRANCH  12  20
HETATM   20  O2  UNL     1      11.793  13.624  61.159  1.00  0.00    -0.340 OA
ATOM     21  H2  UNL     1      10.997  13.195  60.869  1.00  0.00     0.220 HD
ENDBRANCH  12  20
ENDBRANCH   9  10
ENDBRANCH   3   9
BRANCH   8  22
HETATM   22  S1  UNL     1      18.951  14.545  64.498  1.00  0.00    -0.087 SA
BRANCH  22  23
HETATM   23  C14 UNL     1      20.251  14.900  63.345  1.00  0.00     0.055 C 
HETATM   24  C15 UNL     1      21.551  14.259  63.770  1.00  0.00     0.015 C 
HETATM   25  C16 UNL     1      22.564  15.359  63.834  1.00  0.00     0.001 C 
HETATM   26  C17 UNL     1      22.078  16.368  62.842  1.00  0.00     0.001 C 
HETATM   27  C18 UNL     1      20.581  16.349  63.134  1.00  0.00     0.015 C 
ENDBRANCH  22  23
ENDBRANCH   8  22
TORSDOF 5
ENDMDL
