MODEL 1
REMARK VINA RESULT: -8.344442619      0.000      0.000
REMARK  4 active torsions:
REMARK  status: ('A' for Active; 'I' for Inactive)
REMARK    1  A    between atoms: N1_2  and  C1_4 
REMARK    2  A    between atoms: C4_7  and  C5_8 
REMARK    3  A    between atoms: N2_9  and  N3_11 
REMARK    4  A    between atoms: C8_15  and  C9_16 
ROOT
HETATM    1  N3  UNL     1      20.587  16.416  63.009  1.00  0.00    -0.279 N 
ATOM      2  H3  UNL     1      21.564  16.127  62.971  1.00  0.00     0.189 HD
HETATM    3  C6  UNL     1      19.710  15.648  63.606  1.00  0.00     0.186 A 
HETATM    4  C7  UNL     1      18.368  15.946  63.712  1.00  0.00     0.087 A 
HETATM    5  C8  UNL     1      17.799  14.897  64.402  1.00  0.00     0.041 A 
HETATM    6  N4  UNL     1      18.815  14.034  64.671  1.00  0.00    -0.263 N 
ATOM      7  H4  UNL     1      18.717  13.152  65.173  1.00  0.00     0.194 HD
HETATM    8  O3  UNL     1      19.929  14.500  64.192  1.00  0.00    -0.218 OA
ENDROOT
BRANCH   1   9
HETATM    9  N2  UNL     1      20.202  17.619  62.426  1.00  0.00    -0.309 N 
HETATM   10  C5  UNL     1      20.853  18.050  61.407  1.00  0.00     0.126 C 
ATOM     11  H2  UNL     1      19.416  18.151  62.802  1.00  0.00     0.186 HD
BRANCH  10  12
HETATM   12  C4  UNL     1      20.407  19.326  60.827  1.00  0.00     0.024 A 
HETATM   13  C3  UNL     1      21.201  20.339  60.360  1.00  0.00     0.023 A 
HETATM   14  C2  UNL     1      20.589  21.423  59.869  1.00  0.00     0.045 A 
HETATM   15  C1  UNL     1      19.218  21.430  59.876  1.00  0.00     0.144 A 
HETATM   16  S1  UNL     1      18.834  19.920  60.567  1.00  0.00    -0.065 SA
BRANCH  15  17
HETATM   17  N1  UNL     1      18.346  22.480  59.402  1.00  0.00    -0.108 N 
HETATM   18  O1  UNL     1      18.483  23.618  59.836  1.00  0.00    -0.531 OA
HETATM   19  O2  UNL     1      17.395  22.173  58.483  1.00  0.00    -0.531 OA
ENDBRANCH  15  17
ENDBRANCH  10  12
ENDBRANCH   1   9
BRANCH   5  20
HETATM   20  C9  UNL     1      16.376  14.731  64.779  1.00  0.00     0.037 C 
HETATM   21  C10 UNL     1      15.635  15.962  64.356  1.00  0.00     0.011 C 
HETATM   22  C11 UNL     1      14.467  15.586  63.481  1.00  0.00     0.001 C 
HETATM   23  C12 UNL     1      13.178  16.041  64.114  1.00  0.00     0.000 C 
HETATM   24  C13 UNL     1      13.080  15.721  65.569  1.00  0.00     0.000 C 
HETATM   25  C14 UNL     1      13.793  14.465  65.972  1.00  0.00     0.000 C 
HETATM   26  C15 UNL     1      14.958  14.796  66.852  1.00  0.00     0.001 C 
HETATM   27  C16 UNL     1      16.288  14.470  66.262  1.00  0.00     0.011 C 
ENDBRANCH   5  20
TORSDOF 4
ENDMDL
MODEL 2
REMARK VINA RESULT: -8.260430996      5.309      9.236
REMARK  4 active torsions:
REMARK  status: ('A' for Active; 'I' for Inactive)
REMARK    1  A    between atoms: N1_2  and  C1_4 
REMARK    2  A    between atoms: C4_7  and  C5_8 
REMARK    3  A    between atoms: N2_9  and  N3_11 
REMARK    4  A    between atoms: C8_15  and  C9_16 
ROOT
HETATM    1  N3  UNL     1      14.684  16.392  63.609  1.00  0.00    -0.279 N 
ATOM      2  H3  UNL     1      14.317  17.343  63.607  1.00  0.00     0.189 HD
HETATM    3  C6  UNL     1      15.975  16.198  63.698  1.00  0.00     0.186 A 
HETATM    4  C7  UNL     1      16.571  14.954  63.708  1.00  0.00     0.087 A 
HETATM    5  C8  UNL     1      17.926  15.183  63.812  1.00  0.00     0.041 A 
HETATM    6  N4  UNL     1      18.073  16.534  63.857  1.00  0.00    -0.263 N 
ATOM      7  H4  UNL     1      18.965  17.024  63.933  1.00  0.00     0.194 HD
HETATM    8  O3  UNL     1      16.910  17.108  63.788  1.00  0.00    -0.218 OA
ENDROOT
BRANCH   1   9
HETATM    9  N2  UNL     1      13.805  15.316  63.518  1.00  0.00    -0.309 N 
HETATM   10  C5  UNL     1      12.546  15.534  63.638  1.00  0.00     0.126 C 
ATOM     11  H2  UNL     1      14.156  14.372  63.359  1.00  0.00     0.186 HD
BRANCH  10  12
HETATM   12  C4  UNL     1      11.659  14.365  63.534  1.00  0.00     0.024 A 
HETATM   13  C3  UNL     1      10.892  13.823  64.530  1.00  0.00     0.023 A 
HETATM   14  C2  UNL     1      10.152  12.751  64.223  1.00  0.00     0.045 A 
HETATM   15  C1  UNL     1      10.224  12.285  62.936  1.00  0.00     0.144 A 
HETATM   16  S1  UNL     1      11.323  13.361  62.202  1.00  0.00    -0.065 SA
BRANCH  15  17
HETATM   17  N1  UNL     1       9.522  11.152  62.375  1.00  0.00    -0.108 N 
HETATM   18  O1  UNL     1       9.259  11.140  61.178  1.00  0.00    -0.531 OA
HETATM   19  O2  UNL     1       9.175  10.129  63.197  1.00  0.00    -0.531 OA
ENDBRANCH  15  17
ENDBRANCH  10  12
ENDBRANCH   1   9
BRANCH   5  20
HETATM   20  C9  UNL     1      19.010  14.175  63.864  1.00  0.00     0.037 C 
HETATM   21  C10 UNL     1      20.243  14.785  63.271  1.00  0.00     0.011 C 
HETATM   22  C11 UNL     1      21.388  14.684  64.246  1.00  0.00     0.001 C 
HETATM   23  C12 UNL     1      22.510  13.879  63.645  1.00  0.00     0.000 C 
HETATM   24  C13 UNL     1      22.056  12.619  62.983  1.00  0.00     0.000 C 
HETATM   25  C14 UNL     1      20.844  11.998  63.611  1.00  0.00     0.000 C 
HETATM   26  C15 UNL     1      19.683  12.070  62.669  1.00  0.00     0.001 C 
HETATM   27  C16 UNL     1      18.560  12.931  63.138  1.00  0.00     0.011 C 
ENDBRANCH   5  20
TORSDOF 4
ENDMDL
MODEL 3
REMARK VINA RESULT: -8.083689036      3.154      4.847
REMARK  4 active torsions:
REMARK  status: ('A' for Active; 'I' for Inactive)
REMARK    1  A    between atoms: N1_2  and  C1_4 
REMARK    2  A    between atoms: C4_7  and  C5_8 
REMARK    3  A    between atoms: N2_9  and  N3_11 
REMARK    4  A    between atoms: C8_15  and  C9_16 
ROOT
HETATM    1  N3  UNL     1      17.379  14.540  66.341  1.00  0.00    -0.279 N 
ATOM      2  H3  UNL     1      17.969  13.993  66.967  1.00  0.00     0.189 HD
HETATM    3  C6  UNL     1      16.081  14.376  66.370  1.00  0.00     0.186 A 
HETATM    4  C7  UNL     1      15.197  15.065  65.566  1.00  0.00     0.087 A 
HETATM    5  C8  UNL     1      13.941  14.608  65.903  1.00  0.00     0.041 A 
HETATM    6  N4  UNL     1      14.133  13.680  66.878  1.00  0.00    -0.263 N 
ATOM      7  H4  UNL     1      13.390  13.153  67.339  1.00  0.00     0.194 HD
HETATM    8  O3  UNL     1      15.401  13.563  67.134  1.00  0.00    -0.218 OA
ENDROOT
BRANCH   1   9
HETATM    9  N2  UNL     1      17.964  15.451  65.466  1.00  0.00    -0.309 N 
HETATM   10  C5  UNL     1      18.740  15.011  64.543  1.00  0.00     0.126 C 
ATOM     11  H2  UNL     1      17.780  16.450  65.557  1.00  0.00     0.186 HD
BRANCH  10  12
HETATM   12  C4  UNL     1      19.334  16.013  63.644  1.00  0.00     0.024 A 
HETATM   13  C3  UNL     1      18.744  17.162  63.189  1.00  0.00     0.023 A 
HETATM   14  C2  UNL     1      19.464  17.941  62.373  1.00  0.00     0.045 A 
HETATM   15  C1  UNL     1      20.731  17.524  62.061  1.00  0.00     0.144 A 
HETATM   16  S1  UNL     1      20.873  16.059  62.920  1.00  0.00    -0.065 SA
BRANCH  15  17
HETATM   17  N1  UNL     1      21.688  18.193  61.208  1.00  0.00    -0.108 N 
HETATM   18  O1  UNL     1      22.750  18.581  61.682  1.00  0.00    -0.531 OA
HETATM   19  O2  UNL     1      21.378  18.373  59.899  1.00  0.00    -0.531 OA
ENDBRANCH  15  17
ENDBRANCH  10  12
ENDBRANCH   1   9
BRANCH   5  20
HETATM   20  C9  UNL     1      12.643  15.031  65.329  1.00  0.00     0.037 C 
HETATM   21  C10 UNL     1      11.608  14.021  65.722  1.00  0.00     0.011 C 
HETATM   22  C11 UNL     1      10.454  14.706  66.409  1.00  0.00     0.001 C 
HETATM   23  C12 UNL     1       9.182  14.473  65.637  1.00  0.00     0.000 C 
HETATM   24  C13 UNL     1       9.327  14.678  64.165  1.00  0.00     0.000 C 
HETATM   25  C14 UNL     1      10.338  15.719  63.787  1.00  0.00     0.000 C 
HETATM   26  C15 UNL     1      11.499  15.079  63.092  1.00  0.00     0.001 C 
HETATM   27  C16 UNL     1      12.789  15.173  63.834  1.00  0.00     0.011 C 
ENDBRANCH   5  20
TORSDOF 4
ENDMDL
MODEL 4
REMARK VINA RESULT: -8.077721778      5.080      7.572
REMARK  4 active torsions:
REMARK  status: ('A' for Active; 'I' for Inactive)
REMARK    1  A    between atoms: N1_2  and  C1_4 
REMARK    2  A    between atoms: C4_7  and  C5_8 
REMARK    3  A    between atoms: N2_9  and  N3_11 
REMARK    4  A    between atoms: C8_15  and  C9_16 
ROOT
HETATM    1  N3  UNL     1      14.534  16.320  64.974  1.00  0.00    -0.279 N 
ATOM      2  H3  UNL     1      14.640  17.094  65.628  1.00  0.00     0.189 HD
HETATM    3  C6  UNL     1      13.334  15.913  64.644  1.00  0.00     0.186 A 
HETATM    4  C7  UNL     1      13.083  14.876  63.771  1.00  0.00     0.087 A 
HETATM    5  C8  UNL     1      11.711  14.768  63.694  1.00  0.00     0.041 A 
HETATM    6  N4  UNL     1      11.215  15.732  64.516  1.00  0.00    -0.263 N 
ATOM      7  H4  UNL     1      10.224  15.910  64.679  1.00  0.00     0.194 HD
HETATM    8  O3  UNL     1      12.192  16.391  65.062  1.00  0.00    -0.218 OA
ENDROOT
BRANCH   1   9
HETATM    9  N2  UNL     1      15.666  15.708  64.443  1.00  0.00    -0.309 N 
HETATM   10  C5  UNL     1      16.750  15.712  65.129  1.00  0.00     0.126 C 
ATOM     11  H2  UNL     1      15.633  15.264  63.525  1.00  0.00     0.186 HD
BRANCH  10  12
HETATM   12  C4  UNL     1      17.918  15.052  64.525  1.00  0.00     0.024 A 
HETATM   13  C3  UNL     1      18.867  15.631  63.724  1.00  0.00     0.023 A 
HETATM   14  C2  UNL     1      19.854  14.846  63.276  1.00  0.00     0.045 A 
HETATM   15  C1  UNL     1      19.834  13.530  63.656  1.00  0.00     0.144 A 
HETATM   16  S1  UNL     1      18.436  13.434  64.626  1.00  0.00    -0.065 SA
BRANCH  15  17
HETATM   17  N1  UNL     1      20.786  12.501  63.300  1.00  0.00    -0.108 N 
HETATM   18  O1  UNL     1      20.444  11.601  62.542  1.00  0.00    -0.531 OA
HETATM   19  O2  UNL     1      22.038  12.565  63.819  1.00  0.00    -0.531 OA
ENDBRANCH  15  17
ENDBRANCH  10  12
ENDBRANCH   1   9
BRANCH   5  20
HETATM   20  C9  UNL     1      10.925  13.805  62.889  1.00  0.00     0.037 C 
HETATM   21  C10 UNL     1      10.829  12.522  63.658  1.00  0.00     0.011 C 
HETATM   22  C11 UNL     1       9.385  12.122  63.816  1.00  0.00     0.001 C 
HETATM   23  C12 UNL     1       9.147  10.781  63.173  1.00  0.00     0.000 C 
HETATM   24  C13 UNL     1       9.753  10.651  61.815  1.00  0.00     0.000 C 
HETATM   25  C14 UNL     1       9.807  11.934  61.040  1.00  0.00     0.000 C 
HETATM   26  C15 UNL     1      11.229  12.363  60.854  1.00  0.00     0.001 C 
HETATM   27  C16 UNL     1      11.584  13.637  61.543  1.00  0.00     0.011 C 
ENDBRANCH   5  20
TORSDOF 4
ENDMDL
MODEL 5
REMARK VINA RESULT: -8.042531333      2.750      4.453
REMARK  4 active torsions:
REMARK  status: ('A' for Active; 'I' for Inactive)
REMARK    1  A    between atoms: N1_2  and  C1_4 
REMARK    2  A    between atoms: C4_7  and  C5_8 
REMARK    3  A    between atoms: N2_9  and  N3_11 
REMARK    4  A    between atoms: C8_15  and  C9_16 
ROOT
HETATM    1  N3  UNL     1      17.576  14.654  66.180  1.00  0.00    -0.279 N 
ATOM      2  H3  UNL     1      18.186  14.142  66.816  1.00  0.00     0.189 HD
HETATM    3  C6  UNL     1      16.280  14.484  66.252  1.00  0.00     0.186 A 
HETATM    4  C7  UNL     1      15.371  15.127  65.439  1.00  0.00     0.087 A 
HETATM    5  C8  UNL     1      14.128  14.679  65.830  1.00  0.00     0.041 A 
HETATM    6  N4  UNL     1      14.351  13.800  66.844  1.00  0.00    -0.263 N 
ATOM      7  H4  UNL     1      13.626  13.292  67.349  1.00  0.00     0.194 HD
HETATM    8  O3  UNL     1      15.627  13.704  67.072  1.00  0.00    -0.218 OA
ENDROOT
BRANCH   1   9
HETATM    9  N2  UNL     1      18.131  15.525  65.247  1.00  0.00    -0.309 N 
HETATM   10  C5  UNL     1      19.095  15.110  64.509  1.00  0.00     0.126 C 
ATOM     11  H2  UNL     1      17.778  16.478  65.152  1.00  0.00     0.186 HD
BRANCH  10  12
HETATM   12  C4  UNL     1      19.648  16.068  63.539  1.00  0.00     0.024 A 
HETATM   13  C3  UNL     1      20.814  15.944  62.833  1.00  0.00     0.023 A 
HETATM   14  C2  UNL     1      21.135  16.938  61.997  1.00  0.00     0.045 A 
HETATM   15  C1  UNL     1      20.270  17.997  61.917  1.00  0.00     0.144 A 
HETATM   16  S1  UNL     1      19.038  17.567  63.013  1.00  0.00    -0.065 SA
BRANCH  15  17
HETATM   17  N1  UNL     1      20.404  19.176  61.091  1.00  0.00    -0.108 N 
HETATM   18  O1  UNL     1      19.403  19.818  60.791  1.00  0.00    -0.531 OA
HETATM   19  O2  UNL     1      21.642  19.540  60.670  1.00  0.00    -0.531 OA
ENDBRANCH  15  17
ENDBRANCH  10  12
ENDBRANCH   1   9
BRANCH   5  20
HETATM   20  C9  UNL     1      12.811  15.066  65.271  1.00  0.00     0.037 C 
HETATM   21  C10 UNL     1      11.802  14.049  65.710  1.00  0.00     0.011 C 
HETATM   22  C11 UNL     1      10.650  14.732  66.402  1.00  0.00     0.001 C 
HETATM   23  C12 UNL     1       9.367  14.459  65.662  1.00  0.00     0.000 C 
HETATM   24  C13 UNL     1       9.480  14.628  64.183  1.00  0.00     0.000 C 
HETATM   25  C14 UNL     1      10.466  15.675  63.758  1.00  0.00     0.000 C 
HETATM   26  C15 UNL     1      11.625  15.037  63.057  1.00  0.00     0.001 C 
HETATM   27  C16 UNL     1      12.927  15.172  63.771  1.00  0.00     0.011 C 
ENDBRANCH   5  20
TORSDOF 4
ENDMDL
