MODEL 1
REMARK VINA RESULT: -4.151298010      0.000      0.000
REMARK  2 active torsions:
REMARK  status: ('A' for Active; 'I' for Inactive)
REMARK    1  A    between atoms: N1_1  and  C1_4 
REMARK    2  A    between atoms: C2_10  and  N4_11 
ROOT
HETATM    1  C1  UNL     1       1.780  31.355  22.026  1.00  0.00     0.149 A 
HETATM    2  N2  UNL     1       2.319  30.702  23.024  1.00  0.00    -0.277 N 
ATOM      3  H2  UNL     1       1.871  29.868  23.402  1.00  0.00     0.189 HD
HETATM    4  N3  UNL     1       3.442  31.139  23.529  1.00  0.00    -0.266 N 
ATOM      5  H3  UNL     1       3.980  30.744  24.300  1.00  0.00     0.195 HD
HETATM    6  S1  UNL     1       3.796  32.503  22.612  1.00  0.00     0.023 SA
HETATM    7  C2  UNL     1       2.445  32.470  21.574  1.00  0.00     0.131 A 
ENDROOT
BRANCH   1   8
HETATM    8  N1  UNL     1       0.640  30.966  21.466  1.00  0.00    -0.382 N 
ATOM      9  H12 UNL     1      -0.019  30.375  21.974  1.00  0.00     0.157 HD
ATOM     10  H11 UNL     1       0.383  31.240  20.518  1.00  0.00     0.157 HD
ENDBRANCH   1   8
BRANCH   7  11
HETATM   11  N4  UNL     1       2.091  33.266  20.596  1.00  0.00    -0.389 N 
ATOM     12  H42 UNL     1       2.608  33.601  19.784  1.00  0.00     0.157 HD
ATOM     13  H41 UNL     1       1.187  33.721  20.463  1.00  0.00     0.157 HD
ENDBRANCH   7  11
TORSDOF 2
ENDMDL
MODEL 2
REMARK VINA RESULT: -4.124014752      1.619      2.463
REMARK  2 active torsions:
REMARK  status: ('A' for Active; 'I' for Inactive)
REMARK    1  A    between atoms: N1_1  and  C1_4 
REMARK    2  A    between atoms: C2_10  and  N4_11 
ROOT
HETATM    1  C1  UNL     1       3.071  31.415  22.876  1.00  0.00     0.149 A 
HETATM    2  N2  UNL     1       1.913  30.810  22.952  1.00  0.00    -0.277 N 
ATOM      3  H2  UNL     1       1.640  30.317  23.803  1.00  0.00     0.189 HD
HETATM    4  N3  UNL     1       1.114  30.848  21.920  1.00  0.00    -0.266 N 
ATOM      5  H3  UNL     1       0.189  30.429  21.827  1.00  0.00     0.195 HD
HETATM    6  S1  UNL     1       1.963  31.746  20.781  1.00  0.00     0.023 SA
HETATM    7  C2  UNL     1       3.367  32.057  21.697  1.00  0.00     0.131 A 
ENDROOT
BRANCH   1   8
HETATM    8  N1  UNL     1       3.933  31.417  23.888  1.00  0.00    -0.382 N 
ATOM      9  H12 UNL     1       3.789  30.815  24.699  1.00  0.00     0.157 HD
ATOM     10  H11 UNL     1       4.760  32.012  23.892  1.00  0.00     0.157 HD
ENDBRANCH   1   8
BRANCH   7  11
HETATM   11  N4  UNL     1       4.458  32.720  21.403  1.00  0.00    -0.389 N 
ATOM     12  H42 UNL     1       4.978  33.422  21.928  1.00  0.00     0.157 HD
ATOM     13  H41 UNL     1       5.014  32.652  20.550  1.00  0.00     0.157 HD
ENDBRANCH   7  11
TORSDOF 2
ENDMDL
MODEL 3
REMARK VINA RESULT: -4.123904880      1.789      2.120
REMARK  2 active torsions:
REMARK  status: ('A' for Active; 'I' for Inactive)
REMARK    1  A    between atoms: N1_1  and  C1_4 
REMARK    2  A    between atoms: C2_10  and  N4_11 
ROOT
HETATM    1  C1  UNL     1       0.040  31.848  20.805  1.00  0.00     0.149 A 
HETATM    2  N2  UNL     1       0.505  30.909  21.590  1.00  0.00    -0.277 N 
ATOM      3  H2  UNL     1      -0.013  30.041  21.724  1.00  0.00     0.189 HD
HETATM    4  N3  UNL     1       1.644  31.105  22.198  1.00  0.00    -0.266 N 
ATOM      5  H3  UNL     1       2.133  30.475  22.834  1.00  0.00     0.195 HD
HETATM    6  S1  UNL     1       2.119  32.635  21.689  1.00  0.00     0.023 SA
HETATM    7  C2  UNL     1       0.795  32.989  20.676  1.00  0.00     0.131 A 
ENDROOT
BRANCH   1   8
HETATM    8  N1  UNL     1      -1.113  31.715  20.156  1.00  0.00    -0.382 N 
ATOM      9  H12 UNL     1      -1.732  30.926  20.344  1.00  0.00     0.157 HD
ATOM     10  H11 UNL     1      -1.417  32.389  19.455  1.00  0.00     0.157 HD
ENDBRANCH   1   8
BRANCH   7  11
HETATM   11  N4  UNL     1       0.524  34.046  19.952  1.00  0.00    -0.389 N 
ATOM     12  H42 UNL     1      -0.250  34.243  19.318  1.00  0.00     0.157 HD
ATOM     13  H41 UNL     1       1.065  34.908  19.886  1.00  0.00     0.157 HD
ENDBRANCH   7  11
TORSDOF 2
ENDMDL
MODEL 4
REMARK VINA RESULT: -3.977912003      2.923      3.887
REMARK  2 active torsions:
REMARK  status: ('A' for Active; 'I' for Inactive)
REMARK    1  A    between atoms: N1_1  and  C1_4 
REMARK    2  A    between atoms: C2_10  and  N4_11 
ROOT
HETATM    1  C1  UNL     1       0.619  31.347  21.008  1.00  0.00     0.149 A 
HETATM    2  N2  UNL     1      -0.365  32.185  21.206  1.00  0.00    -0.277 N 
ATOM      3  H2  UNL     1      -0.493  32.629  22.116  1.00  0.00     0.189 HD
HETATM    4  N3  UNL     1      -1.181  32.443  20.220  1.00  0.00    -0.266 N 
ATOM      5  H3  UNL     1      -1.988  33.068  20.219  1.00  0.00     0.195 HD
HETATM    6  S1  UNL     1      -0.595  31.508  18.952  1.00  0.00     0.023 SA
HETATM    7  C2  UNL     1       0.725  30.789  19.756  1.00  0.00     0.131 A 
ENDROOT
BRANCH   1   8
HETATM    8  N1  UNL     1       1.486  31.039  21.967  1.00  0.00    -0.382 N 
ATOM      9  H12 UNL     1       2.035  30.180  21.922  1.00  0.00     0.157 HD
ATOM     10  H11 UNL     1       1.633  31.643  22.775  1.00  0.00     0.157 HD
ENDBRANCH   1   8
BRANCH   7  11
HETATM   11  N4  UNL     1       1.625  29.933  19.338  1.00  0.00    -0.389 N 
ATOM     12  H42 UNL     1       2.258  29.322  19.853  1.00  0.00     0.157 HD
ATOM     13  H41 UNL     1       1.869  29.711  18.373  1.00  0.00     0.157 HD
ENDBRANCH   7  11
TORSDOF 2
ENDMDL
MODEL 5
REMARK VINA RESULT: -3.912565440      1.822      3.093
REMARK  2 active torsions:
REMARK  status: ('A' for Active; 'I' for Inactive)
REMARK    1  A    between atoms: N1_1  and  C1_4 
REMARK    2  A    between atoms: C2_10  and  N4_11 
ROOT
HETATM    1  C1  UNL     1       3.920  31.803  23.263  1.00  0.00     0.149 A 
HETATM    2  N2  UNL     1       4.721  32.535  22.532  1.00  0.00    -0.277 N 
ATOM      3  H2  UNL     1       5.553  32.961  22.940  1.00  0.00     0.189 HD
HETATM    4  N3  UNL     1       4.436  32.712  21.269  1.00  0.00    -0.266 N 
ATOM      5  H3  UNL     1       4.957  33.251  20.577  1.00  0.00     0.195 HD
HETATM    6  S1  UNL     1       3.011  31.848  21.050  1.00  0.00     0.023 SA
HETATM    7  C2  UNL     1       2.819  31.265  22.640  1.00  0.00     0.131 A 
ENDROOT
BRANCH   1   8
HETATM    8  N1  UNL     1       4.149  31.583  24.553  1.00  0.00    -0.382 N 
ATOM      9  H12 UNL     1       4.902  30.962  24.852  1.00  0.00     0.157 HD
ATOM     10  H11 UNL     1       3.589  32.020  25.283  1.00  0.00     0.157 HD
ENDBRANCH   1   8
BRANCH   7  11
HETATM   11  N4  UNL     1       1.892  30.509  23.174  1.00  0.00    -0.389 N 
ATOM     12  H42 UNL     1       0.877  30.524  23.077  1.00  0.00     0.157 HD
ATOM     13  H41 UNL     1       2.023  29.727  23.815  1.00  0.00     0.157 HD
ENDBRANCH   7  11
TORSDOF 2
ENDMDL
