MODEL 1
REMARK VINA RESULT: -4.687717188      0.000      0.000
REMARK  3 active torsions:
REMARK  status: ('A' for Active; 'I' for Inactive)
REMARK    1  A    between atoms: N1_1  and  C1_4 
REMARK    2  A    between atoms: C2_9  and  S1_10 
REMARK    3  A    between atoms: S1_10  and  N4_11 
ROOT
HETATM    1  C1  UNL     1       1.096  31.950  21.212  1.00  0.00     0.692 A 
HETATM    2  N2  UNL     1       0.956  30.861  21.989  1.00  0.00    -0.130 N 
ATOM      3  H2  UNL     1       0.185  30.193  21.976  1.00  0.00     0.205 HD
HETATM    4  N3  UNL     1       2.032  30.834  22.781  1.00  0.00    -0.264 N 
ATOM      5  H3  UNL     1       2.223  30.125  23.488  1.00  0.00     0.189 HD
HETATM    6  C2  UNL     1       2.830  31.889  22.501  1.00  0.00     0.194 A 
HETATM    7  N5  UNL     1       2.240  32.588  21.516  1.00  0.00    -0.166 N 
ATOM      8  H5  UNL     1       2.593  33.440  21.081  1.00  0.00     0.186 HD
ENDROOT
BRANCH   6   9
HETATM    9  S1  UNL     1       4.384  32.300  23.283  1.00  0.00     0.017 SA
BRANCH   9  10
HETATM   10  N4  UNL     1       4.372  31.733  24.951  1.00  0.00    -0.367 N 
ATOM     11  H42 UNL     1       3.739  32.077  25.672  1.00  0.00     0.164 HD
ATOM     12  H41 UNL     1       5.090  31.018  25.073  1.00  0.00     0.164 HD
ENDBRANCH   9  10
ENDBRANCH   6   9
BRANCH   1  13
HETATM   13  N1  UNL     1       0.256  32.331  20.304  1.00  0.00    -0.233 N 
ATOM     14  H12 UNL     1      -0.164  31.718  19.605  1.00  0.00     0.174 HD
ATOM     15  H11 UNL     1      -0.083  33.285  20.182  1.00  0.00     0.174 HD
ENDBRANCH   1  13
TORSDOF 3
ENDMDL
MODEL 2
REMARK VINA RESULT: -4.602077855      2.008      3.603
REMARK  3 active torsions:
REMARK  status: ('A' for Active; 'I' for Inactive)
REMARK    1  A    between atoms: N1_1  and  C1_4 
REMARK    2  A    between atoms: C2_9  and  S1_10 
REMARK    3  A    between atoms: S1_10  and  N4_11 
ROOT
HETATM    1  C1  UNL     1       3.323  31.630  23.377  1.00  0.00     0.692 A 
HETATM    2  N2  UNL     1       2.466  30.651  23.034  1.00  0.00    -0.130 N 
ATOM      3  H2  UNL     1       2.431  29.705  23.413  1.00  0.00     0.205 HD
HETATM    4  N3  UNL     1       1.672  31.172  22.093  1.00  0.00    -0.264 N 
ATOM      5  H3  UNL     1       0.912  30.678  21.627  1.00  0.00     0.189 HD
HETATM    6  C2  UNL     1       2.029  32.454  21.855  1.00  0.00     0.194 A 
HETATM    7  N5  UNL     1       3.066  32.739  22.662  1.00  0.00    -0.166 N 
ATOM      8  H5  UNL     1       3.562  33.628  22.722  1.00  0.00     0.186 HD
ENDROOT
BRANCH   6   9
HETATM    9  S1  UNL     1       1.277  33.581  20.689  1.00  0.00     0.017 SA
BRANCH   9  10
HETATM   10  N4  UNL     1       0.589  34.952  21.555  1.00  0.00    -0.367 N 
ATOM     11  H42 UNL     1       0.470  34.994  22.567  1.00  0.00     0.164 HD
ATOM     12  H41 UNL     1       0.335  35.683  20.889  1.00  0.00     0.164 HD
ENDBRANCH   9  10
ENDBRANCH   6   9
BRANCH   1  13
HETATM   13  N1  UNL     1       4.259  31.522  24.264  1.00  0.00    -0.233 N 
ATOM     14  H12 UNL     1       4.206  31.886  25.215  1.00  0.00     0.174 HD
ATOM     15  H11 UNL     1       5.158  31.062  24.115  1.00  0.00     0.174 HD
ENDBRANCH   1  13
TORSDOF 3
ENDMDL
MODEL 3
REMARK VINA RESULT: -4.601671500      1.816      3.782
REMARK  3 active torsions:
REMARK  status: ('A' for Active; 'I' for Inactive)
REMARK    1  A    between atoms: N1_1  and  C1_4 
REMARK    2  A    between atoms: C2_9  and  S1_10 
REMARK    3  A    between atoms: S1_10  and  N4_11 
ROOT
HETATM    1  C1  UNL     1       3.123  31.648  23.120  1.00  0.00     0.692 A 
HETATM    2  N2  UNL     1       2.236  30.653  22.941  1.00  0.00    -0.130 N 
ATOM      3  H2  UNL     1       2.205  29.761  23.435  1.00  0.00     0.205 HD
HETATM    4  N3  UNL     1       1.403  31.072  21.984  1.00  0.00    -0.264 N 
ATOM      5  H3  UNL     1       0.613  30.540  21.618  1.00  0.00     0.189 HD
HETATM    6  C2  UNL     1       1.766  32.308  21.573  1.00  0.00     0.194 A 
HETATM    7  N5  UNL     1       2.846  32.667  22.288  1.00  0.00    -0.166 N 
ATOM      8  H5  UNL     1       3.358  33.546  22.215  1.00  0.00     0.186 HD
ENDROOT
BRANCH   6   9
HETATM    9  S1  UNL     1       0.973  33.300  20.315  1.00  0.00     0.017 SA
BRANCH   9  10
HETATM   10  N4  UNL     1      -0.744  32.910  20.252  1.00  0.00    -0.367 N 
ATOM     11  H42 UNL     1      -1.182  32.153  20.776  1.00  0.00     0.164 HD
ATOM     12  H41 UNL     1      -1.216  33.554  19.618  1.00  0.00     0.164 HD
ENDBRANCH   9  10
ENDBRANCH   6   9
BRANCH   1  13
HETATM   13  N1  UNL     1       4.101  31.629  23.967  1.00  0.00    -0.233 N 
ATOM     14  H12 UNL     1       3.995  31.547  24.978  1.00  0.00     0.174 HD
ATOM     15  H11 UNL     1       5.089  31.695  23.724  1.00  0.00     0.174 HD
ENDBRANCH   1  13
TORSDOF 3
ENDMDL
MODEL 4
REMARK VINA RESULT: -4.455622633      2.254      3.588
REMARK  3 active torsions:
REMARK  status: ('A' for Active; 'I' for Inactive)
REMARK    1  A    between atoms: N1_1  and  C1_4 
REMARK    2  A    between atoms: C2_9  and  S1_10 
REMARK    3  A    between atoms: S1_10  and  N4_11 
ROOT
HETATM    1  C1  UNL     1       2.098  31.219  22.294  1.00  0.00     0.692 A 
HETATM    2  N2  UNL     1       0.964  30.778  21.722  1.00  0.00    -0.130 N 
ATOM      3  H2  UNL     1       0.643  29.811  21.661  1.00  0.00     0.205 HD
HETATM    4  N3  UNL     1       0.344  31.863  21.250  1.00  0.00    -0.264 N 
ATOM      5  H3  UNL     1      -0.549  31.863  20.758  1.00  0.00     0.189 HD
HETATM    6  C2  UNL     1       1.081  32.963  21.523  1.00  0.00     0.194 A 
HETATM    7  N5  UNL     1       2.181  32.556  22.180  1.00  0.00    -0.166 N 
ATOM      8  H5  UNL     1       2.936  33.149  22.525  1.00  0.00     0.186 HD
ENDROOT
BRANCH   6   9
HETATM    9  S1  UNL     1       0.686  34.655  21.102  1.00  0.00     0.017 SA
BRANCH   9  10
HETATM   10  N4  UNL     1      -0.756  35.159  21.980  1.00  0.00    -0.367 N 
ATOM     11  H42 UNL     1      -1.482  34.524  22.310  1.00  0.00     0.164 HD
ATOM     12  H41 UNL     1      -0.745  36.172  22.101  1.00  0.00     0.164 HD
ENDBRANCH   9  10
ENDBRANCH   6   9
BRANCH   1  13
HETATM   13  N1  UNL     1       2.982  30.470  22.871  1.00  0.00    -0.233 N 
ATOM     14  H12 UNL     1       3.290  29.561  22.526  1.00  0.00     0.174 HD
ATOM     15  H11 UNL     1       3.472  30.701  23.735  1.00  0.00     0.174 HD
ENDBRANCH   1  13
TORSDOF 3
ENDMDL
MODEL 5
REMARK VINA RESULT: -4.341542362      2.168      3.818
REMARK  3 active torsions:
REMARK  status: ('A' for Active; 'I' for Inactive)
REMARK    1  A    between atoms: N1_1  and  C1_4 
REMARK    2  A    between atoms: C2_9  and  S1_10 
REMARK    3  A    between atoms: S1_10  and  N4_11 
ROOT
HETATM    1  C1  UNL     1       2.825  31.811  22.573  1.00  0.00     0.692 A 
HETATM    2  N2  UNL     1       2.022  30.771  22.858  1.00  0.00    -0.130 N 
ATOM      3  H2  UNL     1       2.156  30.076  23.593  1.00  0.00     0.205 HD
HETATM    4  N3  UNL     1       1.015  30.834  21.983  1.00  0.00    -0.264 N 
ATOM      5  H3  UNL     1       0.233  30.180  21.938  1.00  0.00     0.189 HD
HETATM    6  C2  UNL     1       1.188  31.896  21.165  1.00  0.00     0.194 A 
HETATM    7  N5  UNL     1       2.325  32.508  21.537  1.00  0.00    -0.166 N 
ATOM      8  H5  UNL     1       2.732  33.343  21.115  1.00  0.00     0.186 HD
ENDROOT
BRANCH   6   9
HETATM    9  S1  UNL     1       0.117  32.412  19.829  1.00  0.00     0.017 SA
BRANCH   9  10
HETATM   10  N4  UNL     1       0.591  34.018  19.281  1.00  0.00    -0.367 N 
ATOM     11  H42 UNL     1       1.471  34.473  19.523  1.00  0.00     0.164 HD
ATOM     12  H41 UNL     1      -0.146  34.408  18.694  1.00  0.00     0.164 HD
ENDBRANCH   9  10
ENDBRANCH   6   9
BRANCH   1  13
HETATM   13  N1  UNL     1       3.920  32.101  23.199  1.00  0.00    -0.233 N 
ATOM     14  H12 UNL     1       4.769  31.537  23.181  1.00  0.00     0.174 HD
ATOM     15  H11 UNL     1       4.060  32.925  23.784  1.00  0.00     0.174 HD
ENDBRANCH   1  13
TORSDOF 3
ENDMDL
