MODEL 1
REMARK VINA RESULT: -9.044269603      0.000      0.000
REMARK  4 active torsions:
REMARK  status: ('A' for Active; 'I' for Inactive)
REMARK    1  A    between atoms: C2_2  and  C3_3 
REMARK    2  A    between atoms: C7_7  and  O1_8 
REMARK    3  A    between atoms: O1_8  and  C8_9 
REMARK    4  A    between atoms: C13_15  and  N1_16 
ROOT
HETATM    1  C3  UNL     1     -19.038  22.993 -17.013  1.00  0.00    -0.020 C 
HETATM    2  C4  UNL     1     -18.323  23.073 -18.369  1.00  0.00     0.020 C 
HETATM    3  C5  UNL     1     -20.435  22.454 -17.171  1.00  0.00     0.016 C 
HETATM    4  C6  UNL     1     -20.533  21.249 -18.060  1.00  0.00     0.037 C 
HETATM    5  C7  UNL     1     -20.070  19.987 -17.393  1.00  0.00     0.145 C 
HETATM    6  C14 UNL     1     -19.770  20.294 -15.957  1.00  0.00     0.008 C 
HETATM    7  C15 UNL     1     -18.991  21.196 -15.381  1.00  0.00    -0.071 C 
HETATM    8  C16 UNL     1     -18.162  22.197 -16.104  1.00  0.00     0.026 C 
HETATM    9  C17 UNL     1     -17.385  23.037 -15.117  1.00  0.00     0.011 C 
HETATM   10  C18 UNL     1     -16.657  22.125 -14.182  1.00  0.00     0.018 C 
HETATM   11  C19 UNL     1     -17.557  21.250 -13.357  1.00  0.00     0.024 C 
HETATM   12  C20 UNL     1     -17.017  19.850 -13.198  1.00  0.00     0.024 C 
HETATM   13  C21 UNL     1     -17.750  21.869 -12.031  1.00  0.00     0.136 C 
HETATM   14  O4  UNL     1     -17.082  21.672 -11.049  1.00  0.00    -0.297 OA
HETATM   15  C22 UNL     1     -18.914  22.777 -12.130  1.00  0.00     0.080 C 
HETATM   16  C23 UNL     1     -19.778  22.217 -13.233  1.00  0.00     0.018 C 
HETATM   17  C24 UNL     1     -18.960  21.174 -13.904  1.00  0.00     0.030 C 
ENDROOT
BRANCH   5  18
HETATM   18  O1  UNL     1     -20.944  18.955 -17.419  1.00  0.00    -0.374 OA
BRANCH  18  19
HETATM   19  C8  UNL     1     -21.813  18.895 -18.478  1.00  0.00     0.154 C 
HETATM   20  C9  UNL     1     -21.506  17.858 -19.494  1.00  0.00     0.071 C 
HETATM   21  C10 UNL     1     -22.637  17.017 -19.963  1.00  0.00     0.172 C 
HETATM   22  F1  UNL     1     -22.366  16.645 -21.290  1.00  0.00    -0.249 F 
HETATM   23  C11 UNL     1     -23.975  17.651 -19.965  1.00  0.00     0.039 C 
HETATM   24  C12 UNL     1     -24.190  18.781 -19.028  1.00  0.00     0.037 C 
HETATM   25  C13 UNL     1     -23.211  18.773 -17.912  1.00  0.00     0.185 C 
BRANCH  25  26
HETATM   26  N1  UNL     1     -23.336  17.690 -16.978  1.00  0.00    -0.148 N 
HETATM   27  O2  UNL     1     -24.464  17.288 -16.657  1.00  0.00    -0.536 OA
HETATM   28  O3  UNL     1     -22.261  17.054 -16.409  1.00  0.00    -0.536 OA
ENDBRANCH  25  26
ENDBRANCH  18  19
ENDBRANCH   5  18
BRANCH   1  29
HETATM   29  C2  UNL     1     -19.197  24.412 -16.540  1.00  0.00    -0.027 C 
HETATM   30  C1  UNL     1     -19.873  25.318 -17.236  1.00  0.00     0.007 C 
ENDBRANCH   1  29
TORSDOF 4
ENDMDL
MODEL 2
REMARK VINA RESULT: -8.895625066      1.316      1.543
REMARK  4 active torsions:
REMARK  status: ('A' for Active; 'I' for Inactive)
REMARK    1  A    between atoms: C2_2  and  C3_3 
REMARK    2  A    between atoms: C7_7  and  O1_8 
REMARK    3  A    between atoms: O1_8  and  C8_9 
REMARK    4  A    between atoms: C13_15  and  N1_16 
ROOT
HETATM    1  C3  UNL     1     -19.116  22.883 -16.904  1.00  0.00    -0.020 C 
HETATM    2  C4  UNL     1     -18.475  22.874 -18.298  1.00  0.00     0.020 C 
HETATM    3  C5  UNL     1     -20.546  22.414 -16.966  1.00  0.00     0.016 C 
HETATM    4  C6  UNL     1     -20.756  21.184 -17.799  1.00  0.00     0.037 C 
HETATM    5  C7  UNL     1     -20.322  19.925 -17.108  1.00  0.00     0.145 C 
HETATM    6  C14 UNL     1     -19.927  20.268 -15.704  1.00  0.00     0.008 C 
HETATM    7  C15 UNL     1     -19.071  21.147 -15.207  1.00  0.00    -0.071 C 
HETATM    8  C16 UNL     1     -18.233  22.074 -16.013  1.00  0.00     0.026 C 
HETATM    9  C17 UNL     1     -17.360  22.907 -15.103  1.00  0.00     0.011 C 
HETATM   10  C18 UNL     1     -16.628  21.992 -14.174  1.00  0.00     0.018 C 
HETATM   11  C19 UNL     1     -17.525  21.197 -13.267  1.00  0.00     0.024 C 
HETATM   12  C20 UNL     1     -17.050  19.778 -13.082  1.00  0.00     0.024 C 
HETATM   13  C21 UNL     1     -17.611  21.874 -11.959  1.00  0.00     0.136 C 
HETATM   14  O4  UNL     1     -16.901  21.678 -11.006  1.00  0.00    -0.297 OA
HETATM   15  C22 UNL     1     -18.730  22.840 -12.030  1.00  0.00     0.080 C 
HETATM   16  C23 UNL     1     -19.683  22.288 -13.062  1.00  0.00     0.018 C 
HETATM   17  C24 UNL     1     -18.958  21.177 -13.735  1.00  0.00     0.030 C 
ENDROOT
BRANCH   5  18
HETATM   18  O1  UNL     1     -21.249  18.941 -17.046  1.00  0.00    -0.374 OA
BRANCH  18  19
HETATM   19  C8  UNL     1     -21.111  17.892 -17.918  1.00  0.00     0.154 C 
HETATM   20  C9  UNL     1     -21.245  16.543 -17.316  1.00  0.00     0.071 C 
HETATM   21  C10 UNL     1     -22.105  15.567 -18.032  1.00  0.00     0.172 C 
HETATM   22  F1  UNL     1     -21.595  14.284 -17.775  1.00  0.00    -0.249 F 
HETATM   23  C11 UNL     1     -22.179  15.707 -19.504  1.00  0.00     0.039 C 
HETATM   24  C12 UNL     1     -21.896  17.049 -20.071  1.00  0.00     0.037 C 
HETATM   25  C13 UNL     1     -22.069  18.126 -19.065  1.00  0.00     0.185 C 
BRANCH  25  26
HETATM   26  N1  UNL     1     -23.415  18.357 -18.621  1.00  0.00    -0.148 N 
HETATM   27  O2  UNL     1     -24.208  18.955 -19.364  1.00  0.00    -0.536 OA
HETATM   28  O3  UNL     1     -23.891  17.945 -17.402  1.00  0.00    -0.536 OA
ENDBRANCH  25  26
ENDBRANCH  18  19
ENDBRANCH   5  18
BRANCH   1  29
HETATM   29  C2  UNL     1     -19.174  24.324 -16.480  1.00  0.00    -0.027 C 
HETATM   30  C1  UNL     1     -19.842  25.239 -17.173  1.00  0.00     0.007 C 
ENDBRANCH   1  29
TORSDOF 4
ENDMDL
MODEL 3
REMARK VINA RESULT: -8.797251024      2.120      2.523
REMARK  4 active torsions:
REMARK  status: ('A' for Active; 'I' for Inactive)
REMARK    1  A    between atoms: C2_2  and  C3_3 
REMARK    2  A    between atoms: C7_7  and  O1_8 
REMARK    3  A    between atoms: O1_8  and  C8_9 
REMARK    4  A    between atoms: C13_15  and  N1_16 
ROOT
HETATM    1  C3  UNL     1     -19.060  23.035 -17.027  1.00  0.00    -0.020 C 
HETATM    2  C4  UNL     1     -18.353  23.174 -18.382  1.00  0.00     0.020 C 
HETATM    3  C5  UNL     1     -20.451  22.484 -17.200  1.00  0.00     0.016 C 
HETATM    4  C6  UNL     1     -20.538  21.312 -18.132  1.00  0.00     0.037 C 
HETATM    5  C7  UNL     1     -20.055  20.032 -17.514  1.00  0.00     0.145 C 
HETATM    6  C14 UNL     1     -19.754  20.290 -16.069  1.00  0.00     0.008 C 
HETATM    7  C15 UNL     1     -18.983  21.179 -15.464  1.00  0.00    -0.071 C 
HETATM    8  C16 UNL     1     -18.171  22.217 -16.152  1.00  0.00     0.026 C 
HETATM    9  C17 UNL     1     -17.401  23.030 -15.137  1.00  0.00     0.011 C 
HETATM   10  C18 UNL     1     -16.656  22.093 -14.240  1.00  0.00     0.018 C 
HETATM   11  C19 UNL     1     -17.542  21.176 -13.444  1.00  0.00     0.024 C 
HETATM   12  C20 UNL     1     -16.983  19.780 -13.339  1.00  0.00     0.024 C 
HETATM   13  C21 UNL     1     -17.737  21.744 -12.096  1.00  0.00     0.136 C 
HETATM   14  O4  UNL     1     -17.063  21.519 -11.124  1.00  0.00    -0.297 OA
HETATM   15  C22 UNL     1     -18.913  22.640 -12.156  1.00  0.00     0.080 C 
HETATM   16  C23 UNL     1     -19.775  22.110 -13.276  1.00  0.00     0.018 C 
HETATM   17  C24 UNL     1     -18.946  21.103 -13.989  1.00  0.00     0.030 C 
ENDROOT
BRANCH   5  18
HETATM   18  O1  UNL     1     -20.917  18.991 -17.576  1.00  0.00    -0.374 OA
BRANCH  18  19
HETATM   19  C8  UNL     1     -21.290  18.412 -16.390  1.00  0.00     0.154 C 
HETATM   20  C9  UNL     1     -22.739  18.471 -16.081  1.00  0.00     0.071 C 
HETATM   21  C10 UNL     1     -23.379  17.219 -15.603  1.00  0.00     0.172 C 
HETATM   22  F1  UNL     1     -24.437  17.581 -14.753  1.00  0.00    -0.249 F 
HETATM   23  C11 UNL     1     -22.519  16.289 -14.837  1.00  0.00     0.039 C 
HETATM   24  C12 UNL     1     -21.056  16.367 -15.077  1.00  0.00     0.037 C 
HETATM   25  C13 UNL     1     -20.739  17.003 -16.379  1.00  0.00     0.185 C 
BRANCH  25  26
HETATM   26  N1  UNL     1     -21.111  16.256 -17.548  1.00  0.00    -0.148 N 
HETATM   27  O2  UNL     1     -20.812  15.056 -17.625  1.00  0.00    -0.536 OA
HETATM   28  O3  UNL     1     -21.796  16.799 -18.605  1.00  0.00    -0.536 OA
ENDBRANCH  25  26
ENDBRANCH  18  19
ENDBRANCH   5  18
BRANCH   1  29
HETATM   29  C2  UNL     1     -19.235  24.433 -16.502  1.00  0.00    -0.027 C 
HETATM   30  C1  UNL     1     -19.916  25.359 -17.166  1.00  0.00     0.007 C 
ENDBRANCH   1  29
TORSDOF 4
ENDMDL
MODEL 4
REMARK VINA RESULT: -8.783950779      1.383      1.439
REMARK  4 active torsions:
REMARK  status: ('A' for Active; 'I' for Inactive)
REMARK    1  A    between atoms: C2_2  and  C3_3 
REMARK    2  A    between atoms: C7_7  and  O1_8 
REMARK    3  A    between atoms: O1_8  and  C8_9 
REMARK    4  A    between atoms: C13_15  and  N1_16 
ROOT
HETATM    1  C3  UNL     1     -19.208  22.697 -16.784  1.00  0.00    -0.020 C 
HETATM    2  C4  UNL     1     -18.710  22.507 -18.223  1.00  0.00     0.020 C 
HETATM    3  C5  UNL     1     -20.697  22.482 -16.696  1.00  0.00     0.016 C 
HETATM    4  C6  UNL     1     -21.188  21.268 -17.427  1.00  0.00     0.037 C 
HETATM    5  C7  UNL     1     -20.911  19.988 -16.693  1.00  0.00     0.145 C 
HETATM    6  C14 UNL     1     -20.335  20.327 -15.352  1.00  0.00     0.008 C 
HETATM    7  C15 UNL     1     -19.301  21.068 -14.987  1.00  0.00    -0.071 C 
HETATM    8  C16 UNL     1     -18.397  21.793 -15.917  1.00  0.00     0.026 C 
HETATM    9  C17 UNL     1     -17.315  22.506 -15.139  1.00  0.00     0.011 C 
HETATM   10  C18 UNL     1     -16.666  21.525 -14.215  1.00  0.00     0.018 C 
HETATM   11  C19 UNL     1     -17.596  20.946 -13.187  1.00  0.00     0.024 C 
HETATM   12  C20 UNL     1     -17.353  19.477 -12.950  1.00  0.00     0.024 C 
HETATM   13  C21 UNL     1     -17.445  21.693 -11.923  1.00  0.00     0.136 C 
HETATM   14  O4  UNL     1     -16.694  21.424 -11.022  1.00  0.00    -0.297 OA
HETATM   15  C22 UNL     1     -18.387  22.834 -11.966  1.00  0.00     0.080 C 
HETATM   16  C23 UNL     1     -19.510  22.404 -12.877  1.00  0.00     0.018 C 
HETATM   17  C24 UNL     1     -19.049  21.152 -13.533  1.00  0.00     0.030 C 
ENDROOT
BRANCH   5  18
HETATM   18  O1  UNL     1     -21.981  19.185 -16.491  1.00  0.00    -0.374 OA
BRANCH  18  19
HETATM   19  C8  UNL     1     -22.206  18.194 -17.411  1.00  0.00     0.154 C 
HETATM   20  C9  UNL     1     -21.209  17.095 -17.418  1.00  0.00     0.071 C 
HETATM   21  C10 UNL     1     -21.736  15.707 -17.456  1.00  0.00     0.172 C 
HETATM   22  F1  UNL     1     -20.791  14.914 -18.129  1.00  0.00    -0.249 F 
HETATM   23  C11 UNL     1     -23.027  15.509 -18.152  1.00  0.00     0.039 C 
HETATM   24  C12 UNL     1     -23.932  16.681 -18.244  1.00  0.00     0.037 C 
HETATM   25  C13 UNL     1     -23.624  17.705 -17.215  1.00  0.00     0.185 C 
BRANCH  25  26
HETATM   26  N1  UNL     1     -23.894  17.328 -15.856  1.00  0.00    -0.148 N 
HETATM   27  O2  UNL     1     -24.941  16.719 -15.590  1.00  0.00    -0.536 OA
HETATM   28  O3  UNL     1     -23.047  17.601 -14.813  1.00  0.00    -0.536 OA
ENDBRANCH  25  26
ENDBRANCH  18  19
ENDBRANCH   5  18
BRANCH   1  29
HETATM   29  C2  UNL     1     -18.983  24.146 -16.452  1.00  0.00    -0.027 C 
HETATM   30  C1  UNL     1     -19.659  25.122 -17.046  1.00  0.00     0.007 C 
ENDBRANCH   1  29
TORSDOF 4
ENDMDL
MODEL 5
REMARK VINA RESULT: -8.620753244      1.811      2.261
REMARK  4 active torsions:
REMARK  status: ('A' for Active; 'I' for Inactive)
REMARK    1  A    between atoms: C2_2  and  C3_3 
REMARK    2  A    between atoms: C7_7  and  O1_8 
REMARK    3  A    between atoms: O1_8  and  C8_9 
REMARK    4  A    between atoms: C13_15  and  N1_16 
ROOT
HETATM    1  C3  UNL     1     -19.208  22.977 -16.932  1.00  0.00    -0.020 C 
HETATM    2  C4  UNL     1     -18.510  23.096 -18.293  1.00  0.00     0.020 C 
HETATM    3  C5  UNL     1     -20.533  22.274 -17.066  1.00  0.00     0.016 C 
HETATM    4  C6  UNL     1     -20.492  21.038 -17.915  1.00  0.00     0.037 C 
HETATM    5  C7  UNL     1     -19.883  19.861 -17.211  1.00  0.00     0.145 C 
HETATM    6  C14 UNL     1     -19.620  20.246 -15.787  1.00  0.00     0.008 C 
HETATM    7  C15 UNL     1     -18.950  21.251 -15.245  1.00  0.00    -0.071 C 
HETATM    8  C16 UNL     1     -18.245  22.317 -16.003  1.00  0.00     0.026 C 
HETATM    9  C17 UNL     1     -17.569  23.273 -15.047  1.00  0.00     0.011 C 
HETATM   10  C18 UNL     1     -16.738  22.483 -14.087  1.00  0.00     0.018 C 
HETATM   11  C19 UNL     1     -17.529  21.536 -13.230  1.00  0.00     0.024 C 
HETATM   12  C20 UNL     1     -16.829  20.215 -13.030  1.00  0.00     0.024 C 
HETATM   13  C21 UNL     1     -17.791  22.170 -11.924  1.00  0.00     0.136 C 
HETATM   14  O4  UNL     1     -17.104  22.084 -10.939  1.00  0.00    -0.297 OA
HETATM   15  C22 UNL     1     -19.053  22.934 -12.045  1.00  0.00     0.080 C 
HETATM   16  C23 UNL     1     -19.848  22.242 -13.126  1.00  0.00     0.018 C 
HETATM   17  C24 UNL     1     -18.914  21.279 -13.768  1.00  0.00     0.030 C 
ENDROOT
BRANCH   5  18
HETATM   18  O1  UNL     1     -20.632  18.734 -17.201  1.00  0.00    -0.374 OA
BRANCH  18  19
HETATM   19  C8  UNL     1     -21.775  18.745 -16.443  1.00  0.00     0.154 C 
HETATM   20  C9  UNL     1     -22.988  18.216 -17.114  1.00  0.00     0.071 C 
HETATM   21  C10 UNL     1     -23.824  17.263 -16.343  1.00  0.00     0.172 C 
HETATM   22  F1  UNL     1     -25.152  17.418 -16.774  1.00  0.00    -0.249 F 
HETATM   23  C11 UNL     1     -23.834  17.433 -14.872  1.00  0.00     0.039 C 
HETATM   24  C12 UNL     1     -22.657  18.098 -14.260  1.00  0.00     0.037 C 
HETATM   25  C13 UNL     1     -21.464  18.040 -15.142  1.00  0.00     0.185 C 
BRANCH  25  26
HETATM   26  N1  UNL     1     -20.897  16.736 -15.342  1.00  0.00    -0.148 N 
HETATM   27  O2  UNL     1     -20.900  15.920 -14.408  1.00  0.00    -0.536 OA
HETATM   28  O3  UNL     1     -20.342  16.327 -16.528  1.00  0.00    -0.536 OA
ENDBRANCH  25  26
ENDBRANCH  18  19
ENDBRANCH   5  18
BRANCH   1  29
HETATM   29  C2  UNL     1     -19.530  24.382 -16.504  1.00  0.00    -0.027 C 
HETATM   30  C1  UNL     1     -19.934  25.309 -17.364  1.00  0.00     0.007 C 
ENDBRANCH   1  29
TORSDOF 4
ENDMDL
