MODEL 1
REMARK VINA RESULT: -8.609094997      0.000      0.000
REMARK  4 active torsions:
REMARK  status: ('A' for Active; 'I' for Inactive)
REMARK    1  A    between atoms: C2_2  and  N1_4 
REMARK    2  A    between atoms: C5_7  and  C6_8 
REMARK       I    between atoms: C6_8  and  N2_10 
REMARK    3  A    between atoms: N3_21  and  C16_22 
REMARK    4  A    between atoms: C16_22  and  C17_23 
ROOT
HETATM    1  N1  UNL     1     -19.566  19.802 -15.183  1.00  0.00    -0.313 N 
HETATM    2  C4  UNL     1     -19.443  21.131 -15.305  1.00  0.00     0.124 A 
HETATM    3 CL1  UNL     1     -20.276  22.125 -16.504  1.00  0.00    -0.063 Cl
HETATM    4  C5  UNL     1     -18.575  21.621 -14.364  1.00  0.00     0.083 A 
HETATM    5  C12 UNL     1     -18.126  20.522 -13.606  1.00  0.00     0.029 A 
HETATM    6  C13 UNL     1     -18.766  19.434 -14.150  1.00  0.00     0.155 A 
HETATM    7  O2  UNL     1     -18.620  18.110 -13.707  1.00  0.00    -0.334 OA
HETATM    8  C14 UNL     1     -18.104  17.683 -12.460  1.00  0.00     0.197 C 
HETATM    9  C15 UNL     1     -16.752  18.373 -12.214  1.00  0.00     0.144 C 
HETATM   10  N3  UNL     1     -16.995  19.614 -11.607  1.00  0.00    -0.406 N 
HETATM   11  C23 UNL     1     -17.173  20.718 -12.518  1.00  0.00     0.161 C 
ENDROOT
BRANCH   4  12
HETATM   12  C6  UNL     1     -18.211  23.019 -14.215  1.00  0.00     0.257 C 
HETATM   13  O1  UNL     1     -17.483  23.614 -15.080  1.00  0.00    -0.267 OA
HETATM   14  N2  UNL     1     -18.641  23.803 -13.107  1.00  0.00    -0.348 N 
HETATM   15  C7  UNL     1     -18.274  25.187 -12.970  1.00  0.00     0.126 C 
HETATM   16  C11 UNL     1     -19.476  23.154 -12.103  1.00  0.00     0.126 C 
HETATM   17  C8  UNL     1     -17.928  25.605 -11.575  1.00  0.00     0.020 C 
HETATM   18  C9  UNL     1     -18.257  24.560 -10.543  1.00  0.00     0.003 C 
HETATM   19  C10 UNL     1     -19.654  24.031 -10.883  1.00  0.00     0.020 C 
ENDBRANCH   4  12
BRANCH   1  20
HETATM   20  C2  UNL     1     -20.383  18.936 -15.996  1.00  0.00     0.085 C 
HETATM   21  C1  UNL     1     -20.306  19.288 -17.451  1.00  0.00     0.032 C 
HETATM   22  C3  UNL     1     -21.827  18.972 -15.485  1.00  0.00     0.032 C 
ENDBRANCH   1  20
BRANCH  10  23
HETATM   23  C16 UNL     1     -16.308  19.978 -10.426  1.00  0.00     0.121 C 
BRANCH  23  24
HETATM   24  C17 UNL     1     -16.620  21.298  -9.802  1.00  0.00     0.003 C 
HETATM   25  C18 UNL     1     -17.796  21.368  -8.900  1.00  0.00     0.006 C 
HETATM   26  C19 UNL     1     -17.693  22.562  -7.942  1.00  0.00     0.000 C 
HETATM   27  C20 UNL     1     -16.577  22.299  -6.952  1.00  0.00     0.000 C 
HETATM   28  C21 UNL     1     -15.561  21.363  -7.596  1.00  0.00     0.000 C 
HETATM   29  C22 UNL     1     -15.393  21.798  -9.030  1.00  0.00     0.006 C 
ENDBRANCH  23  24
ENDBRANCH  10  23
TORSDOF 4
ENDMDL
MODEL 2
REMARK VINA RESULT: -8.205998367      4.215      8.024
REMARK  4 active torsions:
REMARK  status: ('A' for Active; 'I' for Inactive)
REMARK    1  A    between atoms: C2_2  and  N1_4 
REMARK    2  A    between atoms: C5_7  and  C6_8 
REMARK       I    between atoms: C6_8  and  N2_10 
REMARK    3  A    between atoms: N3_21  and  C16_22 
REMARK    4  A    between atoms: C16_22  and  C17_23 
ROOT
HETATM    1  N1  UNL     1     -24.752  16.546 -15.920  1.00  0.00    -0.313 N 
HETATM    2  C4  UNL     1     -24.522  16.673 -17.235  1.00  0.00     0.124 A 
HETATM    3 CL1  UNL     1     -25.690  16.315 -18.511  1.00  0.00    -0.063 Cl
HETATM    4  C5  UNL     1     -23.247  17.122 -17.458  1.00  0.00     0.083 A 
HETATM    5  C12 UNL     1     -22.640  17.285 -16.198  1.00  0.00     0.029 A 
HETATM    6  C13 UNL     1     -23.607  16.919 -15.292  1.00  0.00     0.155 A 
HETATM    7  O2  UNL     1     -23.447  16.924 -13.897  1.00  0.00    -0.334 OA
HETATM    8  C14 UNL     1     -22.450  17.607 -13.158  1.00  0.00     0.197 C 
HETATM    9  C15 UNL     1     -21.071  17.275 -13.751  1.00  0.00     0.144 C 
HETATM   10  N3  UNL     1     -20.813  18.176 -14.796  1.00  0.00    -0.406 N 
HETATM   11  C23 UNL     1     -21.261  17.748 -16.099  1.00  0.00     0.161 C 
ENDROOT
BRANCH   4  12
HETATM   12  C6  UNL     1     -22.668  17.366 -18.768  1.00  0.00     0.257 C 
HETATM   13  O1  UNL     1     -22.921  18.436 -19.419  1.00  0.00    -0.267 OA
HETATM   14  N2  UNL     1     -21.793  16.437 -19.398  1.00  0.00    -0.348 N 
HETATM   15  C7  UNL     1     -21.226  16.690 -20.696  1.00  0.00     0.126 C 
HETATM   16  C11 UNL     1     -21.481  15.207 -18.680  1.00  0.00     0.126 C 
HETATM   17  C8  UNL     1     -21.172  15.495 -21.595  1.00  0.00     0.020 C 
HETATM   18  C9  UNL     1     -21.501  14.206 -20.891  1.00  0.00     0.003 C 
HETATM   19  C10 UNL     1     -20.741  14.225 -19.562  1.00  0.00     0.020 C 
ENDBRANCH   4  12
BRANCH   1  20
HETATM   20  C2  UNL     1     -25.972  16.095 -15.299  1.00  0.00     0.085 C 
HETATM   21  C1  UNL     1     -26.630  17.175 -14.495  1.00  0.00     0.032 C 
HETATM   22  C3  UNL     1     -25.681  14.856 -14.444  1.00  0.00     0.032 C 
ENDBRANCH   1  20
BRANCH  10  23
HETATM   23  C16 UNL     1     -19.593  18.889 -14.837  1.00  0.00     0.121 C 
BRANCH  23  24
HETATM   24  C17 UNL     1     -18.996  19.349 -13.548  1.00  0.00     0.003 C 
HETATM   25  C18 UNL     1     -17.799  18.626 -13.052  1.00  0.00     0.006 C 
HETATM   26  C19 UNL     1     -16.995  19.489 -12.070  1.00  0.00     0.000 C 
HETATM   27  C20 UNL     1     -16.355  20.630 -12.834  1.00  0.00     0.000 C 
HETATM   28  C21 UNL     1     -17.201  20.931 -14.066  1.00  0.00     0.000 C 
HETATM   29  C22 UNL     1     -18.648  20.839 -13.652  1.00  0.00     0.006 C 
ENDBRANCH  23  24
ENDBRANCH  10  23
TORSDOF 4
ENDMDL
MODEL 3
REMARK VINA RESULT: -8.077252992      2.787      5.821
REMARK  4 active torsions:
REMARK  status: ('A' for Active; 'I' for Inactive)
REMARK    1  A    between atoms: C2_2  and  N1_4 
REMARK    2  A    between atoms: C5_7  and  C6_8 
REMARK       I    between atoms: C6_8  and  N2_10 
REMARK    3  A    between atoms: N3_21  and  C16_22 
REMARK    4  A    between atoms: C16_22  and  C17_23 
ROOT
HETATM    1  N1  UNL     1     -18.607  21.738 -15.787  1.00  0.00    -0.313 N 
HETATM    2  C4  UNL     1     -17.772  21.830 -14.742  1.00  0.00     0.124 A 
HETATM    3 CL1  UNL     1     -16.584  23.114 -14.498  1.00  0.00    -0.063 Cl
HETATM    4  C5  UNL     1     -17.965  20.781 -13.880  1.00  0.00     0.083 A 
HETATM    5  C12 UNL     1     -18.988  19.982 -14.424  1.00  0.00     0.029 A 
HETATM    6  C13 UNL     1     -19.346  20.616 -15.592  1.00  0.00     0.155 A 
HETATM    7  O2  UNL     1     -20.341  20.172 -16.476  1.00  0.00    -0.334 OA
HETATM    8  C14 UNL     1     -21.373  19.242 -16.198  1.00  0.00     0.197 C 
HETATM    9  C15 UNL     1     -20.756  17.981 -15.572  1.00  0.00     0.144 C 
HETATM   10  N3  UNL     1     -20.659  18.180 -14.186  1.00  0.00    -0.406 N 
HETATM   11  C23 UNL     1     -19.423  18.772 -13.736  1.00  0.00     0.161 C 
ENDROOT
BRANCH   4  12
HETATM   12  C6  UNL     1     -17.226  20.571 -12.647  1.00  0.00     0.257 C 
HETATM   13  O1  UNL     1     -16.446  19.570 -12.500  1.00  0.00    -0.267 OA
HETATM   14  N2  UNL     1     -17.325  21.461 -11.540  1.00  0.00    -0.348 N 
HETATM   15  C7  UNL     1     -16.588  21.243 -10.324  1.00  0.00     0.126 C 
HETATM   16  C11 UNL     1     -18.204  22.616 -11.677  1.00  0.00     0.126 C 
HETATM   17  C8  UNL     1     -17.352  21.537  -9.072  1.00  0.00     0.020 C 
HETATM   18  C9  UNL     1     -18.664  22.230  -9.325  1.00  0.00     0.003 C 
HETATM   19  C10 UNL     1     -18.388  23.329 -10.355  1.00  0.00     0.020 C 
ENDBRANCH   4  12
BRANCH   1  20
HETATM   20  C2  UNL     1     -18.695  22.650 -16.900  1.00  0.00     0.085 C 
HETATM   21  C1  UNL     1     -17.386  22.799 -17.613  1.00  0.00     0.032 C 
HETATM   22  C3  UNL     1     -19.225  24.002 -16.409  1.00  0.00     0.032 C 
ENDBRANCH   1  20
BRANCH  10  23
HETATM   23  C16 UNL     1     -21.166  17.211 -13.289  1.00  0.00     0.121 C 
BRANCH  23  24
HETATM   24  C17 UNL     1     -22.444  16.522 -13.637  1.00  0.00     0.003 C 
HETATM   25  C18 UNL     1     -22.626  15.133 -13.150  1.00  0.00     0.006 C 
HETATM   26  C19 UNL     1     -24.112  14.752 -13.097  1.00  0.00     0.000 C 
HETATM   27  C20 UNL     1     -24.780  15.543 -11.991  1.00  0.00     0.000 C 
HETATM   28  C21 UNL     1     -24.007  16.839 -11.780  1.00  0.00     0.000 C 
HETATM   29  C22 UNL     1     -23.627  17.363 -13.142  1.00  0.00     0.006 C 
ENDBRANCH  23  24
ENDBRANCH  10  23
TORSDOF 4
ENDMDL
MODEL 4
REMARK VINA RESULT: -8.051615758      1.897      2.964
REMARK  4 active torsions:
REMARK  status: ('A' for Active; 'I' for Inactive)
REMARK    1  A    between atoms: C2_2  and  N1_4 
REMARK    2  A    between atoms: C5_7  and  C6_8 
REMARK       I    between atoms: C6_8  and  N2_10 
REMARK    3  A    between atoms: N3_21  and  C16_22 
REMARK    4  A    between atoms: C16_22  and  C17_23 
ROOT
HETATM    1  N1  UNL     1     -20.030  18.453 -14.638  1.00  0.00    -0.313 N 
HETATM    2  C4  UNL     1     -20.317  19.706 -15.017  1.00  0.00     0.124 A 
HETATM    3 CL1  UNL     1     -21.612  20.162 -16.129  1.00  0.00    -0.063 Cl
HETATM    4  C5  UNL     1     -19.462  20.596 -14.422  1.00  0.00     0.083 A 
HETATM    5  C12 UNL     1     -18.582  19.847 -13.617  1.00  0.00     0.029 A 
HETATM    6  C13 UNL     1     -18.976  18.540 -13.786  1.00  0.00     0.155 A 
HETATM    7  O2  UNL     1     -18.377  17.432 -13.167  1.00  0.00    -0.334 OA
HETATM    8  C14 UNL     1     -17.532  17.446 -12.031  1.00  0.00     0.197 C 
HETATM    9  C15 UNL     1     -16.412  18.476 -12.252  1.00  0.00     0.144 C 
HETATM   10  N3  UNL     1     -16.879  19.731 -11.832  1.00  0.00    -0.406 N 
HETATM   11  C23 UNL     1     -17.535  20.514 -12.851  1.00  0.00     0.161 C 
ENDROOT
BRANCH   4  12
HETATM   12  C6  UNL     1     -19.490  22.035 -14.616  1.00  0.00     0.257 C 
HETATM   13  O1  UNL     1     -20.167  22.798 -13.846  1.00  0.00    -0.267 OA
HETATM   14  N2  UNL     1     -18.773  22.675 -15.666  1.00  0.00    -0.348 N 
HETATM   15  C7  UNL     1     -18.809  24.102 -15.849  1.00  0.00     0.126 C 
HETATM   16  C11 UNL     1     -17.988  21.833 -16.560  1.00  0.00     0.126 C 
HETATM   17  C8  UNL     1     -18.889  24.545 -17.275  1.00  0.00     0.020 C 
HETATM   18  C9  UNL     1     -18.678  23.425 -18.258  1.00  0.00     0.003 C 
HETATM   19  C10 UNL     1     -17.480  22.615 -17.752  1.00  0.00     0.020 C 
ENDBRANCH   4  12
BRANCH   1  20
HETATM   20  C2  UNL     1     -20.706  17.250 -15.058  1.00  0.00     0.085 C 
HETATM   21  C1  UNL     1     -20.704  17.094 -16.548  1.00  0.00     0.032 C 
HETATM   22  C3  UNL     1     -22.131  17.244 -14.494  1.00  0.00     0.032 C 
ENDBRANCH   1  20
BRANCH  10  23
HETATM   23  C16 UNL     1     -16.112  20.516 -10.940  1.00  0.00     0.121 C 
BRANCH  23  24
HETATM   24  C17 UNL     1     -16.577  20.644  -9.528  1.00  0.00     0.003 C 
HETATM   25  C18 UNL     1     -15.544  20.621  -8.463  1.00  0.00     0.006 C 
HETATM   26  C19 UNL     1     -16.057  21.280  -7.175  1.00  0.00     0.000 C 
HETATM   27  C20 UNL     1     -16.204  22.768  -7.413  1.00  0.00     0.000 C 
HETATM   28  C21 UNL     1     -16.450  23.006  -8.898  1.00  0.00     0.000 C 
HETATM   29  C22 UNL     1     -17.395  21.932  -9.376  1.00  0.00     0.006 C 
ENDBRANCH  23  24
ENDBRANCH  10  23
TORSDOF 4
ENDMDL
MODEL 5
REMARK VINA RESULT: -7.992642044      4.691      8.349
REMARK  4 active torsions:
REMARK  status: ('A' for Active; 'I' for Inactive)
REMARK    1  A    between atoms: C2_2  and  N1_4 
REMARK    2  A    between atoms: C5_7  and  C6_8 
REMARK       I    between atoms: C6_8  and  N2_10 
REMARK    3  A    between atoms: N3_21  and  C16_22 
REMARK    4  A    between atoms: C16_22  and  C17_23 
ROOT
HETATM    1  N1  UNL     1     -24.825  16.438 -15.903  1.00  0.00    -0.313 N 
HETATM    2  C4  UNL     1     -24.549  16.641 -17.200  1.00  0.00     0.124 A 
HETATM    3 CL1  UNL     1     -25.687  16.410 -18.531  1.00  0.00    -0.063 Cl
HETATM    4  C5  UNL     1     -23.252  17.056 -17.355  1.00  0.00     0.083 A 
HETATM    5  C12 UNL     1     -22.681  17.114 -16.069  1.00  0.00     0.029 A 
HETATM    6  C13 UNL     1     -23.690  16.727 -15.218  1.00  0.00     0.155 A 
HETATM    7  O2  UNL     1     -23.575  16.636 -13.821  1.00  0.00    -0.334 OA
HETATM    8  C14 UNL     1     -22.579  17.232 -13.010  1.00  0.00     0.197 C 
HETATM    9  C15 UNL     1     -21.194  16.888 -13.582  1.00  0.00     0.144 C 
HETATM   10  N3  UNL     1     -20.870  17.844 -14.556  1.00  0.00    -0.406 N 
HETATM   11  C23 UNL     1     -21.290  17.519 -15.898  1.00  0.00     0.161 C 
ENDROOT
BRANCH   4  12
HETATM   12  C6  UNL     1     -22.623  17.362 -18.627  1.00  0.00     0.257 C 
HETATM   13  O1  UNL     1     -22.815  18.482 -19.213  1.00  0.00    -0.267 OA
HETATM   14  N2  UNL     1     -21.763  16.442 -19.292  1.00  0.00    -0.348 N 
HETATM   15  C7  UNL     1     -21.146  16.757 -20.553  1.00  0.00     0.126 C 
HETATM   16  C11 UNL     1     -21.521  15.157 -18.648  1.00  0.00     0.126 C 
HETATM   17  C8  UNL     1     -21.108  15.623 -21.528  1.00  0.00     0.020 C 
HETATM   18  C9  UNL     1     -21.507  14.304 -20.922  1.00  0.00     0.003 C 
HETATM   19  C10 UNL     1     -20.791  14.206 -19.572  1.00  0.00     0.020 C 
ENDBRANCH   4  12
BRANCH   1  20
HETATM   20  C2  UNL     1     -26.081  15.994 -15.351  1.00  0.00     0.085 C 
HETATM   21  C1  UNL     1     -26.624  16.956 -14.338  1.00  0.00     0.032 C 
HETATM   22  C3  UNL     1     -25.908  14.591 -14.757  1.00  0.00     0.032 C 
ENDBRANCH   1  20
BRANCH  10  23
HETATM   23  C16 UNL     1     -19.625  18.513 -14.514  1.00  0.00     0.121 C 
BRANCH  23  24
HETATM   24  C17 UNL     1     -19.602  19.944 -14.089  1.00  0.00     0.003 C 
HETATM   25  C18 UNL     1     -18.420  20.753 -14.475  1.00  0.00     0.006 C 
HETATM   26  C19 UNL     1     -18.746  22.253 -14.466  1.00  0.00     0.000 C 
HETATM   27  C20 UNL     1     -19.695  22.553 -15.608  1.00  0.00     0.000 C 
HETATM   28  C21 UNL     1     -20.494  21.295 -15.925  1.00  0.00     0.000 C 
HETATM   29  C22 UNL     1     -20.859  20.650 -14.612  1.00  0.00     0.006 C 
ENDBRANCH  23  24
ENDBRANCH  10  23
TORSDOF 4
ENDMDL
