MODEL 1
REMARK VINA RESULT: -7.994500166      0.000      0.000
REMARK  9 active torsions:
REMARK  status: ('A' for Active; 'I' for Inactive)
REMARK    1  A    between atoms: C2_2  and  O1_3 
REMARK    2  A    between atoms: O1_3  and  C3_4 
REMARK    3  A    between atoms: C3_4  and  C4_6 
REMARK    4  A    between atoms: C4_6  and  N1_7 
REMARK    5  A    between atoms: N1_7  and  O3_8 
REMARK    6  A    between atoms: N1_7  and  C5_10 
REMARK    7  A    between atoms: C8_13  and  C9_15 
REMARK    8  A    between atoms: C16_22  and  O4_23 
REMARK    9  A    between atoms: O4_23  and  C17_24 
ROOT
HETATM    1  C5  UNL     1     -18.184  22.023 -12.165  1.00  0.00     0.043 C 
HETATM    2  C6  UNL     1     -17.969  21.090 -13.074  1.00  0.00    -0.015 C 
HETATM    3  C7  UNL     1     -18.629  20.853 -14.384  1.00  0.00    -0.027 C 
HETATM    4  C8  UNL     1     -18.543  21.778 -15.291  1.00  0.00     0.026 C 
HETATM    5 CL1  UNL     1     -17.637  23.321 -15.023  1.00  0.00    -0.088 Cl
HETATM    6  C13 UNL     1     -19.240  19.490 -14.494  1.00  0.00     0.019 C 
HETATM    7  C14 UNL     1     -20.718  19.468 -14.198  1.00  0.00     0.015 C 
HETATM    8  C15 UNL     1     -18.663  18.665 -13.302  1.00  0.00     0.042 C 
HETATM    9  C16 UNL     1     -17.193  18.804 -13.171  1.00  0.00     0.145 C 
HETATM   10  C19 UNL     1     -16.927  20.152 -12.550  1.00  0.00     0.013 C 
HETATM   11  C20 UNL     1     -15.564  20.600 -13.017  1.00  0.00     0.023 C 
HETATM   12  C21 UNL     1     -17.030  20.278 -11.095  1.00  0.00     0.023 C 
HETATM   13  C22 UNL     1     -17.238  21.808 -10.984  1.00  0.00     0.061 C 
ENDROOT
BRANCH   1  14
HETATM   14  N1  UNL     1     -19.138  23.064 -12.222  1.00  0.00    -0.255 N 
BRANCH  14  15
HETATM   15  C4  UNL     1     -18.690  24.412 -12.041  1.00  0.00     0.266 C 
BRANCH  15  16
HETATM   16  C3  UNL     1     -19.158  25.050 -10.816  1.00  0.00     0.279 C 
HETATM   17  O2  UNL     1     -19.724  24.352  -9.946  1.00  0.00    -0.263 OA
BRANCH  16  18
HETATM   18  O1  UNL     1     -19.001  26.396 -10.579  1.00  0.00    -0.321 OA
BRANCH  18  19
HETATM   19  C2  UNL     1     -19.799  27.426 -11.128  1.00  0.00     0.174 C 
HETATM   20  C1  UNL     1     -20.544  28.117  -9.988  1.00  0.00     0.034 C 
ENDBRANCH  18  19
ENDBRANCH  16  18
ENDBRANCH  15  16
ENDBRANCH  14  15
BRANCH  14  21
HETATM   21  O3  UNL     1     -20.322  22.843 -12.377  1.00  0.00    -0.287 OA
ATOM     22  H3  UNL     1     -20.812  22.407 -11.689  1.00  0.00     0.244 HD
ENDBRANCH  14  21
ENDBRANCH   1  14
BRANCH   4  23
HETATM   23  C9  UNL     1     -19.073  21.857 -16.648  1.00  0.00    -0.013 C 
HETATM   24  C10 UNL     1     -18.059  22.683 -17.465  1.00  0.00     0.020 C 
HETATM   25  C11 UNL     1     -20.300  22.814 -16.566  1.00  0.00     0.020 C 
HETATM   26  C12 UNL     1     -19.553  20.688 -17.375  1.00  0.00     0.020 C 
ENDBRANCH   4  23
BRANCH   9  27
HETATM   27  O4  UNL     1     -16.503  17.758 -12.600  1.00  0.00    -0.315 OA
BRANCH  27  28
HETATM   28  C17 UNL     1     -17.039  16.883 -11.667  1.00  0.00     0.255 C 
HETATM   29  C18 UNL     1     -16.329  16.620 -10.408  1.00  0.00     0.126 C 
HETATM   30  O5  UNL     1     -18.132  16.361 -11.974  1.00  0.00    -0.266 OA
ENDBRANCH  27  28
ENDBRANCH   9  27
TORSDOF 9
ENDMDL
MODEL 2
REMARK VINA RESULT: -7.634841202      0.898      1.613
REMARK  9 active torsions:
REMARK  status: ('A' for Active; 'I' for Inactive)
REMARK    1  A    between atoms: C2_2  and  O1_3 
REMARK    2  A    between atoms: O1_3  and  C3_4 
REMARK    3  A    between atoms: C3_4  and  C4_6 
REMARK    4  A    between atoms: C4_6  and  N1_7 
REMARK    5  A    between atoms: N1_7  and  O3_8 
REMARK    6  A    between atoms: N1_7  and  C5_10 
REMARK    7  A    between atoms: C8_13  and  C9_15 
REMARK    8  A    between atoms: C16_22  and  O4_23 
REMARK    9  A    between atoms: O4_23  and  C17_24 
ROOT
HETATM    1  C5  UNL     1     -18.140  21.884 -12.225  1.00  0.00     0.043 C 
HETATM    2  C6  UNL     1     -17.954  20.934 -13.123  1.00  0.00    -0.015 C 
HETATM    3  C7  UNL     1     -18.649  20.679 -14.411  1.00  0.00    -0.027 C 
HETATM    4  C8  UNL     1     -18.581  21.587 -15.335  1.00  0.00     0.026 C 
HETATM    5 CL1  UNL     1     -17.660  23.129 -15.117  1.00  0.00    -0.088 Cl
HETATM    6  C13 UNL     1     -19.270  19.318 -14.481  1.00  0.00     0.019 C 
HETATM    7  C14 UNL     1     -20.741  19.310 -14.147  1.00  0.00     0.015 C 
HETATM    8  C15 UNL     1     -18.667  18.510 -13.290  1.00  0.00     0.042 C 
HETATM    9  C16 UNL     1     -17.194  18.642 -13.199  1.00  0.00     0.145 C 
HETATM   10  C19 UNL     1     -16.904  19.998 -12.608  1.00  0.00     0.013 C 
HETATM   11  C20 UNL     1     -15.551  20.431 -13.119  1.00  0.00     0.023 C 
HETATM   12  C21 UNL     1     -16.969  20.151 -11.154  1.00  0.00     0.023 C 
HETATM   13  C22 UNL     1     -17.165  21.683 -11.065  1.00  0.00     0.061 C 
ENDROOT
BRANCH   1  14
HETATM   14  N1  UNL     1     -19.089  22.930 -12.275  1.00  0.00    -0.255 N 
BRANCH  14  15
HETATM   15  C4  UNL     1     -18.698  24.230 -11.819  1.00  0.00     0.266 C 
BRANCH  15  16
HETATM   16  C3  UNL     1     -19.395  24.690 -10.623  1.00  0.00     0.279 C 
HETATM   17  O2  UNL     1     -19.485  25.920 -10.408  1.00  0.00    -0.263 OA
BRANCH  16  18
HETATM   18  O1  UNL     1     -19.960  23.822  -9.719  1.00  0.00    -0.321 OA
BRANCH  18  19
HETATM   19  C2  UNL     1     -19.476  23.562  -8.416  1.00  0.00     0.174 C 
HETATM   20  C1  UNL     1     -18.893  22.151  -8.390  1.00  0.00     0.034 C 
ENDBRANCH  18  19
ENDBRANCH  16  18
ENDBRANCH  15  16
ENDBRANCH  14  15
BRANCH  14  21
HETATM   21  O3  UNL     1     -20.229  22.746 -12.653  1.00  0.00    -0.287 OA
ATOM     22  H3  UNL     1     -20.811  22.201 -12.137  1.00  0.00     0.244 HD
ENDBRANCH  14  21
ENDBRANCH   1  14
BRANCH   4  23
HETATM   23  C9  UNL     1     -19.145  21.646 -16.680  1.00  0.00    -0.013 C 
HETATM   24  C10 UNL     1     -18.197  22.532 -17.512  1.00  0.00     0.020 C 
HETATM   25  C11 UNL     1     -20.421  22.534 -16.562  1.00  0.00     0.020 C 
HETATM   26  C12 UNL     1     -19.577  20.457 -17.405  1.00  0.00     0.020 C 
ENDBRANCH   4  23
BRANCH   9  27
HETATM   27  O4  UNL     1     -16.495  17.601 -12.627  1.00  0.00    -0.315 OA
BRANCH  27  28
HETATM   28  C17 UNL     1     -17.000  16.768 -11.640  1.00  0.00     0.255 C 
HETATM   29  C18 UNL     1     -16.243  16.548 -10.402  1.00  0.00     0.126 C 
HETATM   30  O5  UNL     1     -18.108  16.245 -11.883  1.00  0.00    -0.266 OA
ENDBRANCH  27  28
ENDBRANCH   9  27
TORSDOF 9
ENDMDL
MODEL 3
REMARK VINA RESULT: -7.555776882      1.806      6.474
REMARK  9 active torsions:
REMARK  status: ('A' for Active; 'I' for Inactive)
REMARK    1  A    between atoms: C2_2  and  O1_3 
REMARK    2  A    between atoms: O1_3  and  C3_4 
REMARK    3  A    between atoms: C3_4  and  C4_6 
REMARK    4  A    between atoms: C4_6  and  N1_7 
REMARK    5  A    between atoms: N1_7  and  O3_8 
REMARK    6  A    between atoms: N1_7  and  C5_10 
REMARK    7  A    between atoms: C8_13  and  C9_15 
REMARK    8  A    between atoms: C16_22  and  O4_23 
REMARK    9  A    between atoms: O4_23  and  C17_24 
ROOT
HETATM    1  C5  UNL     1     -17.509  20.842 -12.168  1.00  0.00     0.043 C 
HETATM    2  C6  UNL     1     -18.095  21.927 -12.639  1.00  0.00    -0.015 C 
HETATM    3  C7  UNL     1     -18.504  22.276 -14.024  1.00  0.00    -0.027 C 
HETATM    4  C8  UNL     1     -19.387  21.527 -14.610  1.00  0.00     0.026 C 
HETATM    5 CL1  UNL     1     -20.144  20.098 -13.797  1.00  0.00    -0.088 Cl
HETATM    6  C13 UNL     1     -17.877  23.543 -14.518  1.00  0.00     0.019 C 
HETATM    7  C14 UNL     1     -16.650  23.316 -15.366  1.00  0.00     0.015 C 
HETATM    8  C15 UNL     1     -17.271  24.240 -13.260  1.00  0.00     0.042 C 
HETATM    9  C16 UNL     1     -18.219  24.284 -12.121  1.00  0.00     0.145 C 
HETATM   10  C19 UNL     1     -18.250  22.904 -11.515  1.00  0.00     0.013 C 
HETATM   11  C20 UNL     1     -19.606  22.725 -10.876  1.00  0.00     0.023 C 
HETATM   12  C21 UNL     1     -17.193  22.536 -10.571  1.00  0.00     0.023 C 
HETATM   13  C22 UNL     1     -17.292  20.994 -10.663  1.00  0.00     0.061 C 
ENDROOT
BRANCH   1  14
HETATM   14  N1  UNL     1     -17.110  19.702 -12.903  1.00  0.00    -0.255 N 
BRANCH  14  15
HETATM   15  C4  UNL     1     -17.603  18.421 -12.498  1.00  0.00     0.266 C 
BRANCH  15  16
HETATM   16  C3  UNL     1     -16.630  17.586 -11.803  1.00  0.00     0.279 C 
HETATM   17  O2  UNL     1     -15.753  16.992 -12.469  1.00  0.00    -0.263 OA
BRANCH  16  18
HETATM   18  O1  UNL     1     -16.639  17.425 -10.437  1.00  0.00    -0.321 OA
BRANCH  18  19
HETATM   19  C2  UNL     1     -15.973  16.401  -9.726  1.00  0.00     0.174 C 
HETATM   20  C1  UNL     1     -16.981  15.295  -9.417  1.00  0.00     0.034 C 
ENDBRANCH  18  19
ENDBRANCH  16  18
ENDBRANCH  15  16
ENDBRANCH  14  15
BRANCH  14  21
HETATM   21  O3  UNL     1     -16.334  19.778 -13.835  1.00  0.00    -0.287 OA
ATOM     22  H3  UNL     1     -16.311  19.083 -14.483  1.00  0.00     0.244 HD
ENDBRANCH  14  21
ENDBRANCH   1  14
BRANCH   4  23
HETATM   23  C9  UNL     1     -19.984  21.592 -15.940  1.00  0.00    -0.013 C 
HETATM   24  C10 UNL     1     -21.142  20.574 -15.949  1.00  0.00     0.020 C 
HETATM   25  C11 UNL     1     -18.948  20.932 -16.900  1.00  0.00     0.020 C 
HETATM   26  C12 UNL     1     -20.344  22.851 -16.581  1.00  0.00     0.020 C 
ENDBRANCH   4  23
BRANCH   9  27
HETATM   27  O4  UNL     1     -18.078  25.311 -11.214  1.00  0.00    -0.315 OA
BRANCH  27  28
HETATM   28  C17 UNL     1     -19.044  26.273 -10.965  1.00  0.00     0.255 C 
HETATM   29  C18 UNL     1     -19.128  27.471 -11.810  1.00  0.00     0.126 C 
HETATM   30  O5  UNL     1     -19.806  26.044 -10.001  1.00  0.00    -0.266 OA
ENDBRANCH  27  28
ENDBRANCH   9  27
TORSDOF 9
ENDMDL
MODEL 4
REMARK VINA RESULT: -7.476588384      2.727      5.215
REMARK  9 active torsions:
REMARK  status: ('A' for Active; 'I' for Inactive)
REMARK    1  A    between atoms: C2_2  and  O1_3 
REMARK    2  A    between atoms: O1_3  and  C3_4 
REMARK    3  A    between atoms: C3_4  and  C4_6 
REMARK    4  A    between atoms: C4_6  and  N1_7 
REMARK    5  A    between atoms: N1_7  and  O3_8 
REMARK    6  A    between atoms: N1_7  and  C5_10 
REMARK    7  A    between atoms: C8_13  and  C9_15 
REMARK    8  A    between atoms: C16_22  and  O4_23 
REMARK    9  A    between atoms: O4_23  and  C17_24 
ROOT
HETATM    1  C5  UNL     1     -18.883  21.805 -15.403  1.00  0.00     0.043 C 
HETATM    2  C6  UNL     1     -18.950  21.086 -14.298  1.00  0.00    -0.015 C 
HETATM    3  C7  UNL     1     -18.331  21.310 -12.966  1.00  0.00    -0.027 C 
HETATM    4  C8  UNL     1     -18.660  22.379 -12.308  1.00  0.00     0.026 C 
HETATM    5 CL1  UNL     1     -19.851  23.584 -12.944  1.00  0.00    -0.088 Cl
HETATM    6  C13 UNL     1     -17.457  20.175 -12.528  1.00  0.00     0.019 C 
HETATM    7  C14 UNL     1     -15.992  20.404 -12.802  1.00  0.00     0.015 C 
HETATM    8  C15 UNL     1     -17.780  18.990 -13.491  1.00  0.00     0.042 C 
HETATM    9  C16 UNL     1     -19.237  18.773 -13.661  1.00  0.00     0.145 C 
HETATM   10  C19 UNL     1     -19.742  19.849 -14.588  1.00  0.00     0.013 C 
HETATM   11  C20 UNL     1     -21.193  20.089 -14.250  1.00  0.00     0.023 C 
HETATM   12  C21 UNL     1     -19.584  19.653 -16.031  1.00  0.00     0.023 C 
HETATM   13  C22 UNL     1     -19.693  21.122 -16.503  1.00  0.00     0.061 C 
ENDROOT
BRANCH   1  14
HETATM   14  N1  UNL     1     -18.171  23.013 -15.592  1.00  0.00    -0.255 N 
BRANCH  14  15
HETATM   15  C4  UNL     1     -18.863  24.133 -16.154  1.00  0.00     0.266 C 
BRANCH  15  16
HETATM   16  C3  UNL     1     -18.594  24.368 -17.568  1.00  0.00     0.279 C 
HETATM   17  O2  UNL     1     -17.697  23.704 -18.134  1.00  0.00    -0.263 OA
BRANCH  16  18
HETATM   18  O1  UNL     1     -19.290  25.297 -18.307  1.00  0.00    -0.321 OA
BRANCH  18  19
HETATM   19  C2  UNL     1     -20.200  26.244 -17.787  1.00  0.00     0.174 C 
HETATM   20  C1  UNL     1     -20.369  27.364 -18.812  1.00  0.00     0.034 C 
ENDBRANCH  18  19
ENDBRANCH  16  18
ENDBRANCH  15  16
ENDBRANCH  14  15
BRANCH  14  21
HETATM   21  O3  UNL     1     -16.989  23.109 -15.331  1.00  0.00    -0.287 OA
ATOM     22  H3  UNL     1     -16.666  22.792 -14.495  1.00  0.00     0.244 HD
ENDBRANCH  14  21
ENDBRANCH   1  14
BRANCH   4  23
HETATM   23  C9  UNL     1     -18.237  22.884 -11.006  1.00  0.00    -0.013 C 
HETATM   24  C10 UNL     1     -19.526  23.214 -10.226  1.00  0.00     0.020 C 
HETATM   25  C11 UNL     1     -17.638  24.297 -11.278  1.00  0.00     0.020 C 
HETATM   26  C12 UNL     1     -17.245  22.205 -10.181  1.00  0.00     0.020 C 
ENDBRANCH   4  23
BRANCH   9  27
HETATM   27  O4  UNL     1     -19.660  17.500 -13.968  1.00  0.00    -0.315 OA
BRANCH  27  28
HETATM   28  C17 UNL     1     -20.345  16.670 -13.094  1.00  0.00     0.255 C 
HETATM   29  C18 UNL     1     -21.813  16.647 -13.094  1.00  0.00     0.126 C 
HETATM   30  O5  UNL     1     -19.636  15.971 -12.338  1.00  0.00    -0.266 OA
ENDBRANCH  27  28
ENDBRANCH   9  27
TORSDOF 9
ENDMDL
MODEL 5
REMARK VINA RESULT: -7.303919519      1.821      6.458
REMARK  9 active torsions:
REMARK  status: ('A' for Active; 'I' for Inactive)
REMARK    1  A    between atoms: C2_2  and  O1_3 
REMARK    2  A    between atoms: O1_3  and  C3_4 
REMARK    3  A    between atoms: C3_4  and  C4_6 
REMARK    4  A    between atoms: C4_6  and  N1_7 
REMARK    5  A    between atoms: N1_7  and  O3_8 
REMARK    6  A    between atoms: N1_7  and  C5_10 
REMARK    7  A    between atoms: C8_13  and  C9_15 
REMARK    8  A    between atoms: C16_22  and  O4_23 
REMARK    9  A    between atoms: O4_23  and  C17_24 
ROOT
HETATM    1  C5  UNL     1     -17.760  20.880 -12.392  1.00  0.00     0.043 C 
HETATM    2  C6  UNL     1     -18.270  22.010 -12.847  1.00  0.00    -0.015 C 
HETATM    3  C7  UNL     1     -18.624  22.417 -14.231  1.00  0.00    -0.027 C 
HETATM    4  C8  UNL     1     -19.534  21.737 -14.857  1.00  0.00     0.026 C 
HETATM    5 CL1  UNL     1     -20.393  20.335 -14.101  1.00  0.00    -0.088 Cl
HETATM    6  C13 UNL     1     -17.912  23.658 -14.676  1.00  0.00     0.019 C 
HETATM    7  C14 UNL     1     -16.681  23.381 -15.501  1.00  0.00     0.015 C 
HETATM    8  C15 UNL     1     -17.298  24.285 -13.386  1.00  0.00     0.042 C 
HETATM    9  C16 UNL     1     -18.269  24.356 -12.268  1.00  0.00     0.145 C 
HETATM   10  C19 UNL     1     -18.395  22.965 -11.701  1.00  0.00     0.013 C 
HETATM   11  C20 UNL     1     -19.774  22.849 -11.098  1.00  0.00     0.023 C 
HETATM   12  C21 UNL     1     -17.385  22.511 -10.743  1.00  0.00     0.023 C 
HETATM   13  C22 UNL     1     -17.571  20.981 -10.879  1.00  0.00     0.061 C 
ENDROOT
BRANCH   1  14
HETATM   14  N1  UNL     1     -17.410  19.738 -13.149  1.00  0.00    -0.255 N 
BRANCH  14  15
HETATM   15  C4  UNL     1     -18.191  18.548 -12.991  1.00  0.00     0.266 C 
BRANCH  15  16
HETATM   16  C3  UNL     1     -17.504  17.455 -12.313  1.00  0.00     0.279 C 
HETATM   17  O2  UNL     1     -16.276  17.552 -12.094  1.00  0.00    -0.263 OA
BRANCH  16  18
HETATM   18  O1  UNL     1     -18.156  16.315 -11.903  1.00  0.00    -0.321 OA
BRANCH  18  19
HETATM   19  C2  UNL     1     -19.538  16.060 -12.057  1.00  0.00     0.174 C 
HETATM   20  C1  UNL     1     -19.933  14.946 -11.089  1.00  0.00     0.034 C 
ENDBRANCH  18  19
ENDBRANCH  16  18
ENDBRANCH  15  16
ENDBRANCH  14  15
BRANCH  14  21
HETATM   21  O3  UNL     1     -16.449  19.728 -13.891  1.00  0.00    -0.287 OA
ATOM     22  H3  UNL     1     -16.574  19.564 -14.818  1.00  0.00     0.244 HD
ENDBRANCH  14  21
ENDBRANCH   1  14
BRANCH   4  23
HETATM   23  C9  UNL     1     -20.094  21.871 -16.198  1.00  0.00    -0.013 C 
HETATM   24  C10 UNL     1     -21.264  20.870 -16.285  1.00  0.00     0.020 C 
HETATM   25  C11 UNL     1     -19.041  21.242 -17.159  1.00  0.00     0.020 C 
HETATM   26  C12 UNL     1     -20.422  23.163 -16.789  1.00  0.00     0.020 C 
ENDBRANCH   4  23
BRANCH   9  27
HETATM   27  O4  UNL     1     -18.090  25.349 -11.331  1.00  0.00    -0.315 OA
BRANCH  27  28
HETATM   28  C17 UNL     1     -19.042  26.306 -11.013  1.00  0.00     0.255 C 
HETATM   29  C18 UNL     1     -19.116  27.556 -11.780  1.00  0.00     0.126 C 
HETATM   30  O5  UNL     1     -19.800  26.025 -10.061  1.00  0.00    -0.266 OA
ENDBRANCH  27  28
ENDBRANCH   9  27
TORSDOF 9
ENDMDL
