MODEL 1
REMARK VINA RESULT: -7.264798811      0.000      0.000
REMARK  4 active torsions:
REMARK  status: ('A' for Active; 'I' for Inactive)
REMARK    1  A    between atoms: N1_1  and  N2_4 
REMARK    2  A    between atoms: C3_8  and  N3_9 
REMARK    3  A    between atoms: N3_9  and  C4_11 
REMARK    4  A    between atoms: C9_21  and  C10_22 
ROOT
HETATM    1  N2  UNL     1     -10.296 -28.283 -26.568  1.00  0.00    -0.292 N 
ATOM      2  H2  UNL     1      -9.717 -28.569 -27.358  1.00  0.00     0.188 HD
HETATM    3  C1  UNL     1     -11.567 -28.243 -26.740  1.00  0.00     0.124 A 
HETATM    4  C2  UNL     1     -12.397 -27.864 -25.704  1.00  0.00     0.098 A 
HETATM    5  C3  UNL     1     -13.770 -27.839 -25.947  1.00  0.00     0.106 A 
HETATM    6  N5  UNL     1     -14.157 -28.189 -27.176  1.00  0.00    -0.326 N 
ATOM      7  H5  UNL     1     -15.160 -28.174 -27.362  1.00  0.00     0.169 HD
HETATM    8  C9  UNL     1     -13.375 -28.553 -28.177  1.00  0.00     0.146 A 
HETATM    9  N6  UNL     1     -12.045 -28.580 -27.949  1.00  0.00    -0.325 N 
ATOM     10  H6  UNL     1     -11.404 -28.856 -28.693  1.00  0.00     0.169 HD
ENDROOT
BRANCH   5  11
HETATM   11  N3  UNL     1     -14.702 -27.463 -24.951  1.00  0.00    -0.371 N 
ATOM     12  H3  UNL     1     -14.904 -28.093 -24.175  1.00  0.00     0.161 HD
BRANCH  11  13
HETATM   13  C4  UNL     1     -15.359 -26.198 -25.037  1.00  0.00     0.086 C 
HETATM   14  C5  UNL     1     -14.883 -25.225 -23.974  1.00  0.00     0.052 C 
HETATM   15  C6  UNL     1     -15.614 -23.924 -24.231  1.00  0.00     0.234 C 
HETATM   16  N4  UNL     1     -17.014 -24.144 -23.932  1.00  0.00    -0.075 N 
HETATM   17  C7  UNL     1     -17.376 -25.522 -23.830  1.00  0.00     0.234 C 
ATOM     18  H42 UNL     1     -17.283 -23.639 -23.087  1.00  0.00     0.277 HD
ATOM     19  H41 UNL     1     -17.605 -23.667 -24.612  1.00  0.00     0.277 HD
HETATM   20  C8  UNL     1     -16.847 -26.384 -24.956  1.00  0.00     0.052 C 
ENDBRANCH  11  13
ENDBRANCH   5  11
BRANCH   8  21
HETATM   21  C10 UNL     1     -13.953 -28.907 -29.463  1.00  0.00     0.307 C 
HETATM   22  O1  UNL     1     -13.215 -29.322 -30.377  1.00  0.00    -0.298 OA
ENDBRANCH   8  21
BRANCH   1  23
HETATM   23  N1  UNL     1      -9.653 -27.964 -25.378  1.00  0.00    -0.344 N 
ATOM     24  H12 UNL     1     -10.249 -27.710 -24.590  1.00  0.00     0.176 HD
ATOM     25  H11 UNL     1      -8.641 -27.968 -25.249  1.00  0.00     0.176 HD
ENDBRANCH   1  23
TORSDOF 4
ENDMDL
MODEL 2
REMARK VINA RESULT: -7.117499172      1.875      2.960
REMARK  4 active torsions:
REMARK  status: ('A' for Active; 'I' for Inactive)
REMARK    1  A    between atoms: N1_1  and  N2_4 
REMARK    2  A    between atoms: C3_8  and  N3_9 
REMARK    3  A    between atoms: N3_9  and  C4_11 
REMARK    4  A    between atoms: C9_21  and  C10_22 
ROOT
HETATM    1  N2  UNL     1     -13.124 -28.878 -29.112  1.00  0.00    -0.292 N 
ATOM      2  H2  UNL     1     -12.348 -29.169 -29.707  1.00  0.00     0.188 HD
HETATM    3  C1  UNL     1     -12.862 -28.573 -27.893  1.00  0.00     0.124 A 
HETATM    4  C2  UNL     1     -13.874 -28.172 -27.044  1.00  0.00     0.098 A 
HETATM    5  C3  UNL     1     -13.532 -27.852 -25.731  1.00  0.00     0.106 A 
HETATM    6  N5  UNL     1     -12.240 -27.966 -25.414  1.00  0.00    -0.326 N 
ATOM      7  H5  UNL     1     -11.982 -27.734 -24.455  1.00  0.00     0.169 HD
HETATM    8  C9  UNL     1     -11.262 -28.350 -26.215  1.00  0.00     0.146 A 
HETATM    9  N6  UNL     1     -11.584 -28.660 -27.487  1.00  0.00    -0.325 N 
ATOM     10  H6  UNL     1     -10.860 -28.960 -28.140  1.00  0.00     0.169 HD
ENDROOT
BRANCH   5  11
HETATM   11  N3  UNL     1     -14.497 -27.431 -24.785  1.00  0.00    -0.371 N 
ATOM     12  H3  UNL     1     -14.715 -28.019 -23.980  1.00  0.00     0.161 HD
BRANCH  11  13
HETATM   13  C4  UNL     1     -15.165 -26.181 -24.963  1.00  0.00     0.086 C 
HETATM   14  C5  UNL     1     -14.815 -25.179 -23.879  1.00  0.00     0.052 C 
HETATM   15  C6  UNL     1     -15.540 -23.898 -24.235  1.00  0.00     0.234 C 
HETATM   16  N4  UNL     1     -16.958 -24.140 -24.071  1.00  0.00    -0.075 N 
HETATM   17  C7  UNL     1     -17.304 -25.523 -23.976  1.00  0.00     0.234 C 
ATOM     18  H42 UNL     1     -17.319 -23.624 -23.267  1.00  0.00     0.277 HD
ATOM     19  H41 UNL     1     -17.487 -23.688 -24.816  1.00  0.00     0.277 HD
HETATM   20  C8  UNL     1     -16.650 -26.396 -25.025  1.00  0.00     0.052 C 
ENDBRANCH  11  13
ENDBRANCH   5  11
BRANCH   8  21
HETATM   21  C10 UNL     1      -9.897 -28.424 -25.715  1.00  0.00     0.307 C 
HETATM   22  O1  UNL     1      -9.382 -29.537 -25.497  1.00  0.00    -0.298 OA
ENDBRANCH   8  21
BRANCH   1  23
HETATM   23  N1  UNL     1     -14.392 -28.838 -29.677  1.00  0.00    -0.344 N 
ATOM     24  H12 UNL     1     -14.765 -29.720 -30.028  1.00  0.00     0.176 HD
ATOM     25  H11 UNL     1     -14.961 -27.995 -29.760  1.00  0.00     0.176 HD
ENDBRANCH   1  23
TORSDOF 4
ENDMDL
MODEL 3
REMARK VINA RESULT: -7.090084918      2.080      3.297
REMARK  4 active torsions:
REMARK  status: ('A' for Active; 'I' for Inactive)
REMARK    1  A    between atoms: N1_1  and  N2_4 
REMARK    2  A    between atoms: C3_8  and  N3_9 
REMARK    3  A    between atoms: N3_9  and  C4_11 
REMARK    4  A    between atoms: C9_21  and  C10_22 
ROOT
HETATM    1  N2  UNL     1     -13.008 -29.051 -28.829  1.00  0.00    -0.292 N 
ATOM      2  H2  UNL     1     -12.391 -29.761 -29.224  1.00  0.00     0.188 HD
HETATM    3  C1  UNL     1     -12.611 -28.432 -27.777  1.00  0.00     0.124 A 
HETATM    4  C2  UNL     1     -13.406 -27.461 -27.201  1.00  0.00     0.098 A 
HETATM    5  C3  UNL     1     -12.925 -26.820 -26.060  1.00  0.00     0.106 A 
HETATM    6  N5  UNL     1     -11.724 -27.210 -25.627  1.00  0.00    -0.326 N 
ATOM      7  H5  UNL     1     -11.364 -26.746 -24.794  1.00  0.00     0.169 HD
HETATM    8  C9  UNL     1     -10.953 -28.138 -26.168  1.00  0.00     0.146 A 
HETATM    9  N6  UNL     1     -11.411 -28.762 -27.272  1.00  0.00    -0.325 N 
ATOM     10  H6  UNL     1     -10.848 -29.484 -27.723  1.00  0.00     0.169 HD
ENDROOT
BRANCH   5  11
HETATM   11  N3  UNL     1     -13.665 -25.813 -25.396  1.00  0.00    -0.371 N 
ATOM     12  H3  UNL     1     -13.407 -24.832 -25.504  1.00  0.00     0.161 HD
BRANCH  11  13
HETATM   13  C4  UNL     1     -14.774 -26.176 -24.573  1.00  0.00     0.086 C 
HETATM   14  C5  UNL     1     -15.957 -26.673 -25.383  1.00  0.00     0.052 C 
HETATM   15  C6  UNL     1     -17.019 -27.076 -24.380  1.00  0.00     0.234 C 
HETATM   16  N4  UNL     1     -17.492 -25.868 -23.737  1.00  0.00    -0.075 N 
HETATM   17  C7  UNL     1     -16.645 -24.735 -23.936  1.00  0.00     0.234 C 
ATOM     18  H42 UNL     1     -18.447 -25.658 -24.029  1.00  0.00     0.277 HD
ATOM     19  H41 UNL     1     -17.648 -26.029 -22.742  1.00  0.00     0.277 HD
HETATM   20  C8  UNL     1     -15.175 -25.016 -23.709  1.00  0.00     0.052 C 
ENDBRANCH  11  13
ENDBRANCH   5  11
BRANCH   8  21
HETATM   21  C10 UNL     1      -9.663 -28.451 -25.573  1.00  0.00     0.307 C 
HETATM   22  O1  UNL     1      -9.323 -29.641 -25.431  1.00  0.00    -0.298 OA
ENDBRANCH   8  21
BRANCH   1  23
HETATM   23  N1  UNL     1     -14.222 -28.821 -29.466  1.00  0.00    -0.344 N 
ATOM     24  H12 UNL     1     -14.977 -28.450 -28.890  1.00  0.00     0.176 HD
ATOM     25  H11 UNL     1     -14.397 -28.998 -30.455  1.00  0.00     0.176 HD
ENDBRANCH   1  23
TORSDOF 4
ENDMDL
MODEL 4
REMARK VINA RESULT: -6.995838426      1.200      1.691
REMARK  4 active torsions:
REMARK  status: ('A' for Active; 'I' for Inactive)
REMARK    1  A    between atoms: N1_1  and  N2_4 
REMARK    2  A    between atoms: C3_8  and  N3_9 
REMARK    3  A    between atoms: N3_9  and  C4_11 
REMARK    4  A    between atoms: C9_21  and  C10_22 
ROOT
HETATM    1  N2  UNL     1     -10.358 -28.392 -26.383  1.00  0.00    -0.292 N 
ATOM      2  H2  UNL     1      -9.799 -28.958 -27.021  1.00  0.00     0.188 HD
HETATM    3  C1  UNL     1     -11.578 -28.157 -26.702  1.00  0.00     0.124 A 
HETATM    4  C2  UNL     1     -12.380 -27.398 -25.874  1.00  0.00     0.098 A 
HETATM    5  C3  UNL     1     -13.698 -27.175 -26.270  1.00  0.00     0.106 A 
HETATM    6  N5  UNL     1     -14.066 -27.725 -27.430  1.00  0.00    -0.326 N 
ATOM      7  H5  UNL     1     -15.028 -27.568 -27.726  1.00  0.00     0.169 HD
HETATM    8  C9  UNL     1     -13.310 -28.454 -28.233  1.00  0.00     0.146 A 
HETATM    9  N6  UNL     1     -12.033 -28.674 -27.856  1.00  0.00    -0.325 N 
ATOM     10  H6  UNL     1     -11.415 -29.231 -28.445  1.00  0.00     0.169 HD
ENDROOT
BRANCH   5  11
HETATM   11  N3  UNL     1     -14.597 -26.409 -25.491  1.00  0.00    -0.371 N 
ATOM     12  H3  UNL     1     -14.488 -25.397 -25.429  1.00  0.00     0.161 HD
BRANCH  11  13
HETATM   13  C4  UNL     1     -15.658 -27.060 -24.790  1.00  0.00     0.086 C 
HETATM   14  C5  UNL     1     -16.956 -27.059 -25.576  1.00  0.00     0.052 C 
HETATM   15  C6  UNL     1     -17.958 -27.831 -24.742  1.00  0.00     0.234 C 
HETATM   16  N4  UNL     1     -18.240 -27.043 -23.560  1.00  0.00    -0.075 N 
HETATM   17  C7  UNL     1     -17.300 -25.993 -23.324  1.00  0.00     0.234 C 
ATOM     18  H42 UNL     1     -19.190 -26.672 -23.595  1.00  0.00     0.277 HD
ATOM     19  H41 UNL     1     -18.320 -27.644 -22.740  1.00  0.00     0.277 HD
HETATM   20  C8  UNL     1     -15.853 -26.421 -23.445  1.00  0.00     0.052 C 
ENDBRANCH  11  13
ENDBRANCH   5  11
BRANCH   8  21
HETATM   21  C10 UNL     1     -13.861 -28.985 -29.469  1.00  0.00     0.307 C 
HETATM   22  O1  UNL     1     -13.091 -29.349 -30.379  1.00  0.00    -0.298 OA
ENDBRANCH   8  21
BRANCH   1  23
HETATM   23  N1  UNL     1      -9.745 -27.928 -25.225  1.00  0.00    -0.344 N 
ATOM     24  H12 UNL     1     -10.348 -27.780 -24.416  1.00  0.00     0.176 HD
ATOM     25  H11 UNL     1      -8.747 -27.730 -25.139  1.00  0.00     0.176 HD
ENDBRANCH   1  23
TORSDOF 4
ENDMDL
MODEL 5
REMARK VINA RESULT: -6.960761662      1.318      1.689
REMARK  4 active torsions:
REMARK  status: ('A' for Active; 'I' for Inactive)
REMARK    1  A    between atoms: N1_1  and  N2_4 
REMARK    2  A    between atoms: C3_8  and  N3_9 
REMARK    3  A    between atoms: N3_9  and  C4_11 
REMARK    4  A    between atoms: C9_21  and  C10_22 
ROOT
HETATM    1  N2  UNL     1     -10.314 -28.325 -26.411  1.00  0.00    -0.292 N 
ATOM      2  H2  UNL     1      -9.741 -28.788 -27.116  1.00  0.00     0.188 HD
HETATM    3  C1  UNL     1     -11.559 -28.150 -26.671  1.00  0.00     0.124 A 
HETATM    4  C2  UNL     1     -12.380 -27.531 -25.751  1.00  0.00     0.098 A 
HETATM    5  C3  UNL     1     -13.725 -27.368 -26.085  1.00  0.00     0.106 A 
HETATM    6  N5  UNL     1     -14.095 -27.834 -27.280  1.00  0.00    -0.326 N 
ATOM      7  H5  UNL     1     -15.076 -27.720 -27.532  1.00  0.00     0.169 HD
HETATM    8  C9  UNL     1     -13.319 -28.429 -28.171  1.00  0.00     0.146 A 
HETATM    9  N6  UNL     1     -12.018 -28.590 -27.854  1.00  0.00    -0.325 N 
ATOM     10  H6  UNL     1     -11.384 -29.045 -28.511  1.00  0.00     0.169 HD
ENDROOT
BRANCH   5  11
HETATM   11  N3  UNL     1     -14.645 -26.744 -25.211  1.00  0.00    -0.371 N 
ATOM     12  H3  UNL     1     -14.314 -26.105 -24.489  1.00  0.00     0.161 HD
BRANCH  11  13
HETATM   13  C4  UNL     1     -16.042 -27.015 -25.344  1.00  0.00     0.086 C 
HETATM   14  C5  UNL     1     -16.899 -26.005 -24.604  1.00  0.00     0.052 C 
HETATM   15  C6  UNL     1     -18.339 -26.382 -24.887  1.00  0.00     0.234 C 
HETATM   16  N4  UNL     1     -18.598 -27.643 -24.225  1.00  0.00    -0.075 N 
HETATM   17  C7  UNL     1     -17.418 -28.335 -23.812  1.00  0.00     0.234 C 
ATOM     18  H42 UNL     1     -19.231 -27.510 -23.435  1.00  0.00     0.277 HD
ATOM     19  H41 UNL     1     -19.179 -28.242 -24.811  1.00  0.00     0.277 HD
HETATM   20  C8  UNL     1     -16.342 -28.409 -24.874  1.00  0.00     0.052 C 
ENDBRANCH  11  13
ENDBRANCH   5  11
BRANCH   8  21
HETATM   21  C10 UNL     1     -13.877 -28.882 -29.435  1.00  0.00     0.307 C 
HETATM   22  O1  UNL     1     -13.113 -29.274 -30.339  1.00  0.00    -0.298 OA
ENDBRANCH   8  21
BRANCH   1  23
HETATM   23  N1  UNL     1      -9.693 -27.926 -25.233  1.00  0.00    -0.344 N 
ATOM     24  H12 UNL     1     -10.292 -27.515 -24.517  1.00  0.00     0.176 HD
ATOM     25  H11 UNL     1      -8.695 -28.020 -25.046  1.00  0.00     0.176 HD
ENDBRANCH   1  23
TORSDOF 4
ENDMDL
