MODEL 1
REMARK VINA RESULT: -7.426509540      0.000      0.000
REMARK  6 active torsions:
REMARK  status: ('A' for Active; 'I' for Inactive)
REMARK    1  A    between atoms: C2_2  and  C3_3 
REMARK    2  A    between atoms: C3_3  and  N1_4 
REMARK    3  A    between atoms: C4_5  and  N2_6 
REMARK    4  A    between atoms: C7_14  and  N4_15 
REMARK    5  A    between atoms: N4_15  and  N5_17 
REMARK    6  A    between atoms: N5_17  and  O2_19 
ROOT
HETATM    1  N1  UNL     1     -15.386 -26.769 -25.256  1.00  0.00    -0.164 N 
HETATM    2  C4  UNL     1     -16.623 -26.959 -25.750  1.00  0.00     0.682 A 
HETATM    3  N3  UNL     1     -16.828 -27.695 -26.880  1.00  0.00    -0.155 N 
ATOM      4  H3  UNL     1     -17.778 -27.821 -27.229  1.00  0.00     0.187 HD
HETATM    5  C5  UNL     1     -15.802 -28.260 -27.544  1.00  0.00     0.277 A 
HETATM    6  O1  UNL     1     -15.996 -28.939 -28.585  1.00  0.00    -0.266 OA
HETATM    7  C6  UNL     1     -14.540 -28.084 -27.065  1.00  0.00     0.122 A 
HETATM    8  C7  UNL     1     -13.469 -28.653 -27.727  1.00  0.00     0.142 A 
HETATM    9  N6  UNL     1     -12.250 -28.436 -27.195  1.00  0.00    -0.337 N 
ATOM     10  H6  UNL     1     -11.435 -28.840 -27.656  1.00  0.00     0.168 HD
HETATM   11  C8  UNL     1     -12.066 -27.704 -26.078  1.00  0.00     0.183 A 
HETATM   12  N7  UNL     1     -13.110 -27.151 -25.434  1.00  0.00    -0.337 N 
ATOM     13  H7  UNL     1     -12.957 -26.600 -24.589  1.00  0.00     0.168 HD
HETATM   14  C9  UNL     1     -14.350 -27.327 -25.909  1.00  0.00     0.144 A 
ENDROOT
BRANCH   8  15
HETATM   15  N4  UNL     1     -13.648 -29.354 -28.799  1.00  0.00    -0.265 N 
ATOM     16  H4  UNL     1     -14.317 -30.124 -28.816  1.00  0.00     0.190 HD
BRANCH  15  17
HETATM   17  N5  UNL     1     -12.901 -29.026 -29.933  1.00  0.00    -0.208 N 
ATOM     18  H5  UNL     1     -13.388 -28.828 -30.808  1.00  0.00     0.215 HD
BRANCH  17  19
HETATM   19  O2  UNL     1     -11.645 -28.969 -29.907  1.00  0.00    -0.274 OA
ATOM     20  H2  UNL     1     -11.148 -28.544 -30.597  1.00  0.00     0.246 HD
ENDBRANCH  17  19
ENDBRANCH  15  17
ENDBRANCH   8  15
BRANCH   1  21
HETATM   21  C3  UNL     1     -15.198 -25.975 -24.044  1.00  0.00     0.176 C 
BRANCH  21  22
HETATM   22  C2  UNL     1     -14.768 -24.596 -24.386  1.00  0.00    -0.016 C 
HETATM   23  C1  UNL     1     -15.569 -23.584 -24.112  1.00  0.00     0.008 C 
ENDBRANCH  21  22
ENDBRANCH   1  21
BRANCH   2  24
HETATM   24  N2  UNL     1     -17.609 -26.419 -25.118  1.00  0.00    -0.234 N 
ATOM     25  H22 UNL     1     -17.475 -25.981 -24.208  1.00  0.00     0.174 HD
ATOM     26  H21 UNL     1     -18.528 -26.448 -25.561  1.00  0.00     0.174 HD
ENDBRANCH   2  24
TORSDOF 6
ENDMDL
MODEL 2
REMARK VINA RESULT: -7.224824248      1.170      1.357
REMARK  6 active torsions:
REMARK  status: ('A' for Active; 'I' for Inactive)
REMARK    1  A    between atoms: C2_2  and  C3_3 
REMARK    2  A    between atoms: C3_3  and  N1_4 
REMARK    3  A    between atoms: C4_5  and  N2_6 
REMARK    4  A    between atoms: C7_14  and  N4_15 
REMARK    5  A    between atoms: N4_15  and  N5_17 
REMARK    6  A    between atoms: N5_17  and  O2_19 
ROOT
HETATM    1  N1  UNL     1     -16.191 -26.548 -25.333  1.00  0.00    -0.164 N 
HETATM    2  C4  UNL     1     -17.211 -27.168 -25.954  1.00  0.00     0.682 A 
HETATM    3  N3  UNL     1     -16.994 -27.988 -27.023  1.00  0.00    -0.155 N 
ATOM      4  H3  UNL     1     -17.788 -28.443 -27.472  1.00  0.00     0.187 HD
HETATM    5  C5  UNL     1     -15.752 -28.208 -27.495  1.00  0.00     0.277 A 
HETATM    6  O1  UNL     1     -15.557 -28.966 -28.481  1.00  0.00    -0.266 OA
HETATM    7  C6  UNL     1     -14.703 -27.594 -26.884  1.00  0.00     0.122 A 
HETATM    8  C7  UNL     1     -13.419 -27.804 -27.350  1.00  0.00     0.142 A 
HETATM    9  N6  UNL     1     -12.431 -27.163 -26.695  1.00  0.00    -0.337 N 
ATOM     10  H6  UNL     1     -11.470 -27.293 -27.010  1.00  0.00     0.168 HD
HETATM   11  C8  UNL     1     -12.664 -26.355 -25.641  1.00  0.00     0.183 A 
HETATM   12  N7  UNL     1     -13.915 -26.152 -25.189  1.00  0.00    -0.337 N 
ATOM     13  H7  UNL     1     -14.077 -25.539 -24.390  1.00  0.00     0.168 HD
HETATM   14  C9  UNL     1     -14.945 -26.759 -25.794  1.00  0.00     0.144 A 
ENDROOT
BRANCH   8  15
HETATM   15  N4  UNL     1     -13.199 -28.579 -28.362  1.00  0.00    -0.265 N 
ATOM     16  H4  UNL     1     -13.962 -29.089 -28.807  1.00  0.00     0.190 HD
BRANCH  15  17
HETATM   17  N5  UNL     1     -11.887 -28.697 -28.828  1.00  0.00    -0.208 N 
ATOM     18  H5  UNL     1     -11.115 -28.539 -28.180  1.00  0.00     0.215 HD
BRANCH  17  19
HETATM   19  O2  UNL     1     -11.631 -28.992 -30.023  1.00  0.00    -0.274 OA
ATOM     20  H2  UNL     1     -11.520 -29.893 -30.304  1.00  0.00     0.246 HD
ENDBRANCH  17  19
ENDBRANCH  15  17
ENDBRANCH   8  15
BRANCH   1  21
HETATM   21  C3  UNL     1     -16.455 -25.675 -24.190  1.00  0.00     0.176 C 
BRANCH  21  22
HETATM   22  C2  UNL     1     -16.285 -26.420 -22.917  1.00  0.00    -0.016 C 
HETATM   23  C1  UNL     1     -15.674 -25.835 -21.905  1.00  0.00     0.008 C 
ENDBRANCH  21  22
ENDBRANCH   1  21
BRANCH   2  24
HETATM   24  N2  UNL     1     -18.401 -26.959 -25.505  1.00  0.00    -0.234 N 
ATOM     25  H22 UNL     1     -19.183 -27.549 -25.790  1.00  0.00     0.174 HD
ATOM     26  H21 UNL     1     -18.533 -26.183 -24.857  1.00  0.00     0.174 HD
ENDBRANCH   2  24
TORSDOF 6
ENDMDL
MODEL 3
REMARK VINA RESULT: -7.106324171      2.381      4.374
REMARK  6 active torsions:
REMARK  status: ('A' for Active; 'I' for Inactive)
REMARK    1  A    between atoms: C2_2  and  C3_3 
REMARK    2  A    between atoms: C3_3  and  N1_4 
REMARK    3  A    between atoms: C4_5  and  N2_6 
REMARK    4  A    between atoms: C7_14  and  N4_15 
REMARK    5  A    between atoms: N4_15  and  N5_17 
REMARK    6  A    between atoms: N5_17  and  O2_19 
ROOT
HETATM    1  N1  UNL     1     -17.234 -28.207 -27.547  1.00  0.00    -0.164 N 
HETATM    2  C4  UNL     1     -17.917 -27.698 -26.506  1.00  0.00     0.682 A 
HETATM    3  N3  UNL     1     -17.273 -27.102 -25.462  1.00  0.00    -0.155 N 
ATOM      4  H3  UNL     1     -17.820 -26.726 -24.687  1.00  0.00     0.187 HD
HETATM    5  C5  UNL     1     -15.931 -26.999 -25.433  1.00  0.00     0.277 A 
HETATM    6  O1  UNL     1     -15.342 -26.448 -24.467  1.00  0.00    -0.266 OA
HETATM    7  C6  UNL     1     -15.216 -27.505 -26.474  1.00  0.00     0.122 A 
HETATM    8  C7  UNL     1     -13.837 -27.413 -26.468  1.00  0.00     0.142 A 
HETATM    9  N6  UNL     1     -13.197 -27.937 -27.532  1.00  0.00    -0.337 N 
ATOM     10  H6  UNL     1     -12.178 -27.887 -27.564  1.00  0.00     0.168 HD
HETATM   11  C8  UNL     1     -13.849 -28.523 -28.556  1.00  0.00     0.183 A 
HETATM   12  N7  UNL     1     -15.192 -28.612 -28.560  1.00  0.00    -0.337 N 
ATOM     13  H7  UNL     1     -15.673 -29.058 -29.341  1.00  0.00     0.168 HD
HETATM   14  C9  UNL     1     -15.892 -28.112 -27.533  1.00  0.00     0.144 A 
ENDROOT
BRANCH   8  15
HETATM   15  N4  UNL     1     -13.214 -26.851 -25.485  1.00  0.00    -0.265 N 
ATOM     16  H4  UNL     1     -13.708 -26.589 -24.632  1.00  0.00     0.190 HD
BRANCH  15  17
HETATM   17  N5  UNL     1     -11.844 -26.611 -25.624  1.00  0.00    -0.208 N 
ATOM     18  H5  UNL     1     -11.534 -25.717 -26.007  1.00  0.00     0.215 HD
BRANCH  17  19
HETATM   19  O2  UNL     1     -10.984 -27.464 -25.289  1.00  0.00    -0.274 OA
ATOM     20  H2  UNL     1     -10.074 -27.390 -25.554  1.00  0.00     0.246 HD
ENDBRANCH  17  19
ENDBRANCH  15  17
ENDBRANCH   8  15
BRANCH   1  21
HETATM   21  C3  UNL     1     -17.951 -28.840 -28.652  1.00  0.00     0.176 C 
BRANCH  21  22
HETATM   22  C2  UNL     1     -18.387 -30.207 -28.274  1.00  0.00    -0.016 C 
HETATM   23  C1  UNL     1     -18.352 -31.168 -29.177  1.00  0.00     0.008 C 
ENDBRANCH  21  22
ENDBRANCH   1  21
BRANCH   2  24
HETATM   24  N2  UNL     1     -19.203 -27.794 -26.529  1.00  0.00    -0.234 N 
ATOM     25  H22 UNL     1     -19.695 -28.081 -27.375  1.00  0.00     0.174 HD
ATOM     26  H21 UNL     1     -19.710 -27.572 -25.673  1.00  0.00     0.174 HD
ENDBRANCH   2  24
TORSDOF 6
ENDMDL
MODEL 4
REMARK VINA RESULT: -7.084843306      2.349      3.720
REMARK  6 active torsions:
REMARK  status: ('A' for Active; 'I' for Inactive)
REMARK    1  A    between atoms: C2_2  and  C3_3 
REMARK    2  A    between atoms: C3_3  and  N1_4 
REMARK    3  A    between atoms: C4_5  and  N2_6 
REMARK    4  A    between atoms: C7_14  and  N4_15 
REMARK    5  A    between atoms: N4_15  and  N5_17 
REMARK    6  A    between atoms: N5_17  and  O2_19 
ROOT
HETATM    1  N1  UNL     1     -15.580 -27.463 -26.619  1.00  0.00    -0.164 N 
HETATM    2  C4  UNL     1     -15.387 -26.708 -25.522  1.00  0.00     0.682 A 
HETATM    3  N3  UNL     1     -14.135 -26.314 -25.146  1.00  0.00    -0.155 N 
ATOM      4  H3  UNL     1     -14.022 -25.742 -24.310  1.00  0.00     0.187 HD
HETATM    5  C5  UNL     1     -13.048 -26.664 -25.858  1.00  0.00     0.277 A 
HETATM    6  O1  UNL     1     -11.896 -26.298 -25.508  1.00  0.00    -0.266 OA
HETATM    7  C6  UNL     1     -13.216 -27.427 -26.972  1.00  0.00     0.122 A 
HETATM    8  C7  UNL     1     -12.115 -27.800 -27.721  1.00  0.00     0.142 A 
HETATM    9  N6  UNL     1     -12.359 -28.555 -28.810  1.00  0.00    -0.337 N 
ATOM     10  H6  UNL     1     -11.572 -28.850 -29.388  1.00  0.00     0.168 HD
HETATM   11  C8  UNL     1     -13.602 -28.936 -29.166  1.00  0.00     0.183 A 
HETATM   12  N7  UNL     1     -14.672 -28.572 -28.437  1.00  0.00    -0.337 N 
ATOM     13  H7  UNL     1     -15.608 -28.866 -28.717  1.00  0.00     0.168 HD
HETATM   14  C9  UNL     1     -14.502 -27.821 -27.340  1.00  0.00     0.144 A 
ENDROOT
BRANCH   8  15
HETATM   15  N4  UNL     1     -10.924 -27.434 -27.377  1.00  0.00    -0.265 N 
ATOM     16  H4  UNL     1     -10.568 -26.510 -27.623  1.00  0.00     0.190 HD
BRANCH  15  17
HETATM   17  N5  UNL     1     -10.137 -28.339 -26.660  1.00  0.00    -0.208 N 
ATOM     18  H5  UNL     1     -10.171 -29.328 -26.906  1.00  0.00     0.215 HD
BRANCH  17  19
HETATM   19  O2  UNL     1      -9.389 -27.968 -25.720  1.00  0.00    -0.274 OA
ATOM     20  H2  UNL     1      -8.449 -27.886 -25.830  1.00  0.00     0.246 HD
ENDBRANCH  17  19
ENDBRANCH  15  17
ENDBRANCH   8  15
BRANCH   1  21
HETATM   21  C3  UNL     1     -16.932 -27.869 -26.996  1.00  0.00     0.176 C 
BRANCH  21  22
HETATM   22  C2  UNL     1     -17.391 -28.997 -26.147  1.00  0.00    -0.016 C 
HETATM   23  C1  UNL     1     -18.626 -29.444 -26.282  1.00  0.00     0.008 C 
ENDBRANCH  21  22
ENDBRANCH   1  21
BRANCH   2  24
HETATM   24  N2  UNL     1     -16.425 -26.370 -24.837  1.00  0.00    -0.234 N 
ATOM     25  H22 UNL     1     -17.096 -27.069 -24.517  1.00  0.00     0.174 HD
ATOM     26  H21 UNL     1     -16.552 -25.380 -24.626  1.00  0.00     0.174 HD
ENDBRANCH   2  24
TORSDOF 6
ENDMDL
MODEL 5
REMARK VINA RESULT: -7.083169681      1.832      3.412
REMARK  6 active torsions:
REMARK  status: ('A' for Active; 'I' for Inactive)
REMARK    1  A    between atoms: C2_2  and  C3_3 
REMARK    2  A    between atoms: C3_3  and  N1_4 
REMARK    3  A    between atoms: C4_5  and  N2_6 
REMARK    4  A    between atoms: C7_14  and  N4_15 
REMARK    5  A    between atoms: N4_15  and  N5_17 
REMARK    6  A    between atoms: N5_17  and  O2_19 
ROOT
HETATM    1  N1  UNL     1     -15.782 -27.845 -27.180  1.00  0.00    -0.164 N 
HETATM    2  C4  UNL     1     -15.731 -28.531 -28.337  1.00  0.00     0.682 A 
HETATM    3  N3  UNL     1     -14.550 -28.727 -28.990  1.00  0.00    -0.155 N 
ATOM      4  H3  UNL     1     -14.544 -29.251 -29.865  1.00  0.00     0.187 HD
HETATM    5  C5  UNL     1     -13.391 -28.244 -28.503  1.00  0.00     0.277 A 
HETATM    6  O1  UNL     1     -12.304 -28.429 -29.109  1.00  0.00    -0.266 OA
HETATM    7  C6  UNL     1     -13.415 -27.548 -27.334  1.00  0.00     0.122 A 
HETATM    8  C7  UNL     1     -12.239 -27.042 -26.813  1.00  0.00     0.142 A 
HETATM    9  N6  UNL     1     -12.341 -26.364 -25.653  1.00  0.00    -0.337 N 
ATOM     10  H6  UNL     1     -11.495 -25.975 -25.236  1.00  0.00     0.168 HD
HETATM   11  C8  UNL     1     -13.517 -26.178 -25.021  1.00  0.00     0.183 A 
HETATM   12  N7  UNL     1     -14.661 -26.672 -25.529  1.00  0.00    -0.337 N 
ATOM     13  H7  UNL     1     -15.544 -26.525 -25.041  1.00  0.00     0.168 HD
HETATM   14  C9  UNL     1     -14.633 -27.357 -26.681  1.00  0.00     0.144 A 
ENDROOT
BRANCH   8  15
HETATM   15  N4  UNL     1     -11.113 -27.221 -27.421  1.00  0.00    -0.265 N 
ATOM     16  H4  UNL     1     -10.963 -26.860 -28.363  1.00  0.00     0.190 HD
BRANCH  15  17
HETATM   17  N5  UNL     1     -10.107 -27.923 -26.752  1.00  0.00    -0.208 N 
ATOM     18  H5  UNL     1      -9.484 -28.527 -27.288  1.00  0.00     0.215 HD
BRANCH  17  19
HETATM   19  O2  UNL     1      -9.947 -27.829 -25.509  1.00  0.00    -0.274 OA
ATOM     20  H2  UNL     1     -10.544 -28.240 -24.894  1.00  0.00     0.246 HD
ENDBRANCH  17  19
ENDBRANCH  15  17
ENDBRANCH   8  15
BRANCH   1  21
HETATM   21  C3  UNL     1     -17.063 -27.651 -26.503  1.00  0.00     0.176 C 
BRANCH  21  22
HETATM   22  C2  UNL     1     -17.288 -28.721 -25.499  1.00  0.00    -0.016 C 
HETATM   23  C1  UNL     1     -17.668 -28.391 -24.280  1.00  0.00     0.008 C 
ENDBRANCH  21  22
ENDBRANCH   1  21
BRANCH   2  24
HETATM   24  N2  UNL     1     -16.838 -28.995 -28.807  1.00  0.00    -0.234 N 
ATOM     25  H22 UNL     1     -17.717 -28.872 -28.304  1.00  0.00     0.174 HD
ATOM     26  H21 UNL     1     -16.803 -29.489 -29.699  1.00  0.00     0.174 HD
ENDBRANCH   2  24
TORSDOF 6
ENDMDL
