MODEL 1
REMARK VINA RESULT: -6.147160067      0.000      0.000
REMARK  4 active torsions:
REMARK  status: ('A' for Active; 'I' for Inactive)
REMARK    1  A    between atoms: N1_1  and  C1_4 
REMARK    2  A    between atoms: C2_9  and  S1_10 
REMARK    3  A    between atoms: S1_10  and  N4_11 
REMARK    4  A    between atoms: N5_16  and  N6_17 
ROOT
HETATM    1  C1  UNL     1      52.712  -8.369  27.760  1.00  0.00     0.713 A 
HETATM    2  N2  UNL     1      52.266  -8.801  26.578  1.00  0.00    -0.128 N 
ATOM      3  H2  UNL     1      51.975  -8.218  25.793  1.00  0.00     0.205 HD
HETATM    4  N3  UNL     1      52.269 -10.111  26.614  1.00  0.00    -0.258 N 
ATOM      5  H3  UNL     1      51.975 -10.708  25.841  1.00  0.00     0.190 HD
HETATM    6  C2  UNL     1      52.710 -10.565  27.798  1.00  0.00     0.276 A 
HETATM    7  N5  UNL     1      52.980  -9.455  28.497  1.00  0.00    -0.061 N 
ENDROOT
BRANCH   6   8
HETATM    8  S1  UNL     1      52.876 -12.243  28.274  1.00  0.00     0.292 S 
HETATM    9  O1  UNL     1      52.322 -12.457  29.664  1.00  0.00    -0.198 OA
HETATM   10  O2  UNL     1      52.160 -13.156  27.301  1.00  0.00    -0.198 OA
BRANCH   8  11
HETATM   11  N4  UNL     1      54.544 -12.623  28.253  1.00  0.00    -0.322 N 
ATOM     12  H42 UNL     1      55.047 -13.034  27.466  1.00  0.00     0.169 HD
ATOM     13  H41 UNL     1      54.930 -12.364  29.161  1.00  0.00     0.169 HD
ENDBRANCH   8  11
ENDBRANCH   6   8
BRANCH   7  14
HETATM   14  N6  UNL     1      53.471  -9.448  29.805  1.00  0.00    -0.322 N 
ATOM     15  H62 UNL     1      54.333  -9.909  30.098  1.00  0.00     0.178 HD
ATOM     16  H61 UNL     1      53.032  -8.987  30.602  1.00  0.00     0.178 HD
ENDBRANCH   7  14
BRANCH   1  17
HETATM   17  N1  UNL     1      52.862  -7.110  28.134  1.00  0.00    -0.231 N 
ATOM     18  H12 UNL     1      53.685  -6.706  28.580  1.00  0.00     0.174 HD
ATOM     19  H11 UNL     1      52.178  -6.360  28.034  1.00  0.00     0.174 HD
ENDBRANCH   1  17
TORSDOF 4
ENDMDL
MODEL 2
REMARK VINA RESULT: -5.952899219      2.959      3.983
REMARK  4 active torsions:
REMARK  status: ('A' for Active; 'I' for Inactive)
REMARK    1  A    between atoms: N1_1  and  C1_4 
REMARK    2  A    between atoms: C2_9  and  S1_10 
REMARK    3  A    between atoms: S1_10  and  N4_11 
REMARK    4  A    between atoms: N5_16  and  N6_17 
ROOT
HETATM    1  C1  UNL     1      52.304 -11.863  28.416  1.00  0.00     0.713 A 
HETATM    2  N2  UNL     1      52.194 -11.846  27.085  1.00  0.00    -0.128 N 
ATOM      3  H2  UNL     1      52.024 -12.652  26.483  1.00  0.00     0.205 HD
HETATM    4  N3  UNL     1      52.342 -10.603  26.697  1.00  0.00    -0.258 N 
ATOM      5  H3  UNL     1      52.304 -10.296  25.725  1.00  0.00     0.190 HD
HETATM    6  C2  UNL     1      52.550  -9.787  27.742  1.00  0.00     0.276 A 
HETATM    7  N5  UNL     1      52.522 -10.600  28.807  1.00  0.00    -0.061 N 
ENDROOT
BRANCH   6   8
HETATM    8  S1  UNL     1      52.798  -8.053  27.678  1.00  0.00     0.292 S 
HETATM    9  O1  UNL     1      52.215  -7.482  26.405  1.00  0.00    -0.198 OA
HETATM   10  O2  UNL     1      52.165  -7.372  28.872  1.00  0.00    -0.198 OA
BRANCH   8  11
HETATM   11  N4  UNL     1      54.484  -7.771  27.718  1.00  0.00    -0.322 N 
ATOM     12  H42 UNL     1      55.092  -7.931  28.521  1.00  0.00     0.169 HD
ATOM     13  H41 UNL     1      54.759  -7.417  26.801  1.00  0.00     0.169 HD
ENDBRANCH   8  11
ENDBRANCH   6   8
BRANCH   7  14
HETATM   14  N6  UNL     1      52.696 -10.177  30.126  1.00  0.00    -0.322 N 
ATOM     15  H62 UNL     1      53.371 -10.581  30.776  1.00  0.00     0.178 HD
ATOM     16  H61 UNL     1      52.177  -9.426  30.582  1.00  0.00     0.178 HD
ENDBRANCH   7  14
BRANCH   1  17
HETATM   17  N1  UNL     1      52.217 -12.923  29.201  1.00  0.00    -0.231 N 
ATOM     18  H12 UNL     1      51.424 -13.173  29.792  1.00  0.00     0.174 HD
ATOM     19  H11 UNL     1      52.927 -13.644  29.331  1.00  0.00     0.174 HD
ENDBRANCH   1  17
TORSDOF 4
ENDMDL
MODEL 3
REMARK VINA RESULT: -5.925064215      3.270      4.135
REMARK  4 active torsions:
REMARK  status: ('A' for Active; 'I' for Inactive)
REMARK    1  A    between atoms: N1_1  and  C1_4 
REMARK    2  A    between atoms: C2_9  and  S1_10 
REMARK    3  A    between atoms: S1_10  and  N4_11 
REMARK    4  A    between atoms: N5_16  and  N6_17 
ROOT
HETATM    1  C1  UNL     1      52.548 -11.128  28.456  1.00  0.00     0.713 A 
HETATM    2  N2  UNL     1      52.231 -11.460  27.203  1.00  0.00    -0.128 N 
ATOM      3  H2  UNL     1      52.118 -12.406  26.839  1.00  0.00     0.205 HD
HETATM    4  N3  UNL     1      52.091 -10.346  26.527  1.00  0.00    -0.258 N 
ATOM      5  H3  UNL     1      51.848 -10.300  25.537  1.00  0.00     0.190 HD
HETATM    6  C2  UNL     1      52.309  -9.273  27.304  1.00  0.00     0.276 A 
HETATM    7  N5  UNL     1      52.593  -9.790  28.507  1.00  0.00    -0.061 N 
ENDROOT
BRANCH   6   8
HETATM    8  S1  UNL     1      52.227  -7.594  26.810  1.00  0.00     0.292 S 
HETATM    9  O1  UNL     1      50.855  -7.025  27.092  1.00  0.00    -0.198 OA
HETATM   10  O2  UNL     1      53.272  -6.767  27.528  1.00  0.00    -0.198 OA
BRANCH   8  11
HETATM   11  N4  UNL     1      52.542  -7.534  25.130  1.00  0.00    -0.322 N 
ATOM     12  H42 UNL     1      51.884  -7.795  24.395  1.00  0.00     0.169 HD
ATOM     13  H41 UNL     1      53.497  -7.194  25.008  1.00  0.00     0.169 HD
ENDBRANCH   8  11
ENDBRANCH   6   8
BRANCH   7  14
HETATM   14  N6  UNL     1      52.891  -9.030  29.640  1.00  0.00    -0.322 N 
ATOM     15  H62 UNL     1      53.147  -8.042  29.620  1.00  0.00     0.178 HD
ATOM     16  H61 UNL     1      52.885  -9.370  30.602  1.00  0.00     0.178 HD
ENDBRANCH   7  14
BRANCH   1  17
HETATM   17  N1  UNL     1      52.776 -11.959  29.458  1.00  0.00    -0.231 N 
ATOM     18  H12 UNL     1      52.560 -12.955  29.479  1.00  0.00     0.174 HD
ATOM     19  H11 UNL     1      53.199 -11.727  30.358  1.00  0.00     0.174 HD
ENDBRANCH   1  17
TORSDOF 4
ENDMDL
MODEL 4
REMARK VINA RESULT: -5.792022898      1.072      1.903
REMARK  4 active torsions:
REMARK  status: ('A' for Active; 'I' for Inactive)
REMARK    1  A    between atoms: N1_1  and  C1_4 
REMARK    2  A    between atoms: C2_9  and  S1_10 
REMARK    3  A    between atoms: S1_10  and  N4_11 
REMARK    4  A    between atoms: N5_16  and  N6_17 
ROOT
HETATM    1  C1  UNL     1      53.246  -9.020  28.409  1.00  0.00     0.713 A 
HETATM    2  N2  UNL     1      54.342  -9.319  29.110  1.00  0.00    -0.128 N 
ATOM      3  H2  UNL     1      55.013  -8.654  29.494  1.00  0.00     0.205 HD
HETATM    4  N3  UNL     1      54.397 -10.624  29.213  1.00  0.00    -0.258 N 
ATOM      5  H3  UNL     1      55.134 -11.132  29.701  1.00  0.00     0.190 HD
HETATM    6  C2  UNL     1      53.357 -11.207  28.594  1.00  0.00     0.276 A 
HETATM    7  N5  UNL     1      52.652 -10.180  28.098  1.00  0.00    -0.061 N 
ENDROOT
BRANCH   6   8
HETATM    8  S1  UNL     1      53.038 -12.926  28.486  1.00  0.00     0.292 S 
HETATM    9  O1  UNL     1      52.257 -13.396  29.692  1.00  0.00    -0.198 OA
HETATM   10  O2  UNL     1      52.265 -13.255  27.227  1.00  0.00    -0.198 OA
BRANCH   8  11
HETATM   11  N4  UNL     1      54.547 -13.729  28.427  1.00  0.00    -0.322 N 
ATOM     12  H42 UNL     1      55.031 -14.139  29.226  1.00  0.00     0.169 HD
ATOM     13  H41 UNL     1      54.864 -13.718  27.457  1.00  0.00     0.169 HD
ENDBRANCH   8  11
ENDBRANCH   6   8
BRANCH   7  14
HETATM   14  N6  UNL     1      51.470 -10.318  27.367  1.00  0.00    -0.322 N 
ATOM     15  H62 UNL     1      51.386 -10.859  26.506  1.00  0.00     0.178 HD
ATOM     16  H61 UNL     1      50.571  -9.901  27.608  1.00  0.00     0.178 HD
ENDBRANCH   7  14
BRANCH   1  17
HETATM   17  N1  UNL     1      52.825  -7.812  28.081  1.00  0.00    -0.231 N 
ATOM     18  H12 UNL     1      51.987  -7.588  27.544  1.00  0.00     0.174 HD
ATOM     19  H11 UNL     1      53.274  -6.926  28.315  1.00  0.00     0.174 HD
ENDBRANCH   1  17
TORSDOF 4
ENDMDL
MODEL 5
REMARK VINA RESULT: -5.782206310      1.237      1.467
REMARK  4 active torsions:
REMARK  status: ('A' for Active; 'I' for Inactive)
REMARK    1  A    between atoms: N1_1  and  C1_4 
REMARK    2  A    between atoms: C2_9  and  S1_10 
REMARK    3  A    between atoms: S1_10  and  N4_11 
REMARK    4  A    between atoms: N5_16  and  N6_17 
ROOT
HETATM    1  C1  UNL     1      52.711  -8.569  27.870  1.00  0.00     0.713 A 
HETATM    2  N2  UNL     1      51.709  -8.950  27.074  1.00  0.00    -0.128 N 
ATOM      3  H2  UNL     1      51.081  -8.335  26.557  1.00  0.00     0.205 HD
HETATM    4  N3  UNL     1      51.680 -10.260  27.081  1.00  0.00    -0.258 N 
ATOM      5  H3  UNL     1      51.011 -10.824  26.557  1.00  0.00     0.190 HD
HETATM    6  C2  UNL     1      52.645 -10.765  27.868  1.00  0.00     0.276 A 
HETATM    7  N5  UNL     1      53.276  -9.685  28.350  1.00  0.00    -0.061 N 
ENDROOT
BRANCH   6   8
HETATM    8  S1  UNL     1      52.966 -12.462  28.164  1.00  0.00     0.292 S 
HETATM    9  O1  UNL     1      52.340 -13.316  27.086  1.00  0.00    -0.198 OA
HETATM   10  O2  UNL     1      54.456 -12.729  28.217  1.00  0.00    -0.198 OA
BRANCH   8  11
HETATM   11  N4  UNL     1      52.286 -12.859  29.682  1.00  0.00    -0.322 N 
ATOM     12  H42 UNL     1      51.751 -12.223  30.275  1.00  0.00     0.169 HD
ATOM     13  H41 UNL     1      52.514 -13.834  29.877  1.00  0.00     0.169 HD
ENDBRANCH   8  11
ENDBRANCH   6   8
BRANCH   7  14
HETATM   14  N6  UNL     1      54.364  -9.734  29.224  1.00  0.00    -0.322 N 
ATOM     15  H62 UNL     1      55.036  -8.977  29.349  1.00  0.00     0.178 HD
ATOM     16  H61 UNL     1      54.605 -10.520  29.828  1.00  0.00     0.178 HD
ENDBRANCH   7  14
BRANCH   1  17
HETATM   17  N1  UNL     1      53.078  -7.328  28.137  1.00  0.00    -0.231 N 
ATOM     18  H12 UNL     1      52.486  -6.499  28.089  1.00  0.00     0.174 HD
ATOM     19  H11 UNL     1      54.005  -7.016  28.428  1.00  0.00     0.174 HD
ENDBRANCH   1  17
TORSDOF 4
ENDMDL
