MODEL 1
REMARK VINA RESULT: -6.808548722      0.000      0.000
REMARK  1 active torsions:
REMARK  status: ('A' for Active; 'I' for Inactive)
REMARK    1  A    between atoms: N3_5  and  N4_6 
ROOT
HETATM    1  N1  UNL     1      52.948  -7.018  26.859  1.00  0.00    -0.062 NA
HETATM    2  C1  UNL     1      52.802  -8.024  27.876  1.00  0.00     0.212 A 
HETATM    3  N2  UNL     1      53.212  -9.289  27.804  1.00  0.00    -0.247 N 
ATOM      4  H2  UNL     1      53.687  -9.681  26.990  1.00  0.00     0.192 HD
HETATM    5  N3  UNL     1      52.941  -9.983  28.894  1.00  0.00    -0.131 N 
HETATM    6  C4  UNL     1      52.316  -9.087  29.709  1.00  0.00     0.363 A 
HETATM    7  O2  UNL     1      51.883  -9.356  30.878  1.00  0.00    -0.243 OA
HETATM    8  N6  UNL     1      52.228  -7.893  29.098  1.00  0.00    -0.279 N 
ATOM      9  H6  UNL     1      51.807  -7.046  29.481  1.00  0.00     0.173 HD
ENDROOT
BRANCH   5  10
HETATM   10  N4  UNL     1      53.212 -11.311  29.181  1.00  0.00    -0.199 N 
HETATM   11  C2  UNL     1      52.372 -12.475  29.399  1.00  0.00     0.282 C 
HETATM   12  N5  UNL     1      53.546 -13.306  29.172  1.00  0.00    -0.323 N 
HETATM   13  C3  UNL     1      54.334 -12.146  29.389  1.00  0.00     0.341 C 
ATOM     14  H5  UNL     1      53.723 -14.287  28.953  1.00  0.00     0.166 HD
HETATM   15  O1  UNL     1      55.544 -11.974  29.657  1.00  0.00    -0.245 OA
ENDBRANCH   5  10
TORSDOF 1
ENDMDL
MODEL 2
REMARK VINA RESULT: -6.557524359      1.341      1.521
REMARK  1 active torsions:
REMARK  status: ('A' for Active; 'I' for Inactive)
REMARK    1  A    between atoms: N3_5  and  N4_6 
ROOT
HETATM    1  N1  UNL     1      52.296  -6.933  26.570  1.00  0.00    -0.062 NA
HETATM    2  C1  UNL     1      52.445  -7.966  27.560  1.00  0.00     0.212 A 
HETATM    3  N2  UNL     1      52.895  -9.202  27.352  1.00  0.00    -0.247 N 
ATOM      4  H2  UNL     1      53.188  -9.549  26.439  1.00  0.00     0.192 HD
HETATM    5  N3  UNL     1      52.921  -9.933  28.452  1.00  0.00    -0.131 N 
HETATM    6  C4  UNL     1      52.454  -9.093  29.418  1.00  0.00     0.363 A 
HETATM    7  O2  UNL     1      52.318  -9.411  30.646  1.00  0.00    -0.243 OA
HETATM    8  N6  UNL     1      52.162  -7.894  28.884  1.00  0.00    -0.279 N 
ATOM      9  H6  UNL     1      51.796  -7.083  29.381  1.00  0.00     0.173 HD
ENDROOT
BRANCH   5  10
HETATM   10  N4  UNL     1      53.323 -11.248  28.625  1.00  0.00    -0.199 N 
HETATM   11  C2  UNL     1      54.403 -11.869  29.370  1.00  0.00     0.282 C 
HETATM   12  N5  UNL     1      53.692 -13.135  29.254  1.00  0.00    -0.323 N 
HETATM   13  C3  UNL     1      52.933 -12.543  28.211  1.00  0.00     0.341 C 
ATOM     14  H5  UNL     1      53.725 -14.043  29.716  1.00  0.00     0.166 HD
HETATM   15  O1  UNL     1      52.214 -13.017  27.304  1.00  0.00    -0.245 OA
ENDBRANCH   5  10
TORSDOF 1
ENDMDL
MODEL 3
REMARK VINA RESULT: -6.431326412      1.675      4.447
REMARK  1 active torsions:
REMARK  status: ('A' for Active; 'I' for Inactive)
REMARK    1  A    between atoms: N3_5  and  N4_6 
ROOT
HETATM    1  N1  UNL     1      56.145 -12.523  29.846  1.00  0.00    -0.062 NA
HETATM    2  C1  UNL     1      54.869 -12.052  29.378  1.00  0.00     0.212 A 
HETATM    3  N2  UNL     1      54.437 -10.793  29.390  1.00  0.00    -0.247 N 
ATOM      4  H2  UNL     1      54.988 -10.011  29.745  1.00  0.00     0.192 HD
HETATM    5  N3  UNL     1      53.219 -10.661  28.895  1.00  0.00    -0.131 N 
HETATM    6  C4  UNL     1      52.864 -11.929  28.548  1.00  0.00     0.363 A 
HETATM    7  O2  UNL     1      51.745 -12.247  28.024  1.00  0.00    -0.243 OA
HETATM    8  N6  UNL     1      53.862 -12.782  28.838  1.00  0.00    -0.279 N 
ATOM      9  H6  UNL     1      53.862 -13.790  28.681  1.00  0.00     0.173 HD
ENDROOT
BRANCH   5  10
HETATM   10  N4  UNL     1      52.451  -9.517  28.745  1.00  0.00    -0.199 N 
HETATM   11  C2  UNL     1      52.190  -8.632  27.625  1.00  0.00     0.282 C 
HETATM   12  N5  UNL     1      51.037  -8.124  28.354  1.00  0.00    -0.323 N 
HETATM   13  C3  UNL     1      51.601  -8.697  29.524  1.00  0.00     0.341 C 
ATOM     14  H5  UNL     1      50.196  -7.593  28.127  1.00  0.00     0.166 HD
HETATM   15  O1  UNL     1      51.399  -8.519  30.746  1.00  0.00    -0.245 OA
ENDBRANCH   5  10
TORSDOF 1
ENDMDL
MODEL 4
REMARK VINA RESULT: -6.153104766      1.821      4.699
REMARK  1 active torsions:
REMARK  status: ('A' for Active; 'I' for Inactive)
REMARK    1  A    between atoms: N3_5  and  N4_6 
ROOT
HETATM    1  N1  UNL     1      52.875 -14.279  29.424  1.00  0.00    -0.062 NA
HETATM    2  C1  UNL     1      52.740 -13.001  28.780  1.00  0.00     0.212 A 
HETATM    3  N2  UNL     1      52.794 -11.808  29.369  1.00  0.00    -0.247 N 
ATOM      4  H2  UNL     1      52.942 -11.681  30.371  1.00  0.00     0.192 HD
HETATM    5  N3  UNL     1      52.636 -10.807  28.523  1.00  0.00    -0.131 N 
HETATM    6  C4  UNL     1      52.471 -11.417  27.316  1.00  0.00     0.363 A 
HETATM    7  O2  UNL     1      52.286 -10.799  26.215  1.00  0.00    -0.243 OA
HETATM    8  N6  UNL     1      52.533 -12.752  27.463  1.00  0.00    -0.279 N 
ATOM      9  H6  UNL     1      52.442 -13.448  26.723  1.00  0.00     0.173 HD
ENDROOT
BRANCH   5  10
HETATM   10  N4  UNL     1      52.633  -9.442  28.766  1.00  0.00    -0.199 N 
HETATM   11  C2  UNL     1      53.354  -8.326  28.182  1.00  0.00     0.282 C 
HETATM   12  N5  UNL     1      52.363  -7.437  28.774  1.00  0.00    -0.323 N 
HETATM   13  C3  UNL     1      51.991  -8.515  29.619  1.00  0.00     0.341 C 
ATOM     14  H5  UNL     1      52.067  -6.470  28.640  1.00  0.00     0.166 HD
HETATM   15  O1  UNL     1      51.347  -8.577  30.690  1.00  0.00    -0.245 OA
ENDBRANCH   5  10
TORSDOF 1
ENDMDL
MODEL 5
REMARK VINA RESULT: -6.124416073      1.374      4.534
REMARK  1 active torsions:
REMARK  status: ('A' for Active; 'I' for Inactive)
REMARK    1  A    between atoms: N3_5  and  N4_6 
ROOT
HETATM    1  N1  UNL     1      52.163 -14.463  27.566  1.00  0.00    -0.062 NA
HETATM    2  C1  UNL     1      52.533 -13.171  28.076  1.00  0.00     0.212 A 
HETATM    3  N2  UNL     1      51.885 -12.024  27.875  1.00  0.00    -0.247 N 
ATOM      4  H2  UNL     1      51.032 -11.949  27.320  1.00  0.00     0.192 HD
HETATM    5  N3  UNL     1      52.462 -10.995  28.469  1.00  0.00    -0.131 N 
HETATM    6  C4  UNL     1      53.549 -11.536  29.086  1.00  0.00     0.363 A 
HETATM    7  O2  UNL     1      54.389 -10.872  29.781  1.00  0.00    -0.243 OA
HETATM    8  N6  UNL     1      53.600 -12.859  28.852  1.00  0.00    -0.279 N 
ATOM      9  H6  UNL     1      54.309 -13.508  29.195  1.00  0.00     0.173 HD
ENDROOT
BRANCH   5  10
HETATM   10  N4  UNL     1      52.080  -9.663  28.484  1.00  0.00    -0.199 N 
HETATM   11  C2  UNL     1      52.137  -8.599  27.498  1.00  0.00     0.282 C 
HETATM   12  N5  UNL     1      51.168  -7.866  28.302  1.00  0.00    -0.323 N 
HETATM   13  C3  UNL     1      51.494  -8.735  29.376  1.00  0.00     0.341 C 
ATOM     14  H5  UNL     1      50.536  -7.079  28.158  1.00  0.00     0.166 HD
HETATM   15  O1  UNL     1      51.315  -8.668  30.613  1.00  0.00    -0.245 OA
ENDBRANCH   5  10
TORSDOF 1
ENDMDL
