MODEL 1
REMARK VINA RESULT: -7.085765048      0.000      0.000
REMARK  4 active torsions:
REMARK  status: ('A' for Active; 'I' for Inactive)
REMARK    1  A    between atoms: N1_1  and  C1_4 
REMARK    2  A    between atoms: N4_13  and  C5_14 
REMARK    3  A    between atoms: C5_14  and  C6_15 
REMARK    4  A    between atoms: C6_15  and  C7_17 
ROOT
HETATM    1  C1  UNL     1     -10.993 -28.046 -25.729  1.00  0.00     0.680 A 
HETATM    2  N2  UNL     1     -10.804 -28.214 -27.042  1.00  0.00    -0.154 N 
ATOM      3  H2  UNL     1      -9.848 -28.298 -27.391  1.00  0.00     0.187 HD
HETATM    4  C2  UNL     1     -11.829 -28.279 -27.934  1.00  0.00     0.290 A 
HETATM    5  O1  UNL     1     -11.590 -28.437 -29.146  1.00  0.00    -0.265 OA
HETATM    6  C3  UNL     1     -13.124 -28.169 -27.501  1.00  0.00     0.147 A 
HETATM    7  N3  UNL     1     -14.343 -28.207 -28.064  1.00  0.00    -0.345 N 
ATOM      8  H3  UNL     1     -14.527 -28.326 -29.060  1.00  0.00     0.167 HD
HETATM    9  C4  UNL     1     -15.281 -28.064 -27.114  1.00  0.00     0.185 A 
HETATM   10  N4  UNL     1     -14.648 -27.931 -25.923  1.00  0.00    -0.320 N 
HETATM   11  C8  UNL     1     -13.317 -27.992 -26.125  1.00  0.00     0.157 A 
HETATM   12  N5  UNL     1     -12.260 -27.935 -25.277  1.00  0.00    -0.174 N 
ATOM     13  H5  UNL     1     -12.425 -27.806 -24.279  1.00  0.00     0.186 HD
ENDROOT
BRANCH  10  14
HETATM   14  C5  UNL     1     -15.293 -27.705 -24.623  1.00  0.00     0.210 C 
BRANCH  14  15
HETATM   15  C6  UNL     1     -15.630 -26.254 -24.560  1.00  0.00     0.154 C 
HETATM   16  O2  UNL     1     -16.809 -25.952 -24.787  1.00  0.00    -0.295 OA
BRANCH  15  17
HETATM   17  C7  UNL     1     -14.694 -25.149 -24.256  1.00  0.00     0.166 C 
HETATM   18  S1  UNL     1     -15.563 -23.647 -23.809  1.00  0.00    -0.090 SA
ENDBRANCH  15  17
ENDBRANCH  14  15
ENDBRANCH  10  14
BRANCH   1  19
HETATM   19  N1  UNL     1     -10.002 -27.994 -24.899  1.00  0.00    -0.234 N 
ATOM     20  H12 UNL     1      -9.110 -27.596 -25.192  1.00  0.00     0.174 HD
ATOM     21  H11 UNL     1     -10.083 -28.339 -23.942  1.00  0.00     0.174 HD
ENDBRANCH   1  19
TORSDOF 4
ENDMDL
MODEL 2
REMARK VINA RESULT: -6.886414910      1.182      1.225
REMARK  4 active torsions:
REMARK  status: ('A' for Active; 'I' for Inactive)
REMARK    1  A    between atoms: N1_1  and  C1_4 
REMARK    2  A    between atoms: N4_13  and  C5_14 
REMARK    3  A    between atoms: C5_14  and  C6_15 
REMARK    4  A    between atoms: C6_15  and  C7_17 
ROOT
HETATM    1  C1  UNL     1     -10.898 -28.063 -25.738  1.00  0.00     0.680 A 
HETATM    2  N2  UNL     1     -10.740 -28.240 -27.054  1.00  0.00    -0.154 N 
ATOM      3  H2  UNL     1      -9.794 -28.349 -27.421  1.00  0.00     0.187 HD
HETATM    4  C2  UNL     1     -11.784 -28.283 -27.925  1.00  0.00     0.290 A 
HETATM    5  O1  UNL     1     -11.573 -28.452 -29.141  1.00  0.00    -0.265 OA
HETATM    6  C3  UNL     1     -13.067 -28.140 -27.467  1.00  0.00     0.147 A 
HETATM    7  N3  UNL     1     -14.297 -28.150 -28.005  1.00  0.00    -0.345 N 
ATOM      8  H3  UNL     1     -14.504 -28.268 -28.996  1.00  0.00     0.167 HD
HETATM    9  C4  UNL     1     -15.212 -27.981 -27.038  1.00  0.00     0.185 A 
HETATM   10  N4  UNL     1     -14.553 -27.859 -25.860  1.00  0.00    -0.320 N 
HETATM   11  C8  UNL     1     -13.228 -27.953 -26.087  1.00  0.00     0.157 A 
HETATM   12  N5  UNL     1     -12.153 -27.919 -25.262  1.00  0.00    -0.174 N 
ATOM     13  H5  UNL     1     -12.295 -27.782 -24.261  1.00  0.00     0.186 HD
ENDROOT
BRANCH  10  14
HETATM   14  C5  UNL     1     -15.166 -27.612 -24.549  1.00  0.00     0.210 C 
BRANCH  14  15
HETATM   15  C6  UNL     1     -15.295 -26.133 -24.408  1.00  0.00     0.154 C 
HETATM   16  O2  UNL     1     -14.276 -25.467 -24.633  1.00  0.00    -0.295 OA
BRANCH  15  17
HETATM   17  C7  UNL     1     -16.518 -25.393 -24.025  1.00  0.00     0.166 C 
HETATM   18  S1  UNL     1     -17.993 -26.383 -24.260  1.00  0.00    -0.090 SA
ENDBRANCH  15  17
ENDBRANCH  14  15
ENDBRANCH  10  14
BRANCH   1  19
HETATM   19  N1  UNL     1      -9.890 -28.032 -24.928  1.00  0.00    -0.234 N 
ATOM     20  H12 UNL     1      -8.949 -28.209 -25.277  1.00  0.00     0.174 HD
ATOM     21  H11 UNL     1     -10.005 -27.829 -23.934  1.00  0.00     0.174 HD
ENDBRANCH   1  19
TORSDOF 4
ENDMDL
MODEL 3
REMARK VINA RESULT: -6.545702512      1.665      1.908
REMARK  4 active torsions:
REMARK  status: ('A' for Active; 'I' for Inactive)
REMARK    1  A    between atoms: N1_1  and  C1_4 
REMARK    2  A    between atoms: N4_13  and  C5_14 
REMARK    3  A    between atoms: C5_14  and  C6_15 
REMARK    4  A    between atoms: C6_15  and  C7_17 
ROOT
HETATM    1  C1  UNL     1     -10.922 -28.056 -25.723  1.00  0.00     0.680 A 
HETATM    2  N2  UNL     1     -10.762 -28.258 -27.035  1.00  0.00    -0.154 N 
ATOM      3  H2  UNL     1      -9.816 -28.383 -27.398  1.00  0.00     0.187 HD
HETATM    4  C2  UNL     1     -11.803 -28.304 -27.909  1.00  0.00     0.290 A 
HETATM    5  O1  UNL     1     -11.592 -28.496 -29.121  1.00  0.00    -0.265 OA
HETATM    6  C3  UNL     1     -13.086 -28.139 -27.457  1.00  0.00     0.147 A 
HETATM    7  N3  UNL     1     -14.316 -28.145 -27.998  1.00  0.00    -0.345 N 
ATOM      8  H3  UNL     1     -14.521 -28.277 -28.988  1.00  0.00     0.167 HD
HETATM    9  C4  UNL     1     -15.231 -27.948 -27.036  1.00  0.00     0.185 A 
HETATM   10  N4  UNL     1     -14.573 -27.814 -25.859  1.00  0.00    -0.320 N 
HETATM   11  C8  UNL     1     -13.249 -27.926 -26.081  1.00  0.00     0.157 A 
HETATM   12  N5  UNL     1     -12.176 -27.890 -25.253  1.00  0.00    -0.174 N 
ATOM     13  H5  UNL     1     -12.319 -27.734 -24.255  1.00  0.00     0.186 HD
ENDROOT
BRANCH  10  14
HETATM   14  C5  UNL     1     -15.187 -27.537 -24.554  1.00  0.00     0.210 C 
BRANCH  14  15
HETATM   15  C6  UNL     1     -16.644 -27.339 -24.800  1.00  0.00     0.154 C 
HETATM   16  O2  UNL     1     -17.021 -26.173 -24.974  1.00  0.00    -0.295 OA
BRANCH  15  17
HETATM   17  C7  UNL     1     -17.676 -28.400 -24.852  1.00  0.00     0.166 C 
HETATM   18  S1  UNL     1     -18.922 -28.051 -26.091  1.00  0.00    -0.090 SA
ENDBRANCH  15  17
ENDBRANCH  14  15
ENDBRANCH  10  14
BRANCH   1  19
HETATM   19  N1  UNL     1      -9.915 -28.022 -24.911  1.00  0.00    -0.234 N 
ATOM     20  H12 UNL     1      -9.852 -28.694 -24.147  1.00  0.00     0.174 HD
ATOM     21  H11 UNL     1      -9.166 -27.337 -25.012  1.00  0.00     0.174 HD
ENDBRANCH   1  19
TORSDOF 4
ENDMDL
MODEL 4
REMARK VINA RESULT: -6.523267381      1.240      1.320
REMARK  4 active torsions:
REMARK  status: ('A' for Active; 'I' for Inactive)
REMARK    1  A    between atoms: N1_1  and  C1_4 
REMARK    2  A    between atoms: N4_13  and  C5_14 
REMARK    3  A    between atoms: C5_14  and  C6_15 
REMARK    4  A    between atoms: C6_15  and  C7_17 
ROOT
HETATM    1  C1  UNL     1     -12.049 -27.612 -25.767  1.00  0.00     0.680 A 
HETATM    2  N2  UNL     1     -12.082 -27.939 -27.064  1.00  0.00    -0.154 N 
ATOM      3  H2  UNL     1     -11.198 -28.064 -27.558  1.00  0.00     0.187 HD
HETATM    4  C2  UNL     1     -13.242 -28.110 -27.753  1.00  0.00     0.290 A 
HETATM    5  O1  UNL     1     -13.209 -28.415 -28.960  1.00  0.00    -0.265 OA
HETATM    6  C3  UNL     1     -14.447 -27.948 -27.121  1.00  0.00     0.147 A 
HETATM    7  N3  UNL     1     -15.743 -28.053 -27.459  1.00  0.00    -0.345 N 
ATOM      8  H3  UNL     1     -16.091 -28.292 -28.387  1.00  0.00     0.167 HD
HETATM    9  C4  UNL     1     -16.508 -27.795 -26.387  1.00  0.00     0.185 A 
HETATM   10  N4  UNL     1     -15.685 -27.519 -25.347  1.00  0.00    -0.320 N 
HETATM   11  C8  UNL     1     -14.407 -27.604 -25.764  1.00  0.00     0.157 A 
HETATM   12  N5  UNL     1     -13.223 -27.446 -25.123  1.00  0.00    -0.174 N 
ATOM     13  H5  UNL     1     -13.218 -27.197 -24.134  1.00  0.00     0.186 HD
ENDROOT
BRANCH  10  14
HETATM   14  C5  UNL     1     -16.105 -27.136 -23.992  1.00  0.00     0.210 C 
BRANCH  14  15
HETATM   15  C6  UNL     1     -16.359 -25.667 -24.022  1.00  0.00     0.154 C 
HETATM   16  O2  UNL     1     -17.501 -25.311 -24.341  1.00  0.00    -0.295 OA
BRANCH  15  17
HETATM   17  C7  UNL     1     -15.379 -24.602 -23.711  1.00  0.00     0.166 C 
HETATM   18  S1  UNL     1     -15.429 -24.140 -21.981  1.00  0.00    -0.090 SA
ENDBRANCH  15  17
ENDBRANCH  14  15
ENDBRANCH  10  14
BRANCH   1  19
HETATM   19  N1  UNL     1     -10.932 -27.460 -25.131  1.00  0.00    -0.234 N 
ATOM     20  H12 UNL     1     -10.817 -26.683 -24.481  1.00  0.00     0.174 HD
ATOM     21  H11 UNL     1     -10.151 -28.104 -25.256  1.00  0.00     0.174 HD
ENDBRANCH   1  19
TORSDOF 4
ENDMDL
MODEL 5
REMARK VINA RESULT: -6.427936720      2.646      2.980
REMARK  4 active torsions:
REMARK  status: ('A' for Active; 'I' for Inactive)
REMARK    1  A    between atoms: N1_1  and  C1_4 
REMARK    2  A    between atoms: N4_13  and  C5_14 
REMARK    3  A    between atoms: C5_14  and  C6_15 
REMARK    4  A    between atoms: C6_15  and  C7_17 
ROOT
HETATM    1  C1  UNL     1     -11.995 -27.425 -26.177  1.00  0.00     0.680 A 
HETATM    2  N2  UNL     1     -11.441 -27.886 -27.304  1.00  0.00    -0.154 N 
ATOM      3  H2  UNL     1     -10.424 -27.886 -27.383  1.00  0.00     0.187 HD
HETATM    4  C2  UNL     1     -12.174 -28.353 -28.350  1.00  0.00     0.290 A 
HETATM    5  O1  UNL     1     -11.601 -28.770 -29.375  1.00  0.00    -0.265 OA
HETATM    6  C3  UNL     1     -13.542 -28.366 -28.279  1.00  0.00     0.147 A 
HETATM    7  N3  UNL     1     -14.553 -28.758 -29.072  1.00  0.00    -0.345 N 
ATOM      8  H3  UNL     1     -14.447 -29.157 -30.005  1.00  0.00     0.167 HD
HETATM    9  C4  UNL     1     -15.722 -28.545 -28.448  1.00  0.00     0.185 A 
HETATM   10  N4  UNL     1     -15.452 -28.006 -27.235  1.00  0.00    -0.320 N 
HETATM   11  C8  UNL     1     -14.118 -27.881 -27.097  1.00  0.00     0.157 A 
HETATM   12  N5  UNL     1     -13.341 -27.427 -26.083  1.00  0.00    -0.174 N 
ATOM     13  H5  UNL     1     -13.782 -27.079 -25.231  1.00  0.00     0.186 HD
ENDROOT
BRANCH  10  14
HETATM   14  C5  UNL     1     -16.445 -27.573 -26.243  1.00  0.00     0.210 C 
BRANCH  14  15
HETATM   15  C6  UNL     1     -17.536 -28.588 -26.258  1.00  0.00     0.154 C 
HETATM   16  O2  UNL     1     -17.272 -29.689 -25.756  1.00  0.00    -0.295 OA
BRANCH  15  17
HETATM   17  C7  UNL     1     -18.895 -28.406 -26.814  1.00  0.00     0.166 C 
HETATM   18  S1  UNL     1     -20.065 -29.560 -26.099  1.00  0.00    -0.090 SA
ENDBRANCH  15  17
ENDBRANCH  14  15
ENDBRANCH  10  14
BRANCH   1  19
HETATM   19  N1  UNL     1     -11.276 -26.991 -25.193  1.00  0.00    -0.234 N 
ATOM     20  H12 UNL     1     -10.349 -26.606 -25.368  1.00  0.00     0.174 HD
ATOM     21  H11 UNL     1     -11.612 -27.017 -24.230  1.00  0.00     0.174 HD
ENDBRANCH   1  19
TORSDOF 4
ENDMDL
