MODEL 1
REMARK VINA RESULT: -6.333078359      0.000      0.000
REMARK  5 active torsions:
REMARK  status: ('A' for Active; 'I' for Inactive)
REMARK    1  A    between atoms: C3_5  and  N2_6 
REMARK    2  A    between atoms: C4_9  and  N3_10 
REMARK    3  A    between atoms: N3_10  and  O1_12 
REMARK    4  A    between atoms: N4_14  and  N5_15 
REMARK    5  A    between atoms: N6_17  and  N7_19 
ROOT
HETATM    1  C1  UNL     1     -15.067 -24.350 -24.360  1.00  0.00     0.091 C 
HETATM    2  C2  UNL     1     -14.652 -25.736 -24.715  1.00  0.00     0.095 A 
HETATM    3  N1  UNL     1     -15.558 -26.739 -24.627  1.00  0.00    -0.328 N 
ATOM      4  H1  UNL     1     -16.508 -26.531 -24.319  1.00  0.00     0.169 HD
HETATM    5  C3  UNL     1     -15.225 -28.005 -24.938  1.00  0.00     0.150 A 
HETATM    6  C4  UNL     1     -13.932 -28.227 -25.345  1.00  0.00     0.210 A 
HETATM    7  N4  UNL     1     -13.019 -27.243 -25.439  1.00  0.00    -0.157 N 
HETATM    8  N8  UNL     1     -13.394 -26.013 -25.121  1.00  0.00    -0.265 N 
ATOM      9  H8  UNL     1     -12.715 -25.255 -25.186  1.00  0.00     0.190 HD
ENDROOT
BRANCH   7  10
HETATM   10  N5  UNL     1     -11.701 -27.507 -25.860  1.00  0.00    -0.205 N 
HETATM   11  N6  UNL     1     -10.791 -27.811 -25.017  1.00  0.00    -0.233 N 
ATOM     12  H6  UNL     1     -10.999 -27.869 -24.021  1.00  0.00     0.209 HD
ATOM     13  H5  UNL     1     -11.470 -27.454 -26.853  1.00  0.00     0.212 HD
BRANCH  11  14
HETATM   14  N7  UNL     1      -9.511 -28.060 -25.492  1.00  0.00    -0.330 N 
ATOM     15  H72 UNL     1      -8.940 -27.292 -25.844  1.00  0.00     0.178 HD
ATOM     16  H71 UNL     1      -9.168 -29.021 -25.476  1.00  0.00     0.178 HD
ENDBRANCH  11  14
ENDBRANCH   7  10
BRANCH   6  17
HETATM   17  N3  UNL     1     -13.580 -29.422 -25.649  1.00  0.00    -0.247 N 
ATOM     18  H3  UNL     1     -13.848 -29.783 -26.564  1.00  0.00     0.196 HD
BRANCH  17  19
HETATM   19  O1  UNL     1     -12.869 -30.239 -24.822  1.00  0.00    -0.288 OA
ATOM     20  H1  UNL     1     -13.090 -30.392 -23.911  1.00  0.00     0.244 HD
ENDBRANCH  17  19
ENDBRANCH   6  17
BRANCH   5  21
HETATM   21  N2  UNL     1     -16.044 -28.996 -24.872  1.00  0.00    -0.382 N 
ATOM     22  H22 UNL     1     -16.730 -29.127 -25.615  1.00  0.00     0.157 HD
ATOM     23  H21 UNL     1     -16.053 -29.673 -24.109  1.00  0.00     0.157 HD
ENDBRANCH   5  21
TORSDOF 5
ENDMDL
MODEL 2
REMARK VINA RESULT: -6.162593056      1.059      1.059
REMARK  5 active torsions:
REMARK  status: ('A' for Active; 'I' for Inactive)
REMARK    1  A    between atoms: C3_5  and  N2_6 
REMARK    2  A    between atoms: C4_9  and  N3_10 
REMARK    3  A    between atoms: N3_10  and  O1_12 
REMARK    4  A    between atoms: N4_14  and  N5_15 
REMARK    5  A    between atoms: N6_17  and  N7_19 
ROOT
HETATM    1  C1  UNL     1     -15.424 -24.543 -23.648  1.00  0.00     0.091 C 
HETATM    2  C2  UNL     1     -14.956 -25.628 -24.554  1.00  0.00     0.095 A 
HETATM    3  N1  UNL     1     -15.869 -26.427 -25.154  1.00  0.00    -0.328 N 
ATOM      4  H1  UNL     1     -16.862 -26.274 -24.978  1.00  0.00     0.169 HD
HETATM    5  C3  UNL     1     -15.488 -27.420 -25.980  1.00  0.00     0.150 A 
HETATM    6  C4  UNL     1     -14.139 -27.581 -26.180  1.00  0.00     0.210 A 
HETATM    7  N4  UNL     1     -13.217 -26.797 -25.591  1.00  0.00    -0.157 N 
HETATM    8  N8  UNL     1     -13.641 -25.833 -24.787  1.00  0.00    -0.265 N 
ATOM      9  H8  UNL     1     -12.957 -25.230 -24.332  1.00  0.00     0.190 HD
ENDROOT
BRANCH   7  10
HETATM   10  N5  UNL     1     -11.841 -26.990 -25.819  1.00  0.00    -0.205 N 
HETATM   11  N6  UNL     1     -11.162 -27.791 -25.091  1.00  0.00    -0.233 N 
ATOM     12  H6  UNL     1     -11.602 -28.306 -24.329  1.00  0.00     0.209 HD
ATOM     13  H5  UNL     1     -11.380 -26.483 -26.575  1.00  0.00     0.212 HD
BRANCH  11  14
HETATM   14  N7  UNL     1      -9.809 -27.940 -25.363  1.00  0.00    -0.330 N 
ATOM     15  H72 UNL     1      -9.158 -28.151 -24.607  1.00  0.00     0.178 HD
ATOM     16  H71 UNL     1      -9.495 -27.833 -26.328  1.00  0.00     0.178 HD
ENDBRANCH  11  14
ENDBRANCH   7  10
BRANCH   6  17
HETATM   17  N3  UNL     1     -13.741 -28.517 -26.960  1.00  0.00    -0.247 N 
ATOM     18  H3  UNL     1     -13.652 -28.308 -27.954  1.00  0.00     0.196 HD
BRANCH  17  19
HETATM   19  O1  UNL     1     -13.429 -29.775 -26.540  1.00  0.00    -0.288 OA
ATOM     20  H1  UNL     1     -14.055 -30.487 -26.489  1.00  0.00     0.244 HD
ENDBRANCH  17  19
ENDBRANCH   6  17
BRANCH   5  21
HETATM   21  N2  UNL     1     -16.313 -28.208 -26.577  1.00  0.00    -0.382 N 
ATOM     22  H22 UNL     1     -16.703 -27.933 -27.478  1.00  0.00     0.157 HD
ATOM     23  H21 UNL     1     -16.607 -29.109 -26.201  1.00  0.00     0.157 HD
ENDBRANCH   5  21
TORSDOF 5
ENDMDL
MODEL 3
REMARK VINA RESULT: -6.138751398      2.366      3.217
REMARK  5 active torsions:
REMARK  status: ('A' for Active; 'I' for Inactive)
REMARK    1  A    between atoms: C3_5  and  N2_6 
REMARK    2  A    between atoms: C4_9  and  N3_10 
REMARK    3  A    between atoms: N3_10  and  O1_12 
REMARK    4  A    between atoms: N4_14  and  N5_15 
REMARK    5  A    between atoms: N6_17  and  N7_19 
ROOT
HETATM    1  C1  UNL     1     -15.139 -27.153 -24.613  1.00  0.00     0.091 C 
HETATM    2  C2  UNL     1     -13.977 -27.640 -25.406  1.00  0.00     0.095 A 
HETATM    3  N1  UNL     1     -13.705 -27.065 -26.600  1.00  0.00    -0.328 N 
ATOM      4  H1  UNL     1     -14.298 -26.308 -26.939  1.00  0.00     0.169 HD
HETATM    5  C3  UNL     1     -12.664 -27.476 -27.348  1.00  0.00     0.150 A 
HETATM    6  C4  UNL     1     -11.899 -28.499 -26.844  1.00  0.00     0.210 A 
HETATM    7  N4  UNL     1     -12.155 -29.083 -25.659  1.00  0.00    -0.157 N 
HETATM    8  N8  UNL     1     -13.191 -28.644 -24.959  1.00  0.00    -0.265 N 
ATOM      9  H8  UNL     1     -13.400 -29.075 -24.059  1.00  0.00     0.190 HD
ENDROOT
BRANCH   7  10
HETATM   10  N5  UNL     1     -11.350 -30.130 -25.171  1.00  0.00    -0.205 N 
HETATM   11  N6  UNL     1     -10.243 -29.886 -24.581  1.00  0.00    -0.233 N 
ATOM     12  H6  UNL     1      -9.919 -28.928 -24.452  1.00  0.00     0.209 HD
ATOM     13  H5  UNL     1     -11.654 -31.097 -25.290  1.00  0.00     0.212 HD
BRANCH  11  14
HETATM   14  N7  UNL     1      -9.492 -30.960 -24.121  1.00  0.00    -0.330 N 
ATOM     15  H72 UNL     1      -9.493 -31.839 -24.637  1.00  0.00     0.178 HD
ATOM     16  H71 UNL     1      -8.950 -30.839 -23.265  1.00  0.00     0.178 HD
ENDBRANCH  11  14
ENDBRANCH   7  10
BRANCH   6  17
HETATM   17  N3  UNL     1     -10.900 -28.916 -27.531  1.00  0.00    -0.247 N 
ATOM     18  H3  UNL     1      -9.975 -28.876 -27.104  1.00  0.00     0.196 HD
BRANCH  17  19
HETATM   19  O1  UNL     1     -11.000 -29.408 -28.797  1.00  0.00    -0.288 OA
ATOM     20  H1  UNL     1     -10.386 -29.208 -29.493  1.00  0.00     0.244 HD
ENDBRANCH  17  19
ENDBRANCH   6  17
BRANCH   5  21
HETATM   21  N2  UNL     1     -12.359 -26.965 -28.490  1.00  0.00    -0.382 N 
ATOM     22  H22 UNL     1     -12.838 -27.293 -29.329  1.00  0.00     0.157 HD
ATOM     23  H21 UNL     1     -11.655 -26.237 -28.615  1.00  0.00     0.157 HD
ENDBRANCH   5  21
TORSDOF 5
ENDMDL
MODEL 4
REMARK VINA RESULT: -6.059380331      2.122      3.007
REMARK  5 active torsions:
REMARK  status: ('A' for Active; 'I' for Inactive)
REMARK    1  A    between atoms: C3_5  and  N2_6 
REMARK    2  A    between atoms: C4_9  and  N3_10 
REMARK    3  A    between atoms: N3_10  and  O1_12 
REMARK    4  A    between atoms: N4_14  and  N5_15 
REMARK    5  A    between atoms: N6_17  and  N7_19 
ROOT
HETATM    1  C1  UNL     1     -17.707 -27.975 -26.614  1.00  0.00     0.091 C 
HETATM    2  C2  UNL     1     -16.345 -27.498 -26.246  1.00  0.00     0.095 A 
HETATM    3  N1  UNL     1     -16.180 -26.791 -25.103  1.00  0.00    -0.328 N 
ATOM      4  H1  UNL     1     -16.989 -26.595 -24.513  1.00  0.00     0.169 HD
HETATM    5  C3  UNL     1     -14.966 -26.341 -24.733  1.00  0.00     0.150 A 
HETATM    6  C4  UNL     1     -13.914 -26.632 -25.566  1.00  0.00     0.210 A 
HETATM    7  N4  UNL     1     -14.059 -27.334 -26.705  1.00  0.00    -0.157 N 
HETATM    8  N8  UNL     1     -15.274 -27.755 -27.027  1.00  0.00    -0.265 N 
ATOM      9  H8  UNL     1     -15.402 -28.287 -27.887  1.00  0.00     0.190 HD
ENDROOT
BRANCH   7  10
HETATM   10  N5  UNL     1     -12.957 -27.615 -27.536  1.00  0.00    -0.205 N 
HETATM   11  N6  UNL     1     -12.467 -28.793 -27.598  1.00  0.00    -0.233 N 
ATOM     12  H6  UNL     1     -12.862 -29.554 -27.047  1.00  0.00     0.209 HD
ATOM     13  H5  UNL     1     -12.545 -26.868 -28.096  1.00  0.00     0.212 HD
BRANCH  11  14
HETATM   14  N7  UNL     1     -11.381 -29.011 -28.435  1.00  0.00    -0.330 N 
ATOM     15  H72 UNL     1     -10.432 -28.902 -28.076  1.00  0.00     0.178 HD
ATOM     16  H71 UNL     1     -11.562 -29.277 -29.403  1.00  0.00     0.178 HD
ENDBRANCH  11  14
ENDBRANCH   7  10
BRANCH   6  17
HETATM   17  N3  UNL     1     -12.743 -26.219 -25.244  1.00  0.00    -0.247 N 
ATOM     18  H3  UNL     1     -12.618 -25.223 -25.067  1.00  0.00     0.196 HD
BRANCH  17  19
HETATM   19  O1  UNL     1     -11.657 -27.032 -25.125  1.00  0.00    -0.288 OA
ATOM     20  H1  UNL     1     -10.828 -26.757 -24.750  1.00  0.00     0.244 HD
ENDBRANCH  17  19
ENDBRANCH   6  17
BRANCH   5  21
HETATM   21  N2  UNL     1     -14.752 -25.665 -23.659  1.00  0.00    -0.382 N 
ATOM     22  H22 UNL     1     -15.509 -25.543 -22.986  1.00  0.00     0.157 HD
ATOM     23  H21 UNL     1     -13.856 -25.234 -23.431  1.00  0.00     0.157 HD
ENDBRANCH   5  21
TORSDOF 5
ENDMDL
MODEL 5
REMARK VINA RESULT: -5.996049741      0.952      1.033
REMARK  5 active torsions:
REMARK  status: ('A' for Active; 'I' for Inactive)
REMARK    1  A    between atoms: C3_5  and  N2_6 
REMARK    2  A    between atoms: C4_9  and  N3_10 
REMARK    3  A    between atoms: N3_10  and  O1_12 
REMARK    4  A    between atoms: N4_14  and  N5_15 
REMARK    5  A    between atoms: N6_17  and  N7_19 
ROOT
HETATM    1  C1  UNL     1     -15.310 -24.248 -24.186  1.00  0.00     0.091 C 
HETATM    2  C2  UNL     1     -14.962 -25.652 -24.539  1.00  0.00     0.095 A 
HETATM    3  N1  UNL     1     -15.918 -26.608 -24.459  1.00  0.00    -0.328 N 
ATOM      4  H1  UNL     1     -16.859 -26.353 -24.160  1.00  0.00     0.169 HD
HETATM    5  C3  UNL     1     -15.646 -27.890 -24.769  1.00  0.00     0.150 A 
HETATM    6  C4  UNL     1     -14.362 -28.176 -25.165  1.00  0.00     0.210 A 
HETATM    7  N4  UNL     1     -13.400 -27.239 -25.249  1.00  0.00    -0.157 N 
HETATM    8  N8  UNL     1     -13.716 -25.991 -24.934  1.00  0.00    -0.265 N 
ATOM      9  H8  UNL     1     -13.000 -25.268 -24.992  1.00  0.00     0.190 HD
ENDROOT
BRANCH   7  10
HETATM   10  N5  UNL     1     -12.093 -27.568 -25.659  1.00  0.00    -0.205 N 
HETATM   11  N6  UNL     1     -11.636 -27.159 -26.780  1.00  0.00    -0.233 N 
ATOM     12  H6  UNL     1     -12.207 -26.588 -27.402  1.00  0.00     0.209 HD
ATOM     13  H5  UNL     1     -11.504 -28.139 -25.054  1.00  0.00     0.212 HD
BRANCH  11  14
HETATM   14  N7  UNL     1     -10.341 -27.515 -27.131  1.00  0.00    -0.330 N 
ATOM     15  H72 UNL     1      -9.590 -26.827 -27.069  1.00  0.00     0.178 HD
ATOM     16  H71 UNL     1     -10.170 -28.470 -27.447  1.00  0.00     0.178 HD
ENDBRANCH  11  14
ENDBRANCH   7  10
BRANCH   6  17
HETATM   17  N3  UNL     1     -14.068 -29.387 -25.467  1.00  0.00    -0.247 N 
ATOM     18  H3  UNL     1     -14.251 -30.112 -24.774  1.00  0.00     0.196 HD
BRANCH  17  19
HETATM   19  O1  UNL     1     -13.525 -29.763 -26.659  1.00  0.00    -0.288 OA
ATOM     20  H1  UNL     1     -12.592 -29.838 -26.815  1.00  0.00     0.244 HD
ENDBRANCH  17  19
ENDBRANCH   6  17
BRANCH   5  21
HETATM   21  N2  UNL     1     -16.514 -28.838 -24.712  1.00  0.00    -0.382 N 
ATOM     22  H22 UNL     1     -17.204 -28.929 -25.457  1.00  0.00     0.157 HD
ATOM     23  H21 UNL     1     -16.559 -29.519 -23.954  1.00  0.00     0.157 HD
ENDBRANCH   5  21
TORSDOF 5
ENDMDL
