MODEL 1
REMARK VINA RESULT: -6.992834727      0.000      0.000
REMARK  2 active torsions:
REMARK  status: ('A' for Active; 'I' for Inactive)
REMARK    1  A    between atoms: C2_2  and  C5_17 
REMARK    2  A    between atoms: N1_3  and  N2_5 
ROOT
HETATM    1  N2  UNL     1     -13.625 -29.323 -26.453  1.00  0.00    -0.129 N 
ATOM      2  H2  UNL     1     -13.987 -29.903 -27.209  1.00  0.00     0.205 HD
HETATM    3  C3  UNL     1     -14.427 -28.461 -25.941  1.00  0.00     0.726 A 
HETATM    4  N3  UNL     1     -15.750 -28.363 -26.446  1.00  0.00    -0.129 N 
ATOM      5  H3  UNL     1     -16.068 -28.966 -27.205  1.00  0.00     0.205 HD
HETATM    6  N4  UNL     1     -16.599 -27.420 -25.875  1.00  0.00    -0.281 N 
ATOM      7  H4  UNL     1     -17.550 -27.346 -26.234  1.00  0.00     0.188 HD
HETATM    8  C4  UNL     1     -16.244 -26.630 -24.909  1.00  0.00     0.214 A 
HETATM    9  N5  UNL     1     -14.930 -26.680 -24.359  1.00  0.00    -0.281 N 
ATOM     10  H5  UNL     1     -14.662 -26.054 -23.600  1.00  0.00     0.188 HD
HETATM   11  N6  UNL     1     -14.009 -27.604 -24.878  1.00  0.00    -0.129 N 
ATOM     12  H6  UNL     1     -13.062 -27.662 -24.503  1.00  0.00     0.205 HD
ENDROOT
BRANCH   1  13
HETATM   13  N1  UNL     1     -12.321 -29.534 -26.071  1.00  0.00    -0.286 N 
HETATM   14  C2  UNL     1     -11.360 -28.992 -26.733  1.00  0.00     0.087 C 
HETATM   15  C1  UNL     1      -9.968 -29.257 -26.271  1.00  0.00     0.075 C 
ATOM     16  H1  UNL     1     -12.116 -30.120 -25.262  1.00  0.00     0.187 HD
BRANCH  14  17
HETATM   17  C5  UNL     1     -11.555 -28.140 -27.900  1.00  0.00     0.278 C 
HETATM   18  N7  UNL     1     -11.585 -28.679 -29.215  1.00  0.00    -0.056 NA
HETATM   19  O1  UNL     1     -11.698 -26.890 -27.715  1.00  0.00    -0.270 OA
ENDBRANCH  14  17
ENDBRANCH   1  13
TORSDOF 2
ENDMDL
MODEL 2
REMARK VINA RESULT: -6.867614595      2.298      5.290
REMARK  2 active torsions:
REMARK  status: ('A' for Active; 'I' for Inactive)
REMARK    1  A    between atoms: C2_2  and  C5_17 
REMARK    2  A    between atoms: N1_3  and  N2_5 
ROOT
HETATM    1  N2  UNL     1     -13.619 -27.192 -25.843  1.00  0.00    -0.129 N 
ATOM      2  H2  UNL     1     -13.745 -26.365 -25.260  1.00  0.00     0.205 HD
HETATM    3  C3  UNL     1     -12.457 -27.738 -25.840  1.00  0.00     0.726 A 
HETATM    4  N3  UNL     1     -11.430 -27.172 -25.040  1.00  0.00    -0.129 N 
ATOM      5  H3  UNL     1     -11.603 -26.344 -24.471  1.00  0.00     0.205 HD
HETATM    6  N4  UNL     1     -10.179 -27.783 -25.056  1.00  0.00    -0.281 N 
ATOM      7  H4  UNL     1      -9.438 -27.381 -24.483  1.00  0.00     0.188 HD
HETATM    8  C4  UNL     1      -9.907 -28.838 -25.761  1.00  0.00     0.214 A 
HETATM    9  N5  UNL     1     -10.895 -29.452 -26.584  1.00  0.00    -0.281 N 
ATOM     10  H5  UNL     1     -10.669 -30.280 -27.133  1.00  0.00     0.188 HD
HETATM   11  N6  UNL     1     -12.185 -28.899 -26.626  1.00  0.00    -0.129 N 
ATOM     12  H6  UNL     1     -12.912 -29.318 -27.206  1.00  0.00     0.205 HD
ENDROOT
BRANCH   1  13
HETATM   13  N1  UNL     1     -14.708 -27.623 -26.563  1.00  0.00    -0.286 N 
HETATM   14  C2  UNL     1     -15.896 -27.440 -26.106  1.00  0.00     0.087 C 
HETATM   15  C1  UNL     1     -17.037 -27.930 -26.931  1.00  0.00     0.075 C 
ATOM     16  H1  UNL     1     -14.573 -28.089 -27.460  1.00  0.00     0.187 HD
BRANCH  14  17
HETATM   17  C5  UNL     1     -16.188 -26.785 -24.836  1.00  0.00     0.278 C 
HETATM   18  N7  UNL     1     -17.164 -25.756 -24.740  1.00  0.00    -0.056 NA
HETATM   19  O1  UNL     1     -15.544 -27.157 -23.805  1.00  0.00    -0.270 OA
ENDBRANCH  14  17
ENDBRANCH   1  13
TORSDOF 2
ENDMDL
MODEL 3
REMARK VINA RESULT: -6.720560732      2.363      5.137
REMARK  2 active torsions:
REMARK  status: ('A' for Active; 'I' for Inactive)
REMARK    1  A    between atoms: C2_2  and  C5_17 
REMARK    2  A    between atoms: N1_3  and  N2_5 
ROOT
HETATM    1  N2  UNL     1     -13.352 -27.105 -25.910  1.00  0.00    -0.129 N 
ATOM      2  H2  UNL     1     -14.038 -27.428 -26.591  1.00  0.00     0.205 HD
HETATM    3  C3  UNL     1     -12.216 -27.704 -25.894  1.00  0.00     0.726 A 
HETATM    4  N3  UNL     1     -11.981 -28.764 -26.810  1.00  0.00    -0.129 N 
ATOM      5  H3  UNL     1     -12.699 -29.052 -27.475  1.00  0.00     0.205 HD
HETATM    6  N4  UNL     1     -10.742 -29.397 -26.772  1.00  0.00    -0.281 N 
ATOM      7  H4  UNL     1     -10.569 -30.158 -27.428  1.00  0.00     0.188 HD
HETATM    8  C4  UNL     1      -9.796 -29.069 -25.947  1.00  0.00     0.214 A 
HETATM    9  N5  UNL     1      -9.971 -28.014 -25.004  1.00  0.00    -0.281 N 
ATOM     10  H5  UNL     1      -9.220 -27.765 -24.361  1.00  0.00     0.188 HD
HETATM   11  N6  UNL     1     -11.192 -27.322 -24.975  1.00  0.00    -0.129 N 
ATOM     12  H6  UNL     1     -11.345 -26.563 -24.311  1.00  0.00     0.205 HD
ENDROOT
BRANCH   1  13
HETATM   13  N1  UNL     1     -13.724 -26.068 -25.089  1.00  0.00    -0.286 N 
HETATM   14  C2  UNL     1     -14.940 -25.973 -24.680  1.00  0.00     0.087 C 
HETATM   15  C1  UNL     1     -15.283 -24.826 -23.792  1.00  0.00     0.075 C 
ATOM     16  H1  UNL     1     -13.035 -25.371 -24.804  1.00  0.00     0.187 HD
BRANCH  14  17
HETATM   17  C5  UNL     1     -15.993 -26.918 -25.033  1.00  0.00     0.278 C 
HETATM   18  N7  UNL     1     -15.797 -28.322 -24.922  1.00  0.00    -0.056 NA
HETATM   19  O1  UNL     1     -17.102 -26.456 -25.447  1.00  0.00    -0.270 OA
ENDBRANCH  14  17
ENDBRANCH   1  13
TORSDOF 2
ENDMDL
MODEL 4
REMARK VINA RESULT: -6.715859649      2.022      4.835
REMARK  2 active torsions:
REMARK  status: ('A' for Active; 'I' for Inactive)
REMARK    1  A    between atoms: C2_2  and  C5_17 
REMARK    2  A    between atoms: N1_3  and  N2_5 
ROOT
HETATM    1  N2  UNL     1     -13.495 -26.370 -25.861  1.00  0.00    -0.129 N 
ATOM      2  H2  UNL     1     -13.706 -25.696 -26.596  1.00  0.00     0.205 HD
HETATM    3  C3  UNL     1     -12.432 -27.077 -26.002  1.00  0.00     0.726 A 
HETATM    4  N3  UNL     1     -11.624 -26.885 -27.153  1.00  0.00    -0.129 N 
ATOM      5  H3  UNL     1     -11.875 -26.197 -27.863  1.00  0.00     0.205 HD
HETATM    6  N4  UNL     1     -10.478 -27.664 -27.283  1.00  0.00    -0.281 N 
ATOM      7  H4  UNL     1      -9.894 -27.530 -28.108  1.00  0.00     0.188 HD
HETATM    8  C4  UNL     1     -10.113 -28.552 -26.410  1.00  0.00     0.214 A 
HETATM    9  N5  UNL     1     -10.883 -28.790 -25.234  1.00  0.00    -0.281 N 
ATOM     10  H5  UNL     1     -10.586 -29.491 -24.555  1.00  0.00     0.188 HD
HETATM   11  N6  UNL     1     -12.055 -28.047 -25.025  1.00  0.00    -0.129 N 
ATOM     12  H6  UNL     1     -12.625 -28.197 -24.192  1.00  0.00     0.205 HD
ENDROOT
BRANCH   1  13
HETATM   13  N1  UNL     1     -14.373 -26.442 -24.806  1.00  0.00    -0.286 N 
HETATM   14  C2  UNL     1     -15.386 -27.232 -24.863  1.00  0.00     0.087 C 
HETATM   15  C1  UNL     1     -16.302 -27.267 -23.688  1.00  0.00     0.075 C 
ATOM     16  H1  UNL     1     -14.220 -25.868 -23.976  1.00  0.00     0.187 HD
BRANCH  14  17
HETATM   17  C5  UNL     1     -15.686 -28.090 -26.003  1.00  0.00     0.278 C 
HETATM   18  N7  UNL     1     -16.762 -27.800 -26.886  1.00  0.00    -0.056 NA
HETATM   19  O1  UNL     1     -14.958 -29.114 -26.194  1.00  0.00    -0.270 OA
ENDBRANCH  14  17
ENDBRANCH   1  13
TORSDOF 2
ENDMDL
MODEL 5
REMARK VINA RESULT: -6.643939672      2.503      5.394
REMARK  2 active torsions:
REMARK  status: ('A' for Active; 'I' for Inactive)
REMARK    1  A    between atoms: C2_2  and  C5_17 
REMARK    2  A    between atoms: N1_3  and  N2_5 
ROOT
HETATM    1  N2  UNL     1     -13.689 -26.997 -25.038  1.00  0.00    -0.129 N 
ATOM      2  H2  UNL     1     -14.331 -27.648 -24.587  1.00  0.00     0.205 HD
HETATM    3  C3  UNL     1     -12.756 -27.502 -25.763  1.00  0.00     0.726 A 
HETATM    4  N3  UNL     1     -12.672 -28.913 -25.895  1.00  0.00    -0.129 N 
ATOM      5  H3  UNL     1     -13.339 -29.525 -25.425  1.00  0.00     0.205 HD
HETATM    6  N4  UNL     1     -11.652 -29.435 -26.685  1.00  0.00    -0.281 N 
ATOM      7  H4  UNL     1     -11.587 -30.447 -26.784  1.00  0.00     0.188 HD
HETATM    8  C4  UNL     1     -10.779 -28.700 -27.303  1.00  0.00     0.214 A 
HETATM    9  N5  UNL     1     -10.812 -27.278 -27.210  1.00  0.00    -0.281 N 
ATOM     10  H5  UNL     1     -10.120 -26.712 -27.700  1.00  0.00     0.188 HD
HETATM   11  N6  UNL     1     -11.809 -26.669 -26.432  1.00  0.00    -0.129 N 
ATOM     12  H6  UNL     1     -11.856 -25.654 -26.347  1.00  0.00     0.205 HD
ENDROOT
BRANCH   1  13
HETATM   13  N1  UNL     1     -13.897 -25.657 -24.816  1.00  0.00    -0.286 N 
HETATM   14  C2  UNL     1     -15.024 -25.248 -24.349  1.00  0.00     0.087 C 
HETATM   15  C1  UNL     1     -15.190 -23.784 -24.130  1.00  0.00     0.075 C 
ATOM     16  H1  UNL     1     -13.157 -24.986 -25.022  1.00  0.00     0.187 HD
BRANCH  14  17
HETATM   17  C5  UNL     1     -16.138 -26.130 -24.025  1.00  0.00     0.278 C 
HETATM   18  N7  UNL     1     -17.375 -26.049 -24.722  1.00  0.00    -0.056 NA
HETATM   19  O1  UNL     1     -15.981 -26.983 -23.096  1.00  0.00    -0.270 OA
ENDBRANCH  14  17
ENDBRANCH   1  13
TORSDOF 2
ENDMDL
