MODEL 1
REMARK VINA RESULT: -6.634731432      0.000      0.000
REMARK  2 active torsions:
REMARK  status: ('A' for Active; 'I' for Inactive)
REMARK       I    between atoms: C1_2  and  N2_4 
REMARK    1  A    between atoms: N2_4  and  N3_6 
REMARK       I    between atoms: N3_6  and  C2_8 
REMARK    2  A    between atoms: C2_8  and  C3_10 
ROOT
HETATM    1  N3  UNL     1     -13.915 -27.725 -26.144  1.00  0.00    -0.260 N 
ATOM      2  H3  UNL     1     -13.880 -27.868 -25.135  1.00  0.00     0.190 HD
HETATM    3  C2  UNL     1     -12.721 -27.737 -26.891  1.00  0.00     0.306 C 
HETATM    4  O2  UNL     1     -12.771 -27.571 -28.129  1.00  0.00    -0.262 OA
ENDROOT
BRANCH   3   5
HETATM    5  C3  UNL     1     -11.457 -27.945 -26.208  1.00  0.00     0.205 A 
HETATM    6  N4  UNL     1     -11.084 -27.419 -25.006  1.00  0.00    -0.267 N 
HETATM    7  N5  UNL     1      -9.876 -27.869 -24.760  1.00  0.00    -0.225 N 
ATOM      8  H4  UNL     1     -11.636 -26.797 -24.414  1.00  0.00     0.190 HD
HETATM    9  N6  UNL     1      -9.464 -28.653 -25.741  1.00  0.00    -0.005 NA
ATOM     10  H5  UNL     1      -9.331 -27.645 -23.927  1.00  0.00     0.205 HD
HETATM   11  N7  UNL     1     -10.431 -28.707 -26.641  1.00  0.00    -0.262 N 
ATOM     12  H7  UNL     1     -10.405 -29.235 -27.514  1.00  0.00     0.186 HD
ENDBRANCH   3   5
BRANCH   1  13
HETATM   13  N2  UNL     1     -15.153 -27.520 -26.772  1.00  0.00    -0.251 N 
HETATM   14  C1  UNL     1     -16.274 -28.291 -26.420  1.00  0.00     0.347 C 
HETATM   15  N1  UNL     1     -17.526 -28.089 -27.051  1.00  0.00    -0.038 NA
HETATM   16  O1  UNL     1     -16.192 -29.176 -25.542  1.00  0.00    -0.249 OA
ATOM     17  H2  UNL     1     -15.241 -26.803 -27.492  1.00  0.00     0.191 HD
ENDBRANCH   1  13
TORSDOF 2
ENDMDL
MODEL 2
REMARK VINA RESULT: -6.530295361      3.121      3.447
REMARK  2 active torsions:
REMARK  status: ('A' for Active; 'I' for Inactive)
REMARK       I    between atoms: C1_2  and  N2_4 
REMARK    1  A    between atoms: N2_4  and  N3_6 
REMARK       I    between atoms: N3_6  and  C2_8 
REMARK    2  A    between atoms: C2_8  and  C3_10 
ROOT
HETATM    1  N3  UNL     1     -13.711 -26.214 -24.791  1.00  0.00    -0.260 N 
ATOM      2  H3  UNL     1     -12.803 -25.874 -24.474  1.00  0.00     0.190 HD
HETATM    3  C2  UNL     1     -13.812 -26.878 -26.029  1.00  0.00     0.306 C 
HETATM    4  O2  UNL     1     -14.925 -27.300 -26.410  1.00  0.00    -0.262 OA
ENDROOT
BRANCH   3   5
HETATM    5  C3  UNL     1     -12.620 -27.061 -26.837  1.00  0.00     0.205 A 
HETATM    6  N4  UNL     1     -11.330 -27.082 -26.394  1.00  0.00    -0.267 N 
HETATM    7  N5  UNL     1     -10.575 -27.282 -27.449  1.00  0.00    -0.225 N 
ATOM      8  H4  UNL     1     -11.013 -26.966 -25.430  1.00  0.00     0.190 HD
HETATM    9  N6  UNL     1     -11.318 -27.388 -28.537  1.00  0.00    -0.005 NA
ATOM     10  H5  UNL     1      -9.557 -27.345 -27.432  1.00  0.00     0.205 HD
HETATM   11  N7  UNL     1     -12.582 -27.253 -28.173  1.00  0.00    -0.262 N 
ATOM     12  H7  UNL     1     -13.390 -27.288 -28.795  1.00  0.00     0.186 HD
ENDBRANCH   3   5
BRANCH   1  13
HETATM   13  N2  UNL     1     -14.845 -26.015 -23.988  1.00  0.00    -0.251 N 
HETATM   14  C1  UNL     1     -15.379 -24.728 -23.806  1.00  0.00     0.347 C 
HETATM   15  N1  UNL     1     -16.523 -24.521 -22.996  1.00  0.00    -0.038 NA
HETATM   16  O1  UNL     1     -14.856 -23.734 -24.354  1.00  0.00    -0.249 OA
ATOM     17  H2  UNL     1     -15.286 -26.813 -23.532  1.00  0.00     0.191 HD
ENDBRANCH   1  13
TORSDOF 2
ENDMDL
MODEL 3
REMARK VINA RESULT: -6.354774152      1.151      1.394
REMARK  2 active torsions:
REMARK  status: ('A' for Active; 'I' for Inactive)
REMARK       I    between atoms: C1_2  and  N2_4 
REMARK    1  A    between atoms: N2_4  and  N3_6 
REMARK       I    between atoms: N3_6  and  C2_8 
REMARK    2  A    between atoms: C2_8  and  C3_10 
ROOT
HETATM    1  N3  UNL     1     -13.899 -27.657 -25.020  1.00  0.00    -0.260 N 
ATOM      2  H3  UNL     1     -13.864 -28.209 -24.163  1.00  0.00     0.190 HD
HETATM    3  C2  UNL     1     -12.743 -27.530 -25.814  1.00  0.00     0.306 C 
HETATM    4  O2  UNL     1     -12.792 -26.859 -26.867  1.00  0.00    -0.262 OA
ENDROOT
BRANCH   3   5
HETATM    5  C3  UNL     1     -11.517 -28.183 -25.394  1.00  0.00     0.205 A 
HETATM    6  N4  UNL     1     -11.266 -29.525 -25.395  1.00  0.00    -0.267 N 
HETATM    7  N5  UNL     1     -10.039 -29.676 -24.950  1.00  0.00    -0.225 N 
ATOM      8  H4  UNL     1     -11.905 -30.265 -25.684  1.00  0.00     0.190 HD
HETATM    9  N6  UNL     1      -9.500 -28.503 -24.668  1.00  0.00    -0.005 NA
ATOM     10  H5  UNL     1      -9.569 -30.574 -24.837  1.00  0.00     0.205 HD
HETATM   11  N7  UNL     1     -10.402 -27.574 -24.937  1.00  0.00    -0.262 N 
ATOM     12  H7  UNL     1     -10.277 -26.568 -24.819  1.00  0.00     0.186 HD
ENDBRANCH   3   5
BRANCH   1  13
HETATM   13  N2  UNL     1     -15.099 -27.033 -25.393  1.00  0.00    -0.251 N 
HETATM   14  C1  UNL     1     -16.238 -27.793 -25.704  1.00  0.00     0.347 C 
HETATM   15  N1  UNL     1     -17.452 -27.168 -26.082  1.00  0.00    -0.038 NA
HETATM   16  O1  UNL     1     -16.207 -29.041 -25.656  1.00  0.00    -0.249 OA
ATOM     17  H2  UNL     1     -15.145 -26.014 -25.439  1.00  0.00     0.191 HD
ENDBRANCH   1  13
TORSDOF 2
ENDMDL
MODEL 4
REMARK VINA RESULT: -6.334022025      2.152      2.221
REMARK  2 active torsions:
REMARK  status: ('A' for Active; 'I' for Inactive)
REMARK       I    between atoms: C1_2  and  N2_4 
REMARK    1  A    between atoms: N2_4  and  N3_6 
REMARK       I    between atoms: N3_6  and  C2_8 
REMARK    2  A    between atoms: C2_8  and  C3_10 
ROOT
HETATM    1  N3  UNL     1     -13.730 -27.398 -25.109  1.00  0.00    -0.260 N 
ATOM      2  H3  UNL     1     -13.172 -26.662 -24.677  1.00  0.00     0.190 HD
HETATM    3  C2  UNL     1     -13.086 -28.506 -25.694  1.00  0.00     0.306 C 
HETATM    4  O2  UNL     1     -13.773 -29.411 -26.214  1.00  0.00    -0.262 OA
ENDROOT
BRANCH   3   5
HETATM    5  C3  UNL     1     -11.636 -28.575 -25.679  1.00  0.00     0.205 A 
HETATM    6  N4  UNL     1     -10.771 -27.689 -26.252  1.00  0.00    -0.267 N 
HETATM    7  N5  UNL     1      -9.561 -28.125 -25.990  1.00  0.00    -0.225 N 
ATOM      8  H4  UNL     1     -11.017 -26.852 -26.782  1.00  0.00     0.190 HD
HETATM    9  N6  UNL     1      -9.612 -29.239 -25.280  1.00  0.00    -0.005 NA
ATOM     10  H5  UNL     1      -8.701 -27.668 -26.292  1.00  0.00     0.205 HD
HETATM   11  N7  UNL     1     -10.887 -29.527 -25.082  1.00  0.00    -0.262 N 
ATOM     12  H7  UNL     1     -11.244 -30.332 -24.566  1.00  0.00     0.186 HD
ENDBRANCH   3   5
BRANCH   1  13
HETATM   13  N2  UNL     1     -15.129 -27.297 -25.112  1.00  0.00    -0.251 N 
HETATM   14  C1  UNL     1     -15.764 -26.106 -24.721  1.00  0.00     0.347 C 
HETATM   15  N1  UNL     1     -17.177 -25.998 -24.722  1.00  0.00    -0.038 NA
HETATM   16  O1  UNL     1     -15.097 -25.113 -24.361  1.00  0.00    -0.249 OA
ATOM     17  H2  UNL     1     -15.692 -28.096 -25.402  1.00  0.00     0.191 HD
ENDBRANCH   1  13
TORSDOF 2
ENDMDL
MODEL 5
REMARK VINA RESULT: -6.212071693      1.760      1.760
REMARK  2 active torsions:
REMARK  status: ('A' for Active; 'I' for Inactive)
REMARK       I    between atoms: C1_2  and  N2_4 
REMARK    1  A    between atoms: N2_4  and  N3_6 
REMARK       I    between atoms: N3_6  and  C2_8 
REMARK    2  A    between atoms: C2_8  and  C3_10 
ROOT
HETATM    1  N3  UNL     1     -13.782 -27.089 -25.114  1.00  0.00    -0.260 N 
ATOM      2  H3  UNL     1     -13.462 -26.965 -24.154  1.00  0.00     0.190 HD
HETATM    3  C2  UNL     1     -12.895 -27.603 -26.081  1.00  0.00     0.306 C 
HETATM    4  O2  UNL     1     -13.293 -27.762 -27.255  1.00  0.00    -0.262 OA
ENDROOT
BRANCH   3   5
HETATM    5  C3  UNL     1     -11.538 -27.940 -25.693  1.00  0.00     0.205 A 
HETATM    6  N4  UNL     1     -10.765 -27.287 -24.778  1.00  0.00    -0.267 N 
HETATM    7  N5  UNL     1      -9.620 -27.927 -24.729  1.00  0.00    -0.225 N 
ATOM      8  H4  UNL     1     -11.026 -26.461 -24.237  1.00  0.00     0.190 HD
HETATM    9  N6  UNL     1      -9.627 -28.952 -25.564  1.00  0.00    -0.005 NA
ATOM     10  H5  UNL     1      -8.836 -27.670 -24.131  1.00  0.00     0.205 HD
HETATM   11  N7  UNL     1     -10.804 -28.970 -26.165  1.00  0.00    -0.262 N 
ATOM     12  H7  UNL     1     -11.106 -29.647 -26.866  1.00  0.00     0.186 HD
ENDBRANCH   3   5
BRANCH   1  13
HETATM   13  N2  UNL     1     -15.098 -26.747 -25.457  1.00  0.00    -0.251 N 
HETATM   14  C1  UNL     1     -16.021 -26.364 -24.469  1.00  0.00     0.347 C 
HETATM   15  N1  UNL     1     -17.352 -26.018 -24.810  1.00  0.00    -0.038 NA
HETATM   16  O1  UNL     1     -15.690 -26.321 -23.266  1.00  0.00    -0.249 OA
ATOM     17  H2  UNL     1     -15.389 -26.776 -26.434  1.00  0.00     0.191 HD
ENDBRANCH   1  13
TORSDOF 2
ENDMDL
