MODEL 1
REMARK VINA RESULT: -7.144400196      0.000      0.000
REMARK  4 active torsions:
REMARK  status: ('A' for Active; 'I' for Inactive)
REMARK    1  A    between atoms: N1_1  and  C1_4 
REMARK    2  A    between atoms: C2_7  and  C3_8 
REMARK    3  A    between atoms: N4_10  and  O1_12 
REMARK    4  A    between atoms: N6_16  and  O2_17 
ROOT
HETATM    1  C1  UNL     1     -13.064 -27.641 -26.804  1.00  0.00     0.695 A 
HETATM    2  N2  UNL     1     -12.058 -27.994 -25.984  1.00  0.00    -0.171 N 
ATOM      3  H2  UNL     1     -12.113 -27.756 -24.994  1.00  0.00     0.186 HD
HETATM    4  C2  UNL     1     -10.982 -28.652 -26.443  1.00  0.00     0.181 A 
HETATM    5  N5  UNL     1     -10.948 -28.945 -27.752  1.00  0.00    -0.239 N 
ATOM      6  H5  UNL     1     -10.143 -29.446 -28.130  1.00  0.00     0.193 HD
HETATM    7  N6  UNL     1     -11.948 -28.595 -28.575  1.00  0.00    -0.079 N 
HETATM    8  N7  UNL     1     -12.991 -27.951 -28.103  1.00  0.00    -0.090 N 
ATOM      9  H7  UNL     1     -13.750 -27.686 -28.731  1.00  0.00     0.210 HD
ENDROOT
BRANCH   4  10
HETATM   10  C3  UNL     1      -9.926 -29.010 -25.514  1.00  0.00     0.182 C 
HETATM   11  N3  UNL     1      -9.236 -30.226 -25.761  1.00  0.00    -0.077 NA
HETATM   12  N4  UNL     1      -9.573 -28.326 -24.508  1.00  0.00    -0.252 N 
ATOM     13  H4  UNL     1      -8.811 -28.708 -23.947  1.00  0.00     0.195 HD
BRANCH  12  14
HETATM   14  O1  UNL     1     -10.086 -27.150 -24.090  1.00  0.00    -0.288 OA
ATOM     15  H1  UNL     1     -10.894 -26.737 -24.374  1.00  0.00     0.244 HD
ENDBRANCH  12  14
ENDBRANCH   4  10
BRANCH   1  16
HETATM   16  N1  UNL     1     -14.098 -27.002 -26.342  1.00  0.00    -0.233 N 
ATOM     17  H12 UNL     1     -14.002 -26.387 -25.535  1.00  0.00     0.174 HD
ATOM     18  H11 UNL     1     -15.012 -27.113 -26.781  1.00  0.00     0.174 HD
ENDBRANCH   1  16
BRANCH   7  19
HETATM   19  O2  UNL     1     -11.908 -28.897 -29.908  1.00  0.00    -0.253 OA
ATOM     20  H2  UNL     1     -12.206 -29.738 -30.232  1.00  0.00     0.248 HD
ENDBRANCH   7  19
TORSDOF 4
ENDMDL
MODEL 2
REMARK VINA RESULT: -6.789743369      1.736      3.551
REMARK  4 active torsions:
REMARK  status: ('A' for Active; 'I' for Inactive)
REMARK    1  A    between atoms: N1_1  and  C1_4 
REMARK    2  A    between atoms: C2_7  and  C3_8 
REMARK    3  A    between atoms: N4_10  and  O1_12 
REMARK    4  A    between atoms: N6_16  and  O2_17 
ROOT
HETATM    1  C1  UNL     1     -10.721 -28.270 -25.702  1.00  0.00     0.695 A 
HETATM    2  N2  UNL     1     -11.979 -28.148 -25.239  1.00  0.00    -0.171 N 
ATOM      3  H2  UNL     1     -12.129 -27.910 -24.259  1.00  0.00     0.186 HD
HETATM    4  C2  UNL     1     -13.039 -28.334 -26.041  1.00  0.00     0.181 A 
HETATM    5  N5  UNL     1     -12.797 -28.647 -27.323  1.00  0.00    -0.239 N 
ATOM      6  H5  UNL     1     -13.583 -28.794 -27.957  1.00  0.00     0.193 HD
HETATM    7  N6  UNL     1     -11.545 -28.771 -27.791  1.00  0.00    -0.079 N 
HETATM    8  N7  UNL     1     -10.524 -28.584 -26.987  1.00  0.00    -0.090 N 
ATOM      9  H7  UNL     1      -9.573 -28.680 -27.345  1.00  0.00     0.210 HD
ENDROOT
BRANCH   4  10
HETATM   10  C3  UNL     1     -14.373 -28.189 -25.490  1.00  0.00     0.182 C 
HETATM   11  N3  UNL     1     -15.313 -29.206 -25.802  1.00  0.00    -0.077 NA
HETATM   12  N4  UNL     1     -14.762 -27.232 -24.755  1.00  0.00    -0.252 N 
ATOM     13  H4  UNL     1     -15.732 -27.269 -24.442  1.00  0.00     0.195 HD
BRANCH  12  14
HETATM   14  O1  UNL     1     -14.042 -26.170 -24.338  1.00  0.00    -0.288 OA
ATOM     15  H1  UNL     1     -13.196 -25.880 -24.660  1.00  0.00     0.244 HD
ENDBRANCH  12  14
ENDBRANCH   4  10
BRANCH   1  16
HETATM   16  N1  UNL     1      -9.706 -28.087 -24.911  1.00  0.00    -0.233 N 
ATOM     17  H12 UNL     1      -8.847 -28.620 -25.048  1.00  0.00     0.174 HD
ATOM     18  H11 UNL     1      -9.760 -27.413 -24.147  1.00  0.00     0.174 HD
ENDBRANCH   1  16
BRANCH   7  19
HETATM   19  O2  UNL     1     -11.305 -29.090 -29.098  1.00  0.00    -0.253 OA
ATOM     20  H2  UNL     1     -11.989 -29.023 -29.755  1.00  0.00     0.248 HD
ENDBRANCH   7  19
TORSDOF 4
ENDMDL
MODEL 3
REMARK VINA RESULT: -6.422399506      1.643      1.798
REMARK  4 active torsions:
REMARK  status: ('A' for Active; 'I' for Inactive)
REMARK    1  A    between atoms: N1_1  and  C1_4 
REMARK    2  A    between atoms: C2_7  and  C3_8 
REMARK    3  A    between atoms: N4_10  and  O1_12 
REMARK    4  A    between atoms: N6_16  and  O2_17 
ROOT
HETATM    1  C1  UNL     1     -13.324 -28.958 -26.343  1.00  0.00     0.695 A 
HETATM    2  N2  UNL     1     -12.319 -29.060 -25.455  1.00  0.00    -0.171 N 
ATOM      3  H2  UNL     1     -12.534 -29.096 -24.459  1.00  0.00     0.186 HD
HETATM    4  C2  UNL     1     -11.038 -29.114 -25.854  1.00  0.00     0.181 A 
HETATM    5  N5  UNL     1     -10.799 -29.063 -27.173  1.00  0.00    -0.239 N 
ATOM      6  H5  UNL     1      -9.835 -29.103 -27.507  1.00  0.00     0.193 HD
HETATM    7  N6  UNL     1     -11.798 -28.961 -28.064  1.00  0.00    -0.079 N 
HETATM    8  N7  UNL     1     -13.043 -28.909 -27.649  1.00  0.00    -0.090 N 
ATOM      9  H7  UNL     1     -13.801 -28.830 -28.329  1.00  0.00     0.210 HD
ENDROOT
BRANCH   4  10
HETATM   10  C3  UNL     1      -9.993 -29.225 -24.854  1.00  0.00     0.182 C 
HETATM   11  N3  UNL     1      -9.155 -28.094 -24.669  1.00  0.00    -0.077 NA
HETATM   12  N4  UNL     1      -9.771 -30.246 -24.136  1.00  0.00    -0.252 N 
ATOM     13  H4  UNL     1      -8.999 -30.173 -23.474  1.00  0.00     0.195 HD
BRANCH  12  14
HETATM   14  O1  UNL     1     -10.438 -31.419 -24.145  1.00  0.00    -0.288 OA
ATOM     15  H1  UNL     1     -11.361 -31.559 -24.322  1.00  0.00     0.244 HD
ENDBRANCH  12  14
ENDBRANCH   4  10
BRANCH   1  16
HETATM   16  N1  UNL     1     -14.559 -28.906 -25.938  1.00  0.00    -0.233 N 
ATOM     17  H12 UNL     1     -14.952 -29.673 -25.393  1.00  0.00     0.174 HD
ATOM     18  H11 UNL     1     -15.143 -28.100 -26.162  1.00  0.00     0.174 HD
ENDBRANCH   1  16
BRANCH   7  19
HETATM   19  O2  UNL     1     -11.547 -28.908 -29.407  1.00  0.00    -0.253 OA
ATOM     20  H2  UNL     1     -11.553 -28.083 -29.877  1.00  0.00     0.248 HD
ENDBRANCH   7  19
TORSDOF 4
ENDMDL
MODEL 4
REMARK VINA RESULT: -6.367864269      1.990      3.911
REMARK  4 active torsions:
REMARK  status: ('A' for Active; 'I' for Inactive)
REMARK    1  A    between atoms: N1_1  and  C1_4 
REMARK    2  A    between atoms: C2_7  and  C3_8 
REMARK    3  A    between atoms: N4_10  and  O1_12 
REMARK    4  A    between atoms: N6_16  and  O2_17 
ROOT
HETATM    1  C1  UNL     1     -10.715 -28.115 -26.334  1.00  0.00     0.695 A 
HETATM    2  N2  UNL     1     -11.841 -27.637 -25.774  1.00  0.00    -0.171 N 
ATOM      3  H2  UNL     1     -11.825 -27.334 -24.801  1.00  0.00     0.186 HD
HETATM    4  C2  UNL     1     -12.985 -27.551 -26.471  1.00  0.00     0.181 A 
HETATM    5  N5  UNL     1     -12.963 -27.960 -27.749  1.00  0.00    -0.239 N 
ATOM      6  H5  UNL     1     -13.818 -27.907 -28.304  1.00  0.00     0.193 HD
HETATM    7  N6  UNL     1     -11.843 -28.439 -28.313  1.00  0.00    -0.079 N 
HETATM    8  N7  UNL     1     -10.736 -28.514 -27.611  1.00  0.00    -0.090 N 
ATOM      9  H7  UNL     1      -9.886 -28.878 -28.042  1.00  0.00     0.210 HD
ENDROOT
BRANCH   4  10
HETATM   10  C3  UNL     1     -14.170 -27.026 -25.819  1.00  0.00     0.182 C 
HETATM   11  N3  UNL     1     -14.034 -25.790 -25.133  1.00  0.00    -0.077 NA
HETATM   12  N4  UNL     1     -15.310 -27.580 -25.814  1.00  0.00    -0.252 N 
ATOM     13  H4  UNL     1     -16.049 -27.088 -25.312  1.00  0.00     0.195 HD
BRANCH  12  14
HETATM   14  O1  UNL     1     -15.661 -28.745 -26.397  1.00  0.00    -0.288 OA
ATOM     15  H1  UNL     1     -16.435 -28.922 -26.919  1.00  0.00     0.244 HD
ENDBRANCH  12  14
ENDBRANCH   4  10
BRANCH   1  16
HETATM   16  N1  UNL     1      -9.616 -28.191 -25.644  1.00  0.00    -0.233 N 
ATOM     17  H12 UNL     1      -9.630 -28.026 -24.638  1.00  0.00     0.174 HD
ATOM     18  H11 UNL     1      -8.732 -28.416 -26.101  1.00  0.00     0.174 HD
ENDBRANCH   1  16
BRANCH   7  19
HETATM   19  O2  UNL     1     -11.827 -28.855 -29.615  1.00  0.00    -0.253 OA
ATOM     20  H2  UNL     1     -11.605 -29.750 -29.844  1.00  0.00     0.248 HD
ENDBRANCH   7  19
TORSDOF 4
ENDMDL
MODEL 5
REMARK VINA RESULT: -6.337082906      2.221      2.862
REMARK  4 active torsions:
REMARK  status: ('A' for Active; 'I' for Inactive)
REMARK    1  A    between atoms: N1_1  and  C1_4 
REMARK    2  A    between atoms: C2_7  and  C3_8 
REMARK    3  A    between atoms: N4_10  and  O1_12 
REMARK    4  A    between atoms: N6_16  and  O2_17 
ROOT
HETATM    1  C1  UNL     1     -13.678 -26.506 -25.040  1.00  0.00     0.695 A 
HETATM    2  N2  UNL     1     -12.452 -26.779 -25.520  1.00  0.00    -0.171 N 
ATOM      3  H2  UNL     1     -11.766 -26.028 -25.595  1.00  0.00     0.186 HD
HETATM    4  C2  UNL     1     -12.112 -28.021 -25.901  1.00  0.00     0.181 A 
HETATM    5  N5  UNL     1     -13.044 -28.979 -25.787  1.00  0.00    -0.239 N 
ATOM      6  H5  UNL     1     -12.816 -29.933 -26.069  1.00  0.00     0.193 HD
HETATM    7  N6  UNL     1     -14.270 -28.713 -25.310  1.00  0.00    -0.079 N 
HETATM    8  N7  UNL     1     -14.579 -27.490 -24.943  1.00  0.00    -0.090 N 
ATOM      9  H7  UNL     1     -15.512 -27.290 -24.581  1.00  0.00     0.210 HD
ENDROOT
BRANCH   4  10
HETATM   10  C3  UNL     1     -10.775 -28.261 -26.410  1.00  0.00     0.182 C 
HETATM   11  N3  UNL     1     -10.660 -28.615 -27.780  1.00  0.00    -0.077 NA
HETATM   12  N4  UNL     1      -9.707 -28.177 -25.732  1.00  0.00    -0.252 N 
ATOM     13  H4  UNL     1      -8.840 -28.374 -26.231  1.00  0.00     0.195 HD
BRANCH  12  14
HETATM   14  O1  UNL     1      -9.584 -27.858 -24.427  1.00  0.00    -0.288 OA
ATOM     15  H1  UNL     1      -8.797 -27.589 -23.968  1.00  0.00     0.244 HD
ENDBRANCH  12  14
ENDBRANCH   4  10
BRANCH   1  16
HETATM   16  N1  UNL     1     -13.990 -25.297 -24.675  1.00  0.00    -0.233 N 
ATOM     17  H12 UNL     1     -13.339 -24.748 -24.115  1.00  0.00     0.174 HD
ATOM     18  H11 UNL     1     -14.886 -24.890 -24.945  1.00  0.00     0.174 HD
ENDBRANCH   1  16
BRANCH   7  19
HETATM   19  O2  UNL     1     -15.215 -29.694 -25.196  1.00  0.00    -0.253 OA
ATOM     20  H2  UNL     1     -15.952 -29.602 -24.603  1.00  0.00     0.248 HD
ENDBRANCH   7  19
TORSDOF 4
ENDMDL
