MODEL 1
REMARK VINA RESULT: -8.029858244      0.000      0.000
REMARK  6 active torsions:
REMARK  status: ('A' for Active; 'I' for Inactive)
REMARK    1  A    between atoms: C3_5  and  C4_6 
REMARK       I    between atoms: C4_6  and  N2_8 
REMARK    2  A    between atoms: N2_8  and  C5_10 
REMARK    3  A    between atoms: C7_16  and  C8_17 
REMARK    4  A    between atoms: C8_17  and  N5_18 
REMARK    5  A    between atoms: N6_25  and  C14_26 
REMARK    6  A    between atoms: C18_30  and  C19_31 
ROOT
HETATM    1  C1  UNL     1      10.649  14.751  20.624  1.00  0.00     0.089 C 
HETATM    2  C2  UNL     1      10.185  13.417  21.002  1.00  0.00     0.080 A 
HETATM    3  N1  UNL     1       9.804  13.056  22.244  1.00  0.00    -0.341 N 
ATOM      4  H1  UNL     1       9.797  13.670  23.058  1.00  0.00     0.167 HD
HETATM    5  C3  UNL     1       9.442  11.783  22.246  1.00  0.00     0.118 A 
HETATM    6  C13 UNL     1       9.608  11.348  20.952  1.00  0.00     0.128 A 
HETATM    7  N6  UNL     1      10.074  12.375  20.180  1.00  0.00    -0.334 N 
ENDROOT
BRANCH   5   8
HETATM    8  C4  UNL     1       8.957  10.959  23.379  1.00  0.00     0.274 C 
HETATM    9  O1  UNL     1       7.746  10.890  23.652  1.00  0.00    -0.266 OA
HETATM   10  N2  UNL     1       9.907  10.243  24.155  1.00  0.00    -0.319 N 
ATOM     11  H2  UNL     1      10.888  10.333  23.891  1.00  0.00     0.169 HD
BRANCH  10  12
HETATM   12  C5  UNL     1       9.611   9.428  25.247  1.00  0.00     0.078 A 
HETATM   13  C6  UNL     1       8.719   8.387  25.358  1.00  0.00     0.138 A 
HETATM   14  N3  UNL     1       8.773   7.888  26.617  1.00  0.00    -0.309 N 
HETATM   15  N4  UNL     1       9.657   8.572  27.292  1.00  0.00    -0.301 N 
ATOM     16  H3  UNL     1       8.218   7.110  26.975  1.00  0.00     0.186 HD
HETATM   17  C7  UNL     1      10.203   9.529  26.508  1.00  0.00     0.082 A 
ATOM     18  H4  UNL     1       9.899   8.409  28.269  1.00  0.00     0.186 HD
BRANCH  17  19
HETATM   19  C8  UNL     1      11.253  10.499  26.873  1.00  0.00     0.333 C 
BRANCH  19  20
HETATM   20  N5  UNL     1      10.760  11.499  27.769  1.00  0.00     0.098 N 
HETATM   21  C9  UNL     1       9.664  10.948  28.580  1.00  0.00     0.299 C 
HETATM   22  C10 UNL     1       9.346  11.997  29.617  1.00  0.00     0.198 C 
HETATM   23  O2  UNL     1      10.012  13.189  29.444  1.00  0.00    -0.388 OA
HETATM   24  C11 UNL     1      11.406  13.060  29.432  1.00  0.00     0.198 C 
HETATM   25  C12 UNL     1      11.827  11.792  28.743  1.00  0.00     0.299 C 
ENDBRANCH  19  20
ENDBRANCH  17  19
ENDBRANCH  10  12
ENDBRANCH   5   8
BRANCH   7  26
HETATM   26  C14 UNL     1      10.327  12.165  18.805  1.00  0.00     0.041 C 
HETATM   27  C15 UNL     1      10.977  10.785  18.689  1.00  0.00     0.039 C 
HETATM   28  C16 UNL     1      11.291  13.098  18.157  1.00  0.00     0.032 C 
HETATM   29  C17 UNL     1      11.637  12.575  16.746  1.00  0.00     0.016 C 
HETATM   30  C18 UNL     1      10.450  12.187  15.946  1.00  0.00     0.094 C 
HETATM   31  C20 UNL     1       9.206  12.662  16.609  1.00  0.00     0.024 C 
HETATM   32  C21 UNL     1       9.044  12.273  18.054  1.00  0.00    -0.022 C 
HETATM   33  C22 UNL     1       8.221  13.423  18.659  1.00  0.00     0.017 C 
HETATM   34  C23 UNL     1       8.122  11.107  18.136  1.00  0.00     0.017 C 
BRANCH  30  35
HETATM   35  C19 UNL     1      10.459  12.853  14.557  1.00  0.00     0.391 C 
HETATM   36  F1  UNL     1       9.509  12.317  13.742  1.00  0.00    -0.171 F 
HETATM   37  F2  UNL     1      11.698  12.704  13.966  1.00  0.00    -0.171 F 
HETATM   38  F3  UNL     1      10.218  14.203  14.659  1.00  0.00    -0.171 F 
ENDBRANCH  30  35
ENDBRANCH   7  26
TORSDOF 6
ENDMDL
MODEL 2
REMARK VINA RESULT: -7.784253091      7.326     10.568
REMARK  6 active torsions:
REMARK  status: ('A' for Active; 'I' for Inactive)
REMARK    1  A    between atoms: C3_5  and  C4_6 
REMARK       I    between atoms: C4_6  and  N2_8 
REMARK    2  A    between atoms: N2_8  and  C5_10 
REMARK    3  A    between atoms: C7_16  and  C8_17 
REMARK    4  A    between atoms: C8_17  and  N5_18 
REMARK    5  A    between atoms: N6_25  and  C14_26 
REMARK    6  A    between atoms: C18_30  and  C19_31 
ROOT
HETATM    1  C1  UNL     1       6.088  12.062  13.304  1.00  0.00     0.089 C 
HETATM    2  C2  UNL     1       6.334  10.821  14.039  1.00  0.00     0.080 A 
HETATM    3  N1  UNL     1       5.789   9.626  13.738  1.00  0.00    -0.341 N 
ATOM      4  H1  UNL     1       5.144   9.452  12.967  1.00  0.00     0.167 HD
HETATM    5  C3  UNL     1       6.216   8.713  14.595  1.00  0.00     0.118 A 
HETATM    6  C13 UNL     1       7.057   9.378  15.456  1.00  0.00     0.128 A 
HETATM    7  N6  UNL     1       7.126  10.696  15.102  1.00  0.00    -0.334 N 
ENDROOT
BRANCH   5   8
HETATM    8  C4  UNL     1       5.882   7.269  14.656  1.00  0.00     0.274 C 
HETATM    9  O1  UNL     1       5.412   6.761  15.688  1.00  0.00    -0.266 OA
HETATM   10  N2  UNL     1       6.109   6.470  13.505  1.00  0.00    -0.319 N 
ATOM     11  H2  UNL     1       6.496   6.934  12.683  1.00  0.00     0.169 HD
BRANCH  10  12
HETATM   12  C5  UNL     1       5.848   5.104  13.404  1.00  0.00     0.078 A 
HETATM   13  C6  UNL     1       4.861   4.440  12.712  1.00  0.00     0.138 A 
HETATM   14  N3  UNL     1       5.001   3.107  12.909  1.00  0.00    -0.309 N 
HETATM   15  N4  UNL     1       6.028   2.912  13.692  1.00  0.00    -0.301 N 
ATOM     16  H3  UNL     1       4.405   2.379  12.513  1.00  0.00     0.186 HD
HETATM   17  C7  UNL     1       6.587   4.097  14.028  1.00  0.00     0.082 A 
ATOM     18  H4  UNL     1       6.360   2.000  14.004  1.00  0.00     0.186 HD
BRANCH  17  19
HETATM   19  C8  UNL     1       7.776   4.321  14.874  1.00  0.00     0.333 C 
BRANCH  19  20
HETATM   20  N5  UNL     1       8.354   3.088  15.311  1.00  0.00     0.098 N 
HETATM   21  C9  UNL     1       9.558   2.791  14.521  1.00  0.00     0.299 C 
HETATM   22  C10 UNL     1      10.200   1.593  15.176  1.00  0.00     0.198 C 
HETATM   23  O2  UNL     1       9.453   1.026  16.183  1.00  0.00    -0.388 OA
HETATM   24  C11 UNL     1       9.132   1.914  17.216  1.00  0.00     0.198 C 
HETATM   25  C12 UNL     1       8.854   3.291  16.682  1.00  0.00     0.299 C 
ENDBRANCH  19  20
ENDBRANCH  17  19
ENDBRANCH  10  12
ENDBRANCH   5   8
BRANCH   7  26
HETATM   26  C14 UNL     1       7.932  11.585  15.849  1.00  0.00     0.041 C 
HETATM   27  C15 UNL     1       8.188  12.799  14.952  1.00  0.00     0.039 C 
HETATM   28  C16 UNL     1       9.289  11.096  16.224  1.00  0.00     0.032 C 
HETATM   29  C17 UNL     1      10.111  12.267  16.804  1.00  0.00     0.016 C 
HETATM   30  C18 UNL     1       9.385  13.057  17.826  1.00  0.00     0.094 C 
HETATM   31  C20 UNL     1       8.141  12.350  18.235  1.00  0.00     0.024 C 
HETATM   32  C21 UNL     1       7.228  11.931  17.115  1.00  0.00    -0.022 C 
HETATM   33  C22 UNL     1       6.539  10.664  17.650  1.00  0.00     0.017 C 
HETATM   34  C23 UNL     1       6.114  12.914  17.013  1.00  0.00     0.017 C 
BRANCH  30  35
HETATM   35  C19 UNL     1      10.213  13.216  19.116  1.00  0.00     0.391 C 
HETATM   36  F1  UNL     1      10.522  12.006  19.660  1.00  0.00    -0.171 F 
HETATM   37  F2  UNL     1       9.511  13.961  20.043  1.00  0.00    -0.171 F 
HETATM   38  F3  UNL     1      11.389  13.882  18.865  1.00  0.00    -0.171 F 
ENDBRANCH  30  35
ENDBRANCH   7  26
TORSDOF 6
ENDMDL
MODEL 3
REMARK VINA RESULT: -7.751559855      7.781     12.046
REMARK  6 active torsions:
REMARK  status: ('A' for Active; 'I' for Inactive)
REMARK    1  A    between atoms: C3_5  and  C4_6 
REMARK       I    between atoms: C4_6  and  N2_8 
REMARK    2  A    between atoms: N2_8  and  C5_10 
REMARK    3  A    between atoms: C7_16  and  C8_17 
REMARK    4  A    between atoms: C8_17  and  N5_18 
REMARK    5  A    between atoms: N6_25  and  C14_26 
REMARK    6  A    between atoms: C18_30  and  C19_31 
ROOT
HETATM    1  C1  UNL     1       5.987  12.065  13.414  1.00  0.00     0.089 C 
HETATM    2  C2  UNL     1       6.345  10.862  14.163  1.00  0.00     0.080 A 
HETATM    3  N1  UNL     1       5.858   9.628  13.919  1.00  0.00    -0.341 N 
ATOM      4  H1  UNL     1       5.187   9.396  13.187  1.00  0.00     0.167 HD
HETATM    5  C3  UNL     1       6.383   8.766  14.774  1.00  0.00     0.118 A 
HETATM    6  C13 UNL     1       7.226   9.502  15.573  1.00  0.00     0.128 A 
HETATM    7  N6  UNL     1       7.197  10.812  15.185  1.00  0.00    -0.334 N 
ENDROOT
BRANCH   5   8
HETATM    8  C4  UNL     1       6.141   7.306  14.886  1.00  0.00     0.274 C 
HETATM    9  O1  UNL     1       5.367   6.848  15.744  1.00  0.00    -0.266 OA
HETATM   10  N2  UNL     1       6.813   6.435  13.989  1.00  0.00    -0.319 N 
ATOM     11  H2  UNL     1       7.438   6.860  13.304  1.00  0.00     0.169 HD
BRANCH  10  12
HETATM   12  C5  UNL     1       6.691   5.046  13.967  1.00  0.00     0.078 A 
HETATM   13  C6  UNL     1       7.390   4.085  14.661  1.00  0.00     0.138 A 
HETATM   14  N3  UNL     1       6.923   2.860  14.315  1.00  0.00    -0.309 N 
HETATM   15  N4  UNL     1       5.969   3.017  13.438  1.00  0.00    -0.301 N 
ATOM     16  H3  UNL     1       7.261   1.969  14.678  1.00  0.00     0.186 HD
HETATM   17  C7  UNL     1       5.781   4.332  13.184  1.00  0.00     0.082 A 
ATOM     18  H4  UNL     1       5.442   2.258  13.006  1.00  0.00     0.186 HD
BRANCH  17  19
HETATM   19  C8  UNL     1       4.789   4.939  12.276  1.00  0.00     0.333 C 
BRANCH  19  20
HETATM   20  N5  UNL     1       4.270   3.985  11.346  1.00  0.00     0.098 N 
HETATM   21  C9  UNL     1       2.908   3.594  11.737  1.00  0.00     0.299 C 
HETATM   22  C10 UNL     1       2.376   2.749  10.605  1.00  0.00     0.198 C 
HETATM   23  O2  UNL     1       3.304   2.449   9.635  1.00  0.00    -0.388 OA
HETATM   24  C11 UNL     1       3.888   3.575   9.044  1.00  0.00     0.198 C 
HETATM   25  C12 UNL     1       4.100   4.669  10.052  1.00  0.00     0.299 C 
ENDBRANCH  19  20
ENDBRANCH  17  19
ENDBRANCH  10  12
ENDBRANCH   5   8
BRANCH   7  26
HETATM   26  C14 UNL     1       7.984  11.767  15.867  1.00  0.00     0.041 C 
HETATM   27  C15 UNL     1       8.068  12.993  14.956  1.00  0.00     0.039 C 
HETATM   28  C16 UNL     1       9.402  11.391  16.132  1.00  0.00     0.032 C 
HETATM   29  C17 UNL     1      10.170  12.628  16.647  1.00  0.00     0.016 C 
HETATM   30  C18 UNL     1       9.465  13.361  17.726  1.00  0.00     0.094 C 
HETATM   31  C20 UNL     1       8.320  12.556  18.231  1.00  0.00     0.024 C 
HETATM   32  C21 UNL     1       7.357  12.059  17.187  1.00  0.00    -0.022 C 
HETATM   33  C22 UNL     1       6.819  10.743  17.772  1.00  0.00     0.017 C 
HETATM   34  C23 UNL     1       6.162  12.947  17.176  1.00  0.00     0.017 C 
BRANCH  30  35
HETATM   35  C19 UNL     1      10.378  13.591  18.946  1.00  0.00     0.391 C 
HETATM   36  F1  UNL     1       9.831  14.487  19.814  1.00  0.00    -0.171 F 
HETATM   37  F2  UNL     1      11.611  14.057  18.535  1.00  0.00    -0.171 F 
HETATM   38  F3  UNL     1      10.593  12.417  19.627  1.00  0.00    -0.171 F 
ENDBRANCH  30  35
ENDBRANCH   7  26
TORSDOF 6
ENDMDL
MODEL 4
REMARK VINA RESULT: -7.749231654      7.729     12.207
REMARK  6 active torsions:
REMARK  status: ('A' for Active; 'I' for Inactive)
REMARK    1  A    between atoms: C3_5  and  C4_6 
REMARK       I    between atoms: C4_6  and  N2_8 
REMARK    2  A    between atoms: N2_8  and  C5_10 
REMARK    3  A    between atoms: C7_16  and  C8_17 
REMARK    4  A    between atoms: C8_17  and  N5_18 
REMARK    5  A    between atoms: N6_25  and  C14_26 
REMARK    6  A    between atoms: C18_30  and  C19_31 
ROOT
HETATM    1  C1  UNL     1       5.942  12.137  13.318  1.00  0.00     0.089 C 
HETATM    2  C2  UNL     1       6.290  10.911  14.034  1.00  0.00     0.080 A 
HETATM    3  N1  UNL     1       5.802   9.686  13.749  1.00  0.00    -0.341 N 
ATOM      4  H1  UNL     1       5.136   9.478  13.006  1.00  0.00     0.167 HD
HETATM    5  C3  UNL     1       6.318   8.797  14.582  1.00  0.00     0.118 A 
HETATM    6  C13 UNL     1       7.155   9.507  15.410  1.00  0.00     0.128 A 
HETATM    7  N6  UNL     1       7.133  10.828  15.061  1.00  0.00    -0.334 N 
ENDROOT
BRANCH   5   8
HETATM    8  C4  UNL     1       6.070   7.336  14.649  1.00  0.00     0.274 C 
HETATM    9  O1  UNL     1       5.472   6.829  15.614  1.00  0.00    -0.266 OA
HETATM   10  N2  UNL     1       6.531   6.519  13.584  1.00  0.00    -0.319 N 
ATOM     11  H2  UNL     1       7.016   6.983  12.815  1.00  0.00     0.169 HD
BRANCH  10  12
HETATM   12  C5  UNL     1       6.377   5.136  13.499  1.00  0.00     0.078 A 
HETATM   13  C6  UNL     1       7.124   4.127  14.060  1.00  0.00     0.138 A 
HETATM   14  N3  UNL     1       6.596   2.931  13.701  1.00  0.00    -0.309 N 
HETATM   15  N4  UNL     1       5.557   3.153  12.942  1.00  0.00    -0.301 N 
ATOM     16  H3  UNL     1       6.950   2.015  13.977  1.00  0.00     0.186 HD
HETATM   17  C7  UNL     1       5.373   4.483  12.781  1.00  0.00     0.082 A 
ATOM     18  H4  UNL     1       4.970   2.428  12.529  1.00  0.00     0.186 HD
BRANCH  17  19
HETATM   19  C8  UNL     1       4.303   5.156  12.020  1.00  0.00     0.333 C 
BRANCH  19  20
HETATM   20  N5  UNL     1       4.564   5.139  10.614  1.00  0.00     0.098 N 
HETATM   21  C9  UNL     1       3.788   4.067   9.973  1.00  0.00     0.299 C 
HETATM   22  C10 UNL     1       3.972   4.251   8.487  1.00  0.00     0.198 C 
HETATM   23  O2  UNL     1       4.891   5.216   8.143  1.00  0.00    -0.388 OA
HETATM   24  C11 UNL     1       4.602   6.483   8.662  1.00  0.00     0.198 C 
HETATM   25  C12 UNL     1       4.016   6.382  10.043  1.00  0.00     0.299 C 
ENDBRANCH  19  20
ENDBRANCH  17  19
ENDBRANCH  10  12
ENDBRANCH   5   8
BRANCH   7  26
HETATM   26  C14 UNL     1       7.918  11.760  15.778  1.00  0.00     0.041 C 
HETATM   27  C15 UNL     1       7.964  13.033  14.931  1.00  0.00     0.039 C 
HETATM   28  C16 UNL     1       9.346  11.396  15.999  1.00  0.00     0.032 C 
HETATM   29  C17 UNL     1      10.103  12.617  16.563  1.00  0.00     0.016 C 
HETATM   30  C18 UNL     1       9.406  13.281  17.691  1.00  0.00     0.094 C 
HETATM   31  C20 UNL     1       8.284  12.432  18.174  1.00  0.00     0.024 C 
HETATM   32  C21 UNL     1       7.310  11.973  17.122  1.00  0.00    -0.022 C 
HETATM   33  C22 UNL     1       6.804  10.620  17.647  1.00  0.00     0.017 C 
HETATM   34  C23 UNL     1       6.101  12.840  17.178  1.00  0.00     0.017 C 
BRANCH  30  35
HETATM   35  C19 UNL     1      10.337  13.464  18.905  1.00  0.00     0.391 C 
HETATM   36  F1  UNL     1      10.615  12.273  19.503  1.00  0.00    -0.171 F 
HETATM   37  F2  UNL     1       9.753  14.307  19.829  1.00  0.00    -0.171 F 
HETATM   38  F3  UNL     1      11.528  14.037  18.528  1.00  0.00    -0.171 F 
ENDBRANCH  30  35
ENDBRANCH   7  26
TORSDOF 6
ENDMDL
MODEL 5
REMARK VINA RESULT: -7.428459397      7.762     10.964
REMARK  6 active torsions:
REMARK  status: ('A' for Active; 'I' for Inactive)
REMARK    1  A    between atoms: C3_5  and  C4_6 
REMARK       I    between atoms: C4_6  and  N2_8 
REMARK    2  A    between atoms: N2_8  and  C5_10 
REMARK    3  A    between atoms: C7_16  and  C8_17 
REMARK    4  A    between atoms: C8_17  and  N5_18 
REMARK    5  A    between atoms: N6_25  and  C14_26 
REMARK    6  A    between atoms: C18_30  and  C19_31 
ROOT
HETATM    1  C1  UNL     1       5.710  12.237  12.803  1.00  0.00     0.089 C 
HETATM    2  C2  UNL     1       5.900  10.853  13.234  1.00  0.00     0.080 A 
HETATM    3  N1  UNL     1       5.530   9.767  12.525  1.00  0.00    -0.341 N 
ATOM      4  H1  UNL     1       5.076   9.788  11.612  1.00  0.00     0.167 HD
HETATM    5  C3  UNL     1       5.844   8.671  13.195  1.00  0.00     0.118 A 
HETATM    6  C13 UNL     1       6.431   9.104  14.361  1.00  0.00     0.128 A 
HETATM    7  N6  UNL     1       6.462  10.470  14.378  1.00  0.00    -0.334 N 
ENDROOT
BRANCH   5   8
HETATM    8  C4  UNL     1       5.626   7.255  12.811  1.00  0.00     0.274 C 
HETATM    9  O1  UNL     1       5.157   6.955  11.700  1.00  0.00    -0.266 OA
HETATM   10  N2  UNL     1       5.964   6.238  13.743  1.00  0.00    -0.319 N 
ATOM     11  H2  UNL     1       6.345   6.535  14.641  1.00  0.00     0.169 HD
BRANCH  10  12
HETATM   12  C5  UNL     1       5.819   4.867  13.532  1.00  0.00     0.078 A 
HETATM   13  C6  UNL     1       4.911   4.182  12.759  1.00  0.00     0.138 A 
HETATM   14  N3  UNL     1       5.154   2.852  12.862  1.00  0.00    -0.309 N 
HETATM   15  N4  UNL     1       6.170   2.681  13.665  1.00  0.00    -0.301 N 
ATOM     16  H3  UNL     1       4.632   2.112  12.393  1.00  0.00     0.186 HD
HETATM   17  C7  UNL     1       6.620   3.877  14.108  1.00  0.00     0.082 A 
ATOM     18  H4  UNL     1       6.566   1.777  13.922  1.00  0.00     0.186 HD
BRANCH  17  19
HETATM   19  C8  UNL     1       7.760   4.131  15.010  1.00  0.00     0.333 C 
BRANCH  19  20
HETATM   20  N5  UNL     1       8.391   2.915  15.417  1.00  0.00     0.098 N 
HETATM   21  C9  UNL     1       9.603   2.687  14.617  1.00  0.00     0.299 C 
HETATM   22  C10 UNL     1      10.300   1.503  15.243  1.00  0.00     0.198 C 
HETATM   23  O2  UNL     1       9.582   0.883  16.240  1.00  0.00    -0.388 OA
HETATM   24  C11 UNL     1       9.228   1.732  17.293  1.00  0.00     0.198 C 
HETATM   25  C12 UNL     1       8.889   3.108  16.791  1.00  0.00     0.299 C 
ENDBRANCH  19  20
ENDBRANCH  17  19
ENDBRANCH  10  12
ENDBRANCH   5   8
BRANCH   7  26
HETATM   26  C14 UNL     1       7.020  11.148  15.486  1.00  0.00     0.041 C 
HETATM   27  C15 UNL     1       6.459  12.571  15.451  1.00  0.00     0.039 C 
HETATM   28  C16 UNL     1       8.500  11.321  15.484  1.00  0.00     0.032 C 
HETATM   29  C17 UNL     1       8.903  12.288  16.617  1.00  0.00     0.016 C 
HETATM   30  C18 UNL     1       8.274  11.971  17.922  1.00  0.00     0.094 C 
HETATM   31  C20 UNL     1       7.628  10.632  17.871  1.00  0.00     0.024 C 
HETATM   32  C21 UNL     1       6.669  10.411  16.732  1.00  0.00    -0.022 C 
HETATM   33  C22 UNL     1       6.767   8.903  16.450  1.00  0.00     0.017 C 
HETATM   34  C23 UNL     1       5.279  10.578  17.239  1.00  0.00     0.017 C 
BRANCH  30  35
HETATM   35  C19 UNL     1       9.320  11.882  19.050  1.00  0.00     0.391 C 
HETATM   36  F1  UNL     1       9.583  13.107  19.583  1.00  0.00    -0.171 F 
HETATM   37  F2  UNL     1      10.495  11.340  18.567  1.00  0.00    -0.171 F 
HETATM   38  F3  UNL     1       8.882  11.064  20.063  1.00  0.00    -0.171 F 
ENDBRANCH  30  35
ENDBRANCH   7  26
TORSDOF 6
ENDMDL
