MODEL 1
REMARK VINA RESULT: -8.477298913      0.000      0.000
REMARK  6 active torsions:
REMARK  status: ('A' for Active; 'I' for Inactive)
REMARK    1  A    between atoms: C2_2  and  C3_4 
REMARK    2  A    between atoms: C8_10  and  N1_11 
REMARK    3  A    between atoms: C10_13  and  O2_14 
REMARK    4  A    between atoms: O2_14  and  C11_15 
REMARK    5  A    between atoms: C15_19  and  C16_20 
REMARK    6  A    between atoms: C19_23  and  C20_24 
ROOT
HETATM    1  C11 UNL     1       6.397   8.329  15.067  1.00  0.00     0.072 A 
HETATM    2  C12 UNL     1       5.459   8.914  14.251  1.00  0.00     0.037 A 
HETATM    3  C13 UNL     1       5.209  10.289  14.226  1.00  0.00     0.003 A 
HETATM    4  C14 UNL     1       5.925  11.113  15.050  1.00  0.00     0.010 A 
HETATM    5  C15 UNL     1       6.885  10.559  15.893  1.00  0.00    -0.028 A 
HETATM    6  C22 UNL     1       7.114   9.209  15.899  1.00  0.00     0.046 A 
ENDROOT
BRANCH   5   7
HETATM    7  C16 UNL     1       7.605  11.539  16.743  1.00  0.00     0.060 C 
HETATM    8  C17 UNL     1       6.783  12.662  17.263  1.00  0.00     0.044 C 
HETATM    9  C18 UNL     1       8.239  10.789  17.929  1.00  0.00     0.077 C 
HETATM   10  C19 UNL     1       9.079  11.792  18.720  1.00  0.00     0.242 C 
HETATM   11  O3  UNL     1      10.191  12.123  17.884  1.00  0.00    -0.308 OA
HETATM   12  C21 UNL     1       9.867  12.544  16.588  1.00  0.00     0.214 C 
HETATM   13  N2  UNL     1      10.654  13.389  15.963  1.00  0.00    -0.365 N 
HETATM   14  N3  UNL     1       8.700  12.063  15.953  1.00  0.00    -0.344 N 
ATOM     15  H22 UNL     1      11.497  13.736  16.420  1.00  0.00     0.159 HD
ATOM     16  H21 UNL     1      10.418  13.696  15.019  1.00  0.00     0.159 HD
ATOM     17  H3  UNL     1       8.628  12.085  14.937  1.00  0.00     0.164 HD
BRANCH  10  18
HETATM   18  C20 UNL     1       9.544  11.077  19.971  1.00  0.00     0.413 C 
HETATM   19  F1  UNL     1      10.470  11.873  20.584  1.00  0.00    -0.168 F 
HETATM   20  F2  UNL     1       8.455  10.970  20.806  1.00  0.00    -0.168 F 
HETATM   21  F3  UNL     1      10.054   9.819  19.675  1.00  0.00    -0.168 F 
ENDBRANCH  10  18
ENDBRANCH   5   7
BRANCH   1  22
HETATM   22  O2  UNL     1       6.633   6.985  15.089  1.00  0.00    -0.314 OA
BRANCH  22  23
HETATM   23  C10 UNL     1       7.188   6.300  14.005  1.00  0.00     0.394 A 
HETATM   24  N1  UNL     1       6.993   4.919  13.733  1.00  0.00     0.129 N 
HETATM   25  C9  UNL     1       6.128   5.794  13.035  1.00  0.00     0.341 A 
BRANCH  24  26
HETATM   26  C8  UNL     1       6.585   3.917  14.593  1.00  0.00     0.243 C 
HETATM   27  C3  UNL     1       7.382   2.627  14.433  1.00  0.00     0.056 C 
HETATM   28  C4  UNL     1       8.832   3.024  14.102  1.00  0.00     0.026 C 
HETATM   29  C5  UNL     1       6.942   1.727  13.342  1.00  0.00     0.092 C 
HETATM   30  S1  UNL     1       5.637   2.463  12.321  1.00  0.00    -0.168 SA
HETATM   31  C6  UNL     1       4.416   3.128  13.497  1.00  0.00     0.076 C 
HETATM   32  C7  UNL     1       5.122   3.617  14.708  1.00  0.00     0.047 C 
BRANCH  27  33
HETATM   33  C2  UNL     1       7.458   1.944  15.745  1.00  0.00     0.134 C 
HETATM   34  C1  UNL     1       8.607   2.349  16.633  1.00  0.00     0.091 C 
HETATM   35  O1  UNL     1       6.702   1.109  16.170  1.00  0.00    -0.297 OA
ENDBRANCH  27  33
ENDBRANCH  24  26
ENDBRANCH  22  23
ENDBRANCH   1  22
TORSDOF 6
ENDMDL
MODEL 2
REMARK VINA RESULT: -8.070813037      1.159      1.644
REMARK  6 active torsions:
REMARK  status: ('A' for Active; 'I' for Inactive)
REMARK    1  A    between atoms: C2_2  and  C3_4 
REMARK    2  A    between atoms: C8_10  and  N1_11 
REMARK    3  A    between atoms: C10_13  and  O2_14 
REMARK    4  A    between atoms: O2_14  and  C11_15 
REMARK    5  A    between atoms: C15_19  and  C16_20 
REMARK    6  A    between atoms: C19_23  and  C20_24 
ROOT
HETATM    1  C11 UNL     1       6.133   8.100  14.933  1.00  0.00     0.072 A 
HETATM    2  C12 UNL     1       5.688   8.571  13.721  1.00  0.00     0.037 A 
HETATM    3  C13 UNL     1       5.777   9.911  13.334  1.00  0.00     0.003 A 
HETATM    4  C14 UNL     1       6.333  10.818  14.194  1.00  0.00     0.010 A 
HETATM    5  C15 UNL     1       6.797  10.382  15.432  1.00  0.00    -0.028 A 
HETATM    6  C22 UNL     1       6.700   9.063  15.789  1.00  0.00     0.046 A 
ENDROOT
BRANCH   5   7
HETATM    7  C16 UNL     1       7.382  11.444  16.286  1.00  0.00     0.060 C 
HETATM    8  C17 UNL     1       6.439  12.505  16.727  1.00  0.00     0.044 C 
HETATM    9  C18 UNL     1       8.015  10.787  17.526  1.00  0.00     0.077 C 
HETATM   10  C19 UNL     1       8.720  11.881  18.326  1.00  0.00     0.242 C 
HETATM   11  O3  UNL     1       9.843  12.286  17.538  1.00  0.00    -0.308 OA
HETATM   12  C21 UNL     1       9.553  12.641  16.213  1.00  0.00     0.214 C 
HETATM   13  N2  UNL     1      10.296  13.535  15.602  1.00  0.00    -0.365 N 
HETATM   14  N3  UNL     1       8.468  12.041  15.536  1.00  0.00    -0.344 N 
ATOM     15  H22 UNL     1      11.080  13.968  16.091  1.00  0.00     0.159 HD
ATOM     16  H21 UNL     1      10.085  13.793  14.638  1.00  0.00     0.159 HD
ATOM     17  H3  UNL     1       8.449  12.028  14.517  1.00  0.00     0.164 HD
BRANCH  10  18
HETATM   18  C20 UNL     1       9.179  11.245  19.621  1.00  0.00     0.413 C 
HETATM   19  F1  UNL     1       9.858  12.194  20.332  1.00  0.00    -0.168 F 
HETATM   20  F2  UNL     1       8.048  10.909  20.331  1.00  0.00    -0.168 F 
HETATM   21  F3  UNL     1       9.955  10.118  19.385  1.00  0.00    -0.168 F 
ENDBRANCH  10  18
ENDBRANCH   5   7
BRANCH   1  22
HETATM   22  O2  UNL     1       6.039   6.791  15.305  1.00  0.00    -0.314 OA
BRANCH  22  23
HETATM   23  C10 UNL     1       6.966   5.825  14.903  1.00  0.00     0.394 A 
HETATM   24  N1  UNL     1       6.638   4.620  14.226  1.00  0.00     0.129 N 
HETATM   25  C9  UNL     1       7.038   5.687  13.388  1.00  0.00     0.341 A 
BRANCH  24  26
HETATM   26  C8  UNL     1       5.420   3.969  14.157  1.00  0.00     0.243 C 
HETATM   27  C3  UNL     1       5.508   2.492  14.521  1.00  0.00     0.056 C 
HETATM   28  C4  UNL     1       6.564   2.357  15.633  1.00  0.00     0.026 C 
HETATM   29  C5  UNL     1       5.936   1.583  13.433  1.00  0.00     0.092 C 
HETATM   30  S1  UNL     1       6.432   2.480  11.937  1.00  0.00    -0.168 SA
HETATM   31  C6  UNL     1       5.108   3.693  11.636  1.00  0.00     0.076 C 
HETATM   32  C7  UNL     1       4.570   4.159  12.939  1.00  0.00     0.047 C 
BRANCH  27  33
HETATM   33  C2  UNL     1       4.232   2.075  15.147  1.00  0.00     0.134 C 
HETATM   34  C1  UNL     1       3.635   0.788  14.636  1.00  0.00     0.091 C 
HETATM   35  O1  UNL     1       3.629   2.654  16.014  1.00  0.00    -0.297 OA
ENDBRANCH  27  33
ENDBRANCH  24  26
ENDBRANCH  22  23
ENDBRANCH   1  22
TORSDOF 6
ENDMDL
MODEL 3
REMARK VINA RESULT: -7.929202516      1.550      2.390
REMARK  6 active torsions:
REMARK  status: ('A' for Active; 'I' for Inactive)
REMARK    1  A    between atoms: C2_2  and  C3_4 
REMARK    2  A    between atoms: C8_10  and  N1_11 
REMARK    3  A    between atoms: C10_13  and  O2_14 
REMARK    4  A    between atoms: O2_14  and  C11_15 
REMARK    5  A    between atoms: C15_19  and  C16_20 
REMARK    6  A    between atoms: C19_23  and  C20_24 
ROOT
HETATM    1  C11 UNL     1       6.344   8.701  13.861  1.00  0.00     0.072 A 
HETATM    2  C12 UNL     1       5.540   9.334  12.943  1.00  0.00     0.037 A 
HETATM    3  C13 UNL     1       5.340  10.717  12.918  1.00  0.00     0.003 A 
HETATM    4  C14 UNL     1       5.968  11.499  13.848  1.00  0.00     0.010 A 
HETATM    5  C15 UNL     1       6.792  10.897  14.795  1.00  0.00    -0.028 A 
HETATM    6  C22 UNL     1       6.974   9.539  14.799  1.00  0.00     0.046 A 
ENDROOT
BRANCH   5   7
HETATM    7  C16 UNL     1       7.425  11.834  15.754  1.00  0.00     0.060 C 
HETATM    8  C17 UNL     1       6.584  12.983  16.179  1.00  0.00     0.044 C 
HETATM    9  C18 UNL     1       7.863  11.043  17.000  1.00  0.00     0.077 C 
HETATM   10  C19 UNL     1       8.624  11.999  17.917  1.00  0.00     0.242 C 
HETATM   11  O3  UNL     1       9.852  12.296  17.248  1.00  0.00    -0.308 OA
HETATM   12  C21 UNL     1       9.725  12.748  15.928  1.00  0.00     0.214 C 
HETATM   13  N2  UNL     1      10.622  13.569  15.432  1.00  0.00    -0.365 N 
HETATM   14  N3  UNL     1       8.637  12.324  15.131  1.00  0.00    -0.344 N 
ATOM     15  H22 UNL     1      11.407  13.875  16.007  1.00  0.00     0.159 HD
ATOM     16  H21 UNL     1      10.529  13.898  14.471  1.00  0.00     0.159 HD
ATOM     17  H3  UNL     1       8.706  12.363  14.115  1.00  0.00     0.164 HD
BRANCH  10  18
HETATM   18  C20 UNL     1       8.886  11.249  19.206  1.00  0.00     0.413 C 
HETATM   19  F1  UNL     1       9.363  12.146  20.120  1.00  0.00    -0.168 F 
HETATM   20  F2  UNL     1       7.672  10.784  19.659  1.00  0.00    -0.168 F 
HETATM   21  F3  UNL     1       9.766  10.193  19.007  1.00  0.00    -0.168 F 
ENDBRANCH  10  18
ENDBRANCH   5   7
BRANCH   1  22
HETATM   22  O2  UNL     1       6.532   7.349  13.882  1.00  0.00    -0.314 OA
BRANCH  22  23
HETATM   23  C10 UNL     1       6.163   6.554  14.970  1.00  0.00     0.394 A 
HETATM   24  N1  UNL     1       6.219   5.135  14.993  1.00  0.00     0.129 N 
HETATM   25  C9  UNL     1       7.342   5.787  15.553  1.00  0.00     0.341 A 
BRANCH  24  26
HETATM   26  C8  UNL     1       6.260   4.253  13.930  1.00  0.00     0.243 C 
HETATM   27  C3  UNL     1       5.393   3.017  14.140  1.00  0.00     0.056 C 
HETATM   28  C4  UNL     1       4.142   3.465  14.920  1.00  0.00     0.026 C 
HETATM   29  C5  UNL     1       6.005   1.926  14.934  1.00  0.00     0.092 C 
HETATM   30  S1  UNL     1       7.613   2.393  15.628  1.00  0.00    -0.168 SA
HETATM   31  C6  UNL     1       8.539   3.142  14.251  1.00  0.00     0.076 C 
HETATM   32  C7  UNL     1       7.593   3.867  13.365  1.00  0.00     0.047 C 
BRANCH  27  33
HETATM   33  C2  UNL     1       4.886   2.557  12.827  1.00  0.00     0.134 C 
HETATM   34  C1  UNL     1       4.066   3.556  12.050  1.00  0.00     0.091 C 
HETATM   35  O1  UNL     1       5.062   1.479  12.322  1.00  0.00    -0.297 OA
ENDBRANCH  27  33
ENDBRANCH  24  26
ENDBRANCH  22  23
ENDBRANCH   1  22
TORSDOF 6
ENDMDL
MODEL 4
REMARK VINA RESULT: -7.715067912      1.890      2.511
REMARK  6 active torsions:
REMARK  status: ('A' for Active; 'I' for Inactive)
REMARK    1  A    between atoms: C2_2  and  C3_4 
REMARK    2  A    between atoms: C8_10  and  N1_11 
REMARK    3  A    between atoms: C10_13  and  O2_14 
REMARK    4  A    between atoms: O2_14  and  C11_15 
REMARK    5  A    between atoms: C15_19  and  C16_20 
REMARK    6  A    between atoms: C19_23  and  C20_24 
ROOT
HETATM    1  C11 UNL     1       6.241   7.415  15.200  1.00  0.00     0.072 A 
HETATM    2  C12 UNL     1       5.327   7.161  16.195  1.00  0.00     0.037 A 
HETATM    3  C13 UNL     1       4.974   8.095  17.173  1.00  0.00     0.003 A 
HETATM    4  C14 UNL     1       5.557   9.332  17.157  1.00  0.00     0.010 A 
HETATM    5  C15 UNL     1       6.489   9.629  16.165  1.00  0.00    -0.028 A 
HETATM    6  C22 UNL     1       6.818   8.698  15.216  1.00  0.00     0.046 A 
ENDROOT
BRANCH   5   7
HETATM    7  C16 UNL     1       7.059  10.996  16.237  1.00  0.00     0.060 C 
HETATM    8  C17 UNL     1       6.098  12.075  16.582  1.00  0.00     0.044 C 
HETATM    9  C18 UNL     1       8.206  10.997  17.265  1.00  0.00     0.077 C 
HETATM   10  C19 UNL     1       8.861  12.377  17.231  1.00  0.00     0.242 C 
HETATM   11  O3  UNL     1       9.528  12.469  15.969  1.00  0.00    -0.308 OA
HETATM   12  C21 UNL     1       8.737  12.183  14.848  1.00  0.00     0.214 C 
HETATM   13  N2  UNL     1       9.002  12.764  13.701  1.00  0.00    -0.365 N 
HETATM   14  N3  UNL     1       7.660  11.273  14.949  1.00  0.00    -0.344 N 
ATOM     15  H22 UNL     1       9.779  13.420  13.628  1.00  0.00     0.159 HD
ATOM     16  H21 UNL     1       8.426  12.556  12.885  1.00  0.00     0.159 HD
ATOM     17  H3  UNL     1       7.305  10.812  14.113  1.00  0.00     0.164 HD
BRANCH  10  18
HETATM   18  C20 UNL     1       9.862  12.411  18.368  1.00  0.00     0.413 C 
HETATM   19  F1  UNL     1      11.031  12.920  17.877  1.00  0.00    -0.168 F 
HETATM   20  F2  UNL     1       9.377  13.289  19.310  1.00  0.00    -0.168 F 
HETATM   21  F3  UNL     1      10.037  11.150  18.925  1.00  0.00    -0.168 F 
ENDBRANCH  10  18
ENDBRANCH   5   7
BRANCH   1  22
HETATM   22  O2  UNL     1       6.584   6.497  14.251  1.00  0.00    -0.314 OA
BRANCH  22  23
HETATM   23  C10 UNL     1       7.098   5.237  14.571  1.00  0.00     0.394 A 
HETATM   24  N1  UNL     1       6.465   4.002  14.268  1.00  0.00     0.129 N 
HETATM   25  C9  UNL     1       7.441   4.419  13.333  1.00  0.00     0.341 A 
BRANCH  24  26
HETATM   26  C8  UNL     1       5.136   3.760  13.974  1.00  0.00     0.243 C 
HETATM   27  C3  UNL     1       4.707   2.328  14.272  1.00  0.00     0.056 C 
HETATM   28  C4  UNL     1       5.471   1.874  15.530  1.00  0.00     0.026 C 
HETATM   29  C5  UNL     1       5.013   1.330  13.221  1.00  0.00     0.092 C 
HETATM   30  S1  UNL     1       6.000   2.028  11.870  1.00  0.00    -0.168 SA
HETATM   31  C6  UNL     1       5.179   3.591  11.424  1.00  0.00     0.076 C 
HETATM   32  C7  UNL     1       4.599   4.202  12.647  1.00  0.00     0.047 C 
BRANCH  27  33
HETATM   33  C2  UNL     1       3.279   2.327  14.666  1.00  0.00     0.134 C 
HETATM   34  C1  UNL     1       2.998   2.566  16.128  1.00  0.00     0.091 C 
HETATM   35  O1  UNL     1       2.330   2.159  13.944  1.00  0.00    -0.297 OA
ENDBRANCH  27  33
ENDBRANCH  24  26
ENDBRANCH  22  23
ENDBRANCH   1  22
TORSDOF 6
ENDMDL
MODEL 5
REMARK VINA RESULT: -7.516326391      1.385      1.643
REMARK  6 active torsions:
REMARK  status: ('A' for Active; 'I' for Inactive)
REMARK    1  A    between atoms: C2_2  and  C3_4 
REMARK    2  A    between atoms: C8_10  and  N1_11 
REMARK    3  A    between atoms: C10_13  and  O2_14 
REMARK    4  A    between atoms: O2_14  and  C11_15 
REMARK    5  A    between atoms: C15_19  and  C16_20 
REMARK    6  A    between atoms: C19_23  and  C20_24 
ROOT
HETATM    1  C11 UNL     1       6.814   7.496  15.809  1.00  0.00     0.072 A 
HETATM    2  C12 UNL     1       5.583   7.366  16.407  1.00  0.00     0.037 A 
HETATM    3  C13 UNL     1       4.901   8.429  17.005  1.00  0.00     0.003 A 
HETATM    4  C14 UNL     1       5.472   9.672  17.007  1.00  0.00     0.010 A 
HETATM    5  C15 UNL     1       6.719   9.846  16.412  1.00  0.00    -0.028 A 
HETATM    6  C22 UNL     1       7.367   8.790  15.830  1.00  0.00     0.046 A 
ENDROOT
BRANCH   5   7
HETATM    7  C16 UNL     1       7.247  11.231  16.468  1.00  0.00     0.060 C 
HETATM    8  C17 UNL     1       6.260  12.279  16.833  1.00  0.00     0.044 C 
HETATM    9  C18 UNL     1       8.418  11.271  17.467  1.00  0.00     0.077 C 
HETATM   10  C19 UNL     1       9.027  12.672  17.415  1.00  0.00     0.242 C 
HETATM   11  O3  UNL     1       9.659  12.782  16.136  1.00  0.00    -0.308 OA
HETATM   12  C21 UNL     1       8.851  12.467  15.036  1.00  0.00     0.214 C 
HETATM   13  N2  UNL     1       9.069  13.054  13.881  1.00  0.00    -0.365 N 
HETATM   14  N3  UNL     1       7.807  11.524  15.165  1.00  0.00    -0.344 N 
ATOM     15  H22 UNL     1       9.822  13.734  13.788  1.00  0.00     0.159 HD
ATOM     16  H21 UNL     1       8.480  12.825  13.080  1.00  0.00     0.159 HD
ATOM     17  H3  UNL     1       7.446  11.049  14.338  1.00  0.00     0.164 HD
BRANCH  10  18
HETATM   18  C20 UNL     1      10.053  12.740  18.526  1.00  0.00     0.413 C 
HETATM   19  F1  UNL     1       9.421  13.196  19.648  1.00  0.00    -0.168 F 
HETATM   20  F2  UNL     1      10.476  11.453  18.768  1.00  0.00    -0.168 F 
HETATM   21  F3  UNL     1      11.129  13.545  18.172  1.00  0.00    -0.168 F 
ENDBRANCH  10  18
ENDBRANCH   5   7
BRANCH   1  22
HETATM   22  O2  UNL     1       7.476   6.452  15.229  1.00  0.00    -0.314 OA
BRANCH  22  23
HETATM   23  C10 UNL     1       7.221   6.032  13.921  1.00  0.00     0.394 A 
HETATM   24  N1  UNL     1       6.434   4.902  13.572  1.00  0.00     0.129 N 
HETATM   25  C9  UNL     1       5.747   6.138  13.555  1.00  0.00     0.341 A 
BRANCH  24  26
HETATM   26  C8  UNL     1       6.090   3.812  14.350  1.00  0.00     0.243 C 
HETATM   27  C3  UNL     1       6.965   2.591  14.092  1.00  0.00     0.056 C 
HETATM   28  C4  UNL     1       8.388   3.102  13.797  1.00  0.00     0.026 C 
HETATM   29  C5  UNL     1       6.579   1.753  12.933  1.00  0.00     0.092 C 
HETATM   30  S1  UNL     1       5.229   2.485  11.969  1.00  0.00    -0.168 SA
HETATM   31  C6  UNL     1       3.971   2.979  13.190  1.00  0.00     0.076 C 
HETATM   32  C7  UNL     1       4.648   3.415  14.437  1.00  0.00     0.047 C 
BRANCH  27  33
HETATM   33  C2  UNL     1       7.086   1.814  15.347  1.00  0.00     0.134 C 
HETATM   34  C1  UNL     1       8.327   2.070  16.165  1.00  0.00     0.091 C 
HETATM   35  O1  UNL     1       6.302   1.008  15.777  1.00  0.00    -0.297 OA
ENDBRANCH  27  33
ENDBRANCH  24  26
ENDBRANCH  22  23
ENDBRANCH   1  22
TORSDOF 6
ENDMDL
