MODEL 1
REMARK VINA RESULT: -5.843402280      0.000      0.000
REMARK  7 active torsions:
REMARK  status: ('A' for Active; 'I' for Inactive)
REMARK    1  A    between atoms: C2_2  and  C3_3 
REMARK    2  A    between atoms: C3_3  and  N1_4 
REMARK    3  A    between atoms: C8_12  and  N3_13 
REMARK    4  A    between atoms: N4_16  and  C11_17 
REMARK    5  A    between atoms: C14_21  and  C15_22 
REMARK    6  A    between atoms: C16_23  and  C17_24 
REMARK    7  A    between atoms: C20_31  and  N7_32 
ROOT
HETATM    1  N1  UNL     1      11.879  -7.690  -0.034  1.00  0.00    -0.297 N 
HETATM    2  C4  UNL     1      13.136  -8.153  -0.066  1.00  0.00     0.264 A 
HETATM    3  O1  UNL     1      13.592  -9.030   0.726  1.00  0.00    -0.266 OA
HETATM    4  C5  UNL     1      13.987  -7.622  -1.040  1.00  0.00     0.163 A 
HETATM    5  N2  UNL     1      13.538  -6.684  -1.901  1.00  0.00    -0.358 N 
ATOM      6  H2  UNL     1      14.171  -6.306  -2.607  1.00  0.00     0.165 HD
HETATM    7  C6  UNL     1      12.269  -6.240  -1.840  1.00  0.00     0.079 A 
HETATM    8  C7  UNL     1      11.777  -5.284  -2.700  1.00  0.00     0.065 A 
HETATM    9  C8  UNL     1      10.459  -4.812  -2.652  1.00  0.00     0.060 A 
HETATM   10  C14 UNL     1       9.668  -5.373  -1.671  1.00  0.00     0.076 A 
HETATM   11  N8  UNL     1      10.149  -6.323  -0.812  1.00  0.00    -0.338 N 
ATOM     12  H8  UNL     1       9.533  -6.715  -0.099  1.00  0.00     0.167 HD
HETATM   13  C21 UNL     1      11.426  -6.749  -0.894  1.00  0.00     0.138 A 
ENDROOT
BRANCH  10  14
HETATM   14  C15 UNL     1       8.291  -4.978  -1.473  1.00  0.00     0.062 A 
HETATM   15  C16 UNL     1       7.158  -5.497  -2.060  1.00  0.00     0.046 A 
HETATM   16  N5  UNL     1       6.118  -4.806  -1.569  1.00  0.00    -0.302 N 
HETATM   17  N6  UNL     1       6.528  -3.886  -0.711  1.00  0.00    -0.285 N 
ATOM     18  H5  UNL     1       5.143  -4.968  -1.823  1.00  0.00     0.186 HD
HETATM   19  C20 UNL     1       7.865  -3.956  -0.621  1.00  0.00     0.128 A 
ATOM     20  H6  UNL     1       5.929  -3.235  -0.204  1.00  0.00     0.188 HD
BRANCH  15  21
HETATM   21  C17 UNL     1       7.082  -6.619  -3.054  1.00  0.00     0.038 A 
HETATM   22  C18 UNL     1       7.488  -7.985  -2.607  1.00  0.00     0.011 A 
HETATM   23  C19 UNL     1       6.049  -7.732  -2.734  1.00  0.00     0.011 A 
ENDBRANCH  15  21
BRANCH  19  24
HETATM   24  N7  UNL     1       8.620  -3.209   0.123  1.00  0.00    -0.384 N 
ATOM     25  H72 UNL     1       9.051  -3.482   1.006  1.00  0.00     0.157 HD
ATOM     26  H71 UNL     1       8.891  -2.244  -0.066  1.00  0.00     0.157 HD
ENDBRANCH  19  24
ENDBRANCH  10  14
BRANCH   9  27
HETATM   27  N3  UNL     1      10.019  -3.823  -3.560  1.00  0.00    -0.376 N 
HETATM   28  C9  UNL     1       9.189  -4.155  -4.668  1.00  0.00     0.143 C 
HETATM   29  C10 UNL     1       9.626  -3.493  -5.971  1.00  0.00     0.145 C 
HETATM   30  N4  UNL     1      10.869  -2.806  -5.713  1.00  0.00    -0.356 N 
HETATM   31  C12 UNL     1      10.851  -1.796  -4.644  1.00  0.00     0.145 C 
HETATM   32  C13 UNL     1      10.434  -2.452  -3.342  1.00  0.00     0.143 C 
BRANCH  30  33
HETATM   33  C11 UNL     1      12.073  -3.023  -6.391  1.00  0.00     0.350 C 
HETATM   34  O2  UNL     1      12.457  -2.339  -7.367  1.00  0.00    -0.284 OA
ENDBRANCH  30  33
ENDBRANCH   9  27
BRANCH   1  35
HETATM   35  C3  UNL     1      10.941  -8.201   0.926  1.00  0.00     0.133 C 
BRANCH  35  36
HETATM   36  C2  UNL     1      10.140  -9.302   0.308  1.00  0.00     0.016 C 
HETATM   37  C1  UNL     1       8.956  -9.752   1.104  1.00  0.00     0.006 C 
ENDBRANCH  35  36
ENDBRANCH   1  35
TORSDOF 7
ENDMDL
MODEL 2
REMARK VINA RESULT: -5.576047878      8.115     13.409
REMARK  7 active torsions:
REMARK  status: ('A' for Active; 'I' for Inactive)
REMARK    1  A    between atoms: C2_2  and  C3_3 
REMARK    2  A    between atoms: C3_3  and  N1_4 
REMARK    3  A    between atoms: C8_12  and  N3_13 
REMARK    4  A    between atoms: N4_16  and  C11_17 
REMARK    5  A    between atoms: C14_21  and  C15_22 
REMARK    6  A    between atoms: C16_23  and  C17_24 
REMARK    7  A    between atoms: C20_31  and  N7_32 
ROOT
HETATM    1  N1  UNL     1      17.389  -9.061  -0.557  1.00  0.00    -0.297 N 
HETATM    2  C4  UNL     1      16.440  -8.183  -0.209  1.00  0.00     0.264 A 
HETATM    3  O1  UNL     1      16.114  -7.174  -0.903  1.00  0.00    -0.266 OA
HETATM    4  C5  UNL     1      15.777  -8.405   1.002  1.00  0.00     0.163 A 
HETATM    5  N2  UNL     1      16.097  -9.468   1.771  1.00  0.00    -0.358 N 
ATOM      6  H2  UNL     1      15.604  -9.618   2.651  1.00  0.00     0.165 HD
HETATM    7  C6  UNL     1      17.057 -10.331   1.391  1.00  0.00     0.079 A 
HETATM    8  C7  UNL     1      17.412 -11.425   2.149  1.00  0.00     0.065 A 
HETATM    9  C8  UNL     1      18.408 -12.333   1.769  1.00  0.00     0.060 A 
HETATM   10  C14 UNL     1      19.025 -12.061   0.566  1.00  0.00     0.076 A 
HETATM   11  N8  UNL     1      18.679 -10.977  -0.194  1.00  0.00    -0.338 N 
ATOM     12  H8  UNL     1      19.159 -10.809  -1.078  1.00  0.00     0.167 HD
HETATM   13  C21 UNL     1      17.714 -10.127   0.212  1.00  0.00     0.138 A 
ENDROOT
BRANCH  10  14
HETATM   14  C15 UNL     1      20.089 -12.889   0.042  1.00  0.00     0.062 A 
HETATM   15  C16 UNL     1      21.450 -12.727   0.183  1.00  0.00     0.046 A 
HETATM   16  N5  UNL     1      22.030 -13.738  -0.480  1.00  0.00    -0.302 N 
HETATM   17  N6  UNL     1      21.118 -14.525  -1.028  1.00  0.00    -0.285 N 
ATOM     18  H5  UNL     1      23.038 -13.881  -0.553  1.00  0.00     0.186 HD
HETATM   19  C20 UNL     1      19.903 -14.038  -0.731  1.00  0.00     0.128 A 
ATOM     20  H6  UNL     1      21.306 -15.360  -1.582  1.00  0.00     0.188 HD
BRANCH  15  21
HETATM   21  C17 UNL     1      22.163 -11.638   0.932  1.00  0.00     0.038 A 
HETATM   22  C18 UNL     1      23.564 -11.311   0.536  1.00  0.00     0.011 A 
HETATM   23  C19 UNL     1      22.520 -10.376   0.105  1.00  0.00     0.011 A 
ENDBRANCH  15  21
BRANCH  19  24
HETATM   24  N7  UNL     1      18.768 -14.544  -1.097  1.00  0.00    -0.384 N 
ATOM     25  H72 UNL     1      18.018 -14.848  -0.476  1.00  0.00     0.157 HD
ATOM     26  H71 UNL     1      18.460 -14.711  -2.055  1.00  0.00     0.157 HD
ENDBRANCH  19  24
ENDBRANCH  10  14
BRANCH   9  27
HETATM   27  N3  UNL     1      18.728 -13.432   2.598  1.00  0.00    -0.376 N 
HETATM   28  C9  UNL     1      18.030 -14.669   2.487  1.00  0.00     0.143 C 
HETATM   29  C10 UNL     1      17.638 -15.264   3.836  1.00  0.00     0.145 C 
HETATM   30  N4  UNL     1      17.988 -14.302   4.853  1.00  0.00    -0.356 N 
HETATM   31  C12 UNL     1      19.397 -13.885   4.905  1.00  0.00     0.145 C 
HETATM   32  C13 UNL     1      19.789 -13.276   3.572  1.00  0.00     0.143 C 
BRANCH  30  33
HETATM   33  C11 UNL     1      17.103 -13.743   5.781  1.00  0.00     0.350 C 
HETATM   34  O2  UNL     1      16.161 -12.977   5.473  1.00  0.00    -0.284 OA
ENDBRANCH  30  33
ENDBRANCH   9  27
BRANCH   1  35
HETATM   35  C3  UNL     1      18.100  -8.909  -1.795  1.00  0.00     0.133 C 
BRANCH  35  36
HETATM   36  C2  UNL     1      19.189  -7.897  -1.628  1.00  0.00     0.016 C 
HETATM   37  C1  UNL     1      20.515  -8.289  -2.198  1.00  0.00     0.006 C 
ENDBRANCH  35  36
ENDBRANCH   1  35
TORSDOF 7
ENDMDL
MODEL 3
REMARK VINA RESULT: -5.528817528      2.459      6.131
REMARK  7 active torsions:
REMARK  status: ('A' for Active; 'I' for Inactive)
REMARK    1  A    between atoms: C2_2  and  C3_3 
REMARK    2  A    between atoms: C3_3  and  N1_4 
REMARK    3  A    between atoms: C8_12  and  N3_13 
REMARK    4  A    between atoms: N4_16  and  C11_17 
REMARK    5  A    between atoms: C14_21  and  C15_22 
REMARK    6  A    between atoms: C16_23  and  C17_24 
REMARK    7  A    between atoms: C20_31  and  N7_32 
ROOT
HETATM    1  N1  UNL     1       8.185  -4.976  -2.021  1.00  0.00    -0.297 N 
HETATM    2  C4  UNL     1       8.440  -3.796  -2.600  1.00  0.00     0.264 A 
HETATM    3  O1  UNL     1       7.551  -2.953  -2.921  1.00  0.00    -0.266 OA
HETATM    4  C5  UNL     1       9.779  -3.490  -2.863  1.00  0.00     0.163 A 
HETATM    5  N2  UNL     1      10.756  -4.363  -2.537  1.00  0.00    -0.358 N 
ATOM      6  H2  UNL     1      11.728  -4.127  -2.734  1.00  0.00     0.165 HD
HETATM    7  C6  UNL     1      10.463  -5.542  -1.957  1.00  0.00     0.079 A 
HETATM    8  C7  UNL     1      11.432  -6.458  -1.612  1.00  0.00     0.065 A 
HETATM    9  C8  UNL     1      11.146  -7.689  -1.007  1.00  0.00     0.060 A 
HETATM   10  C14 UNL     1       9.809  -7.933  -0.773  1.00  0.00     0.076 A 
HETATM   11  N8  UNL     1       8.839  -7.028  -1.112  1.00  0.00    -0.338 N 
ATOM     12  H8  UNL     1       7.861  -7.245  -0.923  1.00  0.00     0.167 HD
HETATM   13  C21 UNL     1       9.161  -5.855  -1.694  1.00  0.00     0.138 A 
ENDROOT
BRANCH  10  14
HETATM   14  C15 UNL     1       9.344  -9.166  -0.176  1.00  0.00     0.062 A 
HETATM   15  C16 UNL     1       8.780 -10.259  -0.795  1.00  0.00     0.046 A 
HETATM   16  N5  UNL     1       8.509 -11.151   0.168  1.00  0.00    -0.302 N 
HETATM   17  N6  UNL     1       8.869 -10.687   1.353  1.00  0.00    -0.285 N 
ATOM     18  H5  UNL     1       8.083 -12.065   0.009  1.00  0.00     0.186 HD
HETATM   19  C20 UNL     1       9.390  -9.461   1.189  1.00  0.00     0.128 A 
ATOM     20  H6  UNL     1       8.767 -11.177   2.242  1.00  0.00     0.188 HD
BRANCH  15  21
HETATM   21  C17 UNL     1       8.515 -10.436  -2.263  1.00  0.00     0.038 A 
HETATM   22  C18 UNL     1       7.395 -11.332  -2.674  1.00  0.00     0.011 A 
HETATM   23  C19 UNL     1       7.156  -9.888  -2.771  1.00  0.00     0.011 A 
ENDBRANCH  15  21
BRANCH  19  24
HETATM   24  N7  UNL     1       9.850  -8.695   2.128  1.00  0.00    -0.384 N 
ATOM     25  H72 UNL     1       9.494  -7.774   2.380  1.00  0.00     0.157 HD
ATOM     26  H71 UNL     1      10.634  -8.901   2.747  1.00  0.00     0.157 HD
ENDBRANCH  19  24
ENDBRANCH  10  14
BRANCH   9  27
HETATM   27  N3  UNL     1      12.188  -8.587  -0.685  1.00  0.00    -0.376 N 
HETATM   28  C9  UNL     1      12.798  -8.580   0.602  1.00  0.00     0.143 C 
HETATM   29  C10 UNL     1      14.320  -8.665   0.549  1.00  0.00     0.145 C 
HETATM   30  N4  UNL     1      14.711  -8.596  -0.839  1.00  0.00    -0.356 N 
HETATM   31  C12 UNL     1      14.142  -9.617  -1.732  1.00  0.00     0.145 C 
HETATM   32  C13 UNL     1      12.628  -9.525  -1.698  1.00  0.00     0.143 C 
BRANCH  30  33
HETATM   33  C11 UNL     1      15.577  -7.648  -1.392  1.00  0.00     0.350 C 
HETATM   34  O2  UNL     1      16.565  -7.169  -0.789  1.00  0.00    -0.284 OA
ENDBRANCH  30  33
ENDBRANCH   9  27
BRANCH   1  35
HETATM   35  C3  UNL     1       6.835  -5.352  -1.703  1.00  0.00     0.133 C 
BRANCH  35  36
HETATM   36  C2  UNL     1       6.237  -6.094  -2.855  1.00  0.00     0.016 C 
HETATM   37  C1  UNL     1       5.092  -5.406  -3.529  1.00  0.00     0.006 C 
ENDBRANCH  35  36
ENDBRANCH   1  35
TORSDOF 7
ENDMDL
MODEL 4
REMARK VINA RESULT: -5.468302039      4.763      7.111
REMARK  7 active torsions:
REMARK  status: ('A' for Active; 'I' for Inactive)
REMARK    1  A    between atoms: C2_2  and  C3_3 
REMARK    2  A    between atoms: C3_3  and  N1_4 
REMARK    3  A    between atoms: C8_12  and  N3_13 
REMARK    4  A    between atoms: N4_16  and  C11_17 
REMARK    5  A    between atoms: C14_21  and  C15_22 
REMARK    6  A    between atoms: C16_23  and  C17_24 
REMARK    7  A    between atoms: C20_31  and  N7_32 
ROOT
HETATM    1  N1  UNL     1      18.580  -7.883  -1.532  1.00  0.00    -0.297 N 
HETATM    2  C4  UNL     1      19.694  -8.433  -2.031  1.00  0.00     0.264 A 
HETATM    3  O1  UNL     1      20.840  -8.328  -1.501  1.00  0.00    -0.266 OA
HETATM    4  C5  UNL     1      19.569  -9.167  -3.216  1.00  0.00     0.163 A 
HETATM    5  N2  UNL     1      18.365  -9.301  -3.812  1.00  0.00    -0.358 N 
ATOM      6  H2  UNL     1      18.289  -9.839  -4.675  1.00  0.00     0.165 HD
HETATM    7  C6  UNL     1      17.266  -8.734  -3.283  1.00  0.00     0.079 A 
HETATM    8  C7  UNL     1      16.022  -8.848  -3.864  1.00  0.00     0.065 A 
HETATM    9  C8  UNL     1      14.867  -8.264  -3.328  1.00  0.00     0.060 A 
HETATM   10  C14 UNL     1      15.053  -7.554  -2.160  1.00  0.00     0.076 A 
HETATM   11  N8  UNL     1      16.285  -7.436  -1.576  1.00  0.00    -0.338 N 
ATOM     12  H8  UNL     1      16.383  -6.903  -0.712  1.00  0.00     0.167 HD
HETATM   13  C21 UNL     1      17.372  -8.014  -2.128  1.00  0.00     0.138 A 
ENDROOT
BRANCH  10  14
HETATM   14  C15 UNL     1      13.966  -6.873  -1.491  1.00  0.00     0.062 A 
HETATM   15  C16 UNL     1      13.221  -7.299  -0.413  1.00  0.00     0.046 A 
HETATM   16  N5  UNL     1      12.329  -6.333  -0.155  1.00  0.00    -0.302 N 
HETATM   17  N6  UNL     1      12.467  -5.327  -1.003  1.00  0.00    -0.285 N 
ATOM     18  H5  UNL     1      11.636  -6.369   0.594  1.00  0.00     0.186 HD
HETATM   19  C20 UNL     1      13.468  -5.618  -1.848  1.00  0.00     0.128 A 
ATOM     20  H6  UNL     1      11.907  -4.474  -1.013  1.00  0.00     0.188 HD
BRANCH  15  21
HETATM   21  C17 UNL     1      13.369  -8.590   0.340  1.00  0.00     0.038 A 
HETATM   22  C18 UNL     1      14.480  -8.704   1.331  1.00  0.00     0.011 A 
HETATM   23  C19 UNL     1      13.130  -8.506   1.870  1.00  0.00     0.011 A 
ENDBRANCH  15  21
BRANCH  19  24
HETATM   24  N7  UNL     1      13.891  -4.868  -2.817  1.00  0.00    -0.384 N 
ATOM     25  H72 UNL     1      14.104  -3.873  -2.757  1.00  0.00     0.157 HD
ATOM     26  H71 UNL     1      14.073  -5.164  -3.776  1.00  0.00     0.157 HD
ENDBRANCH  19  24
ENDBRANCH  10  14
BRANCH   9  27
HETATM   27  N3  UNL     1      13.621  -8.414  -3.978  1.00  0.00    -0.376 N 
HETATM   28  C9  UNL     1      12.676  -9.389  -3.548  1.00  0.00     0.143 C 
HETATM   29  C10 UNL     1      12.049 -10.171  -4.698  1.00  0.00     0.145 C 
HETATM   30  N4  UNL     1      12.716  -9.766  -5.912  1.00  0.00    -0.356 N 
HETATM   31  C12 UNL     1      12.683  -8.332  -6.234  1.00  0.00     0.145 C 
HETATM   32  C13 UNL     1      13.321  -7.550  -5.101  1.00  0.00     0.143 C 
BRANCH  30  33
HETATM   33  C11 UNL     1      13.383 -10.622  -6.796  1.00  0.00     0.350 C 
HETATM   34  O2  UNL     1      14.628 -10.761  -6.827  1.00  0.00    -0.284 OA
ENDBRANCH  30  33
ENDBRANCH   9  27
BRANCH   1  35
HETATM   35  C3  UNL     1      18.626  -7.131  -0.309  1.00  0.00     0.133 C 
BRANCH  35  36
HETATM   36  C2  UNL     1      19.400  -5.870  -0.525  1.00  0.00     0.016 C 
HETATM   37  C1  UNL     1      20.371  -5.527   0.559  1.00  0.00     0.006 C 
ENDBRANCH  35  36
ENDBRANCH   1  35
TORSDOF 7
ENDMDL
MODEL 5
REMARK VINA RESULT: -5.357398323      2.498      6.342
REMARK  7 active torsions:
REMARK  status: ('A' for Active; 'I' for Inactive)
REMARK    1  A    between atoms: C2_2  and  C3_3 
REMARK    2  A    between atoms: C3_3  and  N1_4 
REMARK    3  A    between atoms: C8_12  and  N3_13 
REMARK    4  A    between atoms: N4_16  and  C11_17 
REMARK    5  A    between atoms: C14_21  and  C15_22 
REMARK    6  A    between atoms: C16_23  and  C17_24 
REMARK    7  A    between atoms: C20_31  and  N7_32 
ROOT
HETATM    1  N1  UNL     1      10.879  -4.209  -3.169  1.00  0.00    -0.297 N 
HETATM    2  C4  UNL     1      11.483  -3.097  -3.606  1.00  0.00     0.264 A 
HETATM    3  O1  UNL     1      10.880  -2.134  -4.167  1.00  0.00    -0.266 OA
HETATM    4  C5  UNL     1      12.867  -3.009  -3.428  1.00  0.00     0.163 A 
HETATM    5  N2  UNL     1      13.544  -4.015  -2.837  1.00  0.00    -0.358 N 
ATOM      6  H2  UNL     1      14.554  -3.937  -2.713  1.00  0.00     0.165 HD
HETATM    7  C6  UNL     1      12.906  -5.120  -2.409  1.00  0.00     0.079 A 
HETATM    8  C7  UNL     1      13.564  -6.168  -1.803  1.00  0.00     0.065 A 
HETATM    9  C8  UNL     1      12.916  -7.325  -1.352  1.00  0.00     0.060 A 
HETATM   10  C14 UNL     1      11.552  -7.353  -1.555  1.00  0.00     0.076 A 
HETATM   11  N8  UNL     1      10.890  -6.317  -2.157  1.00  0.00    -0.338 N 
ATOM     12  H8  UNL     1       9.881  -6.375  -2.289  1.00  0.00     0.167 HD
HETATM   13  C21 UNL     1      11.555  -5.221  -2.577  1.00  0.00     0.138 A 
ENDROOT
BRANCH  10  14
HETATM   14  C15 UNL     1      10.739  -8.485  -1.167  1.00  0.00     0.062 A 
HETATM   15  C16 UNL     1      10.237  -9.492  -1.962  1.00  0.00     0.046 A 
HETATM   16  N5  UNL     1       9.543 -10.308  -1.156  1.00  0.00    -0.302 N 
HETATM   17  N6  UNL     1       9.578  -9.877   0.094  1.00  0.00    -0.285 N 
ATOM     18  H5  UNL     1       9.053 -11.149  -1.466  1.00  0.00     0.186 HD
HETATM   19  C20 UNL     1      10.307  -8.752   0.134  1.00  0.00     0.128 A 
ATOM     20  H6  UNL     1       9.128 -10.325   0.892  1.00  0.00     0.188 HD
BRANCH  15  21
HETATM   21  C17 UNL     1      10.424  -9.660  -3.442  1.00  0.00     0.038 A 
HETATM   22  C18 UNL     1       9.381 -10.411  -4.203  1.00  0.00     0.011 A 
HETATM   23  C19 UNL     1       9.374  -8.950  -4.337  1.00  0.00     0.011 A 
ENDBRANCH  15  21
BRANCH  19  24
HETATM   24  N7  UNL     1      10.562  -8.044   1.190  1.00  0.00    -0.384 N 
ATOM     25  H72 UNL     1      10.024  -7.243   1.520  1.00  0.00     0.157 HD
ATOM     26  H71 UNL     1      11.333  -8.185   1.842  1.00  0.00     0.157 HD
ENDBRANCH  19  24
ENDBRANCH  10  14
BRANCH   9  27
HETATM   27  N3  UNL     1      13.652  -8.367  -0.744  1.00  0.00    -0.376 N 
HETATM   28  C9  UNL     1      13.832  -8.418   0.668  1.00  0.00     0.143 C 
HETATM   29  C10 UNL     1      15.263  -8.743   1.084  1.00  0.00     0.145 C 
HETATM   30  N4  UNL     1      16.066  -8.778  -0.115  1.00  0.00    -0.356 N 
HETATM   31  C12 UNL     1      15.644  -9.721  -1.161  1.00  0.00     0.145 C 
HETATM   32  C13 UNL     1      14.228  -9.391  -1.592  1.00  0.00     0.143 C 
BRANCH  30  33
HETATM   33  C11 UNL     1      17.199  -7.994  -0.355  1.00  0.00     0.350 C 
HETATM   34  O2  UNL     1      17.943  -7.547   0.549  1.00  0.00    -0.284 OA
ENDBRANCH  30  33
ENDBRANCH   9  27
BRANCH   1  35
HETATM   35  C3  UNL     1       9.457  -4.364  -3.300  1.00  0.00     0.133 C 
BRANCH  35  36
HETATM   36  C2  UNL     1       8.767  -3.606  -2.211  1.00  0.00     0.016 C 
HETATM   37  C1  UNL     1       7.874  -4.424  -1.334  1.00  0.00     0.006 C 
ENDBRANCH  35  36
ENDBRANCH   1  35
TORSDOF 7
ENDMDL
