MODEL 1
REMARK VINA RESULT: -7.380819167      0.000      0.000
REMARK  7 active torsions:
REMARK  status: ('A' for Active; 'I' for Inactive)
REMARK    1  A    between atoms: C1_4  and  N2_5 
REMARK    2  A    between atoms: C1_4  and  C16_33 
REMARK       I    between atoms: N2_5  and  C2_7 
REMARK    3  A    between atoms: C2_7  and  C3_9 
REMARK    4  A    between atoms: C3_9  and  N3_10 
REMARK    5  A    between atoms: N3_10  and  C4_12 
REMARK    6  A    between atoms: C5_15  and  N5_16 
REMARK    7  A    between atoms: C11_24  and  N7_25 
ROOT
HETATM    1  C4  UNL     1      15.201  -8.675   1.433  1.00  0.00     0.707 A 
HETATM    2  N4  UNL     1      15.388  -9.850   2.066  1.00  0.00    -0.021 N 
ATOM      3  H4  UNL     1      14.660 -10.210   2.682  1.00  0.00     0.203 HD
HETATM    4  C5  UNL     1      16.523 -10.557   1.897  1.00  0.00     0.709 A 
HETATM    5  N6  UNL     1      17.453 -10.056   1.084  1.00  0.00    -0.021 N 
ATOM      6  H6  UNL     1      18.317 -10.580   0.946  1.00  0.00     0.203 HD
HETATM    7  C11 UNL     1      17.297  -8.875   0.430  1.00  0.00     0.709 A 
HETATM    8  N8  UNL     1      16.159  -8.192   0.616  1.00  0.00    -0.021 N 
ATOM      9  H8  UNL     1      16.018  -7.302   0.137  1.00  0.00     0.203 HD
ENDROOT
BRANCH   1  10
HETATM   10  N3  UNL     1      14.093  -8.024   1.616  1.00  0.00    -0.216 N 
ATOM     11  H3  UNL     1      14.127  -7.013   1.746  1.00  0.00     0.178 HD
BRANCH  10  12
HETATM   12  C3  UNL     1      12.822  -8.687   1.640  1.00  0.00     0.241 C 
BRANCH  12  13
HETATM   13  C2  UNL     1      11.808  -7.916   0.789  1.00  0.00     0.241 C 
HETATM   14  N2  UNL     1      12.312  -6.984  -0.104  1.00  0.00    -0.315 N 
ATOM     15  H2  UNL     1      13.328  -6.899  -0.111  1.00  0.00     0.170 HD
HETATM   16  O1  UNL     1      10.611  -8.178   0.954  1.00  0.00    -0.271 OA
BRANCH  14  17
HETATM   17  C1  UNL     1      11.655  -6.152  -0.985  1.00  0.00     0.081 C 
HETATM   18  N1  UNL     1      10.409  -5.761  -0.625  1.00  0.00    -0.389 N 
ATOM     19  H12 UNL     1      10.148  -6.152   0.279  1.00  0.00     0.157 HD
ATOM     20  H11 UNL     1       9.923  -5.146  -1.277  1.00  0.00     0.157 HD
BRANCH  17  21
HETATM   21  C16 UNL     1      12.033  -5.587  -2.293  1.00  0.00     0.053 C 
HETATM   22  C17 UNL     1      13.397  -5.010  -2.220  1.00  0.00     0.012 C 
HETATM   23  C18 UNL     1      13.675  -3.813  -3.062  1.00  0.00     0.001 C 
HETATM   24  C19 UNL     1      12.731  -3.800  -4.234  1.00  0.00     0.000 C 
HETATM   25  C20 UNL     1      11.351  -3.571  -3.667  1.00  0.00     0.001 C 
HETATM   26  C21 UNL     1      10.932  -4.742  -2.815  1.00  0.00     0.012 C 
ENDBRANCH  17  21
ENDBRANCH  14  17
ENDBRANCH  12  13
ENDBRANCH  10  12
ENDBRANCH   1  10
BRANCH   4  27
HETATM   27  N5  UNL     1      16.648 -11.785   2.602  1.00  0.00    -0.217 N 
HETATM   28  C6  UNL     1      16.372 -11.829   4.001  1.00  0.00     0.141 C 
HETATM   29  C7  UNL     1      17.156 -12.887   4.736  1.00  0.00     0.020 C 
HETATM   30  C8  UNL     1      17.329 -14.145   3.928  1.00  0.00     0.003 C 
HETATM   31  C9  UNL     1      18.072 -13.738   2.648  1.00  0.00     0.020 C 
HETATM   32  C10 UNL     1      17.057 -12.954   1.828  1.00  0.00     0.141 C 
ENDBRANCH   4  27
BRANCH   7  33
HETATM   33  N7  UNL     1      18.305  -8.376  -0.426  1.00  0.00    -0.213 N 
HETATM   34  C12 UNL     1      18.561  -6.968  -0.647  1.00  0.00     0.167 C 
HETATM   35  C13 UNL     1      20.041  -6.871  -1.032  1.00  0.00     0.188 C 
HETATM   36  O2  UNL     1      20.328  -7.540  -2.194  1.00  0.00    -0.388 OA
HETATM   37  C14 UNL     1      19.579  -8.663  -2.442  1.00  0.00     0.188 C 
HETATM   38  C15 UNL     1      19.142  -9.320  -1.134  1.00  0.00     0.167 C 
ENDBRANCH   7  33
TORSDOF 7
ENDMDL
MODEL 2
REMARK VINA RESULT: -7.323760358      1.805      4.730
REMARK  7 active torsions:
REMARK  status: ('A' for Active; 'I' for Inactive)
REMARK    1  A    between atoms: C1_4  and  N2_5 
REMARK    2  A    between atoms: C1_4  and  C16_33 
REMARK       I    between atoms: N2_5  and  C2_7 
REMARK    3  A    between atoms: C2_7  and  C3_9 
REMARK    4  A    between atoms: C3_9  and  N3_10 
REMARK    5  A    between atoms: N3_10  and  C4_12 
REMARK    6  A    between atoms: C5_15  and  N5_16 
REMARK    7  A    between atoms: C11_24  and  N7_25 
ROOT
HETATM    1  C4  UNL     1      15.145  -8.642   1.368  1.00  0.00     0.707 A 
HETATM    2  N4  UNL     1      16.149  -8.210   0.579  1.00  0.00    -0.021 N 
ATOM      3  H4  UNL     1      16.018  -7.371   0.014  1.00  0.00     0.203 HD
HETATM    4  C5  UNL     1      17.323  -8.869   0.524  1.00  0.00     0.709 A 
HETATM    5  N6  UNL     1      17.458  -9.961   1.277  1.00  0.00    -0.021 N 
ATOM      6  H6  UNL     1      18.342 -10.471   1.247  1.00  0.00     0.203 HD
HETATM    7  C11 UNL     1      16.468 -10.424   2.084  1.00  0.00     0.709 A 
HETATM    8  N8  UNL     1      15.310  -9.750   2.119  1.00  0.00    -0.021 N 
ATOM      9  H8  UNL     1      14.551 -10.077   2.716  1.00  0.00     0.203 HD
ENDROOT
BRANCH   1  10
HETATM   10  N3  UNL     1      14.030  -7.978   1.398  1.00  0.00    -0.216 N 
ATOM     11  H3  UNL     1      14.060  -6.958   1.383  1.00  0.00     0.178 HD
BRANCH  10  12
HETATM   12  C3  UNL     1      12.758  -8.637   1.452  1.00  0.00     0.241 C 
BRANCH  12  13
HETATM   13  C2  UNL     1      11.730  -7.871   0.614  1.00  0.00     0.241 C 
HETATM   14  N2  UNL     1      12.214  -6.901  -0.249  1.00  0.00    -0.315 N 
ATOM     15  H2  UNL     1      13.229  -6.789  -0.245  1.00  0.00     0.170 HD
HETATM   16  O1  UNL     1      10.540  -8.169   0.763  1.00  0.00    -0.271 OA
BRANCH  14  17
HETATM   17  C1  UNL     1      11.541  -6.064  -1.112  1.00  0.00     0.081 C 
HETATM   18  N1  UNL     1      10.287  -5.708  -0.747  1.00  0.00    -0.389 N 
ATOM     19  H12 UNL     1      10.032  -6.126   0.148  1.00  0.00     0.157 HD
ATOM     20  H11 UNL     1       9.789  -5.089  -1.385  1.00  0.00     0.157 HD
BRANCH  17  21
HETATM   21  C16 UNL     1      11.910  -5.460  -2.406  1.00  0.00     0.053 C 
HETATM   22  C17 UNL     1      13.312  -4.979  -2.359  1.00  0.00     0.012 C 
HETATM   23  C18 UNL     1      13.640  -3.761  -3.153  1.00  0.00     0.001 C 
HETATM   24  C19 UNL     1      12.658  -3.629  -4.285  1.00  0.00     0.000 C 
HETATM   25  C20 UNL     1      11.317  -3.338  -3.655  1.00  0.00     0.001 C 
HETATM   26  C21 UNL     1      10.851  -4.520  -2.844  1.00  0.00     0.012 C 
ENDBRANCH  17  21
ENDBRANCH  14  17
ENDBRANCH  12  13
ENDBRANCH  10  12
ENDBRANCH   1  10
BRANCH   4  27
HETATM   27  N5  UNL     1      18.331  -8.354  -0.335  1.00  0.00    -0.217 N 
HETATM   28  C6  UNL     1      19.289  -9.239  -0.912  1.00  0.00     0.141 C 
HETATM   29  C7  UNL     1      20.621  -8.587  -1.187  1.00  0.00     0.020 C 
HETATM   30  C8  UNL     1      20.484  -7.163  -1.654  1.00  0.00     0.003 C 
HETATM   31  C9  UNL     1      19.754  -6.410  -0.535  1.00  0.00     0.020 C 
HETATM   32  C10 UNL     1      18.319  -6.914  -0.580  1.00  0.00     0.141 C 
ENDBRANCH   4  27
BRANCH   7  33
HETATM   33  N7  UNL     1      16.649 -11.585   2.869  1.00  0.00    -0.213 N 
HETATM   34  C12 UNL     1      16.483 -11.628   4.307  1.00  0.00     0.167 C 
HETATM   35  C13 UNL     1      16.101 -13.074   4.638  1.00  0.00     0.188 C 
HETATM   36  O2  UNL     1      17.083 -13.970   4.298  1.00  0.00    -0.388 OA
HETATM   37  C14 UNL     1      17.840 -13.645   3.201  1.00  0.00     0.188 C 
HETATM   38  C15 UNL     1      17.025 -12.816   2.209  1.00  0.00     0.167 C 
ENDBRANCH   7  33
TORSDOF 7
ENDMDL
MODEL 3
REMARK VINA RESULT: -7.259914688      1.230      1.616
REMARK  7 active torsions:
REMARK  status: ('A' for Active; 'I' for Inactive)
REMARK    1  A    between atoms: C1_4  and  N2_5 
REMARK    2  A    between atoms: C1_4  and  C16_33 
REMARK       I    between atoms: N2_5  and  C2_7 
REMARK    3  A    between atoms: C2_7  and  C3_9 
REMARK    4  A    between atoms: C3_9  and  N3_10 
REMARK    5  A    between atoms: N3_10  and  C4_12 
REMARK    6  A    between atoms: C5_15  and  N5_16 
REMARK    7  A    between atoms: C11_24  and  N7_25 
ROOT
HETATM    1  C4  UNL     1      14.970  -8.726   1.220  1.00  0.00     0.707 A 
HETATM    2  N4  UNL     1      15.525  -9.629   2.054  1.00  0.00    -0.021 N 
ATOM      3  H4  UNL     1      15.123  -9.769   2.980  1.00  0.00     0.203 HD
HETATM    4  C5  UNL     1      16.602 -10.349   1.681  1.00  0.00     0.709 A 
HETATM    5  N6  UNL     1      17.099 -10.138   0.462  1.00  0.00    -0.021 N 
ATOM      6  H6  UNL     1      17.914 -10.676   0.167  1.00  0.00     0.203 HD
HETATM    7  C11 UNL     1      16.565  -9.237  -0.403  1.00  0.00     0.709 A 
HETATM    8  N8  UNL     1      15.494  -8.535  -0.007  1.00  0.00    -0.021 N 
ATOM      9  H8  UNL     1      15.075  -7.852  -0.638  1.00  0.00     0.203 HD
ENDROOT
BRANCH   1  10
HETATM   10  N3  UNL     1      13.930  -8.055   1.612  1.00  0.00    -0.216 N 
ATOM     11  H3  UNL     1      14.044  -7.080   1.887  1.00  0.00     0.178 HD
BRANCH  10  12
HETATM   12  C3  UNL     1      12.625  -8.647   1.668  1.00  0.00     0.241 C 
BRANCH  12  13
HETATM   13  C2  UNL     1      11.659  -7.883   0.759  1.00  0.00     0.241 C 
HETATM   14  N2  UNL     1      12.202  -6.910  -0.065  1.00  0.00    -0.315 N 
ATOM     15  H2  UNL     1      13.213  -6.795   0.013  1.00  0.00     0.170 HD
HETATM   16  O1  UNL     1      10.462  -8.185   0.820  1.00  0.00    -0.271 OA
BRANCH  14  17
HETATM   17  C1  UNL     1      11.591  -6.073  -0.974  1.00  0.00     0.081 C 
HETATM   18  N1  UNL     1      10.357  -5.626  -0.643  1.00  0.00    -0.389 N 
ATOM     19  H12 UNL     1      10.067  -5.987   0.266  1.00  0.00     0.157 HD
ATOM     20  H11 UNL     1       9.905  -5.007  -1.315  1.00  0.00     0.157 HD
BRANCH  17  21
HETATM   21  C16 UNL     1      12.011  -5.552  -2.288  1.00  0.00     0.053 C 
HETATM   22  C17 UNL     1      13.367  -4.961  -2.189  1.00  0.00     0.012 C 
HETATM   23  C18 UNL     1      13.665  -3.792  -3.063  1.00  0.00     0.001 C 
HETATM   24  C19 UNL     1      12.763  -3.830  -4.267  1.00  0.00     0.000 C 
HETATM   25  C20 UNL     1      11.361  -3.593  -3.756  1.00  0.00     0.001 C 
HETATM   26  C21 UNL     1      10.922  -4.736  -2.878  1.00  0.00     0.012 C 
ENDBRANCH  17  21
ENDBRANCH  14  17
ENDBRANCH  12  13
ENDBRANCH  10  12
ENDBRANCH   1  10
BRANCH   4  27
HETATM   27  N5  UNL     1      17.132 -11.277   2.618  1.00  0.00    -0.217 N 
HETATM   28  C6  UNL     1      18.258 -12.077   2.261  1.00  0.00     0.141 C 
HETATM   29  C7  UNL     1      18.293 -13.412   2.962  1.00  0.00     0.020 C 
HETATM   30  C8  UNL     1      17.802 -13.333   4.383  1.00  0.00     0.003 C 
HETATM   31  C9  UNL     1      16.359 -12.817   4.313  1.00  0.00     0.020 C 
HETATM   32  C10 UNL     1      16.475 -11.351   3.920  1.00  0.00     0.141 C 
ENDBRANCH   4  27
BRANCH   7  33
HETATM   33  N7  UNL     1      17.119  -9.043  -1.689  1.00  0.00    -0.213 N 
HETATM   34  C12 UNL     1      18.434  -8.489  -1.932  1.00  0.00     0.167 C 
HETATM   35  C13 UNL     1      18.884  -9.064  -3.280  1.00  0.00     0.188 C 
HETATM   36  O2  UNL     1      18.066  -8.685  -4.314  1.00  0.00    -0.388 OA
HETATM   37  C14 UNL     1      16.743  -8.505  -4.000  1.00  0.00     0.188 C 
HETATM   38  C15 UNL     1      16.333  -9.418  -2.844  1.00  0.00     0.167 C 
ENDBRANCH   7  33
TORSDOF 7
ENDMDL
MODEL 4
REMARK VINA RESULT: -7.173748997      2.479      9.060
REMARK  7 active torsions:
REMARK  status: ('A' for Active; 'I' for Inactive)
REMARK    1  A    between atoms: C1_4  and  N2_5 
REMARK    2  A    between atoms: C1_4  and  C16_33 
REMARK       I    between atoms: N2_5  and  C2_7 
REMARK    3  A    between atoms: C2_7  and  C3_9 
REMARK    4  A    between atoms: C3_9  and  N3_10 
REMARK    5  A    between atoms: N3_10  and  C4_12 
REMARK    6  A    between atoms: C5_15  and  N5_16 
REMARK    7  A    between atoms: C11_24  and  N7_25 
ROOT
HETATM    1  C4  UNL     1      16.029  -8.740   0.854  1.00  0.00     0.707 A 
HETATM    2  N4  UNL     1      17.256  -8.334   0.471  1.00  0.00    -0.021 N 
ATOM      3  H4  UNL     1      18.073  -8.637   1.001  1.00  0.00     0.203 HD
HETATM    4  C5  UNL     1      17.421  -7.532  -0.600  1.00  0.00     0.709 A 
HETATM    5  N6  UNL     1      16.330  -7.156  -1.268  1.00  0.00    -0.021 N 
ATOM      6  H6  UNL     1      16.439  -6.550  -2.081  1.00  0.00     0.203 HD
HETATM    7  C11 UNL     1      15.079  -7.547  -0.911  1.00  0.00     0.709 A 
HETATM    8  N8  UNL     1      14.943  -8.343   0.158  1.00  0.00    -0.021 N 
ATOM      9  H8  UNL     1      14.015  -8.650   0.447  1.00  0.00     0.203 HD
ENDROOT
BRANCH   1  10
HETATM   10  N3  UNL     1      15.910  -9.516   1.888  1.00  0.00    -0.216 N 
ATOM     11  H3  UNL     1      15.387  -9.184   2.699  1.00  0.00     0.178 HD
BRANCH  10  12
HETATM   12  C3  UNL     1      16.492 -10.825   1.921  1.00  0.00     0.241 C 
BRANCH  12  13
HETATM   13  C2  UNL     1      16.581 -11.326   3.366  1.00  0.00     0.241 C 
HETATM   14  N2  UNL     1      17.072 -12.607   3.562  1.00  0.00    -0.315 N 
ATOM     15  H2  UNL     1      17.334 -13.103   2.710  1.00  0.00     0.170 HD
HETATM   16  O1  UNL     1      16.210 -10.555   4.258  1.00  0.00    -0.271 OA
BRANCH  14  17
HETATM   17  C1  UNL     1      17.262 -13.316   4.728  1.00  0.00     0.081 C 
HETATM   18  N1  UNL     1      16.452 -12.996   5.765  1.00  0.00    -0.389 N 
ATOM     19  H12 UNL     1      15.798 -12.257   5.506  1.00  0.00     0.157 HD
ATOM     20  H11 UNL     1      16.593 -13.521   6.627  1.00  0.00     0.157 HD
BRANCH  17  21
HETATM   21  C16 UNL     1      18.208 -14.384   5.102  1.00  0.00     0.053 C 
HETATM   22  C17 UNL     1      19.579 -14.019   4.673  1.00  0.00     0.012 C 
HETATM   23  C18 UNL     1      20.480 -15.130   4.257  1.00  0.00     0.001 C 
HETATM   24  C19 UNL     1      20.030 -16.406   4.916  1.00  0.00     0.000 C 
HETATM   25  C20 UNL     1      18.686 -16.744   4.316  1.00  0.00     0.001 C 
HETATM   26  C21 UNL     1      17.665 -15.703   4.697  1.00  0.00     0.012 C 
ENDBRANCH  17  21
ENDBRANCH  14  17
ENDBRANCH  12  13
ENDBRANCH  10  12
ENDBRANCH   1  10
BRANCH   4  27
HETATM   27  N5  UNL     1      18.746  -7.144  -0.937  1.00  0.00    -0.217 N 
HETATM   28  C6  UNL     1      19.551  -8.001  -1.744  1.00  0.00     0.141 C 
HETATM   29  C7  UNL     1      21.029  -7.872  -1.469  1.00  0.00     0.020 C 
HETATM   30  C8  UNL     1      21.441  -6.456  -1.171  1.00  0.00     0.003 C 
HETATM   31  C9  UNL     1      20.640  -6.023   0.064  1.00  0.00     0.020 C 
HETATM   32  C10 UNL     1      19.208  -5.856  -0.425  1.00  0.00     0.141 C 
ENDBRANCH   4  27
BRANCH   7  33
HETATM   33  N7  UNL     1      13.946  -7.129  -1.646  1.00  0.00    -0.213 N 
HETATM   34  C12 UNL     1      12.728  -6.627  -1.046  1.00  0.00     0.167 C 
HETATM   35  C13 UNL     1      12.098  -5.705  -2.095  1.00  0.00     0.188 C 
HETATM   36  O2  UNL     1      11.760  -6.370  -3.247  1.00  0.00    -0.388 OA
HETATM   37  C14 UNL     1      12.566  -7.426  -3.590  1.00  0.00     0.188 C 
HETATM   38  C15 UNL     1      13.993  -7.201  -3.090  1.00  0.00     0.167 C 
ENDBRANCH   7  33
TORSDOF 7
ENDMDL
MODEL 5
REMARK VINA RESULT: -7.004633001      0.945      1.309
REMARK  7 active torsions:
REMARK  status: ('A' for Active; 'I' for Inactive)
REMARK    1  A    between atoms: C1_4  and  N2_5 
REMARK    2  A    between atoms: C1_4  and  C16_33 
REMARK       I    between atoms: N2_5  and  C2_7 
REMARK    3  A    between atoms: C2_7  and  C3_9 
REMARK    4  A    between atoms: C3_9  and  N3_10 
REMARK    5  A    between atoms: N3_10  and  C4_12 
REMARK    6  A    between atoms: C5_15  and  N5_16 
REMARK    7  A    between atoms: C11_24  and  N7_25 
ROOT
HETATM    1  C4  UNL     1      15.987  -9.043   1.219  1.00  0.00     0.707 A 
HETATM    2  N4  UNL     1      16.171 -10.100   2.034  1.00  0.00    -0.021 N 
ATOM      3  H4  UNL     1      15.508 -10.273   2.789  1.00  0.00     0.203 HD
HETATM    4  C5  UNL     1      17.217 -10.933   1.867  1.00  0.00     0.709 A 
HETATM    5  N6  UNL     1      18.063 -10.676   0.869  1.00  0.00    -0.021 N 
ATOM      6  H6  UNL     1      18.860 -11.298   0.730  1.00  0.00     0.203 HD
HETATM    7  C11 UNL     1      17.908  -9.620   0.029  1.00  0.00     0.709 A 
HETATM    8  N8  UNL     1      16.859  -8.807   0.218  1.00  0.00    -0.021 N 
ATOM      9  H8  UNL     1      16.720  -8.007  -0.399  1.00  0.00     0.203 HD
ENDROOT
BRANCH   1  10
HETATM   10  N3  UNL     1      14.964  -8.265   1.408  1.00  0.00    -0.216 N 
ATOM     11  H3  UNL     1      15.067  -7.263   1.245  1.00  0.00     0.178 HD
BRANCH  10  12
HETATM   12  C3  UNL     1      13.695  -8.776   1.838  1.00  0.00     0.241 C 
BRANCH  12  13
HETATM   13  C2  UNL     1      12.568  -8.154   1.008  1.00  0.00     0.241 C 
HETATM   14  N2  UNL     1      12.902  -7.093   0.182  1.00  0.00    -0.315 N 
ATOM     15  H2  UNL     1      13.885  -6.822   0.205  1.00  0.00     0.170 HD
HETATM   16  O1  UNL     1      11.438  -8.641   1.130  1.00  0.00    -0.271 OA
BRANCH  14  17
HETATM   17  C1  UNL     1      12.114  -6.345  -0.665  1.00  0.00     0.081 C 
HETATM   18  N1  UNL     1      10.895  -5.989  -0.194  1.00  0.00    -0.389 N 
ATOM     19  H12 UNL     1      10.751  -6.338   0.754  1.00  0.00     0.157 HD
ATOM     20  H11 UNL     1      10.312  -5.436  -0.821  1.00  0.00     0.157 HD
BRANCH  17  21
HETATM   21  C16 UNL     1      12.322  -5.841  -2.035  1.00  0.00     0.053 C 
HETATM   22  C17 UNL     1      13.581  -5.060  -2.102  1.00  0.00     0.012 C 
HETATM   23  C18 UNL     1      13.618  -3.909  -3.047  1.00  0.00     0.001 C 
HETATM   24  C19 UNL     1      12.618  -4.139  -4.147  1.00  0.00     0.000 C 
HETATM   25  C20 UNL     1      11.253  -4.075  -3.503  1.00  0.00     0.001 C 
HETATM   26  C21 UNL     1      11.074  -5.219  -2.539  1.00  0.00     0.012 C 
ENDBRANCH  17  21
ENDBRANCH  14  17
ENDBRANCH  12  13
ENDBRANCH  10  12
ENDBRANCH   1  10
BRANCH   4  27
HETATM   27  N5  UNL     1      17.345 -12.023   2.770  1.00  0.00    -0.217 N 
HETATM   28  C6  UNL     1      16.346 -12.238   3.765  1.00  0.00     0.141 C 
HETATM   29  C7  UNL     1      16.874 -12.898   5.015  1.00  0.00     0.020 C 
HETATM   30  C8  UNL     1      17.929 -13.931   4.722  1.00  0.00     0.003 C 
HETATM   31  C9  UNL     1      19.065 -13.195   4.000  1.00  0.00     0.020 C 
HETATM   32  C10 UNL     1      18.520 -12.877   2.615  1.00  0.00     0.141 C 
ENDBRANCH   4  27
BRANCH   7  33
HETATM   33  N7  UNL     1      18.824  -9.381  -1.020  1.00  0.00    -0.213 N 
HETATM   34  C12 UNL     1      19.529 -10.423  -1.737  1.00  0.00     0.167 C 
HETATM   35  C13 UNL     1      19.833  -9.841  -3.122  1.00  0.00     0.188 C 
HETATM   36  O2  UNL     1      20.650  -8.741  -3.063  1.00  0.00    -0.388 OA
HETATM   37  C14 UNL     1      20.515  -7.950  -1.950  1.00  0.00     0.188 C 
HETATM   38  C15 UNL     1      19.085  -8.013  -1.413  1.00  0.00     0.167 C 
ENDBRANCH   7  33
TORSDOF 7
ENDMDL
