MODEL 1
REMARK VINA RESULT: -7.313498688      0.000      0.000
REMARK  8 active torsions:
REMARK  status: ('A' for Active; 'I' for Inactive)
REMARK    1  A    between atoms: C2_2  and  N1_3 
REMARK    2  A    between atoms: N1_3  and  C3_4 
REMARK    3  A    between atoms: N1_3  and  C5_6 
REMARK    4  A    between atoms: C5_6  and  C6_7 
REMARK    5  A    between atoms: C6_7  and  N2_8 
REMARK    6  A    between atoms: C12_21  and  N6_22 
REMARK    7  A    between atoms: N6_22  and  C13_24 
REMARK    8  A    between atoms: C13_24  and  C15_26 
ROOT
HETATM    1  N2  UNL     1      16.550  -8.587  -0.210  1.00  0.00    -0.308 N 
HETATM    2  C7  UNL     1      16.926  -9.454   0.752  1.00  0.00     0.270 A 
HETATM    3  O1  UNL     1      18.115  -9.872   0.715  1.00  0.00    -0.266 OA
HETATM    4  C8  UNL     1      16.091  -9.896   1.750  1.00  0.00     0.075 A 
HETATM    5  C9  UNL     1      16.584 -10.864   2.789  1.00  0.00     0.074 C 
HETATM    6  N3  UNL     1      14.831  -9.426   1.752  1.00  0.00    -0.340 N 
ATOM      7  H3  UNL     1      14.189  -9.737   2.481  1.00  0.00     0.167 HD
HETATM    8  C10 UNL     1      14.391  -8.559   0.823  1.00  0.00     0.134 A 
HETATM    9  N4  UNL     1      13.107  -8.091   0.846  1.00  0.00    -0.326 N 
ATOM     10  H4  UNL     1      12.479  -8.412   1.583  1.00  0.00     0.169 HD
HETATM   11  C11 UNL     1      12.644  -7.223  -0.068  1.00  0.00     0.136 A 
HETATM   12  N5  UNL     1      11.360  -6.764  -0.028  1.00  0.00    -0.176 N 
ATOM     13  H5  UNL     1      10.739  -7.090   0.713  1.00  0.00     0.186 HD
HETATM   14  C12 UNL     1      10.897  -5.900  -0.930  1.00  0.00     0.681 A 
HETATM   15  N7  UNL     1      11.737  -5.475  -1.911  1.00  0.00    -0.176 N 
ATOM     16  H7  UNL     1      11.388  -4.813  -2.604  1.00  0.00     0.186 HD
HETATM   17  C19 UNL     1      13.023  -5.899  -2.001  1.00  0.00     0.128 A 
HETATM   18  N8  UNL     1      13.785  -5.471  -2.948  1.00  0.00    -0.384 N 
ATOM     19  H81 UNL     1      14.752  -5.790  -3.015  1.00  0.00     0.157 HD
ATOM     20  H82 UNL     1      13.436  -4.811  -3.642  1.00  0.00     0.157 HD
HETATM   21  C20 UNL     1      13.496  -6.792  -1.063  1.00  0.00     0.055 A 
HETATM   22  C21 UNL     1      14.813  -7.264  -1.095  1.00  0.00     0.052 A 
HETATM   23  C22 UNL     1      15.281  -8.151  -0.158  1.00  0.00     0.083 A 
ENDROOT
BRANCH  14  24
HETATM   24  N6  UNL     1       9.689  -5.485  -0.851  1.00  0.00    -0.221 N 
ATOM     25  H6  UNL     1       9.363  -5.150   0.056  1.00  0.00     0.178 HD
BRANCH  24  26
HETATM   26  C13 UNL     1       8.761  -5.454  -1.940  1.00  0.00     0.099 C 
HETATM   27  C14 UNL     1       7.736  -6.584  -1.814  1.00  0.00     0.033 C 
BRANCH  26  28
HETATM   28  C15 UNL     1       7.956  -4.174  -1.977  1.00  0.00     0.008 C 
HETATM   29  C16 UNL     1       6.479  -4.299  -1.836  1.00  0.00     0.007 C 
HETATM   30  C17 UNL     1       6.568  -3.704  -0.455  1.00  0.00     0.001 C 
HETATM   31  C18 UNL     1       8.020  -3.413  -0.681  1.00  0.00     0.007 C 
ENDBRANCH  26  28
ENDBRANCH  24  26
ENDBRANCH  14  24
BRANCH   1  32
HETATM   32  C6  UNL     1      17.490  -8.144  -1.245  1.00  0.00     0.163 C 
BRANCH  32  33
HETATM   33  C5  UNL     1      18.408  -7.120  -0.688  1.00  0.00     0.292 C 
BRANCH  33  34
HETATM   34  N1  UNL     1      19.642  -6.895  -1.344  1.00  0.00     0.089 N 
BRANCH  34  35
HETATM   35  C2  UNL     1      20.685  -6.251  -0.637  1.00  0.00     0.268 C 
HETATM   36  C1  UNL     1      20.318  -5.333   0.467  1.00  0.00     0.037 C 
ENDBRANCH  34  35
BRANCH  34  37
HETATM   37  C3  UNL     1      20.168  -8.252  -1.667  1.00  0.00     0.268 C 
HETATM   38  C4  UNL     1      21.599  -8.084  -2.090  1.00  0.00     0.037 C 
ENDBRANCH  34  37
ENDBRANCH  33  34
ENDBRANCH  32  33
ENDBRANCH   1  32
TORSDOF 8
ENDMDL
MODEL 2
REMARK VINA RESULT: -6.650477901      2.467      8.238
REMARK  8 active torsions:
REMARK  status: ('A' for Active; 'I' for Inactive)
REMARK    1  A    between atoms: C2_2  and  N1_3 
REMARK    2  A    between atoms: N1_3  and  C3_4 
REMARK    3  A    between atoms: N1_3  and  C5_6 
REMARK    4  A    between atoms: C5_6  and  C6_7 
REMARK    5  A    between atoms: C6_7  and  N2_8 
REMARK    6  A    between atoms: C12_21  and  N6_22 
REMARK    7  A    between atoms: N6_22  and  C13_24 
REMARK    8  A    between atoms: C13_24  and  C15_26 
ROOT
HETATM    1  N2  UNL     1      12.087  -8.009  -0.614  1.00  0.00    -0.308 N 
HETATM    2  C7  UNL     1      11.399  -8.169   0.534  1.00  0.00     0.270 A 
HETATM    3  O1  UNL     1      10.160  -7.934   0.497  1.00  0.00    -0.266 OA
HETATM    4  C8  UNL     1      11.971  -8.566   1.719  1.00  0.00     0.075 A 
HETATM    5  C9  UNL     1      11.136  -8.723   2.959  1.00  0.00     0.074 C 
HETATM    6  N3  UNL     1      13.294  -8.806   1.713  1.00  0.00    -0.340 N 
ATOM      7  H3  UNL     1      13.746  -9.103   2.578  1.00  0.00     0.167 HD
HETATM    8  C10 UNL     1      14.040  -8.668   0.603  1.00  0.00     0.134 A 
HETATM    9  N4  UNL     1      15.384  -8.920   0.619  1.00  0.00    -0.326 N 
ATOM     10  H4  UNL     1      15.819  -9.216   1.492  1.00  0.00     0.169 HD
HETATM   11  C11 UNL     1      16.150  -8.791  -0.476  1.00  0.00     0.136 A 
HETATM   12  N5  UNL     1      17.488  -9.050  -0.443  1.00  0.00    -0.176 N 
ATOM     13  H5  UNL     1      17.916  -9.346   0.435  1.00  0.00     0.186 HD
HETATM   14  C12 UNL     1      18.253  -8.927  -1.527  1.00  0.00     0.681 A 
HETATM   15  N7  UNL     1      17.670  -8.532  -2.690  1.00  0.00    -0.176 N 
ATOM     16  H7  UNL     1      18.250  -8.437  -3.523  1.00  0.00     0.186 HD
HETATM   17  C19 UNL     1      16.343  -8.259  -2.781  1.00  0.00     0.128 A 
HETATM   18  N8  UNL     1      15.831  -7.886  -3.903  1.00  0.00    -0.384 N 
ATOM     19  H81 UNL     1      14.833  -7.681  -3.972  1.00  0.00     0.157 HD
ATOM     20  H82 UNL     1      16.411  -7.788  -4.736  1.00  0.00     0.157 HD
HETATM   21  C20 UNL     1      15.558  -8.390  -1.655  1.00  0.00     0.055 A 
HETATM   22  C21 UNL     1      14.183  -8.129  -1.684  1.00  0.00     0.052 A 
HETATM   23  C22 UNL     1      13.405  -8.263  -0.561  1.00  0.00     0.083 A 
ENDROOT
BRANCH  14  24
HETATM   24  N6  UNL     1      19.504  -9.191  -1.457  1.00  0.00    -0.221 N 
ATOM     25  H6  UNL     1      19.820 -10.084  -1.835  1.00  0.00     0.178 HD
BRANCH  24  26
HETATM   26  C13 UNL     1      20.491  -8.326  -0.889  1.00  0.00     0.099 C 
HETATM   27  C14 UNL     1      21.881  -8.646  -1.445  1.00  0.00     0.033 C 
BRANCH  26  28
HETATM   28  C15 UNL     1      20.245  -6.870  -1.220  1.00  0.00     0.008 C 
HETATM   29  C16 UNL     1      19.450  -6.078  -0.241  1.00  0.00     0.007 C 
HETATM   30  C17 UNL     1      20.699  -5.336   0.161  1.00  0.00     0.001 C 
HETATM   31  C18 UNL     1      21.446  -6.005  -0.951  1.00  0.00     0.007 C 
ENDBRANCH  26  28
ENDBRANCH  24  26
ENDBRANCH  14  24
BRANCH   1  32
HETATM   32  C6  UNL     1      11.418  -7.592  -1.851  1.00  0.00     0.163 C 
BRANCH  32  33
HETATM   33  C5  UNL     1      11.228  -6.121  -1.851  1.00  0.00     0.292 C 
BRANCH  33  34
HETATM   34  N1  UNL     1      11.801  -5.368  -2.905  1.00  0.00     0.089 N 
BRANCH  34  35
HETATM   35  C2  UNL     1      11.134  -4.203  -3.354  1.00  0.00     0.268 C 
HETATM   36  C1  UNL     1       9.772  -3.932  -2.833  1.00  0.00     0.037 C 
ENDBRANCH  34  35
BRANCH  34  37
HETATM   37  C3  UNL     1      13.111  -4.891  -2.379  1.00  0.00     0.268 C 
HETATM   38  C4  UNL     1      13.566  -3.772  -3.272  1.00  0.00     0.037 C 
ENDBRANCH  34  37
ENDBRANCH  33  34
ENDBRANCH  32  33
ENDBRANCH   1  32
TORSDOF 8
ENDMDL
MODEL 3
REMARK VINA RESULT: -6.579449383      0.944      1.670
REMARK  8 active torsions:
REMARK  status: ('A' for Active; 'I' for Inactive)
REMARK    1  A    between atoms: C2_2  and  N1_3 
REMARK    2  A    between atoms: N1_3  and  C3_4 
REMARK    3  A    between atoms: N1_3  and  C5_6 
REMARK    4  A    between atoms: C5_6  and  C6_7 
REMARK    5  A    between atoms: C6_7  and  N2_8 
REMARK    6  A    between atoms: C12_21  and  N6_22 
REMARK    7  A    between atoms: N6_22  and  C13_24 
REMARK    8  A    between atoms: C13_24  and  C15_26 
ROOT
HETATM    1  N2  UNL     1      16.444  -8.623  -0.188  1.00  0.00    -0.308 N 
HETATM    2  C7  UNL     1      16.799  -9.468   0.801  1.00  0.00     0.270 A 
HETATM    3  O1  UNL     1      17.978  -9.918   0.775  1.00  0.00    -0.266 OA
HETATM    4  C8  UNL     1      15.956  -9.856   1.814  1.00  0.00     0.075 A 
HETATM    5  C9  UNL     1      16.426 -10.803   2.883  1.00  0.00     0.074 C 
HETATM    6  N3  UNL     1      14.709  -9.353   1.803  1.00  0.00    -0.340 N 
ATOM      7  H3  UNL     1      14.060  -9.623   2.543  1.00  0.00     0.167 HD
HETATM    8  C10 UNL     1      14.289  -8.505   0.848  1.00  0.00     0.134 A 
HETATM    9  N4  UNL     1      13.018  -8.002   0.858  1.00  0.00    -0.326 N 
ATOM     10  H4  UNL     1      12.384  -8.283   1.605  1.00  0.00     0.169 HD
HETATM   11  C11 UNL     1      12.576  -7.152  -0.083  1.00  0.00     0.136 A 
HETATM   12  N5  UNL     1      11.305  -6.658  -0.055  1.00  0.00    -0.176 N 
ATOM     13  H5  UNL     1      10.677  -6.944   0.697  1.00  0.00     0.186 HD
HETATM   14  C12 UNL     1      10.862  -5.812  -0.984  1.00  0.00     0.681 A 
HETATM   15  N7  UNL     1      11.710  -5.441  -1.979  1.00  0.00    -0.176 N 
ATOM     16  H7  UNL     1      11.377  -4.793  -2.693  1.00  0.00     0.186 HD
HETATM   17  C19 UNL     1      12.985  -5.902  -2.058  1.00  0.00     0.128 A 
HETATM   18  N8  UNL     1      13.756  -5.525  -3.019  1.00  0.00    -0.384 N 
ATOM     19  H81 UNL     1      14.714  -5.871  -3.078  1.00  0.00     0.157 HD
ATOM     20  H82 UNL     1      13.422  -4.878  -3.734  1.00  0.00     0.157 HD
HETATM   21  C20 UNL     1      13.437  -6.776  -1.092  1.00  0.00     0.055 A 
HETATM   22  C21 UNL     1      14.741  -7.283  -1.112  1.00  0.00     0.052 A 
HETATM   23  C22 UNL     1      15.187  -8.152  -0.148  1.00  0.00     0.083 A 
ENDROOT
BRANCH  14  24
HETATM   24  N6  UNL     1       9.666  -5.362  -0.917  1.00  0.00    -0.221 N 
ATOM     25  H6  UNL     1       9.488  -4.587  -0.277  1.00  0.00     0.178 HD
BRANCH  24  26
HETATM   26  C13 UNL     1       8.559  -5.865  -1.671  1.00  0.00     0.099 C 
HETATM   27  C14 UNL     1       8.443  -5.143  -3.016  1.00  0.00     0.033 C 
BRANCH  26  28
HETATM   28  C15 UNL     1       8.708  -7.332  -2.008  1.00  0.00     0.008 C 
HETATM   29  C16 UNL     1       7.987  -8.304  -1.139  1.00  0.00     0.007 C 
HETATM   30  C17 UNL     1       7.021  -8.579  -2.263  1.00  0.00     0.001 C 
HETATM   31  C18 UNL     1       7.860  -7.745  -3.181  1.00  0.00     0.007 C 
ENDBRANCH  26  28
ENDBRANCH  24  26
ENDBRANCH  14  24
BRANCH   1  32
HETATM   32  C6  UNL     1      17.393  -8.238  -1.238  1.00  0.00     0.163 C 
BRANCH  32  33
HETATM   33  C5  UNL     1      18.311  -7.190  -0.729  1.00  0.00     0.292 C 
BRANCH  33  34
HETATM   34  N1  UNL     1      19.558  -7.015  -1.378  1.00  0.00     0.089 N 
BRANCH  34  35
HETATM   35  C2  UNL     1      20.617  -6.400  -0.670  1.00  0.00     0.268 C 
HETATM   36  C1  UNL     1      20.288  -5.281   0.247  1.00  0.00     0.037 C 
ENDBRANCH  34  35
BRANCH  34  37
HETATM   37  C3  UNL     1      20.038  -8.393  -1.683  1.00  0.00     0.268 C 
HETATM   38  C4  UNL     1      21.444  -8.268  -2.197  1.00  0.00     0.037 C 
ENDBRANCH  34  37
ENDBRANCH  33  34
ENDBRANCH  32  33
ENDBRANCH   1  32
TORSDOF 8
ENDMDL
MODEL 4
REMARK VINA RESULT: -6.501288830      2.473      8.669
REMARK  8 active torsions:
REMARK  status: ('A' for Active; 'I' for Inactive)
REMARK    1  A    between atoms: C2_2  and  N1_3 
REMARK    2  A    between atoms: N1_3  and  C3_4 
REMARK    3  A    between atoms: N1_3  and  C5_6 
REMARK    4  A    between atoms: C5_6  and  C6_7 
REMARK    5  A    between atoms: C6_7  and  N2_8 
REMARK    6  A    between atoms: C12_21  and  N6_22 
REMARK    7  A    between atoms: N6_22  and  C13_24 
REMARK    8  A    between atoms: C13_24  and  C15_26 
ROOT
HETATM    1  N2  UNL     1      11.982  -8.160  -0.387  1.00  0.00    -0.308 N 
HETATM    2  C7  UNL     1      11.257  -8.339   0.735  1.00  0.00     0.270 A 
HETATM    3  O1  UNL     1      10.001  -8.325   0.616  1.00  0.00    -0.266 OA
HETATM    4  C8  UNL     1      11.810  -8.529   1.980  1.00  0.00     0.075 A 
HETATM    5  C9  UNL     1      10.934  -8.721   3.186  1.00  0.00     0.074 C 
HETATM    6  N3  UNL     1      13.152  -8.537   2.062  1.00  0.00    -0.340 N 
ATOM      7  H3  UNL     1      13.590  -8.677   2.972  1.00  0.00     0.167 HD
HETATM    8  C10 UNL     1      13.935  -8.367   0.982  1.00  0.00     0.134 A 
HETATM    9  N4  UNL     1      15.298  -8.382   1.088  1.00  0.00    -0.326 N 
ATOM     10  H4  UNL     1      15.718  -8.523   2.006  1.00  0.00     0.169 HD
HETATM   11  C11 UNL     1      16.101  -8.216   0.025  1.00  0.00     0.136 A 
HETATM   12  N5  UNL     1      17.459  -8.237   0.149  1.00  0.00    -0.176 N 
ATOM     13  H5  UNL     1      17.872  -8.379   1.071  1.00  0.00     0.186 HD
HETATM   14  C12 UNL     1      18.261  -8.077  -0.903  1.00  0.00     0.681 A 
HETATM   15  N7  UNL     1      17.696  -7.888  -2.125  1.00  0.00    -0.176 N 
ATOM     16  H7  UNL     1      18.305  -7.766  -2.934  1.00  0.00     0.186 HD
HETATM   17  C19 UNL     1      16.351  -7.857  -2.307  1.00  0.00     0.128 A 
HETATM   18  N8  UNL     1      15.857  -7.674  -3.484  1.00  0.00    -0.384 N 
ATOM     19  H81 UNL     1      14.847  -7.651  -3.621  1.00  0.00     0.157 HD
ATOM     20  H82 UNL     1      16.466  -7.549  -4.293  1.00  0.00     0.157 HD
HETATM   21  C20 UNL     1      15.528  -8.025  -1.215  1.00  0.00     0.055 A 
HETATM   22  C21 UNL     1      14.134  -8.009  -1.335  1.00  0.00     0.052 A 
HETATM   23  C22 UNL     1      13.317  -8.178  -0.245  1.00  0.00     0.083 A 
ENDROOT
BRANCH  14  24
HETATM   24  N6  UNL     1      19.531  -8.114  -0.747  1.00  0.00    -0.221 N 
ATOM     25  H6  UNL     1      19.907  -8.809  -0.102  1.00  0.00     0.178 HD
BRANCH  24  26
HETATM   26  C13 UNL     1      20.462  -7.253  -1.409  1.00  0.00     0.099 C 
HETATM   27  C14 UNL     1      20.713  -5.986  -0.587  1.00  0.00     0.033 C 
BRANCH  26  28
HETATM   28  C15 UNL     1      21.819  -7.899  -1.588  1.00  0.00     0.008 C 
HETATM   29  C16 UNL     1      22.003  -8.768  -2.783  1.00  0.00     0.007 C 
HETATM   30  C17 UNL     1      22.892  -7.718  -3.399  1.00  0.00     0.001 C 
HETATM   31  C18 UNL     1      22.849  -6.940  -2.121  1.00  0.00     0.007 C 
ENDBRANCH  26  28
ENDBRANCH  24  26
ENDBRANCH  14  24
BRANCH   1  32
HETATM   32  C6  UNL     1      11.335  -7.971  -1.689  1.00  0.00     0.163 C 
BRANCH  32  33
HETATM   33  C5  UNL     1      10.960  -6.547  -1.865  1.00  0.00     0.292 C 
BRANCH  33  34
HETATM   34  N1  UNL     1      11.457  -5.855  -2.997  1.00  0.00     0.089 N 
BRANCH  34  35
HETATM   35  C2  UNL     1      10.592  -4.981  -3.698  1.00  0.00     0.268 C 
HETATM   36  C1  UNL     1       9.975  -3.860  -2.950  1.00  0.00     0.037 C 
ENDBRANCH  34  35
BRANCH  34  37
HETATM   37  C3  UNL     1      12.552  -4.989  -2.477  1.00  0.00     0.268 C 
HETATM   38  C4  UNL     1      13.606  -4.918  -3.545  1.00  0.00     0.037 C 
ENDBRANCH  34  37
ENDBRANCH  33  34
ENDBRANCH  32  33
ENDBRANCH   1  32
TORSDOF 8
ENDMDL
MODEL 5
REMARK VINA RESULT: -6.481173831      1.879      2.556
REMARK  8 active torsions:
REMARK  status: ('A' for Active; 'I' for Inactive)
REMARK    1  A    between atoms: C2_2  and  N1_3 
REMARK    2  A    between atoms: N1_3  and  C3_4 
REMARK    3  A    between atoms: N1_3  and  C5_6 
REMARK    4  A    between atoms: C5_6  and  C6_7 
REMARK    5  A    between atoms: C6_7  and  N2_8 
REMARK    6  A    between atoms: C12_21  and  N6_22 
REMARK    7  A    between atoms: N6_22  and  C13_24 
REMARK    8  A    between atoms: C13_24  and  C15_26 
ROOT
HETATM    1  N2  UNL     1      17.163  -9.894   0.067  1.00  0.00    -0.308 N 
HETATM    2  C7  UNL     1      17.285 -10.525   1.252  1.00  0.00     0.270 A 
HETATM    3  O1  UNL     1      18.295 -11.265   1.407  1.00  0.00    -0.266 OA
HETATM    4  C8  UNL     1      16.379 -10.404   2.279  1.00  0.00     0.075 A 
HETATM    5  C9  UNL     1      16.584 -11.140   3.573  1.00  0.00     0.074 C 
HETATM    6  N3  UNL     1      15.317  -9.605   2.071  1.00  0.00    -0.340 N 
ATOM      7  H3  UNL     1      14.628  -9.496   2.815  1.00  0.00     0.167 HD
HETATM    8  C10 UNL     1      15.135  -8.945   0.914  1.00  0.00     0.134 A 
HETATM    9  N4  UNL     1      14.050  -8.136   0.726  1.00  0.00    -0.326 N 
ATOM     10  H4  UNL     1      13.371  -8.038   1.481  1.00  0.00     0.169 HD
HETATM   11  C11 UNL     1      13.846  -7.465  -0.419  1.00  0.00     0.136 A 
HETATM   12  N5  UNL     1      12.759  -6.658  -0.589  1.00  0.00    -0.176 N 
ATOM     13  H5  UNL     1      12.086  -6.566   0.172  1.00  0.00     0.186 HD
HETATM   14  C12 UNL     1      12.554  -5.987  -1.722  1.00  0.00     0.681 A 
HETATM   15  N7  UNL     1      13.460  -6.121  -2.726  1.00  0.00    -0.176 N 
ATOM     16  H7  UNL     1      13.309  -5.609  -3.595  1.00  0.00     0.186 HD
HETATM   17  C19 UNL     1      14.559  -6.910  -2.614  1.00  0.00     0.128 A 
HETATM   18  N8  UNL     1      15.393  -7.009  -3.592  1.00  0.00    -0.384 N 
ATOM     19  H81 UNL     1      16.218  -7.602  -3.508  1.00  0.00     0.157 HD
ATOM     20  H82 UNL     1      15.240  -6.499  -4.462  1.00  0.00     0.157 HD
HETATM   21  C20 UNL     1      14.765  -7.600  -1.438  1.00  0.00     0.055 A 
HETATM   22  C21 UNL     1      15.881  -8.425  -1.257  1.00  0.00     0.052 A 
HETATM   23  C22 UNL     1      16.083  -9.109  -0.084  1.00  0.00     0.083 A 
ENDROOT
BRANCH  14  24
HETATM   24  N6  UNL     1      11.528  -5.232  -1.837  1.00  0.00    -0.221 N 
ATOM     25  H6  UNL     1      11.011  -5.005  -0.987  1.00  0.00     0.178 HD
BRANCH  24  26
HETATM   26  C13 UNL     1      11.050  -4.682  -3.068  1.00  0.00     0.099 C 
HETATM   27  C14 UNL     1       9.553  -4.373  -2.982  1.00  0.00     0.033 C 
BRANCH  26  28
HETATM   28  C15 UNL     1      11.719  -3.370  -3.413  1.00  0.00     0.008 C 
HETATM   29  C16 UNL     1      12.465  -3.307  -4.700  1.00  0.00     0.007 C 
HETATM   30  C17 UNL     1      11.387  -2.423  -5.273  1.00  0.00     0.001 C 
HETATM   31  C18 UNL     1      10.745  -2.342  -3.922  1.00  0.00     0.007 C 
ENDBRANCH  26  28
ENDBRANCH  24  26
ENDBRANCH  14  24
BRANCH   1  32
HETATM   32  C6  UNL     1      18.169 -10.055  -0.988  1.00  0.00     0.163 C 
BRANCH  32  33
HETATM   33  C5  UNL     1      19.330  -9.171  -0.719  1.00  0.00     0.292 C 
BRANCH  33  34
HETATM   34  N1  UNL     1      19.375  -7.907  -1.355  1.00  0.00     0.089 N 
BRANCH  34  35
HETATM   35  C2  UNL     1      19.038  -6.753  -0.608  1.00  0.00     0.268 C 
HETATM   36  C1  UNL     1      20.125  -5.810  -0.250  1.00  0.00     0.037 C 
ENDBRANCH  34  35
BRANCH  34  37
HETATM   37  C3  UNL     1      20.800  -7.716  -1.748  1.00  0.00     0.268 C 
HETATM   38  C4  UNL     1      21.051  -8.594  -2.941  1.00  0.00     0.037 C 
ENDBRANCH  34  37
ENDBRANCH  33  34
ENDBRANCH  32  33
ENDBRANCH   1  32
TORSDOF 8
ENDMDL
