MODEL 1
REMARK VINA RESULT: -6.667105593      0.000      0.000
REMARK  2 active torsions:
REMARK  status: ('A' for Active; 'I' for Inactive)
REMARK    1  A    between atoms: C3_11  and  S1_12 
REMARK    2  A    between atoms: S1_12  and  N5_13 
ROOT
HETATM    1  N1  UNL     1      -9.874 -28.381 -25.088  1.00  0.00    -0.234 N 
ATOM      2  H11 UNL     1      -9.927 -28.258 -24.077  1.00  0.00     0.174 HD
ATOM      3  H12 UNL     1      -8.948 -28.444 -25.510  1.00  0.00     0.174 HD
HETATM    4  C1  UNL     1     -10.971 -28.452 -25.797  1.00  0.00     0.680 A 
HETATM    5  N2  UNL     1     -10.901 -28.614 -27.128  1.00  0.00    -0.163 N 
ATOM      6  H2  UNL     1      -9.982 -28.678 -27.566  1.00  0.00     0.187 HD
HETATM    7  C2  UNL     1     -12.003 -28.694 -27.915  1.00  0.00     0.208 A 
HETATM    8  N3  UNL     1     -11.872 -28.864 -29.321  1.00  0.00    -0.063 NA
HETATM    9  N4  UNL     1     -13.193 -28.605 -27.308  1.00  0.00    -0.307 N 
ATOM     10  H4  UNL     1     -14.038 -28.661 -27.877  1.00  0.00     0.170 HD
HETATM   11  C3  UNL     1     -13.321 -28.442 -25.968  1.00  0.00     0.212 A 
HETATM   12  N6  UNL     1     -12.182 -28.370 -25.245  1.00  0.00    -0.166 N 
ATOM     13  H6  UNL     1     -12.252 -28.246 -24.235  1.00  0.00     0.186 HD
ENDROOT
BRANCH  11  14
HETATM   14  S1  UNL     1     -14.890 -28.339 -25.286  1.00  0.00     0.179 S 
HETATM   15  O1  UNL     1     -15.726 -29.562 -25.272  1.00  0.00    -0.227 OA
BRANCH  14  16
HETATM   16  N5  UNL     1     -15.176 -27.164 -24.110  1.00  0.00    -0.343 N 
ATOM     17  H52 UNL     1     -14.700 -26.266 -24.200  1.00  0.00     0.167 HD
ATOM     18  H51 UNL     1     -16.063 -27.190 -23.607  1.00  0.00     0.167 HD
ENDBRANCH  14  16
ENDBRANCH  11  14
TORSDOF 2
ENDMDL
MODEL 2
REMARK VINA RESULT: -6.504003932      2.874      3.903
REMARK  2 active torsions:
REMARK  status: ('A' for Active; 'I' for Inactive)
REMARK    1  A    between atoms: C3_11  and  S1_12 
REMARK    2  A    between atoms: S1_12  and  N5_13 
ROOT
HETATM    1  N1  UNL     1     -14.800 -28.926 -25.805  1.00  0.00    -0.234 N 
ATOM      2  H11 UNL     1     -14.921 -29.016 -24.796  1.00  0.00     0.174 HD
ATOM      3  H12 UNL     1     -15.631 -28.749 -26.368  1.00  0.00     0.174 HD
HETATM    4  C1  UNL     1     -13.609 -29.036 -26.333  1.00  0.00     0.680 A 
HETATM    5  N2  UNL     1     -13.450 -28.917 -27.662  1.00  0.00    -0.163 N 
ATOM      6  H2  UNL     1     -14.271 -28.741 -28.239  1.00  0.00     0.187 HD
HETATM    7  C2  UNL     1     -12.240 -29.021 -28.266  1.00  0.00     0.208 A 
HETATM    8  N3  UNL     1     -12.127 -28.888 -29.678  1.00  0.00    -0.063 NA
HETATM    9  N4  UNL     1     -11.183 -29.253 -27.478  1.00  0.00    -0.307 N 
ATOM     10  H4  UNL     1     -10.261 -29.337 -27.908  1.00  0.00     0.170 HD
HETATM   11  C3  UNL     1     -11.287 -29.380 -26.133  1.00  0.00     0.212 A 
HETATM   12  N6  UNL     1     -12.521 -29.266 -25.597  1.00  0.00    -0.166 N 
ATOM     13  H6  UNL     1     -12.626 -29.359 -24.587  1.00  0.00     0.186 HD
ENDROOT
BRANCH  11  14
HETATM   14  S1  UNL     1      -9.872 -29.676 -25.210  1.00  0.00     0.179 S 
HETATM   15  O1  UNL     1      -9.061 -28.511 -24.785  1.00  0.00    -0.227 OA
BRANCH  14  16
HETATM   16  N5  UNL     1      -9.803 -31.079 -24.277  1.00  0.00    -0.343 N 
ATOM     17  H52 UNL     1     -10.602 -31.713 -24.300  1.00  0.00     0.167 HD
ATOM     18  H51 UNL     1      -8.887 -31.469 -24.056  1.00  0.00     0.167 HD
ENDBRANCH  14  16
ENDBRANCH  11  14
TORSDOF 2
ENDMDL
MODEL 3
REMARK VINA RESULT: -6.341984559      1.274      1.274
REMARK  2 active torsions:
REMARK  status: ('A' for Active; 'I' for Inactive)
REMARK    1  A    between atoms: C3_11  and  S1_12 
REMARK    2  A    between atoms: S1_12  and  N5_13 
ROOT
HETATM    1  N1  UNL     1     -10.269 -28.325 -25.094  1.00  0.00    -0.234 N 
ATOM      2  H11 UNL     1     -10.384 -28.149 -24.096  1.00  0.00     0.174 HD
ATOM      3  H12 UNL     1      -9.323 -28.482 -25.442  1.00  0.00     0.174 HD
HETATM    4  C1  UNL     1     -11.314 -28.343 -25.879  1.00  0.00     0.680 A 
HETATM    5  N2  UNL     1     -11.163 -28.574 -27.194  1.00  0.00    -0.163 N 
ATOM      6  H2  UNL     1     -10.224 -28.733 -27.558  1.00  0.00     0.187 HD
HETATM    7  C2  UNL     1     -12.209 -28.605 -28.057  1.00  0.00     0.208 A 
HETATM    8  N3  UNL     1     -11.993 -28.853 -29.440  1.00  0.00    -0.063 NA
HETATM    9  N4  UNL     1     -13.428 -28.392 -27.545  1.00  0.00    -0.307 N 
ATOM     10  H4  UNL     1     -14.232 -28.409 -28.173  1.00  0.00     0.170 HD
HETATM   11  C3  UNL     1     -13.637 -28.156 -26.227  1.00  0.00     0.212 A 
HETATM   12  N6  UNL     1     -12.551 -28.138 -25.424  1.00  0.00    -0.166 N 
ATOM     13  H6  UNL     1     -12.682 -27.961 -24.429  1.00  0.00     0.186 HD
ENDROOT
BRANCH  11  14
HETATM   14  S1  UNL     1     -15.237 -27.896 -25.669  1.00  0.00     0.179 S 
HETATM   15  O1  UNL     1     -15.423 -27.116 -24.423  1.00  0.00    -0.227 OA
BRANCH  14  16
HETATM   16  N5  UNL     1     -16.490 -27.905 -26.798  1.00  0.00    -0.343 N 
ATOM     17  H52 UNL     1     -16.774 -27.017 -27.212  1.00  0.00     0.167 HD
ATOM     18  H51 UNL     1     -16.651 -28.758 -27.334  1.00  0.00     0.167 HD
ENDBRANCH  14  16
ENDBRANCH  11  14
TORSDOF 2
ENDMDL
MODEL 4
REMARK VINA RESULT: -6.033190276      2.912      4.349
REMARK  2 active torsions:
REMARK  status: ('A' for Active; 'I' for Inactive)
REMARK    1  A    between atoms: C3_11  and  S1_12 
REMARK    2  A    between atoms: S1_12  and  N5_13 
ROOT
HETATM    1  N1  UNL     1     -12.478 -28.928 -29.321  1.00  0.00    -0.234 N 
ATOM      2  H11 UNL     1     -11.606 -28.907 -29.849  1.00  0.00     0.174 HD
ATOM      3  H12 UNL     1     -13.348 -28.795 -29.836  1.00  0.00     0.174 HD
HETATM    4  C1  UNL     1     -12.455 -29.121 -28.028  1.00  0.00     0.680 A 
HETATM    5  N2  UNL     1     -13.603 -29.149 -27.332  1.00  0.00    -0.163 N 
ATOM      6  H2  UNL     1     -14.481 -29.017 -27.832  1.00  0.00     0.187 HD
HETATM    7  C2  UNL     1     -13.641 -29.344 -25.990  1.00  0.00     0.208 A 
HETATM    8  N3  UNL     1     -14.885 -29.363 -25.301  1.00  0.00    -0.063 NA
HETATM    9  N4  UNL     1     -12.469 -29.513 -25.365  1.00  0.00    -0.307 N 
ATOM     10  H4  UNL     1     -12.469 -29.661 -24.355  1.00  0.00     0.170 HD
HETATM   11  C3  UNL     1     -11.282 -29.495 -26.019  1.00  0.00     0.212 A 
HETATM   12  N6  UNL     1     -11.317 -29.295 -27.354  1.00  0.00    -0.166 N 
ATOM     13  H6  UNL     1     -10.436 -29.276 -27.868  1.00  0.00     0.186 HD
ENDROOT
BRANCH  11  14
HETATM   14  S1  UNL     1      -9.834 -29.722 -25.128  1.00  0.00     0.179 S 
HETATM   15  O1  UNL     1      -9.077 -28.519 -24.710  1.00  0.00    -0.227 OA
BRANCH  14  16
HETATM   16  N5  UNL     1      -9.673 -31.125 -24.207  1.00  0.00    -0.343 N 
ATOM     17  H52 UNL     1      -9.454 -31.997 -24.689  1.00  0.00     0.167 HD
ATOM     18  H51 UNL     1      -9.393 -31.034 -23.230  1.00  0.00     0.167 HD
ENDBRANCH  14  16
ENDBRANCH  11  14
TORSDOF 2
ENDMDL
MODEL 5
REMARK VINA RESULT: -5.989545767      1.572      1.662
REMARK  2 active torsions:
REMARK  status: ('A' for Active; 'I' for Inactive)
REMARK    1  A    between atoms: C3_11  and  S1_12 
REMARK    2  A    between atoms: S1_12  and  N5_13 
ROOT
HETATM    1  N1  UNL     1     -11.642 -26.519 -24.802  1.00  0.00    -0.234 N 
ATOM      2  H11 UNL     1     -12.025 -26.294 -23.885  1.00  0.00     0.174 HD
ATOM      3  H12 UNL     1     -10.663 -26.289 -24.977  1.00  0.00     0.174 HD
HETATM    4  C1  UNL     1     -12.398 -27.084 -25.707  1.00  0.00     0.680 A 
HETATM    5  N2  UNL     1     -11.893 -27.381 -26.915  1.00  0.00    -0.163 N 
ATOM      6  H2  UNL     1     -10.917 -27.157 -27.106  1.00  0.00     0.187 HD
HETATM    7  C2  UNL     1     -12.628 -27.966 -27.893  1.00  0.00     0.208 A 
HETATM    8  N3  UNL     1     -12.044 -28.259 -29.156  1.00  0.00    -0.063 NA
HETATM    9  N4  UNL     1     -13.907 -28.246 -27.609  1.00  0.00    -0.307 N 
ATOM     10  H4  UNL     1     -14.483 -28.686 -28.327  1.00  0.00     0.170 HD
HETATM   11  C3  UNL     1     -14.467 -27.969 -26.406  1.00  0.00     0.212 A 
HETATM   12  N6  UNL     1     -13.677 -27.385 -25.479  1.00  0.00    -0.166 N 
ATOM     13  H6  UNL     1     -14.076 -27.165 -24.566  1.00  0.00     0.186 HD
ENDROOT
BRANCH  11  14
HETATM   14  S1  UNL     1     -16.113 -28.367 -26.140  1.00  0.00     0.179 S 
HETATM   15  O1  UNL     1     -16.424 -29.687 -25.544  1.00  0.00    -0.227 OA
BRANCH  14  16
HETATM   16  N5  UNL     1     -17.213 -27.110 -25.911  1.00  0.00    -0.343 N 
ATOM     17  H52 UNL     1     -16.852 -26.197 -25.633  1.00  0.00     0.167 HD
ATOM     18  H51 UNL     1     -18.097 -27.141 -26.420  1.00  0.00     0.167 HD
ENDBRANCH  14  16
ENDBRANCH  11  14
TORSDOF 2
ENDMDL
