MODEL 1
REMARK VINA RESULT: -6.694610686      0.000      0.000
REMARK  4 active torsions:
REMARK  status: ('A' for Active; 'I' for Inactive)
REMARK    1  A    between atoms: N1_1  and  C1_4 
REMARK    2  A    between atoms: C3_13  and  N6_14 
REMARK    3  A    between atoms: N6_14  and  O1_16 
REMARK    4  A    between atoms: O1_16  and  C4_17 
ROOT
HETATM    1  C1  UNL     1     -12.132 -27.556 -26.664  1.00  0.00     0.149 A 
HETATM    2  N2  UNL     1     -12.837 -26.504 -26.229  1.00  0.00    -0.313 N 
ATOM      3  H2  UNL     1     -12.674 -25.589 -26.651  1.00  0.00     0.170 HD
HETATM    4  C2  UNL     1     -13.756 -26.621 -25.251  1.00  0.00     0.208 A 
HETATM    5  N3  UNL     1     -14.504 -25.500 -24.792  1.00  0.00    -0.062 NA
HETATM    6  N4  UNL     1     -13.927 -27.853 -24.734  1.00  0.00    -0.272 N 
ATOM      7  H4  UNL     1     -14.616 -27.979 -23.992  1.00  0.00     0.189 HD
HETATM    8  N5  UNL     1     -13.242 -28.908 -25.146  1.00  0.00    -0.279 N 
ATOM      9  H5  UNL     1     -13.417 -29.815 -24.715  1.00  0.00     0.189 HD
HETATM   10  C3  UNL     1     -12.320 -28.811 -26.123  1.00  0.00     0.185 A 
ENDROOT
BRANCH  10  11
HETATM   11  N6  UNL     1     -11.632 -29.810 -26.555  1.00  0.00    -0.234 N 
ATOM     12  H6  UNL     1     -12.101 -30.609 -26.980  1.00  0.00     0.197 HD
BRANCH  11  13
HETATM   13  O1  UNL     1     -10.259 -29.796 -26.440  1.00  0.00    -0.171 OA
BRANCH  13  14
HETATM   14  C4  UNL     1      -9.628 -29.821 -25.186  1.00  0.00     0.355 C 
HETATM   15  O2  UNL     1      -9.265 -28.676 -24.758  1.00  0.00    -0.622 OA
HETATM   16  O3  UNL     1      -9.417 -30.982 -24.476  1.00  0.00    -0.622 OA
ENDBRANCH  13  14
ENDBRANCH  11  13
ENDBRANCH  10  11
BRANCH   1  17
HETATM   17  N1  UNL     1     -11.258 -27.418 -27.602  1.00  0.00    -0.382 N 
ATOM     18  H12 UNL     1     -11.500 -26.843 -28.409  1.00  0.00     0.157 HD
ATOM     19  H11 UNL     1     -10.348 -27.874 -27.535  1.00  0.00     0.157 HD
ENDBRANCH   1  17
TORSDOF 4
ENDMDL
MODEL 2
REMARK VINA RESULT: -6.625659585      1.651      1.931
REMARK  4 active torsions:
REMARK  status: ('A' for Active; 'I' for Inactive)
REMARK    1  A    between atoms: N1_1  and  C1_4 
REMARK    2  A    between atoms: C3_13  and  N6_14 
REMARK    3  A    between atoms: N6_14  and  O1_16 
REMARK    4  A    between atoms: O1_16  and  C4_17 
ROOT
HETATM    1  C1  UNL     1     -12.108 -27.971 -26.739  1.00  0.00     0.149 A 
HETATM    2  N2  UNL     1     -13.391 -28.079 -27.107  1.00  0.00    -0.313 N 
ATOM      3  H2  UNL     1     -13.709 -27.593 -27.945  1.00  0.00     0.170 HD
HETATM    4  C2  UNL     1     -14.272 -28.813 -26.399  1.00  0.00     0.208 A 
HETATM    5  N3  UNL     1     -15.635 -28.926 -26.794  1.00  0.00    -0.062 NA
HETATM    6  N4  UNL     1     -13.793 -29.432 -25.304  1.00  0.00    -0.272 N 
ATOM      7  H4  UNL     1     -14.433 -29.997 -24.745  1.00  0.00     0.189 HD
HETATM    8  N5  UNL     1     -12.530 -29.341 -24.920  1.00  0.00    -0.279 N 
ATOM      9  H5  UNL     1     -12.228 -29.833 -24.080  1.00  0.00     0.189 HD
HETATM   10  C3  UNL     1     -11.635 -28.612 -25.613  1.00  0.00     0.185 A 
ENDROOT
BRANCH  10  11
HETATM   11  N6  UNL     1     -10.397 -28.496 -25.276  1.00  0.00    -0.234 N 
ATOM     12  H6  UNL     1     -10.105 -27.749 -24.646  1.00  0.00     0.197 HD
BRANCH  11  13
HETATM   13  O1  UNL     1      -9.467 -29.385 -25.771  1.00  0.00    -0.171 OA
BRANCH  13  14
HETATM   14  C4  UNL     1      -9.339 -30.680 -25.244  1.00  0.00     0.355 C 
HETATM   15  O2  UNL     1      -8.572 -31.447 -25.915  1.00  0.00    -0.622 OA
HETATM   16  O3  UNL     1      -9.987 -31.092 -24.100  1.00  0.00    -0.622 OA
ENDBRANCH  13  14
ENDBRANCH  11  13
ENDBRANCH  10  11
BRANCH   1  17
HETATM   17  N1  UNL     1     -11.284 -27.262 -27.433  1.00  0.00    -0.382 N 
ATOM     18  H12 UNL     1     -11.174 -26.276 -27.196  1.00  0.00     0.157 HD
ATOM     19  H11 UNL     1     -10.756 -27.681 -28.199  1.00  0.00     0.157 HD
ENDBRANCH   1  17
TORSDOF 4
ENDMDL
MODEL 3
REMARK VINA RESULT: -6.609647370      3.463      4.819
REMARK  4 active torsions:
REMARK  status: ('A' for Active; 'I' for Inactive)
REMARK    1  A    between atoms: N1_1  and  C1_4 
REMARK    2  A    between atoms: C3_13  and  N6_14 
REMARK    3  A    between atoms: N6_14  and  O1_16 
REMARK    4  A    between atoms: O1_16  and  C4_17 
ROOT
HETATM    1  C1  UNL     1     -12.619 -27.649 -25.680  1.00  0.00     0.149 A 
HETATM    2  N2  UNL     1     -11.390 -27.808 -25.176  1.00  0.00    -0.313 N 
ATOM      3  H2  UNL     1     -11.086 -27.205 -24.411  1.00  0.00     0.170 HD
HETATM    4  C2  UNL     1     -10.543 -28.742 -25.652  1.00  0.00     0.208 A 
HETATM    5  N3  UNL     1      -9.236 -28.908 -25.112  1.00  0.00    -0.062 NA
HETATM    6  N4  UNL     1     -11.001 -29.507 -26.661  1.00  0.00    -0.272 N 
ATOM      7  H4  UNL     1     -10.387 -30.226 -27.045  1.00  0.00     0.189 HD
HETATM    8  N5  UNL     1     -12.212 -29.369 -27.176  1.00  0.00    -0.279 N 
ATOM      9  H5  UNL     1     -12.501 -29.979 -27.940  1.00  0.00     0.189 HD
HETATM   10  C3  UNL     1     -13.072 -28.442 -26.715  1.00  0.00     0.185 A 
ENDROOT
BRANCH  10  11
HETATM   11  N6  UNL     1     -14.259 -28.273 -27.186  1.00  0.00    -0.234 N 
ATOM     12  H6  UNL     1     -14.434 -27.554 -27.888  1.00  0.00     0.197 HD
BRANCH  11  13
HETATM   13  O1  UNL     1     -15.291 -29.069 -26.739  1.00  0.00    -0.171 OA
BRANCH  13  14
HETATM   14  C4  UNL     1     -16.298 -28.560 -25.902  1.00  0.00     0.355 C 
HETATM   15  O2  UNL     1     -16.993 -29.454 -25.314  1.00  0.00    -0.622 OA
HETATM   16  O3  UNL     1     -16.520 -27.212 -25.729  1.00  0.00    -0.622 OA
ENDBRANCH  13  14
ENDBRANCH  11  13
ENDBRANCH  10  11
BRANCH   1  17
HETATM   17  N1  UNL     1     -13.412 -26.747 -25.207  1.00  0.00    -0.382 N 
ATOM     18  H12 UNL     1     -13.063 -25.792 -25.124  1.00  0.00     0.157 HD
ATOM     19  H11 UNL     1     -14.362 -26.987 -24.925  1.00  0.00     0.157 HD
ENDBRANCH   1  17
TORSDOF 4
ENDMDL
MODEL 4
REMARK VINA RESULT: -6.593622281      3.404      5.029
REMARK  4 active torsions:
REMARK  status: ('A' for Active; 'I' for Inactive)
REMARK    1  A    between atoms: N1_1  and  C1_4 
REMARK    2  A    between atoms: C3_13  and  N6_14 
REMARK    3  A    between atoms: N6_14  and  O1_16 
REMARK    4  A    between atoms: O1_16  and  C4_17 
ROOT
HETATM    1  C1  UNL     1     -12.410 -29.095 -26.527  1.00  0.00     0.149 A 
HETATM    2  N2  UNL     1     -11.333 -29.869 -26.347  1.00  0.00    -0.313 N 
ATOM      3  H2  UNL     1     -11.293 -30.779 -26.806  1.00  0.00     0.170 HD
HETATM    4  C2  UNL     1     -10.299 -29.477 -25.576  1.00  0.00     0.208 A 
HETATM    5  N3  UNL     1      -9.154 -30.303 -25.388  1.00  0.00    -0.062 NA
HETATM    6  N4  UNL     1     -10.408 -28.266 -24.998  1.00  0.00    -0.272 N 
ATOM      7  H4  UNL     1      -9.643 -27.937 -24.408  1.00  0.00     0.189 HD
HETATM    8  N5  UNL     1     -11.462 -27.484 -25.160  1.00  0.00    -0.279 N 
ATOM      9  H5  UNL     1     -11.486 -26.577 -24.695  1.00  0.00     0.189 HD
HETATM   10  C3  UNL     1     -12.505 -27.857 -25.926  1.00  0.00     0.185 A 
ENDROOT
BRANCH  10  11
HETATM   11  N6  UNL     1     -13.550 -27.128 -26.111  1.00  0.00    -0.234 N 
ATOM     12  H6  UNL     1     -13.539 -26.385 -26.810  1.00  0.00     0.197 HD
BRANCH  11  13
HETATM   13  O1  UNL     1     -14.684 -27.354 -25.362  1.00  0.00    -0.171 OA
BRANCH  13  14
HETATM   14  C4  UNL     1     -15.960 -27.361 -25.948  1.00  0.00     0.355 C 
HETATM   15  O2  UNL     1     -16.009 -27.922 -27.092  1.00  0.00    -0.622 OA
HETATM   16  O3  UNL     1     -17.067 -26.810 -25.342  1.00  0.00    -0.622 OA
ENDBRANCH  13  14
ENDBRANCH  11  13
ENDBRANCH  10  11
BRANCH   1  17
HETATM   17  N1  UNL     1     -13.387 -29.493 -27.269  1.00  0.00    -0.382 N 
ATOM     18  H12 UNL     1     -13.294 -30.384 -27.756  1.00  0.00     0.157 HD
ATOM     19  H11 UNL     1     -14.230 -28.927 -27.365  1.00  0.00     0.157 HD
ENDBRANCH   1  17
TORSDOF 4
ENDMDL
MODEL 5
REMARK VINA RESULT: -6.577120151      3.507      4.641
REMARK  4 active torsions:
REMARK  status: ('A' for Active; 'I' for Inactive)
REMARK    1  A    between atoms: N1_1  and  C1_4 
REMARK    2  A    between atoms: C3_13  and  N6_14 
REMARK    3  A    between atoms: N6_14  and  O1_16 
REMARK    4  A    between atoms: O1_16  and  C4_17 
ROOT
HETATM    1  C1  UNL     1     -12.052 -28.050 -27.183  1.00  0.00     0.149 A 
HETATM    2  N2  UNL     1     -10.844 -28.084 -26.607  1.00  0.00    -0.313 N 
ATOM      3  H2  UNL     1     -10.119 -27.445 -26.935  1.00  0.00     0.170 HD
HETATM    4  C2  UNL     1     -10.560 -28.939 -25.605  1.00  0.00     0.208 A 
HETATM    5  N3  UNL     1      -9.274 -28.972 -24.994  1.00  0.00    -0.062 NA
HETATM    6  N4  UNL     1     -11.556 -29.757 -25.215  1.00  0.00    -0.272 N 
ATOM      7  H4  UNL     1     -11.377 -30.417 -24.458  1.00  0.00     0.189 HD
HETATM    8  N5  UNL     1     -12.758 -29.743 -25.769  1.00  0.00    -0.279 N 
ATOM      9  H5  UNL     1     -13.471 -30.387 -25.429  1.00  0.00     0.189 HD
HETATM   10  C3  UNL     1     -13.061 -28.895 -26.771  1.00  0.00     0.185 A 
ENDROOT
BRANCH  10  11
HETATM   11  N6  UNL     1     -14.217 -28.847 -27.338  1.00  0.00    -0.234 N 
ATOM     12  H6  UNL     1     -14.472 -29.541 -28.040  1.00  0.00     0.197 HD
BRANCH  11  13
HETATM   13  O1  UNL     1     -15.107 -27.854 -26.993  1.00  0.00    -0.171 OA
BRANCH  13  14
HETATM   14  C4  UNL     1     -16.283 -28.139 -26.281  1.00  0.00     0.355 C 
HETATM   15  O2  UNL     1     -16.995 -27.116 -26.012  1.00  0.00    -0.622 OA
HETATM   16  O3  UNL     1     -16.640 -29.414 -25.903  1.00  0.00    -0.622 OA
ENDBRANCH  13  14
ENDBRANCH  11  13
ENDBRANCH  10  11
BRANCH   1  17
HETATM   17  N1  UNL     1     -12.299 -27.222 -28.141  1.00  0.00    -0.382 N 
ATOM     18  H12 UNL     1     -13.250 -27.176 -28.508  1.00  0.00     0.157 HD
ATOM     19  H11 UNL     1     -11.560 -26.630 -28.519  1.00  0.00     0.157 HD
ENDBRANCH   1  17
TORSDOF 4
ENDMDL
