MODEL 1
REMARK VINA RESULT: -7.384098717      0.000      0.000
REMARK  3 active torsions:
REMARK  status: ('A' for Active; 'I' for Inactive)
REMARK       I    between atoms: C1_2  and  N1_3 
REMARK    1  A    between atoms: C1_2  and  C3_15 
REMARK    2  A    between atoms: N1_3  and  N2_5 
REMARK    3  A    between atoms: N2_5  and  C2_7 
ROOT
HETATM    1  O1  UNL     1     -13.413 -27.381 -27.094  1.00  0.00    -0.263 OA
HETATM    2  C1  UNL     1     -14.139 -28.100 -26.367  1.00  0.00     0.305 C 
HETATM    3  N1  UNL     1     -13.664 -29.395 -25.982  1.00  0.00    -0.249 N 
ATOM      4  H1  UNL     1     -14.261 -29.972 -25.391  1.00  0.00     0.191 HD
ENDROOT
BRANCH   3   5
HETATM    5  N2  UNL     1     -12.447 -29.902 -26.368  1.00  0.00    -0.127 N 
ATOM      6  H2  UNL     1     -12.455 -30.641 -27.070  1.00  0.00     0.206 HD
BRANCH   5   7
HETATM    7  C2  UNL     1     -11.309 -29.534 -25.929  1.00  0.00     0.725 A 
HETATM    8  N3  UNL     1     -10.658 -28.439 -26.393  1.00  0.00    -0.117 N 
HETATM    9  N4  UNL     1      -9.522 -28.310 -25.761  1.00  0.00    -0.211 N 
ATOM     10  H3  UNL     1     -11.001 -27.813 -27.123  1.00  0.00     0.207 HD
HETATM   11  N5  UNL     1      -9.416 -29.300 -24.893  1.00  0.00     0.009 NA
ATOM     12  H4  UNL     1      -8.836 -27.571 -25.912  1.00  0.00     0.206 HD
HETATM   13  N6  UNL     1     -10.502 -30.050 -24.991  1.00  0.00    -0.112 N 
ATOM     14  H6  UNL     1     -10.695 -30.887 -24.441  1.00  0.00     0.203 HD
ENDBRANCH   5   7
ENDBRANCH   3   5
BRANCH   2  15
HETATM   15  C3  UNL     1     -15.428 -27.593 -25.944  1.00  0.00     0.192 A 
HETATM   16  N7  UNL     1     -16.649 -27.830 -26.480  1.00  0.00    -0.280 N 
HETATM   17  N8  UNL     1     -17.565 -27.175 -25.797  1.00  0.00    -0.294 N 
ATOM     18  H7  UNL     1     -16.831 -28.424 -27.289  1.00  0.00     0.188 HD
HETATM   19  C4  UNL     1     -16.958 -26.498 -24.800  1.00  0.00     0.199 A 
ATOM     20  H8  UNL     1     -18.567 -27.179 -25.989  1.00  0.00     0.187 HD
HETATM   21  N9  UNL     1     -15.660 -26.767 -24.910  1.00  0.00    -0.332 N 
ATOM     22  H9  UNL     1     -14.937 -26.396 -24.292  1.00  0.00     0.168 HD
ENDBRANCH   2  15
TORSDOF 3
ENDMDL
MODEL 2
REMARK VINA RESULT: -7.378502862      1.284      1.284
REMARK  3 active torsions:
REMARK  status: ('A' for Active; 'I' for Inactive)
REMARK       I    between atoms: C1_2  and  N1_3 
REMARK    1  A    between atoms: C1_2  and  C3_15 
REMARK    2  A    between atoms: N1_3  and  N2_5 
REMARK    3  A    between atoms: N2_5  and  C2_7 
ROOT
HETATM    1  O1  UNL     1     -14.310 -27.649 -26.376  1.00  0.00    -0.263 OA
HETATM    2  C1  UNL     1     -14.666 -28.582 -25.618  1.00  0.00     0.305 C 
HETATM    3  N1  UNL     1     -13.787 -29.699 -25.438  1.00  0.00    -0.249 N 
ATOM      4  H1  UNL     1     -14.084 -30.452 -24.819  1.00  0.00     0.191 HD
ENDROOT
BRANCH   3   5
HETATM    5  N2  UNL     1     -12.564 -29.809 -26.055  1.00  0.00    -0.127 N 
ATOM      6  H2  UNL     1     -12.543 -30.276 -26.961  1.00  0.00     0.206 HD
BRANCH   5   7
HETATM    7  C2  UNL     1     -11.454 -29.380 -25.598  1.00  0.00     0.725 A 
HETATM    8  N3  UNL     1     -11.255 -28.090 -25.232  1.00  0.00    -0.117 N 
HETATM    9  N4  UNL     1     -10.029 -27.946 -24.805  1.00  0.00    -0.211 N 
ATOM     10  H3  UNL     1     -11.954 -27.348 -25.283  1.00  0.00     0.207 HD
HETATM   11  N5  UNL     1      -9.421 -29.115 -24.886  1.00  0.00     0.009 NA
ATOM     12  H4  UNL     1      -9.614 -27.078 -24.467  1.00  0.00     0.206 HD
HETATM   13  N6  UNL     1     -10.285 -29.994 -25.369  1.00  0.00    -0.112 N 
ATOM     14  H6  UNL     1     -10.091 -30.981 -25.540  1.00  0.00     0.203 HD
ENDBRANCH   5   7
ENDBRANCH   3   5
BRANCH   2  15
HETATM   15  C3  UNL     1     -15.950 -28.495 -24.953  1.00  0.00     0.192 A 
HETATM   16  N7  UNL     1     -17.066 -29.231 -25.169  1.00  0.00    -0.280 N 
HETATM   17  N8  UNL     1     -18.020 -28.833 -24.352  1.00  0.00    -0.294 N 
ATOM     18  H7  UNL     1     -17.156 -29.977 -25.858  1.00  0.00     0.188 HD
HETATM   19  C4  UNL     1     -17.543 -27.831 -23.586  1.00  0.00     0.199 A 
ATOM     20  H8  UNL     1     -18.963 -29.220 -24.306  1.00  0.00     0.187 HD
HETATM   21  N9  UNL     1     -16.283 -27.643 -23.970  1.00  0.00    -0.332 N 
ATOM     22  H9  UNL     1     -15.654 -26.945 -23.571  1.00  0.00     0.168 HD
ENDBRANCH   2  15
TORSDOF 3
ENDMDL
MODEL 3
REMARK VINA RESULT: -7.162598488      2.033      2.465
REMARK  3 active torsions:
REMARK  status: ('A' for Active; 'I' for Inactive)
REMARK       I    between atoms: C1_2  and  N1_3 
REMARK    1  A    between atoms: C1_2  and  C3_15 
REMARK    2  A    between atoms: N1_3  and  N2_5 
REMARK    3  A    between atoms: N2_5  and  C2_7 
ROOT
HETATM    1  O1  UNL     1     -15.188 -29.502 -25.811  1.00  0.00    -0.263 OA
HETATM    2  C1  UNL     1     -15.242 -28.425 -25.171  1.00  0.00     0.305 C 
HETATM    3  N1  UNL     1     -14.018 -27.765 -24.829  1.00  0.00    -0.249 N 
ATOM      4  H1  UNL     1     -14.071 -26.890 -24.309  1.00  0.00     0.191 HD
ENDROOT
BRANCH   3   5
HETATM    5  N2  UNL     1     -12.776 -28.247 -25.164  1.00  0.00    -0.127 N 
ATOM      6  H2  UNL     1     -12.212 -28.638 -24.410  1.00  0.00     0.206 HD
BRANCH   5   7
HETATM    7  C2  UNL     1     -12.264 -28.250 -26.331  1.00  0.00     0.725 A 
HETATM    8  N3  UNL     1     -12.271 -29.340 -27.137  1.00  0.00    -0.117 N 
HETATM    9  N4  UNL     1     -11.679 -29.049 -28.265  1.00  0.00    -0.211 N 
ATOM     10  H3  UNL     1     -12.675 -30.247 -26.900  1.00  0.00     0.207 HD
HETATM   11  N5  UNL     1     -11.283 -27.790 -28.212  1.00  0.00     0.009 NA
ATOM     12  H4  UNL     1     -11.546 -29.685 -29.050  1.00  0.00     0.206 HD
HETATM   13  N6  UNL     1     -11.637 -27.298 -27.035  1.00  0.00    -0.112 N 
ATOM     14  H6  UNL     1     -11.460 -26.345 -26.715  1.00  0.00     0.203 HD
ENDBRANCH   5   7
ENDBRANCH   3   5
BRANCH   2  15
HETATM   15  C3  UNL     1     -16.537 -27.892 -24.803  1.00  0.00     0.192 A 
HETATM   16  N7  UNL     1     -17.334 -27.048 -25.499  1.00  0.00    -0.280 N 
HETATM   17  N8  UNL     1     -18.430 -26.806 -24.809  1.00  0.00    -0.294 N 
ATOM     18  H7  UNL     1     -17.120 -26.659 -26.418  1.00  0.00     0.188 HD
HETATM   19  C4  UNL     1     -18.368 -27.489 -23.648  1.00  0.00     0.199 A 
ATOM     20  H8  UNL     1     -19.198 -26.203 -25.104  1.00  0.00     0.187 HD
HETATM   21  N9  UNL     1     -17.208 -28.142 -23.666  1.00  0.00    -0.332 N 
ATOM     22  H9  UNL     1     -16.874 -28.749 -22.918  1.00  0.00     0.168 HD
ENDBRANCH   2  15
TORSDOF 3
ENDMDL
MODEL 4
REMARK VINA RESULT: -7.161706039      1.154      1.392
REMARK  3 active torsions:
REMARK  status: ('A' for Active; 'I' for Inactive)
REMARK       I    between atoms: C1_2  and  N1_3 
REMARK    1  A    between atoms: C1_2  and  C3_15 
REMARK    2  A    between atoms: N1_3  and  N2_5 
REMARK    3  A    between atoms: N2_5  and  C2_7 
ROOT
HETATM    1  O1  UNL     1     -13.859 -29.294 -26.761  1.00  0.00    -0.263 OA
HETATM    2  C1  UNL     1     -14.014 -28.076 -26.506  1.00  0.00     0.305 C 
HETATM    3  N1  UNL     1     -12.890 -27.197 -26.631  1.00  0.00    -0.249 N 
ATOM      4  H1  UNL     1     -13.026 -26.208 -26.422  1.00  0.00     0.191 HD
ENDROOT
BRANCH   3   5
HETATM    5  N2  UNL     1     -11.640 -27.614 -27.019  1.00  0.00    -0.127 N 
ATOM      6  H2  UNL     1     -11.306 -27.295 -27.928  1.00  0.00     0.206 HD
BRANCH   5   7
HETATM    7  C2  UNL     1     -10.859 -28.363 -26.346  1.00  0.00     0.725 A 
HETATM    8  N3  UNL     1     -10.626 -29.660 -26.663  1.00  0.00    -0.117 N 
HETATM    9  N4  UNL     1      -9.789 -30.173 -25.801  1.00  0.00    -0.211 N 
ATOM     10  H3  UNL     1     -11.040 -30.159 -27.451  1.00  0.00     0.207 HD
HETATM   11  N5  UNL     1      -9.470 -29.237 -24.925  1.00  0.00     0.009 NA
ATOM     12  H4  UNL     1      -9.441 -31.131 -25.805  1.00  0.00     0.206 HD
HETATM   13  N6  UNL     1     -10.120 -28.131 -25.252  1.00  0.00    -0.112 N 
ATOM     14  H6  UNL     1     -10.067 -27.244 -24.751  1.00  0.00     0.203 HD
ENDBRANCH   5   7
ENDBRANCH   3   5
BRANCH   2  15
HETATM   15  C3  UNL     1     -15.321 -27.606 -26.095  1.00  0.00     0.192 A 
HETATM   16  N7  UNL     1     -16.523 -27.831 -26.675  1.00  0.00    -0.280 N 
HETATM   17  N8  UNL     1     -17.466 -27.221 -25.987  1.00  0.00    -0.294 N 
ATOM     18  H7  UNL     1     -16.675 -28.386 -27.517  1.00  0.00     0.188 HD
HETATM   19  C4  UNL     1     -16.896 -26.587 -24.942  1.00  0.00     0.199 A 
ATOM     20  H8  UNL     1     -18.462 -27.228 -26.207  1.00  0.00     0.187 HD
HETATM   21  N9  UNL     1     -15.592 -26.835 -25.028  1.00  0.00    -0.332 N 
ATOM     22  H9  UNL     1     -14.891 -26.487 -24.373  1.00  0.00     0.168 HD
ENDBRANCH   2  15
TORSDOF 3
ENDMDL
MODEL 5
REMARK VINA RESULT: -7.145883791      1.564      1.807
REMARK  3 active torsions:
REMARK  status: ('A' for Active; 'I' for Inactive)
REMARK       I    between atoms: C1_2  and  N1_3 
REMARK    1  A    between atoms: C1_2  and  C3_15 
REMARK    2  A    between atoms: N1_3  and  N2_5 
REMARK    3  A    between atoms: N2_5  and  C2_7 
ROOT
HETATM    1  O1  UNL     1     -14.485 -29.282 -26.582  1.00  0.00    -0.263 OA
HETATM    2  C1  UNL     1     -14.659 -28.506 -25.613  1.00  0.00     0.305 C 
HETATM    3  N1  UNL     1     -13.575 -27.669 -25.197  1.00  0.00    -0.249 N 
ATOM      4  H1  UNL     1     -13.725 -27.041 -24.408  1.00  0.00     0.191 HD
ENDROOT
BRANCH   3   5
HETATM    5  N2  UNL     1     -12.341 -27.667 -25.803  1.00  0.00    -0.127 N 
ATOM      6  H2  UNL     1     -12.221 -27.050 -26.605  1.00  0.00     0.206 HD
BRANCH   5   7
HETATM    7  C2  UNL     1     -11.335 -28.365 -25.453  1.00  0.00     0.725 A 
HETATM    8  N3  UNL     1     -11.363 -29.719 -25.385  1.00  0.00    -0.117 N 
HETATM    9  N4  UNL     1     -10.194 -30.157 -25.000  1.00  0.00    -0.211 N 
ATOM     10  H3  UNL     1     -12.171 -30.304 -25.600  1.00  0.00     0.207 HD
HETATM   11  N5  UNL     1      -9.401 -29.117 -24.813  1.00  0.00     0.009 NA
ATOM     12  H4  UNL     1      -9.938 -31.135 -24.867  1.00  0.00     0.206 HD
HETATM   13  N6  UNL     1     -10.091 -28.022 -25.087  1.00  0.00    -0.112 N 
ATOM     14  H6  UNL     1      -9.734 -27.068 -25.029  1.00  0.00     0.203 HD
ENDBRANCH   5   7
ENDBRANCH   3   5
BRANCH   2  15
HETATM   15  C3  UNL     1     -15.948 -28.486 -24.953  1.00  0.00     0.192 A 
HETATM   16  N7  UNL     1     -17.035 -29.257 -25.194  1.00  0.00    -0.280 N 
HETATM   17  N8  UNL     1     -18.006 -28.918 -24.372  1.00  0.00    -0.294 N 
ATOM     18  H7  UNL     1     -17.093 -29.988 -25.903  1.00  0.00     0.188 HD
HETATM   19  C4  UNL     1     -17.571 -27.919 -23.578  1.00  0.00     0.199 A 
ATOM     20  H8  UNL     1     -18.934 -29.342 -24.341  1.00  0.00     0.187 HD
HETATM   21  N9  UNL     1     -16.318 -27.673 -23.949  1.00  0.00    -0.332 N 
ATOM     22  H9  UNL     1     -15.718 -26.963 -23.529  1.00  0.00     0.168 HD
ENDBRANCH   2  15
TORSDOF 3
ENDMDL
