MODEL 1
REMARK VINA RESULT: -6.795720633      0.000      0.000
REMARK  7 active torsions:
REMARK  status: ('A' for Active; 'I' for Inactive)
REMARK    1  A    between atoms: C3_3  and  C5_5 
REMARK    2  A    between atoms: C5_5  and  N1_6 
REMARK    3  A    between atoms: N1_6  and  C6_8 
REMARK    4  A    between atoms: C6_8  and  N2_10 
REMARK    5  A    between atoms: N2_10  and  N3_12 
REMARK    6  A    between atoms: N3_12  and  C7_13 
REMARK    7  A    between atoms: C7_13  and  C8_14 
ROOT
HETATM    1  C1  UNL     1      -4.967 -25.774  -2.428  1.00  0.00     0.012 C 
HETATM    2  C2  UNL     1      -6.017 -25.984  -2.981  1.00  0.00    -0.108 C 
HETATM    3  C3  UNL     1      -7.348 -26.273  -3.651  1.00  0.00     0.098 C 
HETATM    4  C4  UNL     1      -7.076 -26.692  -5.056  1.00  0.00     0.029 C 
ENDROOT
BRANCH   3   5
HETATM    5  C5  UNL     1      -8.045 -27.207  -2.762  1.00  0.00     0.080 C 
BRANCH   5   6
HETATM    6  N1  UNL     1      -8.779 -26.706  -1.686  1.00  0.00    -0.345 N 
ATOM      7  H1  UNL     1      -9.786 -26.727  -1.852  1.00  0.00     0.167 HD
BRANCH   6   8
HETATM    8  C6  UNL     1      -8.451 -26.180  -0.430  1.00  0.00     0.187 C 
HETATM    9  S1  UNL     1      -7.306 -26.765   0.558  1.00  0.00    -0.040 SA
BRANCH   8  10
HETATM   10  N2  UNL     1      -9.129 -25.015   0.001  1.00  0.00    -0.280 N 
ATOM     11  H2  UNL     1      -9.876 -24.696  -0.616  1.00  0.00     0.184 HD
BRANCH  10  12
HETATM   12  N3  UNL     1      -8.933 -24.249   1.128  1.00  0.00    -0.133 NA
BRANCH  12  13
HETATM   13  C7  UNL     1     -10.054 -24.518   2.081  1.00  0.00     0.192 C 
BRANCH  13  14
HETATM   14  C8  UNL     1      -9.484 -25.428   3.151  1.00  0.00     0.025 A 
HETATM   15  C9  UNL     1     -10.073 -26.564   3.567  1.00  0.00     0.026 A 
HETATM   16  C10 UNL     1      -9.403 -27.303   4.548  1.00  0.00     0.003 A 
HETATM   17  C11 UNL     1      -8.194 -26.868   5.052  1.00  0.00     0.017 A 
HETATM   18  C12 UNL     1      -7.634 -25.703   4.601  1.00  0.00     0.088 A 
HETATM   19  N4  UNL     1      -8.288 -25.017   3.668  1.00  0.00    -0.368 N 
ATOM     20  H4  UNL     1      -7.880 -24.147   3.324  1.00  0.00     0.165 HD
ENDBRANCH  13  14
ENDBRANCH  12  13
ENDBRANCH  10  12
ENDBRANCH   8  10
ENDBRANCH   6   8
ENDBRANCH   5   6
ENDBRANCH   3   5
TORSDOF 7
ENDMDL
MODEL 2
REMARK VINA RESULT: -6.766935671      1.619      2.148
REMARK  7 active torsions:
REMARK  status: ('A' for Active; 'I' for Inactive)
REMARK    1  A    between atoms: C3_3  and  C5_5 
REMARK    2  A    between atoms: C5_5  and  N1_6 
REMARK    3  A    between atoms: N1_6  and  C6_8 
REMARK    4  A    between atoms: C6_8  and  N2_10 
REMARK    5  A    between atoms: N2_10  and  N3_12 
REMARK    6  A    between atoms: N3_12  and  C7_13 
REMARK    7  A    between atoms: C7_13  and  C8_14 
ROOT
HETATM    1  C1  UNL     1      -6.342 -28.767  -2.370  1.00  0.00     0.012 C 
HETATM    2  C2  UNL     1      -5.950 -27.689  -2.000  1.00  0.00    -0.108 C 
HETATM    3  C3  UNL     1      -5.487 -26.327  -1.516  1.00  0.00     0.098 C 
HETATM    4  C4  UNL     1      -5.161 -25.498  -2.712  1.00  0.00     0.029 C 
ENDROOT
BRANCH   3   5
HETATM    5  C5  UNL     1      -6.528 -25.858  -0.598  1.00  0.00     0.080 C 
BRANCH   5   6
HETATM    6  N1  UNL     1      -7.789 -25.534  -1.104  1.00  0.00    -0.345 N 
ATOM      7  H1  UNL     1      -7.741 -24.909  -1.909  1.00  0.00     0.167 HD
BRANCH   6   8
HETATM    8  C6  UNL     1      -9.104 -25.869  -0.759  1.00  0.00     0.187 C 
HETATM    9  S1  UNL     1      -9.868 -27.228  -1.202  1.00  0.00    -0.040 SA
BRANCH   8  10
HETATM   10  N2  UNL     1      -9.816 -24.984   0.085  1.00  0.00    -0.280 N 
ATOM     11  H2  UNL     1     -10.806 -24.876  -0.138  1.00  0.00     0.184 HD
BRANCH  10  12
HETATM   12  N3  UNL     1      -9.374 -24.248   1.161  1.00  0.00    -0.133 NA
BRANCH  12  13
HETATM   13  C7  UNL     1     -10.259 -24.547   2.330  1.00  0.00     0.192 C 
BRANCH  13  14
HETATM   14  C8  UNL     1      -9.405 -25.326   3.311  1.00  0.00     0.025 A 
HETATM   15  C9  UNL     1      -8.100 -25.085   3.532  1.00  0.00     0.026 A 
HETATM   16  C10 UNL     1      -7.461 -25.880   4.489  1.00  0.00     0.003 A 
HETATM   17  C11 UNL     1      -8.157 -26.862   5.164  1.00  0.00     0.017 A 
HETATM   18  C12 UNL     1      -9.484 -27.075   4.904  1.00  0.00     0.088 A 
HETATM   19  N4  UNL     1     -10.071 -26.307   3.990  1.00  0.00    -0.368 N 
ATOM     20  H4  UNL     1     -11.060 -26.456   3.788  1.00  0.00     0.165 HD
ENDBRANCH  13  14
ENDBRANCH  12  13
ENDBRANCH  10  12
ENDBRANCH   8  10
ENDBRANCH   6   8
ENDBRANCH   5   6
ENDBRANCH   3   5
TORSDOF 7
ENDMDL
MODEL 3
REMARK VINA RESULT: -6.685837437      2.002      6.192
REMARK  7 active torsions:
REMARK  status: ('A' for Active; 'I' for Inactive)
REMARK    1  A    between atoms: C3_3  and  C5_5 
REMARK    2  A    between atoms: C5_5  and  N1_6 
REMARK    3  A    between atoms: N1_6  and  C6_8 
REMARK    4  A    between atoms: C6_8  and  N2_10 
REMARK    5  A    between atoms: N2_10  and  N3_12 
REMARK    6  A    between atoms: N3_12  and  C7_13 
REMARK    7  A    between atoms: C7_13  and  C8_14 
ROOT
HETATM    1  C1  UNL     1      -6.969 -24.635   3.208  1.00  0.00     0.012 C 
HETATM    2  C2  UNL     1      -8.161 -24.815   3.208  1.00  0.00    -0.108 C 
HETATM    3  C3  UNL     1      -9.656 -25.077   3.219  1.00  0.00     0.098 C 
HETATM    4  C4  UNL     1     -10.200 -24.695   1.884  1.00  0.00     0.029 C 
ENDROOT
BRANCH   3   5
HETATM    5  C5  UNL     1      -9.812 -26.463   3.671  1.00  0.00     0.080 C 
BRANCH   5   6
HETATM    6  N1  UNL     1      -9.815 -27.492   2.728  1.00  0.00    -0.345 N 
ATOM      7  H1  UNL     1     -10.729 -27.625   2.293  1.00  0.00     0.167 HD
BRANCH   6   8
HETATM    8  C6  UNL     1      -8.852 -28.385   2.243  1.00  0.00     0.187 C 
HETATM    9  S1  UNL     1      -9.140 -29.913   1.784  1.00  0.00    -0.040 SA
BRANCH   8  10
HETATM   10  N2  UNL     1      -7.527 -27.913   2.087  1.00  0.00    -0.280 N 
ATOM     11  H2  UNL     1      -6.993 -27.827   2.952  1.00  0.00     0.184 HD
BRANCH  10  12
HETATM   12  N3  UNL     1      -6.850 -27.553   0.943  1.00  0.00    -0.133 NA
BRANCH  12  13
HETATM   13  C7  UNL     1      -7.740 -26.665   0.131  1.00  0.00     0.192 C 
BRANCH  13  14
HETATM   14  C8  UNL     1      -6.933 -26.270  -1.090  1.00  0.00     0.025 A 
HETATM   15  C9  UNL     1      -5.619 -25.981  -1.065  1.00  0.00     0.026 A 
HETATM   16  C10 UNL     1      -5.017 -25.658  -2.285  1.00  0.00     0.003 A 
HETATM   17  C11 UNL     1      -5.756 -25.642  -3.451  1.00  0.00     0.017 A 
HETATM   18  C12 UNL     1      -7.092 -25.940  -3.428  1.00  0.00     0.088 A 
HETATM   19  N4  UNL     1      -7.644 -26.245  -2.257  1.00  0.00    -0.368 N 
ATOM     20  H4  UNL     1      -8.639 -26.469  -2.228  1.00  0.00     0.165 HD
ENDBRANCH  13  14
ENDBRANCH  12  13
ENDBRANCH  10  12
ENDBRANCH   8  10
ENDBRANCH   6   8
ENDBRANCH   5   6
ENDBRANCH   3   5
TORSDOF 7
ENDMDL
MODEL 4
REMARK VINA RESULT: -6.507444897      2.131      3.057
REMARK  7 active torsions:
REMARK  status: ('A' for Active; 'I' for Inactive)
REMARK    1  A    between atoms: C3_3  and  C5_5 
REMARK    2  A    between atoms: C5_5  and  N1_6 
REMARK    3  A    between atoms: N1_6  and  C6_8 
REMARK    4  A    between atoms: C6_8  and  N2_10 
REMARK    5  A    between atoms: N2_10  and  N3_12 
REMARK    6  A    between atoms: N3_12  and  C7_13 
REMARK    7  A    between atoms: C7_13  and  C8_14 
ROOT
HETATM    1  C1  UNL     1      -7.711 -29.648  -1.560  1.00  0.00     0.012 C 
HETATM    2  C2  UNL     1      -8.072 -29.120  -0.539  1.00  0.00    -0.108 C 
HETATM    3  C3  UNL     1      -8.492 -28.441   0.752  1.00  0.00     0.098 C 
HETATM    4  C4  UNL     1      -9.044 -29.485   1.663  1.00  0.00     0.029 C 
ENDROOT
BRANCH   3   5
HETATM    5  C5  UNL     1      -7.327 -27.669   1.193  1.00  0.00     0.080 C 
BRANCH   5   6
HETATM    6  N1  UNL     1      -7.044 -26.449   0.576  1.00  0.00    -0.345 N 
ATOM      7  H1  UNL     1      -6.156 -26.050   0.881  1.00  0.00     0.167 HD
BRANCH   6   8
HETATM    8  C6  UNL     1      -7.701 -25.646  -0.365  1.00  0.00     0.187 C 
HETATM    9  S1  UNL     1      -7.382 -25.619  -1.954  1.00  0.00    -0.040 SA
BRANCH   8  10
HETATM   10  N2  UNL     1      -8.762 -24.826   0.086  1.00  0.00    -0.280 N 
ATOM     11  H2  UNL     1      -9.558 -24.760  -0.549  1.00  0.00     0.184 HD
BRANCH  10  12
HETATM   12  N3  UNL     1      -8.882 -24.105   1.253  1.00  0.00    -0.133 NA
BRANCH  12  13
HETATM   13  C7  UNL     1     -10.051 -24.641   2.017  1.00  0.00     0.192 C 
BRANCH  13  14
HETATM   14  C8  UNL     1      -9.468 -25.476   3.140  1.00  0.00     0.025 A 
HETATM   15  C9  UNL     1     -10.070 -26.559   3.665  1.00  0.00     0.026 A 
HETATM   16  C10 UNL     1      -9.387 -27.235   4.682  1.00  0.00     0.003 A 
HETATM   17  C11 UNL     1      -8.152 -26.793   5.112  1.00  0.00     0.017 A 
HETATM   18  C12 UNL     1      -7.579 -25.684   4.550  1.00  0.00     0.088 A 
HETATM   19  N4  UNL     1      -8.246 -25.057   3.585  1.00  0.00    -0.368 N 
ATOM     20  H4  UNL     1      -7.829 -24.230   3.160  1.00  0.00     0.165 HD
ENDBRANCH  13  14
ENDBRANCH  12  13
ENDBRANCH  10  12
ENDBRANCH   8  10
ENDBRANCH   6   8
ENDBRANCH   5   6
ENDBRANCH   3   5
TORSDOF 7
ENDMDL
MODEL 5
REMARK VINA RESULT: -6.458498724      2.098      6.291
REMARK  7 active torsions:
REMARK  status: ('A' for Active; 'I' for Inactive)
REMARK    1  A    between atoms: C3_3  and  C5_5 
REMARK    2  A    between atoms: C5_5  and  N1_6 
REMARK    3  A    between atoms: N1_6  and  C6_8 
REMARK    4  A    between atoms: C6_8  and  N2_10 
REMARK    5  A    between atoms: N2_10  and  N3_12 
REMARK    6  A    between atoms: N3_12  and  C7_13 
REMARK    7  A    between atoms: C7_13  and  C8_14 
ROOT
HETATM    1  C1  UNL     1     -10.217 -24.538   2.049  1.00  0.00     0.012 C 
HETATM    2  C2  UNL     1      -9.062 -24.712   2.347  1.00  0.00    -0.108 C 
HETATM    3  C3  UNL     1      -7.604 -24.955   2.693  1.00  0.00     0.098 C 
HETATM    4  C4  UNL     1      -7.538 -25.432   4.104  1.00  0.00     0.029 C 
ENDROOT
BRANCH   3   5
HETATM    5  C5  UNL     1      -7.084 -25.822   1.632  1.00  0.00     0.080 C 
BRANCH   5   6
HETATM    6  N1  UNL     1      -7.212 -27.207   1.760  1.00  0.00    -0.345 N 
ATOM      7  H1  UNL     1      -6.362 -27.650   2.110  1.00  0.00     0.167 HD
BRANCH   6   8
HETATM    8  C6  UNL     1      -8.239 -28.127   1.517  1.00  0.00     0.187 C 
HETATM    9  S1  UNL     1      -9.337 -28.611   2.606  1.00  0.00    -0.040 SA
BRANCH   8  10
HETATM   10  N2  UNL     1      -8.371 -28.645   0.206  1.00  0.00    -0.280 N 
ATOM     11  H2  UNL     1      -7.602 -29.238  -0.105  1.00  0.00     0.184 HD
BRANCH  10  12
HETATM   12  N3  UNL     1      -9.382 -28.468  -0.712  1.00  0.00    -0.133 NA
BRANCH  12  13
HETATM   13  C7  UNL     1      -9.543 -27.000  -0.956  1.00  0.00     0.192 C 
BRANCH  13  14
HETATM   14  C8  UNL     1      -8.521 -26.639  -2.016  1.00  0.00     0.025 A 
HETATM   15  C9  UNL     1      -7.582 -25.687  -1.865  1.00  0.00     0.026 A 
HETATM   16  C10 UNL     1      -6.698 -25.492  -2.931  1.00  0.00     0.003 A 
HETATM   17  C11 UNL     1      -6.802 -26.254  -4.077  1.00  0.00     0.017 A 
HETATM   18  C12 UNL     1      -7.776 -27.210  -4.189  1.00  0.00     0.088 A 
HETATM   19  N4  UNL     1      -8.605 -27.378  -3.162  1.00  0.00    -0.368 N 
ATOM     20  H4  UNL     1      -9.335 -28.087  -3.234  1.00  0.00     0.165 HD
ENDBRANCH  13  14
ENDBRANCH  12  13
ENDBRANCH  10  12
ENDBRANCH   8  10
ENDBRANCH   6   8
ENDBRANCH   5   6
ENDBRANCH   3   5
TORSDOF 7
ENDMDL
