MODEL 1
REMARK VINA RESULT: -6.994836839      0.000      0.000
REMARK  8 active torsions:
REMARK  status: ('A' for Active; 'I' for Inactive)
REMARK    1  A    between atoms: C2_2  and  C3_3 
REMARK    2  A    between atoms: C3_3  and  N1_4 
REMARK    3  A    between atoms: C3_3  and  C4_8 
REMARK    4  A    between atoms: C4_8  and  O1_9 
REMARK    5  A    between atoms: C4_8  and  C5_11 
REMARK    6  A    between atoms: C5_11  and  O2_12 
REMARK    7  A    between atoms: C5_11  and  C6_14 
REMARK    8  A    between atoms: C6_14  and  C7_15 
ROOT
HETATM    1  C5  UNL     1      -8.264 -27.807  -0.769  1.00  0.00     0.162 C 
ENDROOT
BRANCH   1   2
HETATM    2  C4  UNL     1      -6.991 -27.256  -0.277  1.00  0.00     0.178 C 
BRANCH   2   3
HETATM    3  C3  UNL     1      -6.643 -25.867  -0.783  1.00  0.00     0.214 C 
BRANCH   3   4
HETATM    4  C2  UNL     1      -5.222 -25.826  -1.323  1.00  0.00     0.031 C 
HETATM    5  C1  UNL     1      -5.333 -25.646  -2.823  1.00  0.00     0.007 C 
ENDBRANCH   3   4
BRANCH   3   6
HETATM    6  N1  UNL     1      -7.472 -25.365  -1.821  1.00  0.00    -0.072 N 
ATOM      7  H13 UNL     1      -8.275 -24.837  -1.480  1.00  0.00     0.274 HD
ATOM      8  H12 UNL     1      -7.044 -24.608  -2.354  1.00  0.00     0.274 HD
ATOM      9  H11 UNL     1      -7.728 -26.170  -2.392  1.00  0.00     0.274 HD
ENDBRANCH   3   6
ENDBRANCH   2   3
BRANCH   2  10
HETATM   10  O1  UNL     1      -6.590 -27.487   0.992  1.00  0.00    -0.391 OA
ATOM     11  H1  UNL     1      -5.658 -27.647   1.074  1.00  0.00     0.210 HD
ENDBRANCH   2  10
ENDBRANCH   1   2
BRANCH   1  12
HETATM   12  O2  UNL     1      -7.942 -29.128  -1.257  1.00  0.00    -0.392 OA
ATOM     13  H2  UNL     1      -8.568 -29.297  -1.952  1.00  0.00     0.210 HD
ENDBRANCH   1  12
BRANCH   1  14
HETATM   14  C6  UNL     1      -9.383 -28.078   0.174  1.00  0.00     0.015 A 
HETATM   15  C13 UNL     1     -10.709 -28.329  -0.595  1.00  0.00     0.018 A 
HETATM   16  C14 UNL     1     -10.106 -29.285   0.414  1.00  0.00     0.018 A 
BRANCH  14  17
HETATM   17  C7  UNL     1      -9.642 -26.890   1.078  1.00  0.00    -0.047 A 
HETATM   18  C8  UNL     1      -9.620 -27.050   2.447  1.00  0.00     0.008 A 
HETATM   19  C9  UNL     1      -9.849 -25.992   3.326  1.00  0.00     0.001 A 
HETATM   20  C10 UNL     1     -10.105 -24.754   2.825  1.00  0.00     0.000 A 
HETATM   21  C11 UNL     1     -10.138 -24.551   1.470  1.00  0.00     0.001 A 
HETATM   22  C12 UNL     1      -9.903 -25.630   0.633  1.00  0.00     0.008 A 
ENDBRANCH  14  17
ENDBRANCH   1  14
TORSDOF 8
ENDMDL
MODEL 2
REMARK VINA RESULT: -6.862681652      2.237      5.191
REMARK  8 active torsions:
REMARK  status: ('A' for Active; 'I' for Inactive)
REMARK    1  A    between atoms: C2_2  and  C3_3 
REMARK    2  A    between atoms: C3_3  and  N1_4 
REMARK    3  A    between atoms: C3_3  and  C4_8 
REMARK    4  A    between atoms: C4_8  and  O1_9 
REMARK    5  A    between atoms: C4_8  and  C5_11 
REMARK    6  A    between atoms: C5_11  and  O2_12 
REMARK    7  A    between atoms: C5_11  and  C6_14 
REMARK    8  A    between atoms: C6_14  and  C7_15 
ROOT
HETATM    1  C5  UNL     1      -7.516 -26.208   1.481  1.00  0.00     0.162 C 
ENDROOT
BRANCH   1   2
HETATM    2  C4  UNL     1      -7.774 -25.452   2.717  1.00  0.00     0.178 C 
BRANCH   2   3
HETATM    3  C3  UNL     1      -8.965 -25.924   3.533  1.00  0.00     0.214 C 
BRANCH   3   4
HETATM    4  C2  UNL     1      -8.539 -26.315   4.939  1.00  0.00     0.031 C 
HETATM    5  C1  UNL     1      -9.181 -27.656   5.230  1.00  0.00     0.007 C 
ENDBRANCH   3   4
BRANCH   3   6
HETATM    6  N1  UNL     1     -10.016 -24.981   3.689  1.00  0.00    -0.072 N 
ATOM      7  H13 UNL     1     -10.597 -25.152   4.510  1.00  0.00     0.274 HD
ATOM      8  H12 UNL     1      -9.693 -24.052   3.956  1.00  0.00     0.274 HD
ATOM      9  H11 UNL     1     -10.538 -24.993   2.813  1.00  0.00     0.274 HD
ENDBRANCH   3   6
ENDBRANCH   2   3
BRANCH   2  10
HETATM   10  O1  UNL     1      -6.748 -24.999   3.468  1.00  0.00    -0.391 OA
ATOM     11  H1  UNL     1      -7.023 -24.518   4.240  1.00  0.00     0.210 HD
ENDBRANCH   2  10
ENDBRANCH   1   2
BRANCH   1  12
HETATM   12  O2  UNL     1      -8.017 -27.539   1.739  1.00  0.00    -0.392 OA
ATOM     13  H2  UNL     1      -7.806 -28.041   0.960  1.00  0.00     0.210 HD
ENDBRANCH   1  12
BRANCH   1  14
HETATM   14  C6  UNL     1      -8.210 -25.845   0.216  1.00  0.00     0.015 A 
HETATM   15  C13 UNL     1      -9.250 -26.929  -0.178  1.00  0.00     0.018 A 
HETATM   16  C14 UNL     1      -9.567 -25.458  -0.005  1.00  0.00     0.018 A 
BRANCH  14  17
HETATM   17  C7  UNL     1      -7.238 -25.757  -0.942  1.00  0.00    -0.047 A 
HETATM   18  C8  UNL     1      -5.886 -25.900  -0.718  1.00  0.00     0.008 A 
HETATM   19  C9  UNL     1      -4.947 -25.830  -1.747  1.00  0.00     0.001 A 
HETATM   20  C10 UNL     1      -5.370 -25.615  -3.020  1.00  0.00     0.000 A 
HETATM   21  C11 UNL     1      -6.707 -25.467  -3.288  1.00  0.00     0.001 A 
HETATM   22  C12 UNL     1      -7.605 -25.544  -2.236  1.00  0.00     0.008 A 
ENDBRANCH  14  17
ENDBRANCH   1  14
TORSDOF 8
ENDMDL
MODEL 3
REMARK VINA RESULT: -6.820232934      2.301      5.263
REMARK  8 active torsions:
REMARK  status: ('A' for Active; 'I' for Inactive)
REMARK    1  A    between atoms: C2_2  and  C3_3 
REMARK    2  A    between atoms: C3_3  and  N1_4 
REMARK    3  A    between atoms: C3_3  and  C4_8 
REMARK    4  A    between atoms: C4_8  and  O1_9 
REMARK    5  A    between atoms: C4_8  and  C5_11 
REMARK    6  A    between atoms: C5_11  and  O2_12 
REMARK    7  A    between atoms: C5_11  and  C6_14 
REMARK    8  A    between atoms: C6_14  and  C7_15 
ROOT
HETATM    1  C5  UNL     1      -8.095 -25.625   1.785  1.00  0.00     0.162 C 
ENDROOT
BRANCH   1   2
HETATM    2  C4  UNL     1      -9.021 -25.517   2.924  1.00  0.00     0.178 C 
BRANCH   2   3
HETATM    3  C3  UNL     1      -8.384 -25.649   4.297  1.00  0.00     0.214 C 
BRANCH   3   4
HETATM    4  C2  UNL     1      -8.686 -27.009   4.907  1.00  0.00     0.031 C 
HETATM    5  C1  UNL     1     -10.004 -27.467   4.317  1.00  0.00     0.007 C 
ENDBRANCH   3   4
BRANCH   3   6
HETATM    6  N1  UNL     1      -6.971 -25.507   4.336  1.00  0.00    -0.072 N 
ATOM      7  H13 UNL     1      -6.559 -25.793   5.224  1.00  0.00     0.274 HD
ATOM      8  H12 UNL     1      -6.478 -26.178   3.748  1.00  0.00     0.274 HD
ATOM      9  H11 UNL     1      -6.779 -24.536   4.092  1.00  0.00     0.274 HD
ENDBRANCH   3   6
ENDBRANCH   2   3
BRANCH   2  10
HETATM   10  O1  UNL     1     -10.053 -24.647   2.887  1.00  0.00    -0.391 OA
ATOM     11  H1  UNL     1      -9.811 -23.759   3.124  1.00  0.00     0.210 HD
ENDBRANCH   2  10
ENDBRANCH   1   2
BRANCH   1  12
HETATM   12  O2  UNL     1      -7.479 -26.925   1.920  1.00  0.00    -0.392 OA
ATOM     13  H2  UNL     1      -7.993 -27.379   2.577  1.00  0.00     0.210 HD
ENDBRANCH   1  12
BRANCH   1  14
HETATM   14  C6  UNL     1      -8.615 -25.659   0.392  1.00  0.00     0.015 A 
HETATM   15  C13 UNL     1      -9.430 -26.956   0.135  1.00  0.00     0.018 A 
HETATM   16  C14 UNL     1      -9.956 -25.554  -0.088  1.00  0.00     0.018 A 
BRANCH  14  17
HETATM   17  C7  UNL     1      -7.486 -25.667  -0.618  1.00  0.00    -0.047 A 
HETATM   18  C8  UNL     1      -7.761 -25.498  -1.958  1.00  0.00     0.008 A 
HETATM   19  C9  UNL     1      -6.762 -25.493  -2.931  1.00  0.00     0.001 A 
HETATM   20  C10 UNL     1      -5.467 -25.661  -2.555  1.00  0.00     0.000 A 
HETATM   21  C11 UNL     1      -5.148 -25.833  -1.232  1.00  0.00     0.001 A 
HETATM   22  C12 UNL     1      -6.173 -25.830  -0.299  1.00  0.00     0.008 A 
ENDBRANCH  14  17
ENDBRANCH   1  14
TORSDOF 8
ENDMDL
MODEL 4
REMARK VINA RESULT: -6.817440508      1.686      1.860
REMARK  8 active torsions:
REMARK  status: ('A' for Active; 'I' for Inactive)
REMARK    1  A    between atoms: C2_2  and  C3_3 
REMARK    2  A    between atoms: C3_3  and  N1_4 
REMARK    3  A    between atoms: C3_3  and  C4_8 
REMARK    4  A    between atoms: C4_8  and  O1_9 
REMARK    5  A    between atoms: C4_8  and  C5_11 
REMARK    6  A    between atoms: C5_11  and  O2_12 
REMARK    7  A    between atoms: C5_11  and  C6_14 
REMARK    8  A    between atoms: C6_14  and  C7_15 
ROOT
HETATM    1  C5  UNL     1      -8.919 -26.920  -2.304  1.00  0.00     0.162 C 
ENDROOT
BRANCH   1   2
HETATM    2  C4  UNL     1      -7.679 -26.213  -1.948  1.00  0.00     0.178 C 
BRANCH   2   3
HETATM    3  C3  UNL     1      -6.401 -26.819  -2.502  1.00  0.00     0.214 C 
BRANCH   3   4
HETATM    4  C2  UNL     1      -5.334 -25.753  -2.697  1.00  0.00     0.031 C 
HETATM    5  C1  UNL     1      -4.533 -25.701  -1.413  1.00  0.00     0.007 C 
ENDBRANCH   3   4
BRANCH   3   6
HETATM    6  N1  UNL     1      -5.803 -27.831  -1.705  1.00  0.00    -0.072 N 
ATOM      7  H13 UNL     1      -6.147 -27.849  -0.745  1.00  0.00     0.274 HD
ATOM      8  H12 UNL     1      -6.096 -28.774  -1.959  1.00  0.00     0.274 HD
ATOM      9  H11 UNL     1      -4.797 -27.686  -1.773  1.00  0.00     0.274 HD
ENDBRANCH   3   6
ENDBRANCH   2   3
BRANCH   2  10
HETATM   10  O1  UNL     1      -7.655 -24.865  -1.882  1.00  0.00    -0.391 OA
ATOM     11  H1  UNL     1      -7.117 -24.526  -1.175  1.00  0.00     0.210 HD
ENDBRANCH   2  10
ENDBRANCH   1   2
BRANCH   1  12
HETATM   12  O2  UNL     1      -8.501 -28.025  -3.135  1.00  0.00    -0.392 OA
ATOM     13  H2  UNL     1      -8.630 -28.801  -2.604  1.00  0.00     0.210 HD
ENDBRANCH   1  12
BRANCH   1  14
HETATM   14  C6  UNL     1      -9.728 -27.597  -1.255  1.00  0.00     0.015 A 
HETATM   15  C13 UNL     1     -11.196 -27.793  -1.725  1.00  0.00     0.018 A 
HETATM   16  C14 UNL     1     -10.294 -28.908  -1.239  1.00  0.00     0.018 A 
BRANCH  14  17
HETATM   17  C7  UNL     1      -9.802 -26.766   0.009  1.00  0.00    -0.047 A 
HETATM   18  C8  UNL     1      -9.545 -27.347   1.231  1.00  0.00     0.008 A 
HETATM   19  C9  UNL     1      -9.595 -26.629   2.426  1.00  0.00     0.001 A 
HETATM   20  C10 UNL     1      -9.909 -25.307   2.395  1.00  0.00     0.000 A 
HETATM   21  C11 UNL     1     -10.172 -24.688   1.200  1.00  0.00     0.001 A 
HETATM   22  C12 UNL     1     -10.109 -25.439   0.038  1.00  0.00     0.008 A 
ENDBRANCH  14  17
ENDBRANCH   1  14
TORSDOF 8
ENDMDL
MODEL 5
REMARK VINA RESULT: -6.776732148      1.395      1.659
REMARK  8 active torsions:
REMARK  status: ('A' for Active; 'I' for Inactive)
REMARK    1  A    between atoms: C2_2  and  C3_3 
REMARK    2  A    between atoms: C3_3  and  N1_4 
REMARK    3  A    between atoms: C3_3  and  C4_8 
REMARK    4  A    between atoms: C4_8  and  O1_9 
REMARK    5  A    between atoms: C4_8  and  C5_11 
REMARK    6  A    between atoms: C5_11  and  O2_12 
REMARK    7  A    between atoms: C5_11  and  C6_14 
REMARK    8  A    between atoms: C6_14  and  C7_15 
ROOT
HETATM    1  C5  UNL     1      -9.098 -27.300  -2.489  1.00  0.00     0.162 C 
ENDROOT
BRANCH   1   2
HETATM    2  C4  UNL     1      -7.638 -27.247  -2.304  1.00  0.00     0.178 C 
BRANCH   2   3
HETATM    3  C3  UNL     1      -7.041 -25.853  -2.237  1.00  0.00     0.214 C 
BRANCH   3   4
HETATM    4  C2  UNL     1      -5.858 -25.814  -1.282  1.00  0.00     0.031 C 
HETATM    5  C1  UNL     1      -4.616 -25.655  -2.134  1.00  0.00     0.007 C 
ENDBRANCH   3   4
BRANCH   3   6
HETATM    6  N1  UNL     1      -6.567 -25.326  -3.469  1.00  0.00    -0.072 N 
ATOM      7  H13 UNL     1      -6.099 -26.018  -4.053  1.00  0.00     0.274 HD
ATOM      8  H12 UNL     1      -7.312 -25.095  -4.125  1.00  0.00     0.274 HD
ATOM      9  H11 UNL     1      -5.977 -24.531  -3.227  1.00  0.00     0.274 HD
ENDBRANCH   3   6
ENDBRANCH   2   3
BRANCH   2  10
HETATM   10  O1  UNL     1      -7.017 -28.142  -1.506  1.00  0.00    -0.391 OA
ATOM     11  H1  UNL     1      -6.069 -28.092  -1.542  1.00  0.00     0.210 HD
ENDBRANCH   2  10
ENDBRANCH   1   2
BRANCH   1  12
HETATM   12  O2  UNL     1      -9.311 -28.257  -3.550  1.00  0.00    -0.392 OA
ATOM     13  H2  UNL     1      -8.493 -28.281  -4.033  1.00  0.00     0.210 HD
ENDBRANCH   1  12
BRANCH   1  14
HETATM   14  C6  UNL     1      -9.976 -27.821  -1.407  1.00  0.00     0.015 A 
HETATM   15  C13 UNL     1     -11.462 -27.838  -1.858  1.00  0.00     0.018 A 
HETATM   16  C14 UNL     1     -10.711 -29.044  -1.333  1.00  0.00     0.018 A 
BRANCH  14  17
HETATM   17  C7  UNL     1      -9.922 -26.938  -0.177  1.00  0.00    -0.047 A 
HETATM   18  C8  UNL     1      -9.722 -27.499   1.065  1.00  0.00     0.008 A 
HETATM   19  C9  UNL     1      -9.661 -26.734   2.229  1.00  0.00     0.001 A 
HETATM   20  C10 UNL     1      -9.802 -25.385   2.147  1.00  0.00     0.000 A 
HETATM   21  C11 UNL     1     -10.002 -24.785   0.930  1.00  0.00     0.001 A 
HETATM   22  C12 UNL     1     -10.055 -25.583  -0.200  1.00  0.00     0.008 A 
ENDBRANCH  14  17
ENDBRANCH   1  14
TORSDOF 8
ENDMDL
