MODEL 1
REMARK VINA RESULT: -7.454236081      0.000      0.000
REMARK  6 active torsions:
REMARK  status: ('A' for Active; 'I' for Inactive)
REMARK    1  A    between atoms: C2_2  and  C4_5 
REMARK    2  A    between atoms: C4_5  and  N3_9 
REMARK    3  A    between atoms: N3_9  and  C5_11 
REMARK    4  A    between atoms: C5_11  and  C6_12 
REMARK    5  A    between atoms: C5_11  and  C7_14 
REMARK    6  A    between atoms: C10_17  and  C11_18 
ROOT
HETATM    1  C1  UNL     1      -7.107 -24.696   2.835  1.00  0.00     0.033 C 
HETATM    2  C2  UNL     1      -8.269 -24.940   3.743  1.00  0.00     0.155 C 
HETATM    3  C3  UNL     1      -7.917 -25.988   4.728  1.00  0.00     0.071 C 
HETATM    4  N1  UNL     1      -7.632 -26.812   5.486  1.00  0.00    -0.196 NA
ENDROOT
BRANCH   2   5
HETATM    5  C4  UNL     1      -9.481 -25.389   3.039  1.00  0.00     0.089 C 
HETATM    6  N2  UNL     1     -10.341 -24.529   2.653  1.00  0.00    -0.388 N 
ATOM      7  H22 UNL     1     -10.191 -23.536   2.829  1.00  0.00     0.157 HD
ATOM      8  H21 UNL     1     -11.181 -24.840   2.166  1.00  0.00     0.157 HD
BRANCH   5   9
HETATM    9  N3  UNL     1      -9.687 -26.761   2.795  1.00  0.00    -0.364 N 
ATOM     10  H3  UNL     1      -9.671 -27.400   3.591  1.00  0.00     0.162 HD
BRANCH   9  11
HETATM   11  C5  UNL     1      -9.919 -27.310   1.491  1.00  0.00     0.177 C 
BRANCH  11  12
HETATM   12  C6  UNL     1      -9.896 -28.789   1.528  1.00  0.00     0.261 C 
HETATM   13  O1  UNL     1     -10.640 -29.395   0.778  1.00  0.00    -0.304 OA
ENDBRANCH  11  12
BRANCH  11  14
HETATM   14  C7  UNL     1      -8.861 -26.891   0.516  1.00  0.00    -0.029 A 
HETATM   15  C8  UNL     1      -7.624 -27.502   0.486  1.00  0.00     0.011 A 
HETATM   16  C9  UNL     1      -6.648 -27.120  -0.409  1.00  0.00     0.017 A 
HETATM   17  C10 UNL     1      -6.869 -26.099  -1.324  1.00  0.00     0.029 A 
HETATM   18  C12 UNL     1      -8.107 -25.497  -1.285  1.00  0.00     0.017 A 
HETATM   19  C13 UNL     1      -9.086 -25.877  -0.390  1.00  0.00     0.011 A 
BRANCH  17  20
HETATM   20  C11 UNL     1      -5.852 -25.681  -2.278  1.00  0.00     0.264 C 
HETATM   21  N4  UNL     1      -6.250 -25.437  -3.615  1.00  0.00    -0.057 NA
HETATM   22  O2  UNL     1      -4.649 -25.526  -1.983  1.00  0.00    -0.271 OA
ENDBRANCH  17  20
ENDBRANCH  11  14
ENDBRANCH   9  11
ENDBRANCH   5   9
ENDBRANCH   2   5
TORSDOF 6
ENDMDL
MODEL 2
REMARK VINA RESULT: -7.408446081      2.529      3.176
REMARK  6 active torsions:
REMARK  status: ('A' for Active; 'I' for Inactive)
REMARK    1  A    between atoms: C2_2  and  C4_5 
REMARK    2  A    between atoms: C4_5  and  N3_9 
REMARK    3  A    between atoms: N3_9  and  C5_11 
REMARK    4  A    between atoms: C5_11  and  C6_12 
REMARK    5  A    between atoms: C5_11  and  C7_14 
REMARK    6  A    between atoms: C10_17  and  C11_18 
ROOT
HETATM    1  C1  UNL     1      -9.674 -27.210   2.964  1.00  0.00     0.033 C 
HETATM    2  C2  UNL     1      -8.201 -27.020   3.132  1.00  0.00     0.155 C 
HETATM    3  C3  UNL     1      -7.931 -26.378   4.438  1.00  0.00     0.071 C 
HETATM    4  N1  UNL     1      -7.733 -25.869   5.457  1.00  0.00    -0.196 NA
ENDROOT
BRANCH   2   5
HETATM    5  C4  UNL     1      -7.595 -26.173   2.092  1.00  0.00     0.089 C 
HETATM    6  N2  UNL     1      -6.937 -25.134   2.430  1.00  0.00    -0.388 N 
ATOM      7  H22 UNL     1      -6.829 -24.890   3.415  1.00  0.00     0.157 HD
ATOM      8  H21 UNL     1      -6.517 -24.546   1.710  1.00  0.00     0.157 HD
BRANCH   5   9
HETATM    9  N3  UNL     1      -7.745 -26.510   0.733  1.00  0.00    -0.364 N 
ATOM     10  H3  UNL     1      -7.479 -27.449   0.437  1.00  0.00     0.162 HD
BRANCH   9  11
HETATM   11  C5  UNL     1      -8.250 -25.605  -0.259  1.00  0.00     0.177 C 
BRANCH  11  12
HETATM   12  C6  UNL     1      -9.729 -25.586  -0.252  1.00  0.00     0.261 C 
HETATM   13  O1  UNL     1     -10.290 -24.642   0.276  1.00  0.00    -0.304 OA
ENDBRANCH  11  12
BRANCH  11  14
HETATM   14  C7  UNL     1      -7.834 -26.008  -1.641  1.00  0.00    -0.029 A 
HETATM   15  C8  UNL     1      -8.562 -26.921  -2.376  1.00  0.00     0.011 A 
HETATM   16  C9  UNL     1      -8.184 -27.294  -3.649  1.00  0.00     0.017 A 
HETATM   17  C10 UNL     1      -7.049 -26.763  -4.248  1.00  0.00     0.029 A 
HETATM   18  C12 UNL     1      -6.331 -25.853  -3.505  1.00  0.00     0.017 A 
HETATM   19  C13 UNL     1      -6.707 -25.478  -2.231  1.00  0.00     0.011 A 
BRANCH  17  20
HETATM   20  C11 UNL     1      -6.632 -27.143  -5.589  1.00  0.00     0.264 C 
HETATM   21  N4  UNL     1      -7.298 -26.549  -6.689  1.00  0.00    -0.057 NA
HETATM   22  O2  UNL     1      -5.721 -27.963  -5.825  1.00  0.00    -0.271 OA
ENDBRANCH  17  20
ENDBRANCH  11  14
ENDBRANCH   9  11
ENDBRANCH   5   9
ENDBRANCH   2   5
TORSDOF 6
ENDMDL
MODEL 3
REMARK VINA RESULT: -7.405774534      2.525      3.160
REMARK  6 active torsions:
REMARK  status: ('A' for Active; 'I' for Inactive)
REMARK    1  A    between atoms: C2_2  and  C4_5 
REMARK    2  A    between atoms: C4_5  and  N3_9 
REMARK    3  A    between atoms: N3_9  and  C5_11 
REMARK    4  A    between atoms: C5_11  and  C6_12 
REMARK    5  A    between atoms: C5_11  and  C7_14 
REMARK    6  A    between atoms: C10_17  and  C11_18 
ROOT
HETATM    1  C1  UNL     1      -9.671 -27.215   2.969  1.00  0.00     0.033 C 
HETATM    2  C2  UNL     1      -8.197 -27.025   3.134  1.00  0.00     0.155 C 
HETATM    3  C3  UNL     1      -7.924 -26.383   4.439  1.00  0.00     0.071 C 
HETATM    4  N1  UNL     1      -7.724 -25.875   5.458  1.00  0.00    -0.196 NA
ENDROOT
BRANCH   2   5
HETATM    5  C4  UNL     1      -7.594 -26.177   2.093  1.00  0.00     0.089 C 
HETATM    6  N2  UNL     1      -6.936 -25.137   2.430  1.00  0.00    -0.388 N 
ATOM      7  H22 UNL     1      -6.826 -24.894   3.414  1.00  0.00     0.157 HD
ATOM      8  H21 UNL     1      -6.518 -24.549   1.709  1.00  0.00     0.157 HD
BRANCH   5   9
HETATM    9  N3  UNL     1      -7.745 -26.514   0.733  1.00  0.00    -0.364 N 
ATOM     10  H3  UNL     1      -7.483 -27.455   0.438  1.00  0.00     0.162 HD
BRANCH   9  11
HETATM   11  C5  UNL     1      -8.246 -25.608  -0.258  1.00  0.00     0.177 C 
BRANCH  11  12
HETATM   12  C6  UNL     1      -9.725 -25.593  -0.261  1.00  0.00     0.261 C 
HETATM   13  O1  UNL     1     -10.292 -24.658   0.278  1.00  0.00    -0.304 OA
ENDBRANCH  11  12
BRANCH  11  14
HETATM   14  C7  UNL     1      -7.821 -26.005  -1.639  1.00  0.00    -0.029 A 
HETATM   15  C8  UNL     1      -6.696 -25.467  -2.231  1.00  0.00     0.011 A 
HETATM   16  C9  UNL     1      -6.302 -25.830  -3.502  1.00  0.00     0.017 A 
HETATM   17  C10 UNL     1      -7.023 -26.756  -4.243  1.00  0.00     0.029 A 
HETATM   18  C12 UNL     1      -8.143 -27.286  -3.642  1.00  0.00     0.017 A 
HETATM   19  C13 UNL     1      -8.540 -26.925  -2.371  1.00  0.00     0.011 A 
BRANCH  17  20
HETATM   20  C11 UNL     1      -6.623 -27.153  -5.585  1.00  0.00     0.264 C 
HETATM   21  N4  UNL     1      -7.283 -26.551  -6.684  1.00  0.00    -0.057 NA
HETATM   22  O2  UNL     1      -5.732 -27.994  -5.821  1.00  0.00    -0.271 OA
ENDBRANCH  17  20
ENDBRANCH  11  14
ENDBRANCH   9  11
ENDBRANCH   5   9
ENDBRANCH   2   5
TORSDOF 6
ENDMDL
MODEL 4
REMARK VINA RESULT: -7.146980175      2.439      5.675
REMARK  6 active torsions:
REMARK  status: ('A' for Active; 'I' for Inactive)
REMARK    1  A    between atoms: C2_2  and  C4_5 
REMARK    2  A    between atoms: C4_5  and  N3_9 
REMARK    3  A    between atoms: N3_9  and  C5_11 
REMARK    4  A    between atoms: C5_11  and  C6_12 
REMARK    5  A    between atoms: C5_11  and  C7_14 
REMARK    6  A    between atoms: C10_17  and  C11_18 
ROOT
HETATM    1  C1  UNL     1     -11.085 -27.613  -1.998  1.00  0.00     0.033 C 
HETATM    2  C2  UNL     1      -9.842 -27.203  -1.276  1.00  0.00     0.155 C 
HETATM    3  C3  UNL     1     -10.067 -25.905  -0.600  1.00  0.00     0.071 C 
HETATM    4  N1  UNL     1     -10.254 -24.889  -0.083  1.00  0.00    -0.196 NA
ENDROOT
BRANCH   2   5
HETATM    5  C4  UNL     1      -8.675 -27.041  -2.159  1.00  0.00     0.089 C 
HETATM    6  N2  UNL     1      -8.661 -27.617  -3.297  1.00  0.00    -0.388 N 
ATOM      7  H22 UNL     1      -9.453 -28.187  -3.596  1.00  0.00     0.157 HD
ATOM      8  H21 UNL     1      -7.853 -27.506  -3.909  1.00  0.00     0.157 HD
BRANCH   5   9
HETATM    9  N3  UNL     1      -7.583 -26.254  -1.746  1.00  0.00    -0.364 N 
ATOM     10  H3  UNL     1      -7.514 -25.300  -2.101  1.00  0.00     0.162 HD
BRANCH   9  11
HETATM   11  C5  UNL     1      -6.561 -26.720  -0.854  1.00  0.00     0.177 C 
BRANCH  11  12
HETATM   12  C6  UNL     1      -6.236 -28.138  -1.118  1.00  0.00     0.261 C 
HETATM   13  O1  UNL     1      -5.681 -28.416  -2.167  1.00  0.00    -0.304 OA
ENDBRANCH  11  12
BRANCH  11  14
HETATM   14  C7  UNL     1      -6.995 -26.641   0.577  1.00  0.00    -0.029 A 
HETATM   15  C8  UNL     1      -6.960 -25.452   1.279  1.00  0.00     0.011 A 
HETATM   16  C9  UNL     1      -7.359 -25.375   2.596  1.00  0.00     0.017 A 
HETATM   17  C10 UNL     1      -7.816 -26.496   3.277  1.00  0.00     0.029 A 
HETATM   18  C12 UNL     1      -7.848 -27.675   2.568  1.00  0.00     0.017 A 
HETATM   19  C13 UNL     1      -7.448 -27.756   1.249  1.00  0.00     0.011 A 
BRANCH  17  20
HETATM   20  C11 UNL     1      -8.242 -26.436   4.667  1.00  0.00     0.264 C 
HETATM   21  N4  UNL     1      -9.215 -27.366   5.110  1.00  0.00    -0.057 NA
HETATM   22  O2  UNL     1      -7.799 -25.609   5.492  1.00  0.00    -0.271 OA
ENDBRANCH  17  20
ENDBRANCH  11  14
ENDBRANCH   9  11
ENDBRANCH   5   9
ENDBRANCH   2   5
TORSDOF 6
ENDMDL
MODEL 5
REMARK VINA RESULT: -7.106474689      1.732      1.952
REMARK  6 active torsions:
REMARK  status: ('A' for Active; 'I' for Inactive)
REMARK    1  A    between atoms: C2_2  and  C4_5 
REMARK    2  A    between atoms: C4_5  and  N3_9 
REMARK    3  A    between atoms: N3_9  and  C5_11 
REMARK    4  A    between atoms: C5_11  and  C6_12 
REMARK    5  A    between atoms: C5_11  and  C7_14 
REMARK    6  A    between atoms: C10_17  and  C11_18 
ROOT
HETATM    1  C1  UNL     1      -6.876 -25.069   2.416  1.00  0.00     0.033 C 
HETATM    2  C2  UNL     1      -7.972 -24.820   3.402  1.00  0.00     0.155 C 
HETATM    3  C3  UNL     1      -7.821 -25.738   4.553  1.00  0.00     0.071 C 
HETATM    4  N1  UNL     1      -7.697 -26.464   5.443  1.00  0.00    -0.196 NA
ENDROOT
BRANCH   2   5
HETATM    5  C4  UNL     1      -9.320 -25.030   2.847  1.00  0.00     0.089 C 
HETATM    6  N2  UNL     1     -10.317 -25.137   3.636  1.00  0.00    -0.388 N 
ATOM      7  H22 UNL     1     -10.183 -25.076   4.645  1.00  0.00     0.157 HD
ATOM      8  H21 UNL     1     -11.250 -25.282   3.252  1.00  0.00     0.157 HD
BRANCH   5   9
HETATM    9  N3  UNL     1      -9.503 -25.113   1.453  1.00  0.00    -0.364 N 
ATOM     10  H3  UNL     1      -9.401 -24.261   0.902  1.00  0.00     0.162 HD
BRANCH   9  11
HETATM   11  C5  UNL     1      -9.825 -26.329   0.765  1.00  0.00     0.177 C 
BRANCH  11  12
HETATM   12  C6  UNL     1      -9.393 -27.508   1.547  1.00  0.00     0.261 C 
HETATM   13  O1  UNL     1     -10.220 -28.368   1.798  1.00  0.00    -0.304 OA
ENDBRANCH  11  12
BRANCH  11  14
HETATM   14  C7  UNL     1      -9.132 -26.419  -0.560  1.00  0.00    -0.029 A 
HETATM   15  C8  UNL     1      -8.103 -25.563  -0.896  1.00  0.00     0.011 A 
HETATM   16  C9  UNL     1      -7.462 -25.642  -2.114  1.00  0.00     0.017 A 
HETATM   17  C10 UNL     1      -7.827 -26.592  -3.059  1.00  0.00     0.029 A 
HETATM   18  C12 UNL     1      -8.854 -27.440  -2.713  1.00  0.00     0.017 A 
HETATM   19  C13 UNL     1      -9.498 -27.363  -1.495  1.00  0.00     0.011 A 
BRANCH  17  20
HETATM   20  C11 UNL     1      -7.163 -26.692  -4.351  1.00  0.00     0.264 C 
HETATM   21  N4  UNL     1      -5.929 -27.385  -4.416  1.00  0.00    -0.057 NA
HETATM   22  O2  UNL     1      -7.620 -26.201  -5.403  1.00  0.00    -0.271 OA
ENDBRANCH  17  20
ENDBRANCH  11  14
ENDBRANCH   9  11
ENDBRANCH   5   9
ENDBRANCH   2   5
TORSDOF 6
ENDMDL
