MODEL 1
REMARK VINA RESULT: -9.716999964      0.000      0.000
REMARK  11 active torsions:
REMARK  status: ('A' for Active; 'I' for Inactive)
REMARK    1  A    between atoms: C2_2  and  C3_3 
REMARK    2  A    between atoms: C3_3  and  C4_4 
REMARK    3  A    between atoms: C4_4  and  C5_5 
REMARK    4  A    between atoms: C5_5  and  N1_6 
REMARK    5  A    between atoms: C10_13  and  N3_14 
REMARK       I    between atoms: N3_14  and  C11_16 
REMARK    6  A    between atoms: C11_16  and  C12_18 
REMARK    7  A    between atoms: C12_18  and  S1_19 
REMARK    8  A    between atoms: S1_19  and  C13_20 
REMARK    9  A    between atoms: C13_20  and  C14_21 
REMARK       I    between atoms: C14_21  and  N4_23 
REMARK   10  A    between atoms: N4_23  and  C15_25 
REMARK   11  A    between atoms: C15_25  and  C16_26 
ROOT
HETATM    1  N3  UNL     1      -3.847  -4.811 -21.268  1.00  0.00    -0.323 N 
ATOM      2  H3  UNL     1      -4.460  -5.042 -20.486  1.00  0.00     0.169 HD
HETATM    3  C11 UNL     1      -2.849  -5.726 -21.601  1.00  0.00     0.231 C 
HETATM    4  O2  UNL     1      -2.040  -5.553 -22.514  1.00  0.00    -0.272 OA
ENDROOT
BRANCH   1   5
HETATM    5  C10 UNL     1      -4.071  -3.591 -21.933  1.00  0.00     0.086 C 
HETATM    6  C9  UNL     1      -5.155  -3.525 -22.778  1.00  0.00     0.043 C 
HETATM    7  C8  UNL     1      -5.172  -2.910 -24.040  1.00  0.00    -0.026 C 
HETATM    8  C7  UNL     1      -4.350  -1.859 -24.414  1.00  0.00     0.072 A 
HETATM    9  C26 UNL     1      -6.149  -3.466 -24.976  1.00  0.00     0.042 C 
HETATM   10  N2  UNL     1      -4.423  -1.297 -25.644  1.00  0.00    -0.297 N 
HETATM   11  C25 UNL     1      -3.361  -1.178 -23.714  1.00  0.00     0.070 A 
HETATM   12  C6  UNL     1      -3.508  -0.312 -25.680  1.00  0.00     0.330 A 
HETATM   13  C28 UNL     1      -5.378  -1.809 -26.610  1.00  0.00     0.134 C 
HETATM   14  N1  UNL     1      -2.856  -0.228 -24.510  1.00  0.00    -0.297 N 
HETATM   15  O1  UNL     1      -3.283   0.441 -26.667  1.00  0.00    -0.246 OA
HETATM   16  C27 UNL     1      -6.615  -2.356 -25.905  1.00  0.00     0.025 C 
HETATM   17  C24 UNL     1      -2.927  -1.401 -22.420  1.00  0.00     0.089 C 
HETATM   18  C23 UNL     1      -3.182  -2.528 -21.663  1.00  0.00     0.200 C 
HETATM   19  O5  UNL     1      -2.560  -2.642 -20.606  1.00  0.00    -0.286 OA
BRANCH  14  20
HETATM   20  C5  UNL     1      -1.779   0.752 -24.222  1.00  0.00     0.134 C 
BRANCH  20  21
HETATM   21  C4  UNL     1      -0.531   0.279 -24.907  1.00  0.00     0.020 C 
BRANCH  21  22
HETATM   22  C3  UNL     1       0.264  -0.792 -24.307  1.00  0.00     0.001 C 
BRANCH  22  23
HETATM   23  C2  UNL     1       1.235  -0.488 -23.221  1.00  0.00    -0.004 C 
HETATM   24  C1  UNL     1       0.699  -0.763 -21.849  1.00  0.00     0.005 C 
ENDBRANCH  22  23
ENDBRANCH  21  22
ENDBRANCH  20  21
ENDBRANCH  14  20
ENDBRANCH   1   5
BRANCH   3  25
HETATM   25  C12 UNL     1      -2.734  -7.011 -20.807  1.00  0.00     0.177 C 
BRANCH  25  26
HETATM   26  S1  UNL     1      -3.708  -6.856 -19.327  1.00  0.00    -0.150 SA
BRANCH  26  27
HETATM   27  C13 UNL     1      -3.040  -7.880 -18.009  1.00  0.00     0.177 C 
BRANCH  27  28
HETATM   28  C14 UNL     1      -1.641  -7.579 -17.634  1.00  0.00     0.227 C 
HETATM   29  O3  UNL     1      -0.862  -8.580 -17.466  1.00  0.00    -0.273 OA
HETATM   30  N4  UNL     1      -1.109  -6.278 -17.455  1.00  0.00    -0.356 N 
ATOM     31  H4  UNL     1      -1.751  -5.497 -17.592  1.00  0.00     0.162 HD
BRANCH  30  32
HETATM   32  C15 UNL     1       0.223  -5.954 -17.105  1.00  0.00     0.167 C 
BRANCH  32  33
HETATM   33  C16 UNL     1       0.871  -4.758 -17.641  1.00  0.00     0.033 A 
HETATM   34  C17 UNL     1       1.912  -4.181 -16.862  1.00  0.00    -0.047 A 
HETATM   35  C18 UNL     1       2.250  -4.821 -15.563  1.00  0.00     0.049 C 
HETATM   36  C19 UNL     1       2.557  -3.079 -17.330  1.00  0.00     0.032 A 
HETATM   37  C20 UNL     1       2.269  -2.467 -18.529  1.00  0.00     0.009 A 
HETATM   38  C21 UNL     1       3.018  -1.247 -18.959  1.00  0.00     0.068 C 
HETATM   39  N5  UNL     1       1.289  -3.025 -19.248  1.00  0.00    -0.327 N 
HETATM   40  C22 UNL     1       0.620  -4.130 -18.816  1.00  0.00     0.254 A 
ATOM     41  H5  UNL     1       1.036  -2.611 -20.146  1.00  0.00     0.169 HD
HETATM   42  O4  UNL     1      -0.268  -4.529 -19.623  1.00  0.00    -0.268 OA
ENDBRANCH  32  33
ENDBRANCH  30  32
ENDBRANCH  27  28
ENDBRANCH  26  27
ENDBRANCH  25  26
ENDBRANCH   3  25
TORSDOF 11
ENDMDL
MODEL 2
REMARK VINA RESULT: -9.692680983      1.310      3.510
REMARK  11 active torsions:
REMARK  status: ('A' for Active; 'I' for Inactive)
REMARK    1  A    between atoms: C2_2  and  C3_3 
REMARK    2  A    between atoms: C3_3  and  C4_4 
REMARK    3  A    between atoms: C4_4  and  C5_5 
REMARK    4  A    between atoms: C5_5  and  N1_6 
REMARK    5  A    between atoms: C10_13  and  N3_14 
REMARK       I    between atoms: N3_14  and  C11_16 
REMARK    6  A    between atoms: C11_16  and  C12_18 
REMARK    7  A    between atoms: C12_18  and  S1_19 
REMARK    8  A    between atoms: S1_19  and  C13_20 
REMARK    9  A    between atoms: C13_20  and  C14_21 
REMARK       I    between atoms: C14_21  and  N4_23 
REMARK   10  A    between atoms: N4_23  and  C15_25 
REMARK   11  A    between atoms: C15_25  and  C16_26 
ROOT
HETATM    1  N3  UNL     1      -3.490  -4.452 -20.603  1.00  0.00    -0.323 N 
ATOM      2  H3  UNL     1      -3.773  -3.921 -19.780  1.00  0.00     0.169 HD
HETATM    3  C11 UNL     1      -3.375  -5.836 -20.472  1.00  0.00     0.231 C 
HETATM    4  O2  UNL     1      -3.026  -6.582 -21.388  1.00  0.00    -0.272 OA
ENDROOT
BRANCH   1   5
HETATM    5  C10 UNL     1      -3.242  -3.736 -21.788  1.00  0.00     0.086 C 
HETATM    6  C9  UNL     1      -1.929  -3.456 -22.091  1.00  0.00     0.043 C 
HETATM    7  C8  UNL     1      -1.450  -2.237 -22.599  1.00  0.00    -0.026 C 
HETATM    8  C7  UNL     1      -2.198  -1.352 -23.357  1.00  0.00     0.072 A 
HETATM    9  C26 UNL     1      -0.055  -1.946 -22.268  1.00  0.00     0.042 C 
HETATM   10  N2  UNL     1      -1.676  -0.197 -23.832  1.00  0.00    -0.297 N 
HETATM   11  C25 UNL     1      -3.519  -1.408 -23.788  1.00  0.00     0.070 A 
HETATM   12  C6  UNL     1      -2.649   0.419 -24.525  1.00  0.00     0.330 A 
HETATM   13  C28 UNL     1      -0.294   0.139 -23.536  1.00  0.00     0.134 C 
HETATM   14  N1  UNL     1      -3.777  -0.309 -24.506  1.00  0.00    -0.297 N 
HETATM   15  O1  UNL     1      -2.536   1.528 -25.118  1.00  0.00    -0.246 OA
HETATM   16  C27 UNL     1       0.548  -1.125 -23.397  1.00  0.00     0.025 C 
HETATM   17  C24 UNL     1      -4.453  -2.397 -23.544  1.00  0.00     0.089 C 
HETATM   18  C23 UNL     1      -4.354  -3.385 -22.584  1.00  0.00     0.200 C 
HETATM   19  O5  UNL     1      -5.361  -4.065 -22.377  1.00  0.00    -0.286 OA
BRANCH  14  20
HETATM   20  C5  UNL     1      -5.041   0.093 -25.172  1.00  0.00     0.134 C 
BRANCH  20  21
HETATM   21  C4  UNL     1      -4.961  -0.332 -26.608  1.00  0.00     0.020 C 
BRANCH  21  22
HETATM   22  C3  UNL     1      -6.022  -1.163 -27.178  1.00  0.00     0.001 C 
BRANCH  22  23
HETATM   23  C2  UNL     1      -6.197  -2.571 -26.729  1.00  0.00    -0.004 C 
HETATM   24  C1  UNL     1      -7.238  -2.730 -25.664  1.00  0.00     0.005 C 
ENDBRANCH  22  23
ENDBRANCH  21  22
ENDBRANCH  20  21
ENDBRANCH  14  20
ENDBRANCH   1   5
BRANCH   3  25
HETATM   25  C12 UNL     1      -3.690  -6.477 -19.136  1.00  0.00     0.177 C 
BRANCH  25  26
HETATM   26  S1  UNL     1      -2.817  -8.022 -19.024  1.00  0.00    -0.150 SA
BRANCH  26  27
HETATM   27  C13 UNL     1      -2.254  -8.321 -17.343  1.00  0.00     0.177 C 
BRANCH  27  28
HETATM   28  C14 UNL     1      -1.018  -7.603 -16.963  1.00  0.00     0.227 C 
HETATM   29  O3  UNL     1      -0.071  -8.307 -16.469  1.00  0.00    -0.273 OA
HETATM   30  N4  UNL     1      -0.811  -6.209 -17.109  1.00  0.00    -0.356 N 
ATOM     31  H4  UNL     1      -1.581  -5.669 -17.502  1.00  0.00     0.162 HD
BRANCH  30  32
HETATM   32  C15 UNL     1       0.359  -5.492 -16.763  1.00  0.00     0.167 C 
BRANCH  32  33
HETATM   33  C16 UNL     1       0.762  -4.305 -17.516  1.00  0.00     0.033 A 
HETATM   34  C17 UNL     1       2.114  -3.884 -17.387  1.00  0.00    -0.047 A 
HETATM   35  C18 UNL     1       3.007  -4.664 -16.489  1.00  0.00     0.049 C 
HETATM   36  C19 UNL     1       2.541  -2.797 -18.084  1.00  0.00     0.032 A 
HETATM   37  C20 UNL     1       1.739  -2.056 -18.926  1.00  0.00     0.009 A 
HETATM   38  C21 UNL     1       2.286  -0.864 -19.642  1.00  0.00     0.068 C 
HETATM   39  N5  UNL     1       0.472  -2.469 -19.036  1.00  0.00    -0.327 N 
HETATM   40  C22 UNL     1       0.006  -3.555 -18.356  1.00  0.00     0.254 A 
ATOM     41  H5  UNL     1      -0.164  -1.956 -19.647  1.00  0.00     0.169 HD
HETATM   42  O4  UNL     1      -1.211  -3.807 -18.583  1.00  0.00    -0.268 OA
ENDBRANCH  32  33
ENDBRANCH  30  32
ENDBRANCH  27  28
ENDBRANCH  26  27
ENDBRANCH  25  26
ENDBRANCH   3  25
TORSDOF 11
ENDMDL
MODEL 3
REMARK VINA RESULT: -9.517613661      1.528      3.617
REMARK  11 active torsions:
REMARK  status: ('A' for Active; 'I' for Inactive)
REMARK    1  A    between atoms: C2_2  and  C3_3 
REMARK    2  A    between atoms: C3_3  and  C4_4 
REMARK    3  A    between atoms: C4_4  and  C5_5 
REMARK    4  A    between atoms: C5_5  and  N1_6 
REMARK    5  A    between atoms: C10_13  and  N3_14 
REMARK       I    between atoms: N3_14  and  C11_16 
REMARK    6  A    between atoms: C11_16  and  C12_18 
REMARK    7  A    between atoms: C12_18  and  S1_19 
REMARK    8  A    between atoms: S1_19  and  C13_20 
REMARK    9  A    between atoms: C13_20  and  C14_21 
REMARK       I    between atoms: C14_21  and  N4_23 
REMARK   10  A    between atoms: N4_23  and  C15_25 
REMARK   11  A    between atoms: C15_25  and  C16_26 
ROOT
HETATM    1  N3  UNL     1      -3.499  -4.639 -20.450  1.00  0.00    -0.323 N 
ATOM      2  H3  UNL     1      -3.708  -4.064 -19.634  1.00  0.00     0.169 HD
HETATM    3  C11 UNL     1      -3.423  -6.019 -20.266  1.00  0.00     0.231 C 
HETATM    4  O2  UNL     1      -3.162  -6.815 -21.170  1.00  0.00    -0.272 OA
ENDROOT
BRANCH   1   5
HETATM    5  C10 UNL     1      -3.309  -3.982 -21.680  1.00  0.00     0.086 C 
HETATM    6  C9  UNL     1      -2.021  -3.630 -22.012  1.00  0.00     0.043 C 
HETATM    7  C8  UNL     1      -1.632  -2.415 -22.599  1.00  0.00    -0.026 C 
HETATM    8  C7  UNL     1      -2.445  -1.633 -23.403  1.00  0.00     0.072 A 
HETATM    9  C26 UNL     1      -0.259  -2.006 -22.300  1.00  0.00     0.042 C 
HETATM   10  N2  UNL     1      -2.008  -0.476 -23.953  1.00  0.00    -0.297 N 
HETATM   11  C25 UNL     1      -3.761  -1.808 -23.817  1.00  0.00     0.070 A 
HETATM   12  C6  UNL     1      -3.026   0.027 -24.673  1.00  0.00     0.330 A 
HETATM   13  C28 UNL     1      -0.652  -0.026 -23.692  1.00  0.00     0.134 C 
HETATM   14  N1  UNL     1      -4.099  -0.776 -24.599  1.00  0.00    -0.297 N 
HETATM   15  O1  UNL     1      -2.995   1.101 -25.334  1.00  0.00    -0.246 OA
HETATM   16  C27 UNL     1       0.278  -1.216 -23.483  1.00  0.00     0.025 C 
HETATM   17  C24 UNL     1      -4.621  -2.843 -23.503  1.00  0.00     0.089 C 
HETATM   18  C23 UNL     1      -4.447  -3.761 -22.485  1.00  0.00     0.200 C 
HETATM   19  O5  UNL     1      -5.403  -4.495 -22.227  1.00  0.00    -0.286 OA
BRANCH  14  20
HETATM   20  C5  UNL     1      -5.392  -0.506 -25.275  1.00  0.00     0.134 C 
BRANCH  20  21
HETATM   21  C4  UNL     1      -5.367  -1.193 -26.608  1.00  0.00     0.020 C 
BRANCH  21  22
HETATM   22  C3  UNL     1      -5.386  -0.397 -27.835  1.00  0.00     0.001 C 
BRANCH  22  23
HETATM   23  C2  UNL     1      -5.643  -1.047 -29.149  1.00  0.00    -0.004 C 
HETATM   24  C1  UNL     1      -5.010  -0.331 -30.302  1.00  0.00     0.005 C 
ENDBRANCH  22  23
ENDBRANCH  21  22
ENDBRANCH  20  21
ENDBRANCH  14  20
ENDBRANCH   1   5
BRANCH   3  25
HETATM   25  C12 UNL     1      -3.667  -6.592 -18.886  1.00  0.00     0.177 C 
BRANCH  25  26
HETATM   26  S1  UNL     1      -2.737  -8.098 -18.720  1.00  0.00    -0.150 SA
BRANCH  26  27
HETATM   27  C13 UNL     1      -2.153  -8.310 -17.033  1.00  0.00     0.177 C 
BRANCH  27  28
HETATM   28  C14 UNL     1      -0.924  -7.556 -16.700  1.00  0.00     0.227 C 
HETATM   29  O3  UNL     1       0.002  -8.202 -16.100  1.00  0.00    -0.273 OA
HETATM   30  N4  UNL     1      -0.704  -6.189 -17.000  1.00  0.00    -0.356 N 
ATOM     31  H4  UNL     1      -1.458  -5.696 -17.476  1.00  0.00     0.162 HD
BRANCH  30  32
HETATM   32  C15 UNL     1       0.460  -5.440 -16.703  1.00  0.00     0.167 C 
BRANCH  32  33
HETATM   33  C16 UNL     1       0.820  -4.266 -17.498  1.00  0.00     0.033 A 
HETATM   34  C17 UNL     1       2.153  -3.787 -17.377  1.00  0.00    -0.047 A 
HETATM   35  C18 UNL     1       3.070  -4.497 -16.446  1.00  0.00     0.049 C 
HETATM   36  C19 UNL     1       2.540  -2.710 -18.112  1.00  0.00     0.032 A 
HETATM   37  C20 UNL     1       1.716  -2.034 -18.984  1.00  0.00     0.009 A 
HETATM   38  C21 UNL     1       2.219  -0.848 -19.741  1.00  0.00     0.068 C 
HETATM   39  N5  UNL     1       0.467  -2.501 -19.086  1.00  0.00    -0.327 N 
HETATM   40  C22 UNL     1       0.041  -3.579 -18.369  1.00  0.00     0.254 A 
ATOM     41  H5  UNL     1      -0.185  -2.038 -19.719  1.00  0.00     0.169 HD
HETATM   42  O4  UNL     1      -1.164  -3.889 -18.593  1.00  0.00    -0.268 OA
ENDBRANCH  32  33
ENDBRANCH  30  32
ENDBRANCH  27  28
ENDBRANCH  26  27
ENDBRANCH  25  26
ENDBRANCH   3  25
TORSDOF 11
ENDMDL
MODEL 4
REMARK VINA RESULT: -9.444144584      1.592      2.143
REMARK  11 active torsions:
REMARK  status: ('A' for Active; 'I' for Inactive)
REMARK    1  A    between atoms: C2_2  and  C3_3 
REMARK    2  A    between atoms: C3_3  and  C4_4 
REMARK    3  A    between atoms: C4_4  and  C5_5 
REMARK    4  A    between atoms: C5_5  and  N1_6 
REMARK    5  A    between atoms: C10_13  and  N3_14 
REMARK       I    between atoms: N3_14  and  C11_16 
REMARK    6  A    between atoms: C11_16  and  C12_18 
REMARK    7  A    between atoms: C12_18  and  S1_19 
REMARK    8  A    between atoms: S1_19  and  C13_20 
REMARK    9  A    between atoms: C13_20  and  C14_21 
REMARK       I    between atoms: C14_21  and  N4_23 
REMARK   10  A    between atoms: N4_23  and  C15_25 
REMARK   11  A    between atoms: C15_25  and  C16_26 
ROOT
HETATM    1  N3  UNL     1      -2.790  -4.876 -22.383  1.00  0.00    -0.323 N 
ATOM      2  H3  UNL     1      -2.282  -5.392 -23.101  1.00  0.00     0.169 HD
HETATM    3  C11 UNL     1      -2.988  -5.505 -21.154  1.00  0.00     0.231 C 
HETATM    4  O2  UNL     1      -3.599  -4.991 -20.215  1.00  0.00    -0.272 OA
ENDROOT
BRANCH   1   5
HETATM    5  C10 UNL     1      -3.241  -3.583 -22.704  1.00  0.00     0.086 C 
HETATM    6  C9  UNL     1      -4.534  -3.462 -23.157  1.00  0.00     0.043 C 
HETATM    7  C8  UNL     1      -4.956  -2.639 -24.215  1.00  0.00    -0.026 C 
HETATM    8  C7  UNL     1      -4.319  -1.474 -24.607  1.00  0.00     0.072 A 
HETATM    9  C26 UNL     1      -6.159  -3.104 -24.906  1.00  0.00     0.042 C 
HETATM   10  N2  UNL     1      -4.782  -0.713 -25.627  1.00  0.00    -0.297 N 
HETATM   11  C25 UNL     1      -3.181  -0.844 -24.116  1.00  0.00     0.070 A 
HETATM   12  C6  UNL     1      -3.951   0.337 -25.744  1.00  0.00     0.330 A 
HETATM   13  C28 UNL     1      -5.975  -1.127 -26.344  1.00  0.00     0.134 C 
HETATM   14  N1  UNL     1      -2.971   0.269 -24.828  1.00  0.00    -0.297 N 
HETATM   15  O1  UNL     1      -4.061   1.267 -26.589  1.00  0.00    -0.246 OA
HETATM   16  C27 UNL     1      -6.918  -1.892 -25.422  1.00  0.00     0.025 C 
HETATM   17  C24 UNL     1      -2.363  -1.253 -23.079  1.00  0.00     0.089 C 
HETATM   18  C23 UNL     1      -2.341  -2.512 -22.512  1.00  0.00     0.200 C 
HETATM   19  O5  UNL     1      -1.420  -2.756 -21.730  1.00  0.00    -0.286 OA
BRANCH  14  20
HETATM   20  C5  UNL     1      -1.885   1.271 -24.692  1.00  0.00     0.134 C 
BRANCH  20  21
HETATM   21  C4  UNL     1      -2.282   2.237 -23.615  1.00  0.00     0.020 C 
BRANCH  21  22
HETATM   22  C3  UNL     1      -2.689   3.596 -23.974  1.00  0.00     0.001 C 
BRANCH  22  23
HETATM   23  C2  UNL     1      -1.664   4.636 -24.259  1.00  0.00    -0.004 C 
HETATM   24  C1  UNL     1      -1.745   5.819 -23.343  1.00  0.00     0.005 C 
ENDBRANCH  22  23
ENDBRANCH  21  22
ENDBRANCH  20  21
ENDBRANCH  14  20
ENDBRANCH   1   5
BRANCH   3  25
HETATM   25  C12 UNL     1      -2.432  -6.898 -20.941  1.00  0.00     0.177 C 
BRANCH  25  26
HETATM   26  S1  UNL     1      -3.623  -7.855 -20.033  1.00  0.00    -0.150 SA
BRANCH  26  27
HETATM   27  C13 UNL     1      -3.255  -7.837 -18.273  1.00  0.00     0.177 C 
BRANCH  27  28
HETATM   28  C14 UNL     1      -1.919  -7.307 -17.922  1.00  0.00     0.227 C 
HETATM   29  O3  UNL     1      -0.999  -8.167 -17.699  1.00  0.00    -0.273 OA
HETATM   30  N4  UNL     1      -1.591  -5.933 -17.819  1.00  0.00    -0.356 N 
ATOM     31  H4  UNL     1      -2.342  -5.267 -17.999  1.00  0.00     0.162 HD
BRANCH  30  32
HETATM   32  C15 UNL     1      -0.324  -5.392 -17.493  1.00  0.00     0.167 C 
BRANCH  32  33
HETATM   33  C16 UNL     1       0.152  -4.162 -18.125  1.00  0.00     0.033 A 
HETATM   34  C17 UNL     1       1.549  -4.062 -18.374  1.00  0.00    -0.047 A 
HETATM   35  C18 UNL     1       2.417  -5.196 -17.960  1.00  0.00     0.049 C 
HETATM   36  C19 UNL     1       2.036  -2.945 -18.978  1.00  0.00     0.032 A 
HETATM   37  C20 UNL     1       1.258  -1.880 -19.376  1.00  0.00     0.009 A 
HETATM   38  C21 UNL     1       1.879  -0.682 -20.019  1.00  0.00     0.068 C 
HETATM   39  N5  UNL     1      -0.053  -1.994 -19.136  1.00  0.00    -0.327 N 
HETATM   40  C22 UNL     1      -0.581  -3.098 -18.535  1.00  0.00     0.254 A 
ATOM     41  H5  UNL     1      -0.675  -1.234 -19.411  1.00  0.00     0.169 HD
HETATM   42  O4  UNL     1      -1.836  -3.042 -18.393  1.00  0.00    -0.268 OA
ENDBRANCH  32  33
ENDBRANCH  30  32
ENDBRANCH  27  28
ENDBRANCH  26  27
ENDBRANCH  25  26
ENDBRANCH   3  25
TORSDOF 11
ENDMDL
MODEL 5
REMARK VINA RESULT: -9.395315775      1.517      3.720
REMARK  11 active torsions:
REMARK  status: ('A' for Active; 'I' for Inactive)
REMARK    1  A    between atoms: C2_2  and  C3_3 
REMARK    2  A    between atoms: C3_3  and  C4_4 
REMARK    3  A    between atoms: C4_4  and  C5_5 
REMARK    4  A    between atoms: C5_5  and  N1_6 
REMARK    5  A    between atoms: C10_13  and  N3_14 
REMARK       I    between atoms: N3_14  and  C11_16 
REMARK    6  A    between atoms: C11_16  and  C12_18 
REMARK    7  A    between atoms: C12_18  and  S1_19 
REMARK    8  A    between atoms: S1_19  and  C13_20 
REMARK    9  A    between atoms: C13_20  and  C14_21 
REMARK       I    between atoms: C14_21  and  N4_23 
REMARK   10  A    between atoms: N4_23  and  C15_25 
REMARK   11  A    between atoms: C15_25  and  C16_26 
ROOT
HETATM    1  N3  UNL     1      -3.360  -5.074 -19.905  1.00  0.00    -0.323 N 
ATOM      2  H3  UNL     1      -3.711  -4.553 -19.101  1.00  0.00     0.169 HD
HETATM    3  C11 UNL     1      -3.233  -6.457 -19.773  1.00  0.00     0.231 C 
HETATM    4  O2  UNL     1      -2.807  -7.191 -20.666  1.00  0.00    -0.272 OA
ENDROOT
BRANCH   1   5
HETATM    5  C10 UNL     1      -3.038  -4.346 -21.065  1.00  0.00     0.086 C 
HETATM    6  C9  UNL     1      -1.734  -3.932 -21.206  1.00  0.00     0.043 C 
HETATM    7  C8  UNL     1      -1.322  -2.675 -21.677  1.00  0.00    -0.026 C 
HETATM    8  C7  UNL     1      -2.055  -1.879 -22.542  1.00  0.00     0.072 A 
HETATM    9  C26 UNL     1      -0.018  -2.236 -21.180  1.00  0.00     0.042 C 
HETATM   10  N2  UNL     1      -1.598  -0.680 -22.972  1.00  0.00    -0.297 N 
HETATM   11  C25 UNL     1      -3.297  -2.077 -23.134  1.00  0.00     0.070 A 
HETATM   12  C6  UNL     1      -2.534  -0.175 -23.795  1.00  0.00     0.330 A 
HETATM   13  C28 UNL     1      -0.307  -0.198 -22.513  1.00  0.00     0.134 C 
HETATM   14  N1  UNL     1      -3.574  -1.017 -23.903  1.00  0.00    -0.297 N 
HETATM   15  O1  UNL     1      -2.461   0.934 -24.393  1.00  0.00    -0.246 OA
HETATM   16  C27 UNL     1       0.636  -1.366 -22.242  1.00  0.00     0.025 C 
HETATM   17  C24 UNL     1      -4.148  -3.157 -22.987  1.00  0.00     0.089 C 
HETATM   18  C23 UNL     1      -4.071  -4.121 -22.001  1.00  0.00     0.200 C 
HETATM   19  O5  UNL     1      -5.021  -4.900 -21.908  1.00  0.00    -0.286 OA
BRANCH  14  20
HETATM   20  C5  UNL     1      -4.778  -0.755 -24.730  1.00  0.00     0.134 C 
BRANCH  20  21
HETATM   21  C4  UNL     1      -4.543  -1.352 -26.086  1.00  0.00     0.020 C 
BRANCH  21  22
HETATM   22  C3  UNL     1      -5.348  -2.490 -26.527  1.00  0.00     0.001 C 
BRANCH  22  23
HETATM   23  C2  UNL     1      -6.812  -2.523 -26.261  1.00  0.00    -0.004 C 
HETATM   24  C1  UNL     1      -7.179  -3.331 -25.054  1.00  0.00     0.005 C 
ENDBRANCH  22  23
ENDBRANCH  21  22
ENDBRANCH  20  21
ENDBRANCH  14  20
ENDBRANCH   1   5
BRANCH   3  25
HETATM   25  C12 UNL     1      -3.634  -7.112 -18.468  1.00  0.00     0.177 C 
BRANCH  25  26
HETATM   26  S1  UNL     1      -2.768  -8.657 -18.315  1.00  0.00    -0.150 SA
BRANCH  26  27
HETATM   27  C13 UNL     1      -2.176  -8.899 -16.635  1.00  0.00     0.177 C 
BRANCH  27  28
HETATM   28  C14 UNL     1      -0.859  -8.290 -16.345  1.00  0.00     0.227 C 
HETATM   29  O3  UNL     1       0.164  -9.048 -16.466  1.00  0.00    -0.273 OA
HETATM   30  N4  UNL     1      -0.654  -6.944 -15.953  1.00  0.00    -0.356 N 
ATOM     31  H4  UNL     1      -1.486  -6.361 -15.861  1.00  0.00     0.162 HD
BRANCH  30  32
HETATM   32  C15 UNL     1       0.590  -6.329 -15.675  1.00  0.00     0.167 C 
BRANCH  32  33
HETATM   33  C16 UNL     1       1.059  -5.193 -16.468  1.00  0.00     0.033 A 
HETATM   34  C17 UNL     1       2.301  -4.611 -16.094  1.00  0.00    -0.047 A 
HETATM   35  C18 UNL     1       3.017  -5.183 -14.923  1.00  0.00     0.049 C 
HETATM   36  C19 UNL     1       2.788  -3.566 -16.814  1.00  0.00     0.032 A 
HETATM   37  C20 UNL     1       2.150  -3.016 -17.905  1.00  0.00     0.009 A 
HETATM   38  C21 UNL     1       2.748  -1.855 -18.631  1.00  0.00     0.068 C 
HETATM   39  N5  UNL     1       0.985  -3.578 -18.243  1.00  0.00    -0.327 N 
HETATM   40  C22 UNL     1       0.464  -4.629 -17.548  1.00  0.00     0.254 A 
ATOM     41  H5  UNL     1       0.471  -3.210 -19.044  1.00  0.00     0.169 HD
HETATM   42  O4  UNL     1      -0.639  -5.041 -18.009  1.00  0.00    -0.268 OA
ENDBRANCH  32  33
ENDBRANCH  30  32
ENDBRANCH  27  28
ENDBRANCH  26  27
ENDBRANCH  25  26
ENDBRANCH   3  25
TORSDOF 11
ENDMDL
