MODEL 1
REMARK VINA RESULT: -8.758719088      0.000      0.000
REMARK  13 active torsions:
REMARK  status: ('A' for Active; 'I' for Inactive)
REMARK    1  A    between atoms: O1_2  and  C2_3 
REMARK    2  A    between atoms: N1_7  and  C6_8 
REMARK    3  A    between atoms: C6_8  and  C7_9 
REMARK    4  A    between atoms: C7_9  and  O2_10 
REMARK    5  A    between atoms: O2_10  and  C8_11 
REMARK    6  A    between atoms: C11_14  and  N2_15 
REMARK    7  A    between atoms: N2_15  and  C12_17 
REMARK    8  A    between atoms: C13_20  and  N4_21 
REMARK    9  A    between atoms: N4_21  and  C14_23 
REMARK   10  A    between atoms: C14_23  and  C15_24 
REMARK   11  A    between atoms: C15_24  and  C16_25 
REMARK   12  A    between atoms: C21_36  and  C22_37 
REMARK   13  A    between atoms: C22_37  and  N8_38 
ROOT
HETATM    1  C12 UNL     1      -0.591  -1.342 -20.827  1.00  0.00     0.130 A 
HETATM    2  N3  UNL     1      -0.647  -0.901 -22.076  1.00  0.00    -0.176 N 
ATOM      3  H3  UNL     1      -1.546  -0.891 -22.557  1.00  0.00     0.186 HD
HETATM    4  C13 UNL     1       0.468  -0.457 -22.741  1.00  0.00     0.679 A 
HETATM    5  N7  UNL     1       1.659  -0.458 -22.137  1.00  0.00    -0.201 N 
ATOM      6  H7  UNL     1       2.486  -0.128 -22.636  1.00  0.00     0.183 HD
HETATM    7  C20 UNL     1       1.764  -0.894 -20.872  1.00  0.00     0.118 A 
HETATM    8  C21 UNL     1       0.661  -1.343 -20.187  1.00  0.00     0.020 A 
ENDROOT
BRANCH   1   9
HETATM    9  N2  UNL     1      -1.572  -1.769 -20.178  1.00  0.00    -0.340 N 
ATOM     10  H2  UNL     1      -1.991  -1.077 -19.556  1.00  0.00     0.167 HD
BRANCH   9  11
HETATM   11  C11 UNL     1      -2.197  -3.010 -20.146  1.00  0.00     0.049 A 
HETATM   12  C10 UNL     1      -2.368  -3.812 -21.247  1.00  0.00     0.035 A 
HETATM   13  C9  UNL     1      -3.006  -5.058 -21.189  1.00  0.00     0.058 A 
HETATM   14  C8  UNL     1      -3.489  -5.509 -19.976  1.00  0.00     0.141 A 
HETATM   15  N9  UNL     1      -3.323  -4.727 -18.903  1.00  0.00    -0.345 N 
HETATM   16  C28 UNL     1      -2.716  -3.536 -18.945  1.00  0.00     0.119 A 
ATOM     17  H9  UNL     1      -3.678  -5.057 -18.005  1.00  0.00     0.167 HD
BRANCH  14  18
HETATM   18  O2  UNL     1      -4.126  -6.720 -19.844  1.00  0.00    -0.334 OA
BRANCH  18  19
HETATM   19  C7  UNL     1      -3.717  -7.774 -19.052  1.00  0.00     0.207 C 
BRANCH  19  20
HETATM   20  C6  UNL     1      -2.255  -8.120 -19.077  1.00  0.00     0.299 C 
BRANCH  20  21
HETATM   21  N1  UNL     1      -1.812  -8.270 -17.699  1.00  0.00     0.093 N 
HETATM   22  C5  UNL     1      -2.836  -7.929 -16.792  1.00  0.00     0.272 C 
HETATM   23  C4  UNL     1      -2.964  -8.686 -15.524  1.00  0.00     0.033 C 
HETATM   24  C3  UNL     1      -1.948  -9.727 -15.231  1.00  0.00     0.035 C 
HETATM   25  C2  UNL     1      -0.670  -9.578 -15.987  1.00  0.00     0.149 C 
HETATM   26  C29 UNL     1      -1.045  -9.437 -17.456  1.00  0.00     0.304 C 
BRANCH  25  27
HETATM   27  O1  UNL     1       0.068  -8.455 -15.649  1.00  0.00    -0.389 OA
HETATM   28  C1  UNL     1       1.390  -8.560 -16.020  1.00  0.00     0.202 C 
ENDBRANCH  25  27
ENDBRANCH  20  21
ENDBRANCH  19  20
ENDBRANCH  18  19
ENDBRANCH  14  18
ENDBRANCH   9  11
ENDBRANCH   1   9
BRANCH   8  29
HETATM   29  C22 UNL     1       0.674  -1.796 -18.794  1.00  0.00     0.161 C 
BRANCH  29  30
HETATM   30  N8  UNL     1       1.543  -2.885 -18.564  1.00  0.00    -0.408 N 
HETATM   31  C23 UNL     1       0.986  -4.201 -18.765  1.00  0.00     0.117 C 
HETATM   32  C24 UNL     1       0.469  -4.790 -17.463  1.00  0.00     0.019 C 
HETATM   33  C25 UNL     1       1.526  -4.870 -16.413  1.00  0.00     0.003 C 
HETATM   34  C26 UNL     1       2.777  -4.173 -16.884  1.00  0.00     0.019 C 
HETATM   35  C27 UNL     1       2.351  -2.799 -17.373  1.00  0.00     0.117 C 
ENDBRANCH  29  30
ENDBRANCH   8  29
BRANCH   4  36
HETATM   36  N4  UNL     1       0.422  -0.014 -23.935  1.00  0.00    -0.226 N 
ATOM     37  H4  UNL     1       0.925   0.847 -24.152  1.00  0.00     0.177 HD
BRANCH  36  38
HETATM   38  C14 UNL     1      -0.293  -0.656 -24.977  1.00  0.00     0.144 C 
BRANCH  38  39
HETATM   39  C15 UNL     1      -1.459   0.196 -25.465  1.00  0.00     0.079 C 
BRANCH  39  40
HETATM   40  C16 UNL     1      -2.721  -0.415 -24.946  1.00  0.00     0.029 A 
HETATM   41  C17 UNL     1      -3.020  -1.729 -24.706  1.00  0.00     0.052 A 
HETATM   42  C18 UNL     1      -4.328  -1.829 -24.225  1.00  0.00     0.024 A 
HETATM   43  C19 UNL     1      -5.052  -3.072 -23.836  1.00  0.00     0.070 C 
HETATM   44  N5  UNL     1      -4.774  -0.557 -24.191  1.00  0.00    -0.305 N 
HETATM   45  N6  UNL     1      -3.849   0.282 -24.607  1.00  0.00    -0.305 N 
ATOM     46  H5  UNL     1      -5.706  -0.280 -23.882  1.00  0.00     0.186 HD
ATOM     47  H6  UNL     1      -3.956   1.295 -24.668  1.00  0.00     0.186 HD
ENDBRANCH  39  40
ENDBRANCH  38  39
ENDBRANCH  36  38
ENDBRANCH   4  36
TORSDOF 13
ENDMDL
MODEL 2
REMARK VINA RESULT: -8.757702539      2.500      7.238
REMARK  13 active torsions:
REMARK  status: ('A' for Active; 'I' for Inactive)
REMARK    1  A    between atoms: O1_2  and  C2_3 
REMARK    2  A    between atoms: N1_7  and  C6_8 
REMARK    3  A    between atoms: C6_8  and  C7_9 
REMARK    4  A    between atoms: C7_9  and  O2_10 
REMARK    5  A    between atoms: O2_10  and  C8_11 
REMARK    6  A    between atoms: C11_14  and  N2_15 
REMARK    7  A    between atoms: N2_15  and  C12_17 
REMARK    8  A    between atoms: C13_20  and  N4_21 
REMARK    9  A    between atoms: N4_21  and  C14_23 
REMARK   10  A    between atoms: C14_23  and  C15_24 
REMARK   11  A    between atoms: C15_24  and  C16_25 
REMARK   12  A    between atoms: C21_36  and  C22_37 
REMARK   13  A    between atoms: C22_37  and  N8_38 
ROOT
HETATM    1  C12 UNL     1      -2.862  -5.975 -19.481  1.00  0.00     0.130 A 
HETATM    2  N3  UNL     1      -3.669  -5.275 -20.265  1.00  0.00    -0.176 N 
ATOM      3  H3  UNL     1      -3.606  -4.256 -20.256  1.00  0.00     0.186 HD
HETATM    4  C13 UNL     1      -4.586  -5.877 -21.089  1.00  0.00     0.679 A 
HETATM    5  N7  UNL     1      -4.691  -7.208 -21.123  1.00  0.00    -0.201 N 
ATOM      6  H7  UNL     1      -5.374  -7.652 -21.736  1.00  0.00     0.183 HD
HETATM    7  C20 UNL     1      -3.893  -7.959 -20.347  1.00  0.00     0.118 A 
HETATM    8  C21 UNL     1      -2.967  -7.377 -19.515  1.00  0.00     0.020 A 
ENDROOT
BRANCH   1   9
HETATM    9  N2  UNL     1      -2.017  -5.478 -18.702  1.00  0.00    -0.340 N 
ATOM     10  H2  UNL     1      -2.044  -5.866 -17.759  1.00  0.00     0.167 HD
BRANCH   9  11
HETATM   11  C11 UNL     1      -1.049  -4.497 -18.883  1.00  0.00     0.049 A 
HETATM   12  C10 UNL     1       0.209  -4.743 -19.374  1.00  0.00     0.035 A 
HETATM   13  C9  UNL     1       1.170  -3.736 -19.544  1.00  0.00     0.058 A 
HETATM   14  C8  UNL     1       0.847  -2.437 -19.204  1.00  0.00     0.141 A 
HETATM   15  N9  UNL     1      -0.380  -2.198 -18.725  1.00  0.00    -0.345 N 
HETATM   16  C28 UNL     1      -1.305  -3.150 -18.559  1.00  0.00     0.119 A 
ATOM     17  H9  UNL     1      -0.622  -1.239 -18.474  1.00  0.00     0.167 HD
BRANCH  14  18
HETATM   18  O2  UNL     1       1.737  -1.399 -19.343  1.00  0.00    -0.334 OA
BRANCH  18  19
HETATM   19  C7  UNL     1       1.643  -0.358 -20.244  1.00  0.00     0.207 C 
BRANCH  19  20
HETATM   20  C6  UNL     1       1.701  -0.712 -21.703  1.00  0.00     0.299 C 
BRANCH  20  21
HETATM   21  N1  UNL     1       0.334  -0.768 -22.200  1.00  0.00     0.093 N 
HETATM   22  C5  UNL     1      -0.047  -2.091 -22.502  1.00  0.00     0.272 C 
HETATM   23  C4  UNL     1      -1.442  -2.521 -22.246  1.00  0.00     0.033 C 
HETATM   24  C3  UNL     1      -2.402  -1.504 -21.751  1.00  0.00     0.035 C 
HETATM   25  C2  UNL     1      -2.002  -0.091 -22.012  1.00  0.00     0.149 C 
HETATM   26  C29 UNL     1      -0.577   0.061 -21.498  1.00  0.00     0.304 C 
BRANCH  25  27
HETATM   27  O1  UNL     1      -1.986   0.261 -23.353  1.00  0.00    -0.389 OA
HETATM   28  C1  UNL     1      -2.021   1.624 -23.541  1.00  0.00     0.202 C 
ENDBRANCH  25  27
ENDBRANCH  20  21
ENDBRANCH  19  20
ENDBRANCH  18  19
ENDBRANCH  14  18
ENDBRANCH   9  11
ENDBRANCH   1   9
BRANCH   8  29
HETATM   29  C22 UNL     1      -2.029  -8.116 -18.666  1.00  0.00     0.161 C 
BRANCH  29  30
HETATM   30  N8  UNL     1      -2.662  -8.901 -17.679  1.00  0.00    -0.408 N 
HETATM   31  C23 UNL     1      -3.077  -8.210 -16.481  1.00  0.00     0.117 C 
HETATM   32  C24 UNL     1      -2.026  -8.309 -15.389  1.00  0.00     0.019 C 
HETATM   33  C25 UNL     1      -1.697  -9.721 -15.040  1.00  0.00     0.003 C 
HETATM   34  C26 UNL     1      -2.376 -10.664 -16.001  1.00  0.00     0.019 C 
HETATM   35  C27 UNL     1      -2.042 -10.173 -17.400  1.00  0.00     0.117 C 
ENDBRANCH  29  30
ENDBRANCH   8  29
BRANCH   4  36
HETATM   36  N4  UNL     1      -5.353  -5.214 -21.861  1.00  0.00    -0.226 N 
ATOM     37  H4  UNL     1      -6.280  -5.589 -22.062  1.00  0.00     0.177 HD
BRANCH  36  38
HETATM   38  C14 UNL     1      -4.982  -3.981 -22.455  1.00  0.00     0.144 C 
BRANCH  38  39
HETATM   39  C15 UNL     1      -5.724  -3.745 -23.766  1.00  0.00     0.079 C 
BRANCH  39  40
HETATM   40  C16 UNL     1      -5.003  -2.667 -24.511  1.00  0.00     0.029 A 
HETATM   41  C17 UNL     1      -5.455  -1.445 -24.933  1.00  0.00     0.052 A 
HETATM   42  C18 UNL     1      -4.427  -0.771 -25.596  1.00  0.00     0.024 A 
HETATM   43  C19 UNL     1      -4.488   0.586 -26.209  1.00  0.00     0.070 C 
HETATM   44  N5  UNL     1      -3.380  -1.620 -25.547  1.00  0.00    -0.305 N 
HETATM   45  N6  UNL     1      -3.698  -2.731 -24.918  1.00  0.00    -0.305 N 
ATOM     46  H5  UNL     1      -2.462  -1.426 -25.947  1.00  0.00     0.186 HD
ATOM     47  H6  UNL     1      -3.069  -3.518 -24.757  1.00  0.00     0.186 HD
ENDBRANCH  39  40
ENDBRANCH  38  39
ENDBRANCH  36  38
ENDBRANCH   4  36
TORSDOF 13
ENDMDL
MODEL 3
REMARK VINA RESULT: -8.696971912      2.495      8.293
REMARK  13 active torsions:
REMARK  status: ('A' for Active; 'I' for Inactive)
REMARK    1  A    between atoms: O1_2  and  C2_3 
REMARK    2  A    between atoms: N1_7  and  C6_8 
REMARK    3  A    between atoms: C6_8  and  C7_9 
REMARK    4  A    between atoms: C7_9  and  O2_10 
REMARK    5  A    between atoms: O2_10  and  C8_11 
REMARK    6  A    between atoms: C11_14  and  N2_15 
REMARK    7  A    between atoms: N2_15  and  C12_17 
REMARK    8  A    between atoms: C13_20  and  N4_21 
REMARK    9  A    between atoms: N4_21  and  C14_23 
REMARK   10  A    between atoms: C14_23  and  C15_24 
REMARK   11  A    between atoms: C15_24  and  C16_25 
REMARK   12  A    between atoms: C21_36  and  C22_37 
REMARK   13  A    between atoms: C22_37  and  N8_38 
ROOT
HETATM    1  C12 UNL     1      -0.321  -6.298 -17.995  1.00  0.00     0.130 A 
HETATM    2  N3  UNL     1       0.671  -5.427 -18.102  1.00  0.00    -0.176 N 
ATOM      3  H3  UNL     1       0.805  -4.936 -18.987  1.00  0.00     0.186 HD
HETATM    4  C13 UNL     1       1.524  -5.164 -17.060  1.00  0.00     0.679 A 
HETATM    5  N7  UNL     1       1.374  -5.790 -15.890  1.00  0.00    -0.201 N 
ATOM      6  H7  UNL     1       2.010  -5.593 -15.119  1.00  0.00     0.183 HD
HETATM    7  C20 UNL     1       0.382  -6.681 -15.734  1.00  0.00     0.118 A 
HETATM    8  C21 UNL     1      -0.485  -6.959 -16.764  1.00  0.00     0.020 A 
ENDROOT
BRANCH   1   9
HETATM    9  N2  UNL     1      -1.120  -6.586 -18.914  1.00  0.00    -0.340 N 
ATOM     10  H2  UNL     1      -1.248  -7.588 -19.056  1.00  0.00     0.167 HD
BRANCH   9  11
HETATM   11  C11 UNL     1      -1.867  -5.794 -19.779  1.00  0.00     0.049 A 
HETATM   12  C10 UNL     1      -1.935  -5.992 -21.136  1.00  0.00     0.035 A 
HETATM   13  C9  UNL     1      -2.693  -5.177 -21.987  1.00  0.00     0.058 A 
HETATM   14  C8  UNL     1      -3.405  -4.123 -21.449  1.00  0.00     0.141 A 
HETATM   15  N9  UNL     1      -3.338  -3.929 -20.126  1.00  0.00    -0.345 N 
HETATM   16  C28 UNL     1      -2.619  -4.700 -19.303  1.00  0.00     0.119 A 
ATOM     17  H9  UNL     1      -3.863  -3.152 -19.724  1.00  0.00     0.167 HD
BRANCH  14  18
HETATM   18  O2  UNL     1      -4.168  -3.281 -22.222  1.00  0.00    -0.334 OA
BRANCH  18  19
HETATM   19  C7  UNL     1      -3.758  -2.085 -22.775  1.00  0.00     0.207 C 
BRANCH  19  20
HETATM   20  C6  UNL     1      -3.066  -2.152 -24.107  1.00  0.00     0.299 C 
BRANCH  20  21
HETATM   21  N1  UNL     1      -4.060  -1.886 -25.137  1.00  0.00     0.093 N 
HETATM   22  C5  UNL     1      -4.658  -3.079 -25.591  1.00  0.00     0.272 C 
HETATM   23  C4  UNL     1      -6.094  -3.078 -25.956  1.00  0.00     0.033 C 
HETATM   24  C3  UNL     1      -6.824  -1.787 -25.899  1.00  0.00     0.035 C 
HETATM   25  C2  UNL     1      -5.953  -0.577 -25.946  1.00  0.00     0.149 C 
HETATM   26  C29 UNL     1      -4.887  -0.765 -24.874  1.00  0.00     0.304 C 
BRANCH  25  27
HETATM   27  O1  UNL     1      -5.287  -0.397 -27.148  1.00  0.00    -0.389 OA
HETATM   28  C1  UNL     1      -5.880   0.560 -27.941  1.00  0.00     0.202 C 
ENDBRANCH  25  27
ENDBRANCH  20  21
ENDBRANCH  19  20
ENDBRANCH  18  19
ENDBRANCH  14  18
ENDBRANCH   9  11
ENDBRANCH   1   9
BRANCH   8  29
HETATM   29  C22 UNL     1      -1.619  -7.883 -16.671  1.00  0.00     0.161 C 
BRANCH  29  30
HETATM   30  N8  UNL     1      -1.367  -9.002 -15.849  1.00  0.00    -0.408 N 
HETATM   31  C23 UNL     1      -0.906 -10.196 -16.517  1.00  0.00     0.117 C 
HETATM   32  C24 UNL     1      -2.058 -11.131 -16.840  1.00  0.00     0.019 C 
HETATM   33  C25 UNL     1      -2.832 -11.527 -15.628  1.00  0.00     0.003 C 
HETATM   34  C26 UNL     1      -2.359 -10.738 -14.433  1.00  0.00     0.019 C 
HETATM   35  C27 UNL     1      -2.367  -9.276 -14.846  1.00  0.00     0.117 C 
ENDBRANCH  29  30
ENDBRANCH   8  29
BRANCH   4  36
HETATM   36  N4  UNL     1       2.469  -4.313 -17.146  1.00  0.00    -0.226 N 
ATOM     37  H4  UNL     1       3.425  -4.658 -17.228  1.00  0.00     0.177 HD
BRANCH  36  38
HETATM   38  C14 UNL     1       2.258  -2.911 -17.134  1.00  0.00     0.144 C 
BRANCH  38  39
HETATM   39  C15 UNL     1       2.688  -2.268 -18.447  1.00  0.00     0.079 C 
BRANCH  39  40
HETATM   40  C16 UNL     1       1.453  -1.838 -19.172  1.00  0.00     0.029 A 
HETATM   41  C17 UNL     1       1.326  -1.137 -20.342  1.00  0.00     0.052 A 
HETATM   42  C18 UNL     1      -0.028  -0.961 -20.636  1.00  0.00     0.024 A 
HETATM   43  C19 UNL     1      -0.610  -0.259 -21.814  1.00  0.00     0.070 C 
HETATM   44  N5  UNL     1      -0.676  -1.572 -19.622  1.00  0.00    -0.305 N 
HETATM   45  N6  UNL     1       0.173  -2.089 -18.759  1.00  0.00    -0.305 N 
ATOM     46  H5  UNL     1      -1.690  -1.625 -19.535  1.00  0.00     0.186 HD
ATOM     47  H6  UNL     1      -0.084  -2.599 -17.914  1.00  0.00     0.186 HD
ENDBRANCH  39  40
ENDBRANCH  38  39
ENDBRANCH  36  38
ENDBRANCH   4  36
TORSDOF 13
ENDMDL
MODEL 4
REMARK VINA RESULT: -8.668427241      2.455      8.142
REMARK  13 active torsions:
REMARK  status: ('A' for Active; 'I' for Inactive)
REMARK    1  A    between atoms: O1_2  and  C2_3 
REMARK    2  A    between atoms: N1_7  and  C6_8 
REMARK    3  A    between atoms: C6_8  and  C7_9 
REMARK    4  A    between atoms: C7_9  and  O2_10 
REMARK    5  A    between atoms: O2_10  and  C8_11 
REMARK    6  A    between atoms: C11_14  and  N2_15 
REMARK    7  A    between atoms: N2_15  and  C12_17 
REMARK    8  A    between atoms: C13_20  and  N4_21 
REMARK    9  A    between atoms: N4_21  and  C14_23 
REMARK   10  A    between atoms: C14_23  and  C15_24 
REMARK   11  A    between atoms: C15_24  and  C16_25 
REMARK   12  A    between atoms: C21_36  and  C22_37 
REMARK   13  A    between atoms: C22_37  and  N8_38 
ROOT
HETATM    1  C12 UNL     1      -0.448  -6.087 -17.333  1.00  0.00     0.130 A 
HETATM    2  N3  UNL     1       0.268  -4.994 -17.554  1.00  0.00    -0.176 N 
ATOM      3  H3  UNL     1      -0.059  -4.322 -18.249  1.00  0.00     0.186 HD
HETATM    4  C13 UNL     1       1.434  -4.739 -16.878  1.00  0.00     0.679 A 
HETATM    5  N7  UNL     1       1.886  -5.600 -15.963  1.00  0.00    -0.201 N 
ATOM      6  H7  UNL     1       2.753  -5.407 -15.463  1.00  0.00     0.183 HD
HETATM    7  C20 UNL     1       1.193  -6.720 -15.703  1.00  0.00     0.118 A 
HETATM    8  C21 UNL     1       0.023  -6.996 -16.369  1.00  0.00     0.020 A 
ENDROOT
BRANCH   1   9
HETATM    9  N2  UNL     1      -1.511  -6.376 -17.928  1.00  0.00    -0.340 N 
ATOM     10  H2  UNL     1      -2.055  -7.110 -17.474  1.00  0.00     0.167 HD
BRANCH   9  11
HETATM   11  C11 UNL     1      -2.088  -5.883 -19.093  1.00  0.00     0.049 A 
HETATM   12  C10 UNL     1      -1.997  -6.501 -20.315  1.00  0.00     0.035 A 
HETATM   13  C9  UNL     1      -2.585  -5.981 -21.476  1.00  0.00     0.058 A 
HETATM   14  C8  UNL     1      -3.289  -4.795 -21.398  1.00  0.00     0.141 A 
HETATM   15  N9  UNL     1      -3.377  -4.193 -20.207  1.00  0.00    -0.345 N 
HETATM   16  C28 UNL     1      -2.821  -4.679 -19.092  1.00  0.00     0.119 A 
ATOM     17  H9  UNL     1      -3.897  -3.317 -20.145  1.00  0.00     0.167 HD
BRANCH  14  18
HETATM   18  O2  UNL     1      -3.891  -4.226 -22.495  1.00  0.00    -0.334 OA
BRANCH  18  19
HETATM   19  C7  UNL     1      -3.834  -2.896 -22.859  1.00  0.00     0.207 C 
BRANCH  19  20
HETATM   20  C6  UNL     1      -3.035  -2.559 -24.086  1.00  0.00     0.299 C 
BRANCH  20  21
HETATM   21  N1  UNL     1      -3.956  -2.027 -25.081  1.00  0.00     0.093 N 
HETATM   22  C5  UNL     1      -4.636  -3.063 -25.754  1.00  0.00     0.272 C 
HETATM   23  C4  UNL     1      -6.048  -2.863 -26.154  1.00  0.00     0.033 C 
HETATM   24  C3  UNL     1      -6.663  -1.538 -25.892  1.00  0.00     0.035 C 
HETATM   25  C2  UNL     1      -5.688  -0.426 -25.702  1.00  0.00     0.149 C 
HETATM   26  C29 UNL     1      -4.691  -0.895 -24.650  1.00  0.00     0.304 C 
BRANCH  25  27
HETATM   27  O1  UNL     1      -4.956  -0.105 -26.835  1.00  0.00    -0.389 OA
HETATM   28  C1  UNL     1      -5.721   0.507 -27.801  1.00  0.00     0.202 C 
ENDBRANCH  25  27
ENDBRANCH  20  21
ENDBRANCH  19  20
ENDBRANCH  18  19
ENDBRANCH  14  18
ENDBRANCH   9  11
ENDBRANCH   1   9
BRANCH   8  29
HETATM   29  C22 UNL     1      -0.818  -8.170 -16.121  1.00  0.00     0.161 C 
BRANCH  29  30
HETATM   30  N8  UNL     1      -0.614  -9.214 -17.049  1.00  0.00    -0.408 N 
HETATM   31  C23 UNL     1      -1.803  -9.839 -17.581  1.00  0.00     0.117 C 
HETATM   32  C24 UNL     1      -2.176 -11.083 -16.793  1.00  0.00     0.019 C 
HETATM   33  C25 UNL     1      -1.077 -12.090 -16.760  1.00  0.00     0.003 C 
HETATM   34  C26 UNL     1       0.174 -11.512 -17.373  1.00  0.00     0.019 C 
HETATM   35  C27 UNL     1       0.407 -10.170 -16.699  1.00  0.00     0.117 C 
ENDBRANCH  29  30
ENDBRANCH   8  29
BRANCH   4  36
HETATM   36  N4  UNL     1       2.120  -3.682 -17.069  1.00  0.00    -0.226 N 
ATOM     37  H4  UNL     1       2.619  -3.278 -16.277  1.00  0.00     0.177 HD
BRANCH  36  38
HETATM   38  C14 UNL     1       2.222  -3.038 -18.328  1.00  0.00     0.144 C 
BRANCH  38  39
HETATM   39  C15 UNL     1       1.211  -1.905 -18.463  1.00  0.00     0.079 C 
BRANCH  39  40
HETATM   40  C16 UNL     1       1.326  -1.351 -19.848  1.00  0.00     0.029 A 
HETATM   41  C17 UNL     1       0.578  -1.623 -20.962  1.00  0.00     0.052 A 
HETATM   42  C18 UNL     1       1.054  -0.869 -22.037  1.00  0.00     0.024 A 
HETATM   43  C19 UNL     1       0.527  -0.856 -23.431  1.00  0.00     0.070 C 
HETATM   44  N5  UNL     1       2.081  -0.160 -21.526  1.00  0.00    -0.305 N 
HETATM   45  N6  UNL     1       2.254  -0.429 -20.249  1.00  0.00    -0.305 N 
ATOM     46  H5  UNL     1       2.650   0.498 -22.058  1.00  0.00     0.186 HD
ATOM     47  H6  UNL     1       2.968  -0.014 -19.651  1.00  0.00     0.186 HD
ENDBRANCH  39  40
ENDBRANCH  38  39
ENDBRANCH  36  38
ENDBRANCH   4  36
TORSDOF 13
ENDMDL
MODEL 5
REMARK VINA RESULT: -8.617469147      2.476      8.595
REMARK  13 active torsions:
REMARK  status: ('A' for Active; 'I' for Inactive)
REMARK    1  A    between atoms: O1_2  and  C2_3 
REMARK    2  A    between atoms: N1_7  and  C6_8 
REMARK    3  A    between atoms: C6_8  and  C7_9 
REMARK    4  A    between atoms: C7_9  and  O2_10 
REMARK    5  A    between atoms: O2_10  and  C8_11 
REMARK    6  A    between atoms: C11_14  and  N2_15 
REMARK    7  A    between atoms: N2_15  and  C12_17 
REMARK    8  A    between atoms: C13_20  and  N4_21 
REMARK    9  A    between atoms: N4_21  and  C14_23 
REMARK   10  A    between atoms: C14_23  and  C15_24 
REMARK   11  A    between atoms: C15_24  and  C16_25 
REMARK   12  A    between atoms: C21_36  and  C22_37 
REMARK   13  A    between atoms: C22_37  and  N8_38 
ROOT
HETATM    1  C12 UNL     1      -0.652  -3.660 -18.296  1.00  0.00     0.130 A 
HETATM    2  N3  UNL     1      -0.509  -4.889 -17.821  1.00  0.00    -0.176 N 
ATOM      3  H3  UNL     1      -1.340  -5.462 -17.674  1.00  0.00     0.186 HD
HETATM    4  C13 UNL     1       0.723  -5.414 -17.522  1.00  0.00     0.679 A 
HETATM    5  N7  UNL     1       1.829  -4.688 -17.705  1.00  0.00    -0.201 N 
ATOM      6  H7  UNL     1       2.742  -5.081 -17.481  1.00  0.00     0.183 HD
HETATM    7  C20 UNL     1       1.733  -3.438 -18.186  1.00  0.00     0.118 A 
HETATM    8  C21 UNL     1       0.509  -2.892 -18.492  1.00  0.00     0.020 A 
ENDROOT
BRANCH   1   9
HETATM    9  N2  UNL     1      -1.750  -3.127 -18.574  1.00  0.00    -0.340 N 
ATOM     10  H2  UNL     1      -2.138  -2.558 -17.821  1.00  0.00     0.167 HD
BRANCH   9  11
HETATM   11  C11 UNL     1      -2.541  -3.166 -19.717  1.00  0.00     0.049 A 
HETATM   12  C10 UNL     1      -2.705  -4.283 -20.498  1.00  0.00     0.035 A 
HETATM   13  C9  UNL     1      -3.505  -4.295 -21.649  1.00  0.00     0.058 A 
HETATM   14  C8  UNL     1      -4.161  -3.138 -22.022  1.00  0.00     0.141 A 
HETATM   15  N9  UNL     1      -4.000  -2.049 -21.261  1.00  0.00    -0.345 N 
HETATM   16  C28 UNL     1      -3.240  -2.025 -20.160  1.00  0.00     0.119 A 
ATOM     17  H9  UNL     1      -4.483  -1.193 -21.533  1.00  0.00     0.167 HD
BRANCH  14  18
HETATM   18  O2  UNL     1      -4.961  -3.076 -23.138  1.00  0.00    -0.334 OA
BRANCH  18  19
HETATM   19  C7  UNL     1      -4.595  -2.593 -24.378  1.00  0.00     0.207 C 
BRANCH  19  20
HETATM   20  C6  UNL     1      -5.332  -1.385 -24.884  1.00  0.00     0.299 C 
BRANCH  20  21
HETATM   21  N1  UNL     1      -4.397  -0.268 -24.893  1.00  0.00     0.093 N 
HETATM   22  C5  UNL     1      -3.126  -0.669 -25.352  1.00  0.00     0.272 C 
HETATM   23  C4  UNL     1      -2.321   0.267 -26.172  1.00  0.00     0.033 C 
HETATM   24  C3  UNL     1      -2.867   1.627 -26.409  1.00  0.00     0.035 C 
HETATM   25  C2  UNL     1      -3.906   2.060 -25.429  1.00  0.00     0.149 C 
HETATM   26  C29 UNL     1      -4.944   0.947 -25.374  1.00  0.00     0.304 C 
BRANCH  25  27
HETATM   27  O1  UNL     1      -3.437   2.237 -24.137  1.00  0.00    -0.389 OA
HETATM   28  C1  UNL     1      -2.770   3.430 -23.977  1.00  0.00     0.202 C 
ENDBRANCH  25  27
ENDBRANCH  20  21
ENDBRANCH  19  20
ENDBRANCH  18  19
ENDBRANCH  14  18
ENDBRANCH   9  11
ENDBRANCH   1   9
BRANCH   8  29
HETATM   29  C22 UNL     1       0.313  -1.555 -19.059  1.00  0.00     0.161 C 
BRANCH  29  30
HETATM   30  N8  UNL     1       0.726  -1.448 -20.404  1.00  0.00    -0.408 N 
HETATM   31  C23 UNL     1       0.679  -0.127 -20.984  1.00  0.00     0.117 C 
HETATM   32  C24 UNL     1      -0.623   0.106 -21.731  1.00  0.00     0.019 C 
HETATM   33  C25 UNL     1      -0.853  -0.901 -22.808  1.00  0.00     0.003 C 
HETATM   34  C26 UNL     1       0.195  -1.983 -22.736  1.00  0.00     0.019 C 
HETATM   35  C27 UNL     1       0.223  -2.465 -21.295  1.00  0.00     0.117 C 
ENDBRANCH  29  30
ENDBRANCH   8  29
BRANCH   4  36
HETATM   36  N4  UNL     1       0.874  -6.601 -17.084  1.00  0.00    -0.226 N 
ATOM     37  H4  UNL     1       1.639  -7.162 -17.457  1.00  0.00     0.177 HD
BRANCH  36  38
HETATM   38  C14 UNL     1       0.030  -7.181 -16.102  1.00  0.00     0.144 C 
BRANCH  38  39
HETATM   39  C15 UNL     1      -0.651  -8.442 -16.623  1.00  0.00     0.079 C 
BRANCH  39  40
HETATM   40  C16 UNL     1      -1.846  -8.021 -17.418  1.00  0.00     0.029 A 
HETATM   41  C17 UNL     1      -2.187  -8.326 -18.709  1.00  0.00     0.052 A 
HETATM   42  C18 UNL     1      -3.395  -7.703 -19.031  1.00  0.00     0.024 A 
HETATM   43  C19 UNL     1      -4.126  -7.772 -20.327  1.00  0.00     0.070 C 
HETATM   44  N5  UNL     1      -3.743  -7.040 -17.909  1.00  0.00    -0.305 N 
HETATM   45  N6  UNL     1      -2.851  -7.214 -16.958  1.00  0.00    -0.305 N 
ATOM     46  H5  UNL     1      -4.587  -6.476 -17.811  1.00  0.00     0.186 HD
ATOM     47  H6  UNL     1      -2.900  -6.811 -16.022  1.00  0.00     0.186 HD
ENDBRANCH  39  40
ENDBRANCH  38  39
ENDBRANCH  36  38
ENDBRANCH   4  36
TORSDOF 13
ENDMDL
