MODEL 1
REMARK VINA RESULT: -9.062863892      0.000      0.000
REMARK  14 active torsions:
REMARK  status: ('A' for Active; 'I' for Inactive)
REMARK    1  A    between atoms: O1_2  and  C2_3 
REMARK    2  A    between atoms: C2_3  and  C3_4 
REMARK    3  A    between atoms: C3_4  and  C4_5 
REMARK    4  A    between atoms: C4_5  and  N1_6 
REMARK    5  A    between atoms: N1_6  and  C5_8 
REMARK    6  A    between atoms: C5_8  and  N2_10 
REMARK    7  A    between atoms: N3_13  and  C8_14 
REMARK    8  A    between atoms: C9_17  and  N5_18 
REMARK    9  A    between atoms: N5_18  and  C10_20 
REMARK   10  A    between atoms: C14_26  and  N7_27 
REMARK   11  A    between atoms: C18_31  and  C19_32 
REMARK   12  A    between atoms: C19_32  and  O2_33 
REMARK   13  A    between atoms: O2_33  and  C20_34 
REMARK   14  A    between atoms: C20_34  and  C21_35 
ROOT
HETATM    1  C8  UNL     1      -1.956  -3.174 -20.470  1.00  0.00     0.709 A 
HETATM    2  N4  UNL     1      -2.993  -3.915 -20.046  1.00  0.00    -0.021 N 
ATOM      3  H4  UNL     1      -3.882  -3.844 -20.540  1.00  0.00     0.203 HD
HETATM    4  C9  UNL     1      -2.902  -4.746 -18.996  1.00  0.00     0.707 A 
HETATM    5  N6  UNL     1      -1.731  -4.832 -18.354  1.00  0.00    -0.021 N 
ATOM      6  H6  UNL     1      -1.656  -5.462 -17.556  1.00  0.00     0.203 HD
HETATM    7  C14 UNL     1      -0.633  -4.111 -18.724  1.00  0.00     0.709 A 
HETATM    8  N9  UNL     1      -0.799  -3.298 -19.788  1.00  0.00    -0.021 N 
ATOM      9  H9  UNL     1       0.000  -2.743 -20.095  1.00  0.00     0.203 HD
ENDROOT
BRANCH   1  10
HETATM   10  N3  UNL     1      -2.109  -2.311 -21.579  1.00  0.00    -0.214 N 
HETATM   11  C7  UNL     1      -1.944  -0.871 -21.537  1.00  0.00     0.161 C 
HETATM   12  C6  UNL     1      -1.424  -0.337 -22.853  1.00  0.00     0.145 C 
HETATM   13  N2  UNL     1      -2.204  -0.843 -23.981  1.00  0.00    -0.355 N 
HETATM   14  C26 UNL     1      -3.194  -1.832 -23.679  1.00  0.00     0.145 C 
HETATM   15  C25 UNL     1      -2.470  -2.920 -22.867  1.00  0.00     0.161 C 
BRANCH  13  16
HETATM   16  C5  UNL     1      -1.981  -0.375 -25.299  1.00  0.00     0.169 C 
HETATM   17  S1  UNL     1      -0.408  -0.060 -25.699  1.00  0.00    -0.041 SA
BRANCH  16  18
HETATM   18  N1  UNL     1      -3.004  -0.188 -26.256  1.00  0.00    -0.367 N 
ATOM     19  H1  UNL     1      -3.076  -0.875 -27.006  1.00  0.00     0.161 HD
BRANCH  18  20
HETATM   20  C4  UNL     1      -3.943   0.883 -26.258  1.00  0.00     0.124 C 
BRANCH  20  21
HETATM   21  C3  UNL     1      -5.260   0.555 -25.556  1.00  0.00     0.046 C 
BRANCH  21  22
HETATM   22  C2  UNL     1      -6.126  -0.302 -26.479  1.00  0.00     0.168 C 
BRANCH  22  23
HETATM   23  O1  UNL     1      -7.130  -0.875 -25.753  1.00  0.00    -0.396 OA
HETATM   24  C1  UNL     1      -6.964  -2.212 -25.471  1.00  0.00     0.201 C 
ENDBRANCH  22  23
ENDBRANCH  21  22
ENDBRANCH  20  21
ENDBRANCH  18  20
ENDBRANCH  16  18
ENDBRANCH  13  16
ENDBRANCH   1  10
BRANCH   4  25
HETATM   25  N5  UNL     1      -3.951  -5.418 -18.664  1.00  0.00    -0.220 N 
ATOM     26  H5  UNL     1      -4.565  -5.046 -17.940  1.00  0.00     0.178 HD
BRANCH  25  27
HETATM   27  C10 UNL     1      -4.288  -6.684 -19.286  1.00  0.00     0.099 C 
HETATM   28  C11 UNL     1      -4.318  -6.516 -20.786  1.00  0.00     0.026 C 
HETATM   29  C12 UNL     1      -3.405  -7.718 -20.898  1.00  0.00     0.004 C 
HETATM   30  C13 UNL     1      -3.025  -7.503 -19.449  1.00  0.00     0.026 C 
ENDBRANCH  25  27
ENDBRANCH   4  25
BRANCH   7  31
HETATM   31  N7  UNL     1       0.586  -4.218 -18.023  1.00  0.00    -0.210 N 
HETATM   32  C15 UNL     1       1.503  -3.148 -17.737  1.00  0.00     0.142 C 
HETATM   33  C16 UNL     1       2.851  -3.832 -17.834  1.00  0.00     0.022 C 
HETATM   34  C17 UNL     1       2.576  -5.316 -18.040  1.00  0.00     0.030 C 
HETATM   35  C18 UNL     1       1.157  -5.410 -17.465  1.00  0.00     0.126 C 
BRANCH  35  36
HETATM   36  C19 UNL     1       1.318  -5.336 -15.969  1.00  0.00     0.194 C 
BRANCH  36  37
HETATM   37  O2  UNL     1       0.467  -6.174 -15.292  1.00  0.00    -0.383 OA
BRANCH  37  38
HETATM   38  C20 UNL     1       0.199  -7.348 -15.972  1.00  0.00     0.224 C 
BRANCH  38  39
HETATM   39  C21 UNL     1      -1.133  -7.918 -15.659  1.00  0.00     0.033 A 
HETATM   40  C22 UNL     1      -1.775  -8.947 -16.307  1.00  0.00     0.028 A 
HETATM   41  C23 UNL     1      -2.991  -9.169 -15.706  1.00  0.00     0.019 A 
HETATM   42  C24 UNL     1      -3.085  -8.256 -14.676  1.00  0.00     0.088 A 
HETATM   43  N8  UNL     1      -1.949  -7.519 -14.676  1.00  0.00    -0.367 N 
ATOM     44  H8  UNL     1      -1.744  -6.765 -14.020  1.00  0.00     0.165 HD
ENDBRANCH  38  39
ENDBRANCH  37  38
ENDBRANCH  36  37
ENDBRANCH  35  36
ENDBRANCH   7  31
TORSDOF 14
ENDMDL
MODEL 2
REMARK VINA RESULT: -8.977063180      0.828      1.072
REMARK  14 active torsions:
REMARK  status: ('A' for Active; 'I' for Inactive)
REMARK    1  A    between atoms: O1_2  and  C2_3 
REMARK    2  A    between atoms: C2_3  and  C3_4 
REMARK    3  A    between atoms: C3_4  and  C4_5 
REMARK    4  A    between atoms: C4_5  and  N1_6 
REMARK    5  A    between atoms: N1_6  and  C5_8 
REMARK    6  A    between atoms: C5_8  and  N2_10 
REMARK    7  A    between atoms: N3_13  and  C8_14 
REMARK    8  A    between atoms: C9_17  and  N5_18 
REMARK    9  A    between atoms: N5_18  and  C10_20 
REMARK   10  A    between atoms: C14_26  and  N7_27 
REMARK   11  A    between atoms: C18_31  and  C19_32 
REMARK   12  A    between atoms: C19_32  and  O2_33 
REMARK   13  A    between atoms: O2_33  and  C20_34 
REMARK   14  A    between atoms: C20_34  and  C21_35 
ROOT
HETATM    1  C8  UNL     1      -1.434  -2.960 -20.384  1.00  0.00     0.709 A 
HETATM    2  N4  UNL     1      -2.551  -3.642 -20.080  1.00  0.00    -0.021 N 
ATOM      3  H4  UNL     1      -3.388  -3.489 -20.642  1.00  0.00     0.203 HD
HETATM    4  C9  UNL     1      -2.605  -4.518 -19.066  1.00  0.00     0.707 A 
HETATM    5  N6  UNL     1      -1.502  -4.713 -18.335  1.00  0.00    -0.021 N 
ATOM      6  H6  UNL     1      -1.537  -5.378 -17.562  1.00  0.00     0.203 HD
HETATM    7  C14 UNL     1      -0.330  -4.058 -18.581  1.00  0.00     0.709 A 
HETATM    8  N9  UNL     1      -0.350  -3.193 -19.617  1.00  0.00    -0.021 N 
ATOM      9  H9  UNL     1       0.508  -2.685 -19.832  1.00  0.00     0.203 HD
ENDROOT
BRANCH   1  10
HETATM   10  N3  UNL     1      -1.434  -2.045 -21.462  1.00  0.00    -0.214 N 
HETATM   11  C7  UNL     1      -0.785  -2.270 -22.739  1.00  0.00     0.161 C 
HETATM   12  C6  UNL     1      -1.526  -1.582 -23.863  1.00  0.00     0.145 C 
HETATM   13  N2  UNL     1      -1.807  -0.184 -23.543  1.00  0.00    -0.355 N 
HETATM   14  C26 UNL     1      -1.477   0.244 -22.217  1.00  0.00     0.145 C 
HETATM   15  C25 UNL     1      -2.139  -0.770 -21.269  1.00  0.00     0.161 C 
BRANCH  13  16
HETATM   16  C5  UNL     1      -2.375   0.691 -24.500  1.00  0.00     0.169 C 
HETATM   17  S1  UNL     1      -1.492   0.928 -25.878  1.00  0.00    -0.041 SA
BRANCH  16  18
HETATM   18  N1  UNL     1      -3.625   1.332 -24.343  1.00  0.00    -0.367 N 
ATOM     19  H1  UNL     1      -3.681   2.088 -23.662  1.00  0.00     0.161 HD
BRANCH  18  20
HETATM   20  C4  UNL     1      -4.812   1.007 -25.061  1.00  0.00     0.124 C 
BRANCH  20  21
HETATM   21  C3  UNL     1      -5.098  -0.492 -25.140  1.00  0.00     0.046 C 
BRANCH  21  22
HETATM   22  C2  UNL     1      -6.211  -0.742 -26.156  1.00  0.00     0.168 C 
BRANCH  22  23
HETATM   23  O1  UNL     1      -7.283  -1.305 -25.522  1.00  0.00    -0.396 OA
HETATM   24  C1  UNL     1      -7.247  -2.676 -25.411  1.00  0.00     0.201 C 
ENDBRANCH  22  23
ENDBRANCH  21  22
ENDBRANCH  20  21
ENDBRANCH  18  20
ENDBRANCH  16  18
ENDBRANCH  13  16
ENDBRANCH   1  10
BRANCH   4  25
HETATM   25  N5  UNL     1      -3.722  -5.126 -18.851  1.00  0.00    -0.220 N 
ATOM     26  H5  UNL     1      -4.457  -4.640 -18.337  1.00  0.00     0.178 HD
BRANCH  25  27
HETATM   27  C10 UNL     1      -3.969  -6.477 -19.316  1.00  0.00     0.099 C 
HETATM   28  C11 UNL     1      -4.348  -6.445 -20.778  1.00  0.00     0.026 C 
HETATM   29  C12 UNL     1      -3.293  -7.501 -21.032  1.00  0.00     0.004 C 
HETATM   30  C13 UNL     1      -2.652  -7.107 -19.719  1.00  0.00     0.026 C 
ENDBRANCH  25  27
ENDBRANCH   4  25
BRANCH   7  31
HETATM   31  N7  UNL     1       0.815  -4.279 -17.788  1.00  0.00    -0.210 N 
HETATM   32  C15 UNL     1       1.745  -3.280 -17.334  1.00  0.00     0.142 C 
HETATM   33  C16 UNL     1       3.067  -4.017 -17.372  1.00  0.00     0.022 C 
HETATM   34  C17 UNL     1       2.753  -5.465 -17.726  1.00  0.00     0.030 C 
HETATM   35  C18 UNL     1       1.286  -5.538 -17.286  1.00  0.00     0.126 C 
BRANCH  35  36
HETATM   36  C19 UNL     1       1.314  -5.594 -15.781  1.00  0.00     0.194 C 
BRANCH  36  37
HETATM   37  O2  UNL     1       0.307  -6.362 -15.250  1.00  0.00    -0.383 OA
BRANCH  37  38
HETATM   38  C20 UNL     1      -0.148  -7.341 -16.114  1.00  0.00     0.224 C 
BRANCH  38  39
HETATM   39  C21 UNL     1      -1.408  -7.981 -15.668  1.00  0.00     0.033 A 
HETATM   40  C22 UNL     1      -2.056  -9.046 -16.247  1.00  0.00     0.028 A 
HETATM   41  C23 UNL     1      -3.191  -9.330 -15.526  1.00  0.00     0.019 A 
HETATM   42  C24 UNL     1      -3.230  -8.417 -14.491  1.00  0.00     0.088 A 
HETATM   43  N8  UNL     1      -2.141  -7.620 -14.608  1.00  0.00    -0.367 N 
ATOM     44  H8  UNL     1      -1.911  -6.853 -13.976  1.00  0.00     0.165 HD
ENDBRANCH  38  39
ENDBRANCH  37  38
ENDBRANCH  36  37
ENDBRANCH  35  36
ENDBRANCH   7  31
TORSDOF 14
ENDMDL
MODEL 3
REMARK VINA RESULT: -8.950222378      1.996      4.639
REMARK  14 active torsions:
REMARK  status: ('A' for Active; 'I' for Inactive)
REMARK    1  A    between atoms: O1_2  and  C2_3 
REMARK    2  A    between atoms: C2_3  and  C3_4 
REMARK    3  A    between atoms: C3_4  and  C4_5 
REMARK    4  A    between atoms: C4_5  and  N1_6 
REMARK    5  A    between atoms: N1_6  and  C5_8 
REMARK    6  A    between atoms: C5_8  and  N2_10 
REMARK    7  A    between atoms: N3_13  and  C8_14 
REMARK    8  A    between atoms: C9_17  and  N5_18 
REMARK    9  A    between atoms: N5_18  and  C10_20 
REMARK   10  A    between atoms: C14_26  and  N7_27 
REMARK   11  A    between atoms: C18_31  and  C19_32 
REMARK   12  A    between atoms: C19_32  and  O2_33 
REMARK   13  A    between atoms: O2_33  and  C20_34 
REMARK   14  A    between atoms: C20_34  and  C21_35 
ROOT
HETATM    1  C8  UNL     1      -2.082  -4.967 -19.164  1.00  0.00     0.709 A 
HETATM    2  N4  UNL     1      -2.721  -6.008 -18.604  1.00  0.00    -0.021 N 
ATOM      3  H4  UNL     1      -3.672  -6.219 -18.905  1.00  0.00     0.203 HD
HETATM    4  C9  UNL     1      -2.153  -6.780 -17.665  1.00  0.00     0.707 A 
HETATM    5  N6  UNL     1      -0.904  -6.495 -17.278  1.00  0.00    -0.021 N 
ATOM      6  H6  UNL     1      -0.468  -7.079 -16.565  1.00  0.00     0.203 HD
HETATM    7  C14 UNL     1      -0.191  -5.455 -17.799  1.00  0.00     0.709 A 
HETATM    8  N9  UNL     1      -0.825  -4.723 -18.739  1.00  0.00    -0.021 N 
ATOM      9  H9  UNL     1      -0.324  -3.937 -19.152  1.00  0.00     0.203 HD
ENDROOT
BRANCH   1  10
HETATM   10  N3  UNL     1      -2.730  -4.184 -20.147  1.00  0.00    -0.214 N 
HETATM   11  C7  UNL     1      -3.129  -2.801 -19.972  1.00  0.00     0.161 C 
HETATM   12  C6  UNL     1      -3.071  -2.041 -21.278  1.00  0.00     0.145 C 
HETATM   13  N2  UNL     1      -3.762  -2.760 -22.347  1.00  0.00    -0.355 N 
HETATM   14  C26 UNL     1      -4.232  -4.075 -22.029  1.00  0.00     0.145 C 
HETATM   15  C25 UNL     1      -3.026  -4.823 -21.436  1.00  0.00     0.161 C 
BRANCH  13  16
HETATM   16  C5  UNL     1      -3.949  -2.179 -23.624  1.00  0.00     0.169 C 
HETATM   17  S1  UNL     1      -3.572  -3.138 -24.918  1.00  0.00    -0.041 SA
BRANCH  16  18
HETATM   18  N1  UNL     1      -4.440  -0.871 -23.835  1.00  0.00    -0.367 N 
ATOM     19  H1  UNL     1      -5.064  -0.484 -23.126  1.00  0.00     0.161 HD
BRANCH  18  20
HETATM   20  C4  UNL     1      -4.136  -0.048 -24.957  1.00  0.00     0.124 C 
BRANCH  20  21
HETATM   21  C3  UNL     1      -5.368   0.493 -25.682  1.00  0.00     0.046 C 
BRANCH  21  22
HETATM   22  C2  UNL     1      -6.117  -0.664 -26.340  1.00  0.00     0.168 C 
BRANCH  22  23
HETATM   23  O1  UNL     1      -7.038  -1.163 -25.463  1.00  0.00    -0.396 OA
HETATM   24  C1  UNL     1      -7.245  -2.522 -25.537  1.00  0.00     0.201 C 
ENDBRANCH  22  23
ENDBRANCH  21  22
ENDBRANCH  20  21
ENDBRANCH  18  20
ENDBRANCH  16  18
ENDBRANCH  13  16
ENDBRANCH   1  10
BRANCH   4  25
HETATM   25  N5  UNL     1      -2.845  -7.757 -17.187  1.00  0.00    -0.220 N 
ATOM     26  H5  UNL     1      -3.799  -7.895 -17.520  1.00  0.00     0.178 HD
BRANCH  25  27
HETATM   27  C10 UNL     1      -2.313  -8.668 -16.191  1.00  0.00     0.099 C 
HETATM   28  C11 UNL     1      -3.422  -9.106 -15.265  1.00  0.00     0.026 C 
HETATM   29  C12 UNL     1      -3.004 -10.540 -15.510  1.00  0.00     0.004 C 
HETATM   30  C13 UNL     1      -2.299 -10.069 -16.763  1.00  0.00     0.026 C 
ENDBRANCH  25  27
ENDBRANCH   4  25
BRANCH   7  31
HETATM   31  N7  UNL     1       1.122  -5.175 -17.366  1.00  0.00    -0.210 N 
HETATM   32  C15 UNL     1       2.175  -6.131 -17.156  1.00  0.00     0.142 C 
HETATM   33  C16 UNL     1       2.914  -5.555 -15.966  1.00  0.00     0.022 C 
HETATM   34  C17 UNL     1       2.282  -4.200 -15.672  1.00  0.00     0.030 C 
HETATM   35  C18 UNL     1       1.664  -3.887 -17.040  1.00  0.00     0.126 C 
BRANCH  35  36
HETATM   36  C19 UNL     1       2.817  -3.496 -17.928  1.00  0.00     0.194 C 
BRANCH  36  37
HETATM   37  O2  UNL     1       2.675  -2.248 -18.479  1.00  0.00    -0.383 OA
BRANCH  37  38
HETATM   38  C20 UNL     1       1.358  -1.905 -18.726  1.00  0.00     0.224 C 
BRANCH  38  39
HETATM   39  C21 UNL     1       1.084  -1.610 -20.153  1.00  0.00     0.033 A 
HETATM   40  C22 UNL     1       1.445  -0.487 -20.859  1.00  0.00     0.028 A 
HETATM   41  C23 UNL     1       0.999  -0.605 -22.153  1.00  0.00     0.019 A 
HETATM   42  C24 UNL     1       0.356  -1.824 -22.231  1.00  0.00     0.088 A 
HETATM   43  N8  UNL     1       0.426  -2.402 -21.007  1.00  0.00    -0.367 N 
ATOM     44  H8  UNL     1       0.033  -3.313 -20.771  1.00  0.00     0.165 HD
ENDBRANCH  38  39
ENDBRANCH  37  38
ENDBRANCH  36  37
ENDBRANCH  35  36
ENDBRANCH   7  31
TORSDOF 14
ENDMDL
MODEL 4
REMARK VINA RESULT: -8.892327619      2.336      4.675
REMARK  14 active torsions:
REMARK  status: ('A' for Active; 'I' for Inactive)
REMARK    1  A    between atoms: O1_2  and  C2_3 
REMARK    2  A    between atoms: C2_3  and  C3_4 
REMARK    3  A    between atoms: C3_4  and  C4_5 
REMARK    4  A    between atoms: C4_5  and  N1_6 
REMARK    5  A    between atoms: N1_6  and  C5_8 
REMARK    6  A    between atoms: C5_8  and  N2_10 
REMARK    7  A    between atoms: N3_13  and  C8_14 
REMARK    8  A    between atoms: C9_17  and  N5_18 
REMARK    9  A    between atoms: N5_18  and  C10_20 
REMARK   10  A    between atoms: C14_26  and  N7_27 
REMARK   11  A    between atoms: C18_31  and  C19_32 
REMARK   12  A    between atoms: C19_32  and  O2_33 
REMARK   13  A    between atoms: O2_33  and  C20_34 
REMARK   14  A    between atoms: C20_34  and  C21_35 
ROOT
HETATM    1  C8  UNL     1      -2.593  -4.041 -21.048  1.00  0.00     0.709 A 
HETATM    2  N4  UNL     1      -3.466  -4.659 -20.236  1.00  0.00    -0.021 N 
ATOM      3  H4  UNL     1      -4.442  -4.728 -20.526  1.00  0.00     0.203 HD
HETATM    4  C9  UNL     1      -3.102  -5.190 -19.059  1.00  0.00     0.707 A 
HETATM    5  N6  UNL     1      -1.820  -5.096 -18.688  1.00  0.00    -0.021 N 
ATOM      6  H6  UNL     1      -1.538  -5.497 -17.795  1.00  0.00     0.203 HD
HETATM    7  C14 UNL     1      -0.874  -4.483 -19.458  1.00  0.00     0.709 A 
HETATM    8  N9  UNL     1      -1.312  -3.973 -20.628  1.00  0.00    -0.021 N 
ATOM      9  H9  UNL     1      -0.634  -3.508 -21.231  1.00  0.00     0.203 HD
ENDROOT
BRANCH   1  10
HETATM   10  N3  UNL     1      -3.031  -3.495 -22.276  1.00  0.00    -0.214 N 
HETATM   11  C7  UNL     1      -2.322  -3.613 -23.535  1.00  0.00     0.161 C 
HETATM   12  C6  UNL     1      -3.278  -3.643 -24.706  1.00  0.00     0.145 C 
HETATM   13  N2  UNL     1      -4.246  -2.551 -24.635  1.00  0.00    -0.355 N 
HETATM   14  C26 UNL     1      -4.222  -1.754 -23.445  1.00  0.00     0.145 C 
HETATM   15  C25 UNL     1      -4.296  -2.747 -22.272  1.00  0.00     0.161 C 
BRANCH  13  16
HETATM   16  C5  UNL     1      -5.156  -2.303 -25.692  1.00  0.00     0.169 C 
HETATM   17  S1  UNL     1      -6.747  -2.608 -25.363  1.00  0.00    -0.041 SA
BRANCH  16  18
HETATM   18  N1  UNL     1      -4.780  -1.808 -26.961  1.00  0.00    -0.367 N 
ATOM     19  H1  UNL     1      -3.839  -2.028 -27.290  1.00  0.00     0.161 HD
BRANCH  18  20
HETATM   20  C4  UNL     1      -5.607  -1.027 -27.818  1.00  0.00     0.124 C 
BRANCH  20  21
HETATM   21  C3  UNL     1      -5.660   0.455 -27.448  1.00  0.00     0.046 C 
BRANCH  21  22
HETATM   22  C2  UNL     1      -4.240   1.018 -27.413  1.00  0.00     0.168 C 
BRANCH  22  23
HETATM   23  O1  UNL     1      -3.758   0.949 -26.136  1.00  0.00    -0.396 OA
HETATM   24  C1  UNL     1      -4.555   1.528 -25.174  1.00  0.00     0.201 C 
ENDBRANCH  22  23
ENDBRANCH  21  22
ENDBRANCH  20  21
ENDBRANCH  18  20
ENDBRANCH  16  18
ENDBRANCH  13  16
ENDBRANCH   1  10
BRANCH   4  25
HETATM   25  N5  UNL     1      -4.012  -5.765 -18.348  1.00  0.00    -0.220 N 
ATOM     26  H5  UNL     1      -4.670  -5.185 -17.828  1.00  0.00     0.178 HD
BRANCH  25  27
HETATM   27  C10 UNL     1      -4.131  -7.208 -18.264  1.00  0.00     0.099 C 
HETATM   28  C11 UNL     1      -3.315  -7.845 -19.363  1.00  0.00     0.026 C 
HETATM   29  C12 UNL     1      -2.670  -8.728 -18.316  1.00  0.00     0.004 C 
HETATM   30  C13 UNL     1      -3.114  -7.728 -17.270  1.00  0.00     0.026 C 
ENDBRANCH  25  27
ENDBRANCH   4  25
BRANCH   7  31
HETATM   31  N7  UNL     1       0.469  -4.392 -19.037  1.00  0.00    -0.210 N 
HETATM   32  C15 UNL     1       1.610  -4.973 -19.691  1.00  0.00     0.142 C 
HETATM   33  C16 UNL     1       2.498  -5.360 -18.527  1.00  0.00     0.022 C 
HETATM   34  C17 UNL     1       1.828  -4.824 -17.268  1.00  0.00     0.030 C 
HETATM   35  C18 UNL     1       0.963  -3.713 -17.874  1.00  0.00     0.126 C 
BRANCH  35  36
HETATM   36  C19 UNL     1       1.914  -2.594 -18.210  1.00  0.00     0.194 C 
BRANCH  36  37
HETATM   37  O2  UNL     1       1.287  -1.492 -18.737  1.00  0.00    -0.383 OA
BRANCH  37  38
HETATM   38  C20 UNL     1       1.706  -1.185 -20.019  1.00  0.00     0.224 C 
BRANCH  38  39
HETATM   39  C21 UNL     1       0.592  -0.846 -20.936  1.00  0.00     0.033 A 
HETATM   40  C22 UNL     1       0.619  -0.821 -22.310  1.00  0.00     0.028 A 
HETATM   41  C23 UNL     1      -0.621  -0.456 -22.779  1.00  0.00     0.019 A 
HETATM   42  C24 UNL     1      -1.411  -0.256 -21.666  1.00  0.00     0.088 A 
HETATM   43  N8  UNL     1      -0.649  -0.499 -20.573  1.00  0.00    -0.367 N 
ATOM     44  H8  UNL     1      -0.974  -0.428 -19.609  1.00  0.00     0.165 HD
ENDBRANCH  38  39
ENDBRANCH  37  38
ENDBRANCH  36  37
ENDBRANCH  35  36
ENDBRANCH   7  31
TORSDOF 14
ENDMDL
MODEL 5
REMARK VINA RESULT: -8.804465830      3.152      8.464
REMARK  14 active torsions:
REMARK  status: ('A' for Active; 'I' for Inactive)
REMARK    1  A    between atoms: O1_2  and  C2_3 
REMARK    2  A    between atoms: C2_3  and  C3_4 
REMARK    3  A    between atoms: C3_4  and  C4_5 
REMARK    4  A    between atoms: C4_5  and  N1_6 
REMARK    5  A    between atoms: N1_6  and  C5_8 
REMARK    6  A    between atoms: C5_8  and  N2_10 
REMARK    7  A    between atoms: N3_13  and  C8_14 
REMARK    8  A    between atoms: C9_17  and  N5_18 
REMARK    9  A    between atoms: N5_18  and  C10_20 
REMARK   10  A    between atoms: C14_26  and  N7_27 
REMARK   11  A    between atoms: C18_31  and  C19_32 
REMARK   12  A    between atoms: C19_32  and  O2_33 
REMARK   13  A    between atoms: O2_33  and  C20_34 
REMARK   14  A    between atoms: C20_34  and  C21_35 
ROOT
HETATM    1  C8  UNL     1      -3.205  -4.425 -21.376  1.00  0.00     0.709 A 
HETATM    2  N4  UNL     1      -4.303  -4.319 -22.143  1.00  0.00    -0.021 N 
ATOM      3  H4  UNL     1      -5.030  -5.030 -22.060  1.00  0.00     0.203 HD
HETATM    4  C9  UNL     1      -4.478  -3.314 -23.014  1.00  0.00     0.707 A 
HETATM    5  N6  UNL     1      -3.518  -2.387 -23.116  1.00  0.00    -0.021 N 
ATOM      6  H6  UNL     1      -3.646  -1.621 -23.776  1.00  0.00     0.203 HD
HETATM    7  C14 UNL     1      -2.375  -2.425 -22.372  1.00  0.00     0.709 A 
HETATM    8  N9  UNL     1      -2.268  -3.464 -21.517  1.00  0.00    -0.021 N 
ATOM      9  H9  UNL     1      -1.428  -3.527 -20.943  1.00  0.00     0.203 HD
ENDROOT
BRANCH   1  10
HETATM   10  N3  UNL     1      -3.070  -5.508 -20.477  1.00  0.00    -0.214 N 
HETATM   11  C7  UNL     1      -2.825  -6.882 -20.868  1.00  0.00     0.161 C 
HETATM   12  C6  UNL     1      -2.012  -7.616 -19.825  1.00  0.00     0.145 C 
HETATM   13  N2  UNL     1      -2.572  -7.438 -18.487  1.00  0.00    -0.355 N 
HETATM   14  C26 UNL     1      -3.666  -6.519 -18.371  1.00  0.00     0.145 C 
HETATM   15  C25 UNL     1      -3.196  -5.218 -19.042  1.00  0.00     0.161 C 
BRANCH  13  16
HETATM   16  C5  UNL     1      -2.053  -8.139 -17.372  1.00  0.00     0.169 C 
HETATM   17  S1  UNL     1      -2.215  -9.784 -17.414  1.00  0.00    -0.041 SA
BRANCH  16  18
HETATM   18  N1  UNL     1      -1.412  -7.520 -16.275  1.00  0.00    -0.367 N 
ATOM     19  H1  UNL     1      -2.005  -7.064 -15.582  1.00  0.00     0.161 HD
BRANCH  18  20
HETATM   20  C4  UNL     1      -0.005  -7.482 -16.059  1.00  0.00     0.124 C 
BRANCH  20  21
HETATM   21  C3  UNL     1       0.514  -6.124 -15.587  1.00  0.00     0.046 C 
BRANCH  21  22
HETATM   22  C2  UNL     1       1.953  -6.273 -15.097  1.00  0.00     0.168 C 
BRANCH  22  23
HETATM   23  O1  UNL     1       2.370  -5.092 -14.553  1.00  0.00    -0.396 OA
HETATM   24  C1  UNL     1       3.591  -4.638 -14.997  1.00  0.00     0.201 C 
ENDBRANCH  22  23
ENDBRANCH  21  22
ENDBRANCH  20  21
ENDBRANCH  18  20
ENDBRANCH  16  18
ENDBRANCH  13  16
ENDBRANCH   1  10
BRANCH   4  25
HETATM   25  N5  UNL     1      -5.566  -3.297 -23.707  1.00  0.00    -0.220 N 
ATOM     26  H5  UNL     1      -6.315  -3.944 -23.463  1.00  0.00     0.178 HD
BRANCH  25  27
HETATM   27  C10 UNL     1      -5.759  -2.390 -24.821  1.00  0.00     0.099 C 
HETATM   28  C11 UNL     1      -5.310  -3.058 -26.099  1.00  0.00     0.026 C 
HETATM   29  C12 UNL     1      -6.641  -2.682 -26.714  1.00  0.00     0.004 C 
HETATM   30  C13 UNL     1      -7.186  -2.511 -25.313  1.00  0.00     0.026 C 
ENDBRANCH  25  27
ENDBRANCH   4  25
BRANCH   7  31
HETATM   31  N7  UNL     1      -1.378  -1.438 -22.506  1.00  0.00    -0.210 N 
HETATM   32  C15 UNL     1      -1.590  -0.040 -22.768  1.00  0.00     0.142 C 
HETATM   33  C16 UNL     1      -0.409   0.316 -23.647  1.00  0.00     0.022 C 
HETATM   34  C17 UNL     1       0.483  -0.918 -23.703  1.00  0.00     0.030 C 
HETATM   35  C18 UNL     1       0.041  -1.629 -22.418  1.00  0.00     0.126 C 
BRANCH  35  36
HETATM   36  C19 UNL     1       0.667  -0.854 -21.288  1.00  0.00     0.194 C 
BRANCH  36  37
HETATM   37  O2  UNL     1       0.144  -1.172 -20.059  1.00  0.00    -0.383 OA
BRANCH  37  38
HETATM   38  C20 UNL     1       1.101  -1.562 -19.140  1.00  0.00     0.224 C 
BRANCH  38  39
HETATM   39  C21 UNL     1       1.267  -3.032 -19.051  1.00  0.00     0.033 A 
HETATM   40  C22 UNL     1       2.255  -3.724 -18.390  1.00  0.00     0.028 A 
HETATM   41  C23 UNL     1       2.048  -5.073 -18.553  1.00  0.00     0.019 A 
HETATM   42  C24 UNL     1       0.913  -5.198 -19.329  1.00  0.00     0.088 A 
HETATM   43  N8  UNL     1       0.469  -3.950 -19.611  1.00  0.00    -0.367 N 
ATOM     44  H8  UNL     1      -0.357  -3.738 -20.171  1.00  0.00     0.165 HD
ENDBRANCH  38  39
ENDBRANCH  37  38
ENDBRANCH  36  37
ENDBRANCH  35  36
ENDBRANCH   7  31
TORSDOF 14
ENDMDL
