MODEL 1
REMARK VINA RESULT: -7.949857120      0.000      0.000
REMARK  5 active torsions:
REMARK  status: ('A' for Active; 'I' for Inactive)
REMARK    1  A    between atoms: C2_2  and  C3_3 
REMARK    2  A    between atoms: C3_3  and  C5_5 
REMARK    3  A    between atoms: C9_11  and  C10_12 
REMARK    4  A    between atoms: C9_11  and  C11_14 
REMARK    5  A    between atoms: C16_21  and  C17_22 
ROOT
HETATM    1  C5  UNL     1      20.813  16.479  63.990  1.00  0.00     0.098 C 
HETATM    2  N1  UNL     1      22.000  15.771  64.351  1.00  0.00    -0.389 N 
ATOM      3  H1  UNL     1      22.116  15.407  65.296  1.00  0.00     0.159 HD
HETATM    4  C6  UNL     1      22.925  15.597  63.469  1.00  0.00     0.002 C 
HETATM    5  C7  UNL     1      24.148  14.885  63.755  1.00  0.00     0.101 C 
HETATM    6  C8  UNL     1      25.261  15.204  62.851  1.00  0.00     0.008 C 
HETATM    7  C9  UNL     1      26.374  14.613  62.740  1.00  0.00     0.095 C 
HETATM    8  S1  UNL     1      24.618  16.601  61.876  1.00  0.00    -0.121 SA
HETATM    9  C12 UNL     1      22.863  16.105  62.096  1.00  0.00     0.103 C 
HETATM   10  C13 UNL     1      21.911  17.207  61.896  1.00  0.00     0.026 C 
HETATM   11  C14 UNL     1      22.467  18.373  61.115  1.00  0.00     0.021 C 
HETATM   12  C15 UNL     1      23.063  17.854  59.822  1.00  0.00     0.013 C 
HETATM   13  C16 UNL     1      21.334  19.342  60.682  1.00  0.00     0.189 C 
HETATM   14  N3  UNL     1      20.232  19.184  61.604  1.00  0.00    -0.346 N 
ATOM     15  H3  UNL     1      19.322  19.475  61.247  1.00  0.00     0.163 HD
HETATM   16  C18 UNL     1      20.230  18.699  62.897  1.00  0.00     0.225 C 
HETATM   17  O4  UNL     1      19.440  19.093  63.706  1.00  0.00    -0.273 OA
HETATM   18  C19 UNL     1      21.225  17.657  63.164  1.00  0.00     0.107 C 
ENDROOT
BRANCH   7  19
HETATM   19  C10 UNL     1      26.749  13.507  63.511  1.00  0.00     0.103 C 
HETATM   20  N2  UNL     1      27.057  12.469  63.983  1.00  0.00    -0.191 NA
ENDBRANCH   7  19
BRANCH   7  21
HETATM   21  C11 UNL     1      27.328  14.969  61.614  1.00  0.00     0.282 C 
HETATM   22  O1  UNL     1      27.893  14.139  61.048  1.00  0.00    -0.301 OA
ENDBRANCH   7  21
BRANCH   1  23
HETATM   23  C3  UNL     1      19.977  15.482  63.201  1.00  0.00     0.004 C 
HETATM   24  C4  UNL     1      18.510  15.771  63.370  1.00  0.00     0.012 C 
BRANCH  23  25
HETATM   25  C2  UNL     1      20.248  14.151  63.896  1.00  0.00     0.002 C 
HETATM   26  C1  UNL     1      19.268  13.079  63.586  1.00  0.00     0.005 C 
ENDBRANCH  23  25
ENDBRANCH   1  23
BRANCH  13  27
HETATM   27  C17 UNL     1      21.821  20.744  60.944  1.00  0.00     0.197 C 
HETATM   28  O2  UNL     1      22.823  21.051  61.590  1.00  0.00    -0.646 OA
HETATM   29  O3  UNL     1      21.037  21.795  60.421  1.00  0.00    -0.646 OA
ENDBRANCH  13  27
TORSDOF 5
ENDMDL
MODEL 2
REMARK VINA RESULT: -7.716593472      2.828      5.440
REMARK  5 active torsions:
REMARK  status: ('A' for Active; 'I' for Inactive)
REMARK    1  A    between atoms: C2_2  and  C3_3 
REMARK    2  A    between atoms: C3_3  and  C5_5 
REMARK    3  A    between atoms: C9_11  and  C10_12 
REMARK    4  A    between atoms: C9_11  and  C11_14 
REMARK    5  A    between atoms: C16_21  and  C17_22 
ROOT
HETATM    1  C5  UNL     1      21.899  19.785  61.838  1.00  0.00     0.098 C 
HETATM    2  N1  UNL     1      21.113  18.915  62.655  1.00  0.00    -0.389 N 
ATOM      3  H1  UNL     1      20.409  19.297  63.286  1.00  0.00     0.159 HD
HETATM    4  C6  UNL     1      21.303  17.642  62.588  1.00  0.00     0.002 C 
HETATM    5  C7  UNL     1      20.543  16.699  63.374  1.00  0.00     0.101 C 
HETATM    6  C8  UNL     1      21.197  15.396  63.558  1.00  0.00     0.008 C 
HETATM    7  C9  UNL     1      20.703  14.331  64.030  1.00  0.00     0.095 C 
HETATM    8  S1  UNL     1      22.861  15.665  62.868  1.00  0.00    -0.121 SA
HETATM    9  C12 UNL     1      22.308  17.001  61.735  1.00  0.00     0.103 C 
HETATM   10  C13 UNL     1      23.395  17.890  61.300  1.00  0.00     0.026 C 
HETATM   11  C14 UNL     1      24.777  17.303  61.457  1.00  0.00     0.021 C 
HETATM   12  C15 UNL     1      24.809  15.945  60.786  1.00  0.00     0.013 C 
HETATM   13  C16 UNL     1      25.832  18.156  60.702  1.00  0.00     0.189 C 
HETATM   14  N3  UNL     1      25.319  19.502  60.586  1.00  0.00    -0.346 N 
ATOM     15  H3  UNL     1      25.721  20.057  59.829  1.00  0.00     0.163 HD
HETATM   16  C18 UNL     1      24.366  20.149  61.347  1.00  0.00     0.225 C 
HETATM   17  O4  UNL     1      24.408  21.335  61.516  1.00  0.00    -0.273 OA
HETATM   18  C19 UNL     1      23.309  19.284  61.875  1.00  0.00     0.107 C 
ENDROOT
BRANCH   7  19
HETATM   19  C10 UNL     1      19.386  14.221  64.489  1.00  0.00     0.103 C 
HETATM   20  N2  UNL     1      18.331  14.268  65.018  1.00  0.00    -0.191 NA
ENDBRANCH   7  19
BRANCH   7  21
HETATM   21  C11 UNL     1      21.478  13.027  63.967  1.00  0.00     0.282 C 
HETATM   22  O1  UNL     1      21.038  12.118  63.412  1.00  0.00    -0.301 OA
ENDBRANCH   7  21
BRANCH   1  23
HETATM   23  C3  UNL     1      21.286  19.691  60.450  1.00  0.00     0.004 C 
HETATM   24  C4  UNL     1      21.841  20.765  59.553  1.00  0.00     0.012 C 
BRANCH  23  25
HETATM   25  C2  UNL     1      19.815  20.025  60.679  1.00  0.00     0.002 C 
HETATM   26  C1  UNL     1      19.293  21.134  59.841  1.00  0.00     0.005 C 
ENDBRANCH  23  25
ENDBRANCH   1  23
BRANCH  13  27
HETATM   27  C17 UNL     1      27.022  18.305  61.615  1.00  0.00     0.197 C 
HETATM   28  O2  UNL     1      27.440  17.453  62.400  1.00  0.00    -0.646 OA
HETATM   29  O3  UNL     1      27.695  19.545  61.581  1.00  0.00    -0.646 OA
ENDBRANCH  13  27
TORSDOF 5
ENDMDL
MODEL 3
REMARK VINA RESULT: -7.306340284      2.727      6.011
REMARK  5 active torsions:
REMARK  status: ('A' for Active; 'I' for Inactive)
REMARK    1  A    between atoms: C2_2  and  C3_3 
REMARK    2  A    between atoms: C3_3  and  C5_5 
REMARK    3  A    between atoms: C9_11  and  C10_12 
REMARK    4  A    between atoms: C9_11  and  C11_14 
REMARK    5  A    between atoms: C16_21  and  C17_22 
ROOT
HETATM    1  C5  UNL     1      22.260  19.789  62.047  1.00  0.00     0.098 C 
HETATM    2  N1  UNL     1      21.196  19.159  62.764  1.00  0.00    -0.389 N 
ATOM      3  H1  UNL     1      20.564  19.714  63.341  1.00  0.00     0.159 HD
HETATM    4  C6  UNL     1      21.043  17.883  62.675  1.00  0.00     0.002 C 
HETATM    5  C7  UNL     1      19.987  17.176  63.361  1.00  0.00     0.101 C 
HETATM    6  C8  UNL     1      20.247  15.743  63.563  1.00  0.00     0.008 C 
HETATM    7  C9  UNL     1      19.444  14.849  63.956  1.00  0.00     0.095 C 
HETATM    8  S1  UNL     1      21.979  15.557  63.032  1.00  0.00    -0.121 SA
HETATM    9  C12 UNL     1      21.913  16.999  61.896  1.00  0.00     0.103 C 
HETATM   10  C13 UNL     1      23.235  17.564  61.586  1.00  0.00     0.026 C 
HETATM   11  C14 UNL     1      24.388  16.624  61.847  1.00  0.00     0.021 C 
HETATM   12  C15 UNL     1      24.117  15.311  61.140  1.00  0.00     0.013 C 
HETATM   13  C16 UNL     1      25.699  17.165  61.215  1.00  0.00     0.189 C 
HETATM   14  N3  UNL     1      25.580  18.600  61.095  1.00  0.00    -0.346 N 
ATOM     15  H3  UNL     1      26.185  19.029  60.394  1.00  0.00     0.163 HD
HETATM   16  C18 UNL     1      24.769  19.476  61.788  1.00  0.00     0.225 C 
HETATM   17  O4  UNL     1      25.111  20.606  61.996  1.00  0.00    -0.273 OA
HETATM   18  C19 UNL     1      23.473  18.926  62.193  1.00  0.00     0.107 C 
ENDROOT
BRANCH   7  19
HETATM   19  C10 UNL     1      18.108  15.096  64.293  1.00  0.00     0.103 C 
HETATM   20  N2  UNL     1      17.026  15.502  64.534  1.00  0.00    -0.191 NA
ENDBRANCH   7  19
BRANCH   7  21
HETATM   21  C11 UNL     1      19.842  13.385  63.922  1.00  0.00     0.282 C 
HETATM   22  O1  UNL     1      19.188  12.619  63.362  1.00  0.00    -0.301 OA
ENDBRANCH   7  21
BRANCH   1  23
HETATM   23  C3  UNL     1      21.777  19.872  60.607  1.00  0.00     0.004 C 
HETATM   24  C4  UNL     1      22.289  21.125  59.949  1.00  0.00     0.012 C 
BRANCH  23  25
HETATM   25  C2  UNL     1      20.265  20.030  60.740  1.00  0.00     0.002 C 
HETATM   26  C1  UNL     1      19.615  20.747  59.613  1.00  0.00     0.005 C 
ENDBRANCH  23  25
ENDBRANCH   1  23
BRANCH  13  27
HETATM   27  C17 UNL     1      26.795  16.981  62.234  1.00  0.00     0.197 C 
HETATM   28  O2  UNL     1      26.861  16.078  63.067  1.00  0.00    -0.646 OA
HETATM   29  O3  UNL     1      27.818  17.953  62.245  1.00  0.00    -0.646 OA
ENDBRANCH  13  27
TORSDOF 5
ENDMDL
MODEL 4
REMARK VINA RESULT: -7.285448622      1.564      1.678
REMARK  5 active torsions:
REMARK  status: ('A' for Active; 'I' for Inactive)
REMARK    1  A    between atoms: C2_2  and  C3_3 
REMARK    2  A    between atoms: C3_3  and  C5_5 
REMARK    3  A    between atoms: C9_11  and  C10_12 
REMARK    4  A    between atoms: C9_11  and  C11_14 
REMARK    5  A    between atoms: C16_21  and  C17_22 
ROOT
HETATM    1  C5  UNL     1      22.143  16.847  64.162  1.00  0.00     0.098 C 
HETATM    2  N1  UNL     1      23.127  15.855  64.465  1.00  0.00    -0.389 N 
ATOM      3  H1  UNL     1      23.113  15.373  65.363  1.00  0.00     0.159 HD
HETATM    4  C6  UNL     1      24.031  15.575  63.591  1.00  0.00     0.002 C 
HETATM    5  C7  UNL     1      25.052  14.580  63.819  1.00  0.00     0.101 C 
HETATM    6  C8  UNL     1      26.251  14.737  62.984  1.00  0.00     0.008 C 
HETATM    7  C9  UNL     1      27.210  13.926  62.830  1.00  0.00     0.095 C 
HETATM    8  S1  UNL     1      25.980  16.341  62.166  1.00  0.00    -0.121 SA
HETATM    9  C12 UNL     1      24.150  16.230  62.286  1.00  0.00     0.103 C 
HETATM   10  C13 UNL     1      23.476  17.534  62.194  1.00  0.00     0.026 C 
HETATM   11  C14 UNL     1      24.312  18.623  61.568  1.00  0.00     0.021 C 
HETATM   12  C15 UNL     1      24.841  18.128  60.237  1.00  0.00     0.013 C 
HETATM   13  C16 UNL     1      23.444  19.863  61.226  1.00  0.00     0.189 C 
HETATM   14  N3  UNL     1      22.291  19.857  62.098  1.00  0.00    -0.346 N 
ATOM     15  H3  UNL     1      21.485  20.382  61.757  1.00  0.00     0.163 HD
HETATM   16  C18 UNL     1      22.119  19.247  63.324  1.00  0.00     0.225 C 
HETATM   17  O4  UNL     1      21.397  19.718  64.156  1.00  0.00    -0.273 OA
HETATM   18  C19 UNL     1      22.845  17.985  63.490  1.00  0.00     0.107 C 
ENDROOT
BRANCH   7  19
HETATM   19  C10 UNL     1      27.294  12.687  63.475  1.00  0.00     0.103 C 
HETATM   20  N2  UNL     1      27.342  11.752  64.194  1.00  0.00    -0.191 NA
ENDBRANCH   7  19
BRANCH   7  21
HETATM   21  C11 UNL     1      28.273  14.180  61.776  1.00  0.00     0.282 C 
HETATM   22  O1  UNL     1      28.274  13.573  60.797  1.00  0.00    -0.301 OA
ENDBRANCH   7  21
BRANCH   1  23
HETATM   23  C3  UNL     1      21.148  16.156  63.243  1.00  0.00     0.004 C 
HETATM   24  C4  UNL     1      19.830  16.882  63.249  1.00  0.00     0.012 C 
BRANCH  23  25
HETATM   25  C2  UNL     1      20.911  14.806  63.914  1.00  0.00     0.002 C 
HETATM   26  C1  UNL     1      19.506  14.555  64.323  1.00  0.00     0.005 C 
ENDBRANCH  23  25
ENDBRANCH   1  23
BRANCH  13  27
HETATM   27  C17 UNL     1      24.216  21.083  61.662  1.00  0.00     0.197 C 
HETATM   28  O2  UNL     1      24.996  21.141  62.611  1.00  0.00    -0.646 OA
HETATM   29  O3  UNL     1      23.995  22.268  60.926  1.00  0.00    -0.646 OA
ENDBRANCH  13  27
TORSDOF 5
ENDMDL
MODEL 5
REMARK VINA RESULT: -7.003812201      1.505      1.713
REMARK  5 active torsions:
REMARK  status: ('A' for Active; 'I' for Inactive)
REMARK    1  A    between atoms: C2_2  and  C3_3 
REMARK    2  A    between atoms: C3_3  and  C5_5 
REMARK    3  A    between atoms: C9_11  and  C10_12 
REMARK    4  A    between atoms: C9_11  and  C11_14 
REMARK    5  A    between atoms: C16_21  and  C17_22 
ROOT
HETATM    1  C5  UNL     1      21.128  17.128  63.714  1.00  0.00     0.098 C 
HETATM    2  N1  UNL     1      22.503  16.751  63.819  1.00  0.00    -0.389 N 
ATOM      3  H1  UNL     1      22.898  16.489  64.722  1.00  0.00     0.159 HD
HETATM    4  C6  UNL     1      23.239  16.745  62.761  1.00  0.00     0.002 C 
HETATM    5  C7  UNL     1      24.632  16.368  62.785  1.00  0.00     0.101 C 
HETATM    6  C8  UNL     1      25.420  16.884  61.656  1.00  0.00     0.008 C 
HETATM    7  C9  UNL     1      26.597  16.570  61.315  1.00  0.00     0.095 C 
HETATM    8  S1  UNL     1      24.263  18.018  60.826  1.00  0.00    -0.121 SA
HETATM    9  C12 UNL     1      22.771  17.132  61.427  1.00  0.00     0.103 C 
HETATM   10  C13 UNL     1      21.555  17.958  61.424  1.00  0.00     0.026 C 
HETATM   11  C14 UNL     1      21.630  19.169  60.525  1.00  0.00     0.021 C 
HETATM   12  C15 UNL     1      22.056  18.723  59.141  1.00  0.00     0.013 C 
HETATM   13  C16 UNL     1      20.228  19.807  60.335  1.00  0.00     0.189 C 
HETATM   14  N3  UNL     1      19.415  19.452  61.476  1.00  0.00    -0.346 N 
ATOM     15  H3  UNL     1      18.407  19.492  61.321  1.00  0.00     0.163 HD
HETATM   16  C18 UNL     1      19.801  19.067  62.744  1.00  0.00     0.225 C 
HETATM   17  O4  UNL     1      19.122  19.313  63.700  1.00  0.00    -0.273 OA
HETATM   18  C19 UNL     1      21.056  18.314  62.804  1.00  0.00     0.107 C 
ENDROOT
BRANCH   7  19
HETATM   19  C10 UNL     1      27.386  15.640  62.001  1.00  0.00     0.103 C 
HETATM   20  N2  UNL     1      28.187  15.011  62.597  1.00  0.00    -0.191 NA
ENDBRANCH   7  19
BRANCH   7  21
HETATM   21  C11 UNL     1      27.179  17.070  60.004  1.00  0.00     0.282 C 
HETATM   22  O1  UNL     1      26.708  16.751  59.002  1.00  0.00    -0.301 OA
ENDBRANCH   7  21
BRANCH   1  23
HETATM   23  C3  UNL     1      20.422  15.911  63.139  1.00  0.00     0.004 C 
HETATM   24  C4  UNL     1      18.965  15.916  63.516  1.00  0.00     0.012 C 
BRANCH  23  25
HETATM   25  C2  UNL     1      21.064  14.737  63.874  1.00  0.00     0.002 C 
HETATM   26  C1  UNL     1      20.263  13.487  63.864  1.00  0.00     0.005 C 
ENDBRANCH  23  25
ENDBRANCH   1  23
BRANCH  13  27
HETATM   27  C17 UNL     1      20.396  21.300  60.467  1.00  0.00     0.197 C 
HETATM   28  O2  UNL     1      21.461  21.895  60.627  1.00  0.00    -0.646 OA
HETATM   29  O3  UNL     1      19.216  22.075  60.429  1.00  0.00    -0.646 OA
ENDBRANCH  13  27
TORSDOF 5
ENDMDL
