MODEL 1
REMARK VINA RESULT: -7.983368320      0.000      0.000
REMARK  5 active torsions:
REMARK  status: ('A' for Active; 'I' for Inactive)
REMARK    1  A    between atoms: C11_13  and  O3_14 
REMARK    2  A    between atoms: O3_14  and  C12_15 
REMARK    3  A    between atoms: C12_15  and  C15_18 
REMARK    4  A    between atoms: C16_21  and  C17_22 
REMARK    5  A    between atoms: C17_22  and  O6_24 
ROOT
HETATM    1  C1  UNL     1      22.197  20.861  59.947  1.00  0.00     0.026 C 
HETATM    2  C2  UNL     1      22.968  20.115  60.707  1.00  0.00     0.018 C 
HETATM    3  C3  UNL     1      24.031  20.527  61.625  1.00  0.00     0.289 C 
HETATM    4  O1  UNL     1      24.502  21.706  61.742  1.00  0.00    -0.260 OA
HETATM    5  O2  UNL     1      24.433  19.408  62.343  1.00  0.00    -0.311 OA
HETATM    6  C4  UNL     1      23.268  18.544  62.319  1.00  0.00     0.149 C 
HETATM    7  C5  UNL     1      22.980  18.630  60.849  1.00  0.00     0.076 C 
HETATM    8  C6  UNL     1      24.235  18.169  60.175  1.00  0.00    -0.012 C 
HETATM    9  C7  UNL     1      24.725  16.957  60.236  1.00  0.00    -0.086 C 
HETATM   10  C8  UNL     1      25.977  16.742  59.487  1.00  0.00     0.043 C 
HETATM   11  C9  UNL     1      24.180  15.786  60.945  1.00  0.00     0.041 C 
HETATM   12  C10 UNL     1      23.572  15.979  62.249  1.00  0.00     0.026 C 
HETATM   13  C11 UNL     1      24.230  15.031  63.283  1.00  0.00     0.134 C 
HETATM   14  C16 UNL     1      23.087  14.566  64.131  1.00  0.00     0.044 C 
HETATM   15  C19 UNL     1      22.046  15.636  64.258  1.00  0.00     0.014 C 
HETATM   16  C20 UNL     1      22.456  17.042  64.076  1.00  0.00    -0.011 C 
HETATM   17  C21 UNL     1      21.152  17.803  63.773  1.00  0.00     0.010 C 
HETATM   18  C22 UNL     1      23.482  17.265  62.943  1.00  0.00     0.027 C 
ENDROOT
BRANCH  13  19
HETATM   19  O3  UNL     1      25.079  14.123  62.781  1.00  0.00    -0.364 OA
BRANCH  19  20
HETATM   20  C12 UNL     1      26.400  14.154  63.070  1.00  0.00     0.142 C 
HETATM   21  C13 UNL     1      26.936  15.488  63.579  1.00  0.00     0.057 C 
HETATM   22  C14 UNL     1      27.098  14.038  61.665  1.00  0.00     0.057 C 
BRANCH  20  23
HETATM   23  C15 UNL     1      26.961  13.116  63.939  1.00  0.00     0.208 C 
HETATM   24  O4  UNL     1      26.399  12.104  64.372  1.00  0.00    -0.646 OA
HETATM   25  O5  UNL     1      28.304  13.282  64.338  1.00  0.00    -0.646 OA
ENDBRANCH  20  23
ENDBRANCH  19  20
ENDBRANCH  13  19
BRANCH  14  26
HETATM   26  C17 UNL     1      22.395  13.341  63.559  1.00  0.00     0.120 C 
HETATM   27  C18 UNL     1      20.905  13.385  63.822  1.00  0.00     0.040 C 
BRANCH  26  28
HETATM   28  O6  UNL     1      22.873  12.161  64.060  1.00  0.00    -0.395 OA
ATOM     29  H6  UNL     1      22.595  11.399  63.565  1.00  0.00     0.210 HD
ENDBRANCH  26  28
ENDBRANCH  14  26
TORSDOF 5
ENDMDL
MODEL 2
REMARK VINA RESULT: -7.106511275      2.890      6.053
REMARK  5 active torsions:
REMARK  status: ('A' for Active; 'I' for Inactive)
REMARK    1  A    between atoms: C11_13  and  O3_14 
REMARK    2  A    between atoms: O3_14  and  C12_15 
REMARK    3  A    between atoms: C12_15  and  C15_18 
REMARK    4  A    between atoms: C16_21  and  C17_22 
REMARK    5  A    between atoms: C17_22  and  O6_24 
ROOT
HETATM    1  C1  UNL     1      29.997  16.581  59.916  1.00  0.00     0.026 C 
HETATM    2  C2  UNL     1      28.740  16.887  59.682  1.00  0.00     0.018 C 
HETATM    3  C3  UNL     1      28.030  16.949  58.404  1.00  0.00     0.289 C 
HETATM    4  O1  UNL     1      28.561  16.854  57.248  1.00  0.00    -0.260 OA
HETATM    5  O2  UNL     1      26.679  17.131  58.673  1.00  0.00    -0.311 OA
HETATM    6  C4  UNL     1      26.513  16.574  60.002  1.00  0.00     0.149 C 
HETATM    7  C5  UNL     1      27.675  17.261  60.658  1.00  0.00     0.076 C 
HETATM    8  C6  UNL     1      27.434  18.724  60.453  1.00  0.00    -0.012 C 
HETATM    9  C7  UNL     1      26.446  19.409  60.973  1.00  0.00    -0.086 C 
HETATM   10  C8  UNL     1      26.417  20.842  60.626  1.00  0.00     0.043 C 
HETATM   11  C9  UNL     1      25.376  18.931  61.866  1.00  0.00     0.041 C 
HETATM   12  C10 UNL     1      24.800  17.620  61.629  1.00  0.00     0.026 C 
HETATM   13  C11 UNL     1      23.260  17.735  61.505  1.00  0.00     0.134 C 
HETATM   14  C16 UNL     1      22.745  16.527  62.223  1.00  0.00     0.044 C 
HETATM   15  C19 UNL     1      23.688  15.373  62.073  1.00  0.00     0.014 C 
HETATM   16  C20 UNL     1      24.593  15.352  60.907  1.00  0.00    -0.011 C 
HETATM   17  C21 UNL     1      25.717  14.373  61.290  1.00  0.00     0.010 C 
HETATM   18  C22 UNL     1      25.184  16.729  60.533  1.00  0.00     0.027 C 
ENDROOT
BRANCH  13  19
HETATM   19  O3  UNL     1      22.742  18.937  61.799  1.00  0.00    -0.364 OA
BRANCH  19  20
HETATM   20  C12 UNL     1      21.910  19.576  60.945  1.00  0.00     0.142 C 
HETATM   21  C13 UNL     1      22.037  19.182  59.477  1.00  0.00     0.057 C 
HETATM   22  C14 UNL     1      22.445  21.055  60.932  1.00  0.00     0.057 C 
BRANCH  20  23
HETATM   23  C15 UNL     1      20.477  19.618  61.247  1.00  0.00     0.208 C 
HETATM   24  O4  UNL     1      19.889  19.109  62.208  1.00  0.00    -0.646 OA
HETATM   25  O5  UNL     1      19.658  20.321  60.338  1.00  0.00    -0.646 OA
ENDBRANCH  20  23
ENDBRANCH  19  20
ENDBRANCH  13  19
BRANCH  14  26
HETATM   26  C17 UNL     1      22.569  16.763  63.713  1.00  0.00     0.120 C 
HETATM   27  C18 UNL     1      22.159  15.489  64.422  1.00  0.00     0.040 C 
BRANCH  26  28
HETATM   28  O6  UNL     1      21.637  17.722  64.007  1.00  0.00    -0.395 OA
ATOM     29  H6  UNL     1      20.747  17.461  63.799  1.00  0.00     0.210 HD
ENDBRANCH  26  28
ENDBRANCH  14  26
TORSDOF 5
ENDMDL
MODEL 3
REMARK VINA RESULT: -6.998329035      3.222      6.386
REMARK  5 active torsions:
REMARK  status: ('A' for Active; 'I' for Inactive)
REMARK    1  A    between atoms: C11_13  and  O3_14 
REMARK    2  A    between atoms: O3_14  and  C12_15 
REMARK    3  A    between atoms: C12_15  and  C15_18 
REMARK    4  A    between atoms: C16_21  and  C17_22 
REMARK    5  A    between atoms: C17_22  and  O6_24 
ROOT
HETATM    1  C1  UNL     1      29.371  18.297  62.301  1.00  0.00     0.026 C 
HETATM    2  C2  UNL     1      28.248  18.518  61.653  1.00  0.00     0.018 C 
HETATM    3  C3  UNL     1      28.026  18.637  60.212  1.00  0.00     0.289 C 
HETATM    4  O1  UNL     1      28.933  18.692  59.317  1.00  0.00    -0.260 OA
HETATM    5  O2  UNL     1      26.655  18.680  59.993  1.00  0.00    -0.311 OA
HETATM    6  C4  UNL     1      26.099  17.993  61.143  1.00  0.00     0.149 C 
HETATM    7  C5  UNL     1      26.876  18.711  62.206  1.00  0.00     0.076 C 
HETATM    8  C6  UNL     1      26.562  20.162  62.011  1.00  0.00    -0.012 C 
HETATM    9  C7  UNL     1      25.386  20.711  62.183  1.00  0.00    -0.086 C 
HETATM   10  C8  UNL     1      25.322  22.162  61.929  1.00  0.00     0.043 C 
HETATM   11  C9  UNL     1      24.131  20.067  62.609  1.00  0.00     0.041 C 
HETATM   12  C10 UNL     1      23.822  18.739  62.110  1.00  0.00     0.026 C 
HETATM   13  C11 UNL     1      22.419  18.736  61.453  1.00  0.00     0.134 C 
HETATM   14  C16 UNL     1      21.823  17.429  61.873  1.00  0.00     0.044 C 
HETATM   15  C19 UNL     1      22.880  16.376  62.003  1.00  0.00     0.014 C 
HETATM   16  C20 UNL     1      24.131  16.536  61.236  1.00  0.00    -0.011 C 
HETATM   17  C21 UNL     1      25.152  15.624  61.939  1.00  0.00     0.010 C 
HETATM   18  C22 UNL     1      24.660  17.986  61.174  1.00  0.00     0.027 C 
ENDROOT
BRANCH  13  19
HETATM   19  O3  UNL     1      21.702  19.858  61.610  1.00  0.00    -0.364 OA
BRANCH  19  20
HETATM   20  C12 UNL     1      21.139  20.491  60.556  1.00  0.00     0.142 C 
HETATM   21  C13 UNL     1      21.683  20.105  59.184  1.00  0.00     0.057 C 
HETATM   22  C14 UNL     1      21.636  21.977  60.696  1.00  0.00     0.057 C 
BRANCH  20  23
HETATM   23  C15 UNL     1      19.678  20.513  60.437  1.00  0.00     0.208 C 
HETATM   24  O4  UNL     1      18.846  20.090  61.247  1.00  0.00    -0.646 OA
HETATM   25  O5  UNL     1      19.146  21.084  59.262  1.00  0.00    -0.646 OA
ENDBRANCH  20  23
ENDBRANCH  19  20
ENDBRANCH  13  19
BRANCH  14  26
HETATM   26  C17 UNL     1      21.114  17.512  63.213  1.00  0.00     0.120 C 
HETATM   27  C18 UNL     1      20.843  16.132  63.773  1.00  0.00     0.040 C 
BRANCH  26  28
HETATM   28  O6  UNL     1      19.921  18.182  63.159  1.00  0.00    -0.395 OA
ATOM     29  H6  UNL     1      19.228  17.685  62.740  1.00  0.00     0.210 HD
ENDBRANCH  26  28
ENDBRANCH  14  26
TORSDOF 5
ENDMDL
MODEL 4
REMARK VINA RESULT: -6.918727767      1.734      4.481
REMARK  5 active torsions:
REMARK  status: ('A' for Active; 'I' for Inactive)
REMARK    1  A    between atoms: C11_13  and  O3_14 
REMARK    2  A    between atoms: O3_14  and  C12_15 
REMARK    3  A    between atoms: C12_15  and  C15_18 
REMARK    4  A    between atoms: C16_21  and  C17_22 
REMARK    5  A    between atoms: C17_22  and  O6_24 
ROOT
HETATM    1  C1  UNL     1      24.014  21.866  60.791  1.00  0.00     0.026 C 
HETATM    2  C2  UNL     1      23.338  20.741  60.880  1.00  0.00     0.018 C 
HETATM    3  C3  UNL     1      22.232  20.263  60.052  1.00  0.00     0.289 C 
HETATM    4  O1  UNL     1      21.619  20.939  59.160  1.00  0.00    -0.260 OA
HETATM    5  O2  UNL     1      21.969  18.946  60.406  1.00  0.00    -0.311 OA
HETATM    6  C4  UNL     1      23.231  18.473  60.943  1.00  0.00     0.149 C 
HETATM    7  C5  UNL     1      23.509  19.628  61.860  1.00  0.00     0.076 C 
HETATM    8  C6  UNL     1      22.321  19.703  62.769  1.00  0.00    -0.012 C 
HETATM    9  C7  UNL     1      21.983  18.795  63.648  1.00  0.00    -0.086 C 
HETATM   10  C8  UNL     1      20.768  19.092  64.430  1.00  0.00     0.043 C 
HETATM   11  C9  UNL     1      22.668  17.528  63.961  1.00  0.00     0.041 C 
HETATM   12  C10 UNL     1      23.245  16.758  62.875  1.00  0.00     0.026 C 
HETATM   13  C11 UNL     1      22.706  15.306  62.913  1.00  0.00     0.134 C 
HETATM   14  C16 UNL     1      23.897  14.467  62.566  1.00  0.00     0.044 C 
HETATM   15  C19 UNL     1      24.798  15.186  61.610  1.00  0.00     0.014 C 
HETATM   16  C20 UNL     1      24.219  16.240  60.755  1.00  0.00    -0.011 C 
HETATM   17  C21 UNL     1      25.419  17.085  60.293  1.00  0.00     0.010 C 
HETATM   18  C22 UNL     1      23.174  17.132  61.461  1.00  0.00     0.027 C 
ENDROOT
BRANCH  13  19
HETATM   19  O3  UNL     1      21.976  14.986  63.991  1.00  0.00    -0.364 OA
BRANCH  19  20
HETATM   20  C12 UNL     1      20.736  14.459  63.874  1.00  0.00     0.142 C 
HETATM   21  C13 UNL     1      19.807  15.164  62.889  1.00  0.00     0.057 C 
HETATM   22  C14 UNL     1      20.055  14.786  65.253  1.00  0.00     0.057 C 
BRANCH  20  23
HETATM   23  C15 UNL     1      20.594  13.021  63.630  1.00  0.00     0.208 C 
HETATM   24  O4  UNL     1      21.468  12.150  63.702  1.00  0.00    -0.646 OA
HETATM   25  O5  UNL     1      19.309  12.564  63.268  1.00  0.00    -0.646 OA
ENDBRANCH  20  23
ENDBRANCH  19  20
ENDBRANCH  13  19
BRANCH  14  26
HETATM   26  C17 UNL     1      24.734  14.109  63.781  1.00  0.00     0.120 C 
HETATM   27  C18 UNL     1      26.206  14.052  63.430  1.00  0.00     0.040 C 
BRANCH  26  28
HETATM   28  O6  UNL     1      24.393  12.910  64.345  1.00  0.00    -0.395 OA
ATOM     29  H6  UNL     1      25.089  12.264  64.310  1.00  0.00     0.210 HD
ENDBRANCH  26  28
ENDBRANCH  14  26
TORSDOF 5
ENDMDL
MODEL 5
REMARK VINA RESULT: -6.887836983      3.271      6.266
REMARK  5 active torsions:
REMARK  status: ('A' for Active; 'I' for Inactive)
REMARK    1  A    between atoms: C11_13  and  O3_14 
REMARK    2  A    between atoms: O3_14  and  C12_15 
REMARK    3  A    between atoms: C12_15  and  C15_18 
REMARK    4  A    between atoms: C16_21  and  C17_22 
REMARK    5  A    between atoms: C17_22  and  O6_24 
ROOT
HETATM    1  C1  UNL     1      29.124  19.275  59.490  1.00  0.00     0.026 C 
HETATM    2  C2  UNL     1      28.120  19.262  60.339  1.00  0.00     0.018 C 
HETATM    3  C3  UNL     1      28.145  19.370  61.798  1.00  0.00     0.289 C 
HETATM    4  O1  UNL     1      29.189  19.351  62.530  1.00  0.00    -0.260 OA
HETATM    5  O2  UNL     1      26.835  19.496  62.241  1.00  0.00    -0.311 OA
HETATM    6  C4  UNL     1      26.138  20.067  61.104  1.00  0.00     0.149 C 
HETATM    7  C5  UNL     1      26.661  19.131  60.053  1.00  0.00     0.076 C 
HETATM    8  C6  UNL     1      26.278  17.762  60.521  1.00  0.00    -0.012 C 
HETATM    9  C7  UNL     1      25.052  17.315  60.630  1.00  0.00    -0.086 C 
HETATM   10  C8  UNL     1      24.925  15.928  61.115  1.00  0.00     0.043 C 
HETATM   11  C9  UNL     1      23.794  18.015  60.319  1.00  0.00     0.041 C 
HETATM   12  C10 UNL     1      23.678  19.424  60.648  1.00  0.00     0.026 C 
HETATM   13  C11 UNL     1      22.416  19.661  61.516  1.00  0.00     0.134 C 
HETATM   14  C16 UNL     1      21.855  20.949  61.001  1.00  0.00     0.044 C 
HETATM   15  C19 UNL     1      22.949  21.861  60.537  1.00  0.00     0.014 C 
HETATM   16  C20 UNL     1      24.300  21.686  61.107  1.00  0.00    -0.011 C 
HETATM   17  C21 UNL     1      25.247  22.383  60.113  1.00  0.00     0.010 C 
HETATM   18  C22 UNL     1      24.721  20.213  61.306  1.00  0.00     0.027 C 
ENDROOT
BRANCH  13  19
HETATM   19  O3  UNL     1      21.601  18.605  61.655  1.00  0.00    -0.364 OA
BRANCH  19  20
HETATM   20  C12 UNL     1      21.079  18.267  62.857  1.00  0.00     0.142 C 
HETATM   21  C13 UNL     1      21.691  18.969  64.065  1.00  0.00     0.057 C 
HETATM   22  C14 UNL     1      21.552  16.782  63.070  1.00  0.00     0.057 C 
BRANCH  20  23
HETATM   23  C15 UNL     1      19.626  18.308  63.037  1.00  0.00     0.208 C 
HETATM   24  O4  UNL     1      18.863  19.259  62.832  1.00  0.00    -0.646 OA
HETATM   25  O5  UNL     1      19.011  17.126  63.502  1.00  0.00    -0.646 OA
ENDBRANCH  20  23
ENDBRANCH  19  20
ENDBRANCH  13  19
BRANCH  14  26
HETATM   26  C17 UNL     1      20.917  20.749  59.823  1.00  0.00     0.120 C 
HETATM   27  C18 UNL     1      19.580  21.413  60.074  1.00  0.00     0.040 C 
BRANCH  26  28
HETATM   28  O6  UNL     1      20.682  19.432  59.531  1.00  0.00    -0.395 OA
ATOM     29  H6  UNL     1      20.763  19.230  58.606  1.00  0.00     0.210 HD
ENDBRANCH  26  28
ENDBRANCH  14  26
TORSDOF 5
ENDMDL
