MODEL 1
REMARK VINA RESULT: -7.947143414      0.000      0.000
REMARK  6 active torsions:
REMARK  status: ('A' for Active; 'I' for Inactive)
REMARK    1  A    between atoms: C2_2  and  C3_3 
REMARK    2  A    between atoms: C3_3  and  C4_4 
REMARK    3  A    between atoms: C5_5  and  C6_6 
REMARK    4  A    between atoms: C10_11  and  C11_12 
REMARK    5  A    between atoms: C15_19  and  O5_20 
REMARK    6  A    between atoms: C16_22  and  O6_24 
ROOT
HETATM    1  C11 UNL     1      24.305  16.984  61.583  1.00  0.00     0.157 C 
HETATM    2  O2  UNL     1      24.151  15.589  61.489  1.00  0.00    -0.314 OA
HETATM    3  C12 UNL     1      25.108  14.748  60.966  1.00  0.00     0.261 C 
HETATM    4  O3  UNL     1      24.776  13.771  60.292  1.00  0.00    -0.265 OA
HETATM    5  C13 UNL     1      26.572  15.013  61.209  1.00  0.00     0.144 C 
HETATM    6  C14 UNL     1      26.737  16.386  61.812  1.00  0.00     0.144 C 
HETATM    7  O4  UNL     1      27.984  16.952  61.599  1.00  0.00    -0.352 OA
HETATM    8  C15 UNL     1      28.335  17.175  60.306  1.00  0.00     0.291 C 
HETATM    9  C16 UNL     1      27.273  17.698  59.414  1.00  0.00     0.104 C 
HETATM   10  C17 UNL     1      27.699  19.050  58.820  1.00  0.00     0.051 C 
HETATM   11  C18 UNL     1      25.910  17.758  59.945  1.00  0.00     0.057 C 
HETATM   12  C19 UNL     1      25.712  17.385  61.407  1.00  0.00     0.013 C 
HETATM   13  C20 UNL     1      26.074  18.678  62.166  1.00  0.00     0.020 C 
ENDROOT
BRANCH   1  14
HETATM   14  C10 UNL     1      23.552  17.558  62.764  1.00  0.00     0.113 A 
HETATM   15  C9  UNL     1      22.452  18.438  62.278  1.00  0.00     0.166 A 
HETATM   16  C7  UNL     1      21.044  18.227  62.466  1.00  0.00    -0.005 A 
HETATM   17  O1  UNL     1      22.804  19.481  61.630  1.00  0.00    -0.292 OA
HETATM   18  C6  UNL     1      20.652  17.196  63.216  1.00  0.00    -0.027 A 
HETATM   19  C8  UNL     1      20.016  19.149  61.856  1.00  0.00     0.053 C 
HETATM   20  C22 UNL     1      21.675  16.330  63.760  1.00  0.00     0.009 A 
HETATM   21  C21 UNL     1      22.983  16.466  63.578  1.00  0.00    -0.011 A 
BRANCH  18  22
HETATM   22  C5  UNL     1      19.226  17.009  63.414  1.00  0.00     0.008 C 
HETATM   23  C4  UNL     1      18.735  15.858  63.798  1.00  0.00    -0.026 C 
BRANCH  23  24
HETATM   24  C3  UNL     1      17.270  15.639  64.008  1.00  0.00     0.027 C 
BRANCH  24  25
HETATM   25  C2  UNL     1      16.965  15.807  65.483  1.00  0.00    -0.001 C 
HETATM   26  C1  UNL     1      17.811  14.923  66.341  1.00  0.00     0.005 C 
ENDBRANCH  24  25
ENDBRANCH  23  24
ENDBRANCH  18  22
ENDBRANCH   1  14
BRANCH   9  27
HETATM   27  O6  UNL     1      27.256  16.866  58.258  1.00  0.00    -0.385 OA
ATOM     28  H6  UNL     1      26.936  16.015  58.536  1.00  0.00     0.210 HD
ENDBRANCH   9  27
BRANCH   8  29
HETATM   29  O5  UNL     1      29.423  18.083  60.328  1.00  0.00    -0.368 OA
ATOM     30  H5  UNL     1      30.126  17.683  59.830  1.00  0.00     0.212 HD
ENDBRANCH   8  29
TORSDOF 6
ENDMDL
MODEL 2
REMARK VINA RESULT: -7.920776833      3.165      6.610
REMARK  6 active torsions:
REMARK  status: ('A' for Active; 'I' for Inactive)
REMARK    1  A    between atoms: C2_2  and  C3_3 
REMARK    2  A    between atoms: C3_3  and  C4_4 
REMARK    3  A    between atoms: C5_5  and  C6_6 
REMARK    4  A    between atoms: C10_11  and  C11_12 
REMARK    5  A    between atoms: C15_19  and  O5_20 
REMARK    6  A    between atoms: C16_22  and  O6_24 
ROOT
HETATM    1  C11 UNL     1      19.064  16.530  63.850  1.00  0.00     0.157 C 
HETATM    2  O2  UNL     1      18.616  17.849  63.650  1.00  0.00    -0.314 OA
HETATM    3  C12 UNL     1      19.415  18.860  63.163  1.00  0.00     0.261 C 
HETATM    4  O3  UNL     1      19.299  20.008  63.599  1.00  0.00    -0.265 OA
HETATM    5  C13 UNL     1      20.440  18.577  62.095  1.00  0.00     0.144 C 
HETATM    6  C14 UNL     1      20.583  17.085  61.924  1.00  0.00     0.144 C 
HETATM    7  O4  UNL     1      21.804  16.689  61.399  1.00  0.00    -0.352 OA
HETATM    8  C15 UNL     1      22.905  16.989  62.135  1.00  0.00     0.291 C 
HETATM    9  C16 UNL     1      22.789  16.807  63.602  1.00  0.00     0.104 C 
HETATM   10  C17 UNL     1      23.841  15.800  64.095  1.00  0.00     0.051 C 
HETATM   11  C18 UNL     1      21.465  16.499  64.145  1.00  0.00     0.057 C 
HETATM   12  C19 UNL     1      20.335  16.279  63.149  1.00  0.00     0.013 C 
HETATM   13  C20 UNL     1      20.510  14.808  62.718  1.00  0.00     0.020 C 
ENDROOT
BRANCH   1  14
HETATM   14  C10 UNL     1      17.948  15.523  63.668  1.00  0.00     0.113 A 
HETATM   15  C9  UNL     1      17.538  14.985  64.996  1.00  0.00     0.166 A 
HETATM   16  C7  UNL     1      16.253  15.141  65.620  1.00  0.00    -0.005 A 
HETATM   17  O1  UNL     1      18.421  14.321  65.637  1.00  0.00    -0.292 OA
HETATM   18  C6  UNL     1      15.285  15.750  64.933  1.00  0.00    -0.027 A 
HETATM   19  C8  UNL     1      15.978  14.618  67.008  1.00  0.00     0.053 C 
HETATM   20  C22 UNL     1      15.606  16.252  63.615  1.00  0.00     0.009 A 
HETATM   21  C21 UNL     1      16.788  16.165  63.019  1.00  0.00    -0.011 A 
BRANCH  18  22
HETATM   22  C5  UNL     1      13.987  15.881  65.569  1.00  0.00     0.008 C 
HETATM   23  C4  UNL     1      12.881  15.593  64.930  1.00  0.00    -0.026 C 
BRANCH  23  24
HETATM   24  C3  UNL     1      11.531  15.720  65.562  1.00  0.00     0.027 C 
BRANCH  24  25
HETATM   25  C2  UNL     1      11.091  14.350  66.038  1.00  0.00    -0.001 C 
HETATM   26  C1  UNL     1      10.359  13.590  64.979  1.00  0.00     0.005 C 
ENDBRANCH  24  25
ENDBRANCH  23  24
ENDBRANCH  18  22
ENDBRANCH   1  14
BRANCH   9  27
HETATM   27  O6  UNL     1      23.240  18.015  64.206  1.00  0.00    -0.385 OA
ATOM     28  H6  UNL     1      23.302  17.850  65.139  1.00  0.00     0.210 HD
ENDBRANCH   9  27
BRANCH   8  29
HETATM   29  O5  UNL     1      23.959  16.181  61.641  1.00  0.00    -0.368 OA
ATOM     30  H5  UNL     1      24.591  16.094  62.345  1.00  0.00     0.212 HD
ENDBRANCH   8  29
TORSDOF 6
ENDMDL
MODEL 3
REMARK VINA RESULT: -7.821523208      1.433      3.272
REMARK  6 active torsions:
REMARK  status: ('A' for Active; 'I' for Inactive)
REMARK    1  A    between atoms: C2_2  and  C3_3 
REMARK    2  A    between atoms: C3_3  and  C4_4 
REMARK    3  A    between atoms: C5_5  and  C6_6 
REMARK    4  A    between atoms: C10_11  and  C11_12 
REMARK    5  A    between atoms: C15_19  and  O5_20 
REMARK    6  A    between atoms: C16_22  and  O6_24 
ROOT
HETATM    1  C11 UNL     1      24.460  17.440  62.027  1.00  0.00     0.157 C 
HETATM    2  O2  UNL     1      24.014  18.738  62.334  1.00  0.00    -0.314 OA
HETATM    3  C12 UNL     1      24.781  19.869  62.162  1.00  0.00     0.261 C 
HETATM    4  O3  UNL     1      24.718  20.793  62.975  1.00  0.00    -0.265 OA
HETATM    5  C13 UNL     1      25.708  19.990  60.979  1.00  0.00     0.144 C 
HETATM    6  C14 UNL     1      25.816  18.652  60.291  1.00  0.00     0.144 C 
HETATM    7  O4  UNL     1      26.983  18.483  59.561  1.00  0.00    -0.352 OA
HETATM    8  C15 UNL     1      28.146  18.529  60.259  1.00  0.00     0.291 C 
HETATM    9  C16 UNL     1      28.154  17.849  61.577  1.00  0.00     0.104 C 
HETATM   10  C17 UNL     1      29.231  16.753  61.601  1.00  0.00     0.051 C 
HETATM   11  C18 UNL     1      26.877  17.350  62.090  1.00  0.00     0.057 C 
HETATM   12  C19 UNL     1      25.664  17.468  61.179  1.00  0.00     0.013 C 
HETATM   13  C20 UNL     1      25.782  16.240  60.253  1.00  0.00     0.020 C 
ENDROOT
BRANCH   1  14
HETATM   14  C10 UNL     1      23.320  16.538  61.604  1.00  0.00     0.113 A 
HETATM   15  C9  UNL     1      23.130  15.461  62.617  1.00  0.00     0.166 A 
HETATM   16  C7  UNL     1      21.969  15.255  63.436  1.00  0.00    -0.005 A 
HETATM   17  O1  UNL     1      24.101  14.644  62.766  1.00  0.00    -0.292 OA
HETATM   18  C6  UNL     1      20.906  16.037  63.236  1.00  0.00    -0.027 A 
HETATM   19  C8  UNL     1      21.922  14.174  64.488  1.00  0.00     0.053 C 
HETATM   20  C22 UNL     1      21.009  17.071  62.230  1.00  0.00     0.009 A 
HETATM   21  C21 UNL     1      22.075  17.320  61.481  1.00  0.00    -0.011 A 
BRANCH  18  22
HETATM   22  C5  UNL     1      19.732  15.802  64.058  1.00  0.00     0.008 C 
HETATM   23  C4  UNL     1      18.537  16.157  63.658  1.00  0.00    -0.026 C 
BRANCH  23  24
HETATM   24  C3  UNL     1      17.312  15.927  64.486  1.00  0.00     0.027 C 
BRANCH  24  25
HETATM   25  C2  UNL     1      17.709  15.164  65.734  1.00  0.00    -0.001 C 
HETATM   26  C1  UNL     1      16.526  14.768  66.556  1.00  0.00     0.005 C 
ENDBRANCH  24  25
ENDBRANCH  23  24
ENDBRANCH  18  22
ENDBRANCH   1  14
BRANCH   9  27
HETATM   27  O6  UNL     1      28.670  18.783  62.520  1.00  0.00    -0.385 OA
ATOM     28  H6  UNL     1      29.366  18.340  62.993  1.00  0.00     0.210 HD
ENDBRANCH   9  27
BRANCH   8  29
HETATM   29  O5  UNL     1      29.144  17.960  59.429  1.00  0.00    -0.368 OA
ATOM     30  H5  UNL     1      29.687  18.677  59.120  1.00  0.00     0.212 HD
ENDBRANCH   8  29
TORSDOF 6
ENDMDL
MODEL 4
REMARK VINA RESULT: -7.573972847      2.144      2.644
REMARK  6 active torsions:
REMARK  status: ('A' for Active; 'I' for Inactive)
REMARK    1  A    between atoms: C2_2  and  C3_3 
REMARK    2  A    between atoms: C3_3  and  C4_4 
REMARK    3  A    between atoms: C5_5  and  C6_6 
REMARK    4  A    between atoms: C10_11  and  C11_12 
REMARK    5  A    between atoms: C15_19  and  O5_20 
REMARK    6  A    between atoms: C16_22  and  O6_24 
ROOT
HETATM    1  C11 UNL     1      24.489  18.870  61.593  1.00  0.00     0.157 C 
HETATM    2  O2  UNL     1      24.718  17.644  60.943  1.00  0.00    -0.314 OA
HETATM    3  C12 UNL     1      25.822  17.389  60.160  1.00  0.00     0.261 C 
HETATM    4  O3  UNL     1      25.717  16.706  59.140  1.00  0.00    -0.265 OA
HETATM    5  C13 UNL     1      27.171  17.944  60.540  1.00  0.00     0.144 C 
HETATM    6  C14 UNL     1      27.002  18.953  61.649  1.00  0.00     0.144 C 
HETATM    7  O4  UNL     1      28.022  19.888  61.724  1.00  0.00    -0.352 OA
HETATM    8  C15 UNL     1      28.188  20.692  60.643  1.00  0.00     0.291 C 
HETATM    9  C16 UNL     1      26.951  21.196  59.998  1.00  0.00     0.104 C 
HETATM   10  C17 UNL     1      26.936  22.733  60.011  1.00  0.00     0.051 C 
HETATM   11  C18 UNL     1      25.674  20.650  60.460  1.00  0.00     0.057 C 
HETATM   12  C19 UNL     1      25.711  19.692  61.642  1.00  0.00     0.013 C 
HETATM   13  C20 UNL     1      25.765  20.627  62.868  1.00  0.00     0.020 C 
ENDROOT
BRANCH   1  14
HETATM   14  C10 UNL     1      23.709  18.690  62.878  1.00  0.00     0.113 A 
HETATM   15  C9  UNL     1      22.305  19.147  62.680  1.00  0.00     0.166 A 
HETATM   16  C7  UNL     1      21.124  18.332  62.754  1.00  0.00    -0.005 A 
HETATM   17  O1  UNL     1      22.142  20.387  62.418  1.00  0.00    -0.292 OA
HETATM   18  C6  UNL     1      21.257  17.055  63.115  1.00  0.00    -0.027 A 
HETATM   19  C8  UNL     1      19.755  18.892  62.454  1.00  0.00     0.053 C 
HETATM   20  C22 UNL     1      22.592  16.562  63.371  1.00  0.00     0.009 A 
HETATM   21  C21 UNL     1      23.711  17.269  63.276  1.00  0.00    -0.011 A 
BRANCH  18  22
HETATM   22  C5  UNL     1      20.052  16.251  63.206  1.00  0.00     0.008 C 
HETATM   23  C4  UNL     1      20.049  15.091  63.813  1.00  0.00    -0.026 C 
BRANCH  23  24
HETATM   24  C3  UNL     1      18.821  14.243  63.919  1.00  0.00     0.027 C 
BRANCH  24  25
HETATM   25  C2  UNL     1      19.188  12.816  63.564  1.00  0.00    -0.001 C 
HETATM   26  C1  UNL     1      20.655  12.558  63.697  1.00  0.00     0.005 C 
ENDBRANCH  24  25
ENDBRANCH  23  24
ENDBRANCH  18  22
ENDBRANCH   1  14
BRANCH   9  27
HETATM   27  O6  UNL     1      27.068  20.920  58.606  1.00  0.00    -0.385 OA
ATOM     28  H6  UNL     1      26.406  20.271  58.398  1.00  0.00     0.210 HD
ENDBRANCH   9  27
BRANCH   8  29
HETATM   29  O5  UNL     1      28.981  21.788  61.065  1.00  0.00    -0.368 OA
ATOM     30  H5  UNL     1      29.773  21.773  60.541  1.00  0.00     0.212 HD
ENDBRANCH   8  29
TORSDOF 6
ENDMDL
MODEL 5
REMARK VINA RESULT: -7.534705947      1.899      2.301
REMARK  6 active torsions:
REMARK  status: ('A' for Active; 'I' for Inactive)
REMARK    1  A    between atoms: C2_2  and  C3_3 
REMARK    2  A    between atoms: C3_3  and  C4_4 
REMARK    3  A    between atoms: C5_5  and  C6_6 
REMARK    4  A    between atoms: C10_11  and  C11_12 
REMARK    5  A    between atoms: C15_19  and  O5_20 
REMARK    6  A    between atoms: C16_22  and  O6_24 
ROOT
HETATM    1  C11 UNL     1      24.463  18.828  61.681  1.00  0.00     0.157 C 
HETATM    2  O2  UNL     1      24.657  17.594  61.033  1.00  0.00    -0.314 OA
HETATM    3  C12 UNL     1      25.750  17.309  60.247  1.00  0.00     0.261 C 
HETATM    4  O3  UNL     1      25.622  16.625  59.229  1.00  0.00    -0.265 OA
HETATM    5  C13 UNL     1      27.115  17.829  60.618  1.00  0.00     0.144 C 
HETATM    6  C14 UNL     1      26.977  18.845  61.724  1.00  0.00     0.144 C 
HETATM    7  O4  UNL     1      28.022  19.754  61.791  1.00  0.00    -0.352 OA
HETATM    8  C15 UNL     1      28.204  20.550  60.706  1.00  0.00     0.291 C 
HETATM    9  C16 UNL     1      26.977  21.084  60.066  1.00  0.00     0.104 C 
HETATM   10  C17 UNL     1      27.003  22.621  60.074  1.00  0.00     0.051 C 
HETATM   11  C18 UNL     1      25.689  20.573  60.536  1.00  0.00     0.057 C 
HETATM   12  C19 UNL     1      25.707  19.618  61.721  1.00  0.00     0.013 C 
HETATM   13  C20 UNL     1      25.790  20.555  62.944  1.00  0.00     0.020 C 
ENDROOT
BRANCH   1  14
HETATM   14  C10 UNL     1      23.685  18.673  62.970  1.00  0.00     0.113 A 
HETATM   15  C9  UNL     1      22.286  19.147  62.771  1.00  0.00     0.166 A 
HETATM   16  C7  UNL     1      21.094  18.349  62.857  1.00  0.00    -0.005 A 
HETATM   17  O1  UNL     1      22.140  20.386  62.496  1.00  0.00    -0.292 OA
HETATM   18  C6  UNL     1      21.211  17.074  63.232  1.00  0.00    -0.027 A 
HETATM   19  C8  UNL     1      19.732  18.924  62.556  1.00  0.00     0.053 C 
HETATM   20  C22 UNL     1      22.541  16.566  63.490  1.00  0.00     0.009 A 
HETATM   21  C21 UNL     1      23.669  17.256  63.383  1.00  0.00    -0.011 A 
BRANCH  18  22
HETATM   22  C5  UNL     1      19.996  16.287  63.335  1.00  0.00     0.008 C 
HETATM   23  C4  UNL     1      19.943  15.206  64.071  1.00  0.00    -0.026 C 
BRANCH  23  24
HETATM   24  C3  UNL     1      18.703  14.378  64.194  1.00  0.00     0.027 C 
BRANCH  24  25
HETATM   25  C2  UNL     1      17.617  15.225  64.826  1.00  0.00    -0.001 C 
HETATM   26  C1  UNL     1      17.643  15.157  66.319  1.00  0.00     0.005 C 
ENDBRANCH  24  25
ENDBRANCH  23  24
ENDBRANCH  18  22
ENDBRANCH   1  14
BRANCH   9  27
HETATM   27  O6  UNL     1      27.080  20.800  58.675  1.00  0.00    -0.385 OA
ATOM     28  H6  UNL     1      26.213  20.918  58.305  1.00  0.00     0.210 HD
ENDBRANCH   9  27
BRANCH   8  29
HETATM   29  O5  UNL     1      29.027  21.626  61.122  1.00  0.00    -0.368 OA
ATOM     30  H5  UNL     1      29.328  21.420  61.999  1.00  0.00     0.212 HD
ENDBRANCH   8  29
TORSDOF 6
ENDMDL
