MODEL 1
REMARK VINA RESULT: -6.850480357      0.000      0.000
REMARK  5 active torsions:
REMARK  status: ('A' for Active; 'I' for Inactive)
REMARK    1  A    between atoms: O1_2  and  N1_3 
REMARK    2  A    between atoms: N1_3  and  C2_5 
REMARK    3  A    between atoms: C2_5  and  N2_6 
REMARK    4  A    between atoms: N2_6  and  S1_8 
REMARK    5  A    between atoms: S1_8  and  C3_11 
ROOT
HETATM    1  S1  UNL     1      25.438  25.102  11.687  1.00  0.00     0.270 S 
HETATM    2  O2  UNL     1      26.444  24.553  10.748  1.00  0.00    -0.200 OA
HETATM    3  O3  UNL     1      24.082  24.569  11.242  1.00  0.00    -0.200 OA
ENDROOT
BRANCH   1   4
HETATM    4  N2  UNL     1      25.328  26.816  11.645  1.00  0.00    -0.229 N 
ATOM      5  H2  UNL     1      25.592  27.344  10.813  1.00  0.00     0.190 HD
BRANCH   4   6
HETATM    6  C2  UNL     1      24.900  27.402  12.701  1.00  0.00     0.084 C 
BRANCH   6   7
HETATM    7  N1  UNL     1      24.422  27.934  13.753  1.00  0.00    -0.215 N 
ATOM      8  H1  UNL     1      25.028  28.162  14.541  1.00  0.00     0.205 HD
BRANCH   7   9
HETATM    9  O1  UNL     1      23.110  28.189  13.809  1.00  0.00    -0.277 OA
HETATM   10  C1  UNL     1      22.186  27.860  14.782  1.00  0.00     0.238 C 
ENDBRANCH   7   9
ENDBRANCH   6   7
ENDBRANCH   4   6
ENDBRANCH   1   4
BRANCH   1  11
HETATM   11  C3  UNL     1      25.683  24.513  13.313  1.00  0.00     0.080 A 
HETATM   12  C4  UNL     1      26.920  24.159  13.807  1.00  0.00     0.025 A 
HETATM   13  C5  UNL     1      27.105  23.696  15.091  1.00  0.00     0.002 A 
HETATM   14  C6  UNL     1      26.023  23.577  15.916  1.00  0.00     0.000 A 
HETATM   15  C7  UNL     1      24.772  23.922  15.452  1.00  0.00     0.002 A 
HETATM   16  C8  UNL     1      24.610  24.385  14.162  1.00  0.00     0.025 A 
ENDBRANCH   1  11
TORSDOF 5
ENDMDL
MODEL 2
REMARK VINA RESULT: -6.489417403      2.747      4.632
REMARK  5 active torsions:
REMARK  status: ('A' for Active; 'I' for Inactive)
REMARK    1  A    between atoms: O1_2  and  N1_3 
REMARK    2  A    between atoms: N1_3  and  C2_5 
REMARK    3  A    between atoms: C2_5  and  N2_6 
REMARK    4  A    between atoms: N2_6  and  S1_8 
REMARK    5  A    between atoms: S1_8  and  C3_11 
ROOT
HETATM    1  S1  UNL     1      22.989  24.556  13.845  1.00  0.00     0.270 S 
HETATM    2  O2  UNL     1      24.153  23.784  14.339  1.00  0.00    -0.200 OA
HETATM    3  O3  UNL     1      21.749  23.720  14.136  1.00  0.00    -0.200 OA
ENDROOT
BRANCH   1   4
HETATM    4  N2  UNL     1      23.014  24.817  12.148  1.00  0.00    -0.229 N 
ATOM      5  H2  UNL     1      22.191  24.643  11.571  1.00  0.00     0.190 HD
BRANCH   4   6
HETATM    6  C2  UNL     1      24.110  25.240  11.636  1.00  0.00     0.084 C 
BRANCH   6   7
HETATM    7  N1  UNL     1      25.233  25.644  11.192  1.00  0.00    -0.215 N 
ATOM      8  H1  UNL     1      25.400  26.637  11.031  1.00  0.00     0.205 HD
BRANCH   7   9
HETATM    9  O1  UNL     1      26.190  24.744  10.942  1.00  0.00    -0.277 OA
HETATM   10  C1  UNL     1      26.725  23.770  11.763  1.00  0.00     0.238 C 
ENDBRANCH   7   9
ENDBRANCH   6   7
ENDBRANCH   4   6
ENDBRANCH   1   4
BRANCH   1  11
HETATM   11  C3  UNL     1      22.786  26.051  14.724  1.00  0.00     0.080 A 
HETATM   12  C4  UNL     1      22.246  27.188  14.163  1.00  0.00     0.025 A 
HETATM   13  C5  UNL     1      22.089  28.364  14.864  1.00  0.00     0.002 A 
HETATM   14  C6  UNL     1      22.483  28.414  16.170  1.00  0.00     0.000 A 
HETATM   15  C7  UNL     1      23.027  27.294  16.762  1.00  0.00     0.002 A 
HETATM   16  C8  UNL     1      23.174  26.127  16.040  1.00  0.00     0.025 A 
ENDBRANCH   1  11
TORSDOF 5
ENDMDL
MODEL 3
REMARK VINA RESULT: -6.486154713      2.287      4.401
REMARK  5 active torsions:
REMARK  status: ('A' for Active; 'I' for Inactive)
REMARK    1  A    between atoms: O1_2  and  N1_3 
REMARK    2  A    between atoms: N1_3  and  C2_5 
REMARK    3  A    between atoms: C2_5  and  N2_6 
REMARK    4  A    between atoms: N2_6  and  S1_8 
REMARK    5  A    between atoms: S1_8  and  C3_11 
ROOT
HETATM    1  S1  UNL     1      23.607  24.573  12.375  1.00  0.00     0.270 S 
HETATM    2  O2  UNL     1      23.594  23.270  13.080  1.00  0.00    -0.200 OA
HETATM    3  O3  UNL     1      22.495  24.523  11.335  1.00  0.00    -0.200 OA
ENDROOT
BRANCH   1   4
HETATM    4  N2  UNL     1      25.065  24.870  11.517  1.00  0.00    -0.229 N 
ATOM      5  H2  UNL     1      25.095  25.516  10.727  1.00  0.00     0.190 HD
BRANCH   4   6
HETATM    6  C2  UNL     1      26.114  24.246  11.909  1.00  0.00     0.084 C 
BRANCH   6   7
HETATM    7  N1  UNL     1      27.124  23.622  12.366  1.00  0.00    -0.215 N 
ATOM      8  H1  UNL     1      27.853  23.283  11.737  1.00  0.00     0.205 HD
BRANCH   7   9
HETATM    9  O1  UNL     1      27.215  23.417  13.684  1.00  0.00    -0.277 OA
HETATM   10  C1  UNL     1      26.821  24.224  14.734  1.00  0.00     0.238 C 
ENDBRANCH   7   9
ENDBRANCH   6   7
ENDBRANCH   4   6
ENDBRANCH   1   4
BRANCH   1  11
HETATM   11  C3  UNL     1      23.212  25.892  13.449  1.00  0.00     0.080 A 
HETATM   12  C4  UNL     1      22.206  25.824  14.388  1.00  0.00     0.025 A 
HETATM   13  C5  UNL     1      21.901  26.869  15.231  1.00  0.00     0.002 A 
HETATM   14  C6  UNL     1      22.621  28.026  15.141  1.00  0.00     0.000 A 
HETATM   15  C7  UNL     1      23.634  28.127  14.212  1.00  0.00     0.002 A 
HETATM   16  C8  UNL     1      23.922  27.066  13.377  1.00  0.00     0.025 A 
ENDBRANCH   1  11
TORSDOF 5
ENDMDL
MODEL 4
REMARK VINA RESULT: -6.482167964      2.586      4.872
REMARK  5 active torsions:
REMARK  status: ('A' for Active; 'I' for Inactive)
REMARK    1  A    between atoms: O1_2  and  N1_3 
REMARK    2  A    between atoms: N1_3  and  C2_5 
REMARK    3  A    between atoms: C2_5  and  N2_6 
REMARK    4  A    between atoms: N2_6  and  S1_8 
REMARK    5  A    between atoms: S1_8  and  C3_11 
ROOT
HETATM    1  S1  UNL     1      24.281  25.827  14.472  1.00  0.00     0.270 S 
HETATM    2  O2  UNL     1      24.565  24.813  15.515  1.00  0.00    -0.200 OA
HETATM    3  O3  UNL     1      23.539  25.111  13.350  1.00  0.00    -0.200 OA
ENDROOT
BRANCH   1   4
HETATM    4  N2  UNL     1      25.698  26.498  13.770  1.00  0.00    -0.229 N 
ATOM      5  H2  UNL     1      26.385  26.999  14.335  1.00  0.00     0.190 HD
BRANCH   4   6
HETATM    6  C2  UNL     1      25.857  26.344  12.508  1.00  0.00     0.084 C 
BRANCH   6   7
HETATM    7  N1  UNL     1      25.989  26.121  11.262  1.00  0.00    -0.215 N 
ATOM      8  H1  UNL     1      25.871  26.875  10.585  1.00  0.00     0.205 HD
BRANCH   7   9
HETATM    9  O1  UNL     1      26.285  24.882  10.855  1.00  0.00    -0.277 OA
HETATM   10  C1  UNL     1      26.418  23.718  11.587  1.00  0.00     0.238 C 
ENDBRANCH   7   9
ENDBRANCH   6   7
ENDBRANCH   4   6
ENDBRANCH   1   4
BRANCH   1  11
HETATM   11  C3  UNL     1      23.202  27.069  15.056  1.00  0.00     0.080 A 
HETATM   12  C4  UNL     1      23.129  27.443  16.380  1.00  0.00     0.025 A 
HETATM   13  C5  UNL     1      22.275  28.424  16.832  1.00  0.00     0.002 A 
HETATM   14  C6  UNL     1      21.461  29.059  15.938  1.00  0.00     0.000 A 
HETATM   15  C7  UNL     1      21.509  28.709  14.606  1.00  0.00     0.002 A 
HETATM   16  C8  UNL     1      22.374  27.723  14.175  1.00  0.00     0.025 A 
ENDBRANCH   1  11
TORSDOF 5
ENDMDL
MODEL 5
REMARK VINA RESULT: -6.442719001      2.270      4.339
REMARK  5 active torsions:
REMARK  status: ('A' for Active; 'I' for Inactive)
REMARK    1  A    between atoms: O1_2  and  N1_3 
REMARK    2  A    between atoms: N1_3  and  C2_5 
REMARK    3  A    between atoms: C2_5  and  N2_6 
REMARK    4  A    between atoms: N2_6  and  S1_8 
REMARK    5  A    between atoms: S1_8  and  C3_11 
ROOT
HETATM    1  S1  UNL     1      23.569  24.602  12.518  1.00  0.00     0.270 S 
HETATM    2  O2  UNL     1      23.585  23.283  13.193  1.00  0.00    -0.200 OA
HETATM    3  O3  UNL     1      22.513  24.525  11.422  1.00  0.00    -0.200 OA
ENDROOT
BRANCH   1   4
HETATM    4  N2  UNL     1      25.051  24.990  11.743  1.00  0.00    -0.229 N 
ATOM      5  H2  UNL     1      25.110  25.741  11.054  1.00  0.00     0.190 HD
BRANCH   4   6
HETATM    6  C2  UNL     1      26.080  24.297  12.064  1.00  0.00     0.084 C 
BRANCH   6   7
HETATM    7  N1  UNL     1      27.069  23.595  12.449  1.00  0.00    -0.215 N 
ATOM      8  H1  UNL     1      27.715  23.192  11.770  1.00  0.00     0.205 HD
BRANCH   7   9
HETATM    9  O1  UNL     1      27.248  23.394  13.759  1.00  0.00    -0.277 OA
HETATM   10  C1  UNL     1      26.884  24.183  14.833  1.00  0.00     0.238 C 
ENDBRANCH   7   9
ENDBRANCH   6   7
ENDBRANCH   4   6
ENDBRANCH   1   4
BRANCH   1  11
HETATM   11  C3  UNL     1      23.056  25.874  13.600  1.00  0.00     0.080 A 
HETATM   12  C4  UNL     1      23.612  27.135  13.597  1.00  0.00     0.025 A 
HETATM   13  C5  UNL     1      23.201  28.133  14.454  1.00  0.00     0.002 A 
HETATM   14  C6  UNL     1      22.202  27.870  15.347  1.00  0.00     0.000 A 
HETATM   15  C7  UNL     1      21.625  26.619  15.376  1.00  0.00     0.002 A 
HETATM   16  C8  UNL     1      22.052  25.635  14.507  1.00  0.00     0.025 A 
ENDBRANCH   1  11
TORSDOF 5
ENDMDL
