MODEL 1
REMARK VINA RESULT: -7.236510348      0.000      0.000
REMARK  4 active torsions:
REMARK  status: ('A' for Active; 'I' for Inactive)
REMARK    1  A    between atoms: C2_2  and  O2_4 
REMARK    2  A    between atoms: O2_4  and  C3_5 
REMARK    3  A    between atoms: C3_5  and  C4_6 
REMARK    4  A    between atoms: C4_6  and  N1_7 
ROOT
HETATM    1  C4  UNL     1      23.536  24.757  13.727  1.00  0.00     0.218 C 
HETATM    2  C5  UNL     1      22.300  24.041  14.233  1.00  0.00     0.070 C 
HETATM    3  C6  UNL     1      21.567  24.843  15.279  1.00  0.00     0.005 C 
HETATM    4  C7  UNL     1      21.043  26.133  14.660  1.00  0.00     0.002 C 
HETATM    5  C8  UNL     1      22.015  27.229  15.101  1.00  0.00     0.026 C 
HETATM    6  C9  UNL     1      23.347  26.967  14.397  1.00  0.00     0.171 C 
HETATM    7  O5  UNL     1      23.230  26.060  13.380  1.00  0.00    -0.354 OA
ENDROOT
BRANCH   1   8
HETATM    8  C3  UNL     1      23.992  23.964  12.491  1.00  0.00     0.246 C 
BRANCH   8   9
HETATM    9  O2  UNL     1      24.268  24.889  11.488  1.00  0.00    -0.317 OA
BRANCH   9  10
HETATM   10  C2  UNL     1      25.525  25.386  11.193  1.00  0.00     0.254 C 
HETATM   11  C1  UNL     1      25.735  26.844  11.338  1.00  0.00     0.126 C 
HETATM   12  O1  UNL     1      26.389  24.557  10.823  1.00  0.00    -0.266 OA
ENDBRANCH   9  10
ENDBRANCH   8   9
ENDBRANCH   1   8
BRANCH   1  13
HETATM   13  N1  UNL     1      24.618  24.707  14.665  1.00  0.00    -0.115 N 
HETATM   14  O3  UNL     1      24.385  24.587  15.865  1.00  0.00    -0.534 OA
HETATM   15  O4  UNL     1      25.897  24.795  14.220  1.00  0.00    -0.534 OA
ENDBRANCH   1  13
TORSDOF 4
ENDMDL
MODEL 2
REMARK VINA RESULT: -7.167927271      2.100      3.369
REMARK  4 active torsions:
REMARK  status: ('A' for Active; 'I' for Inactive)
REMARK    1  A    between atoms: C2_2  and  O2_4 
REMARK    2  A    between atoms: O2_4  and  C3_5 
REMARK    3  A    between atoms: C3_5  and  C4_6 
REMARK    4  A    between atoms: C4_6  and  N1_7 
ROOT
HETATM    1  C4  UNL     1      24.506  25.719  13.828  1.00  0.00     0.218 C 
HETATM    2  C5  UNL     1      24.360  27.126  13.283  1.00  0.00     0.070 C 
HETATM    3  C6  UNL     1      23.133  27.819  13.819  1.00  0.00     0.005 C 
HETATM    4  C7  UNL     1      23.264  27.998  15.326  1.00  0.00     0.002 C 
HETATM    5  C8  UNL     1      22.403  26.898  15.949  1.00  0.00     0.026 C 
HETATM    6  C9  UNL     1      23.084  25.561  15.651  1.00  0.00     0.171 C 
HETATM    7  O5  UNL     1      24.367  25.718  15.204  1.00  0.00    -0.354 OA
ENDROOT
BRANCH   1   8
HETATM    8  C3  UNL     1      25.920  25.268  13.429  1.00  0.00     0.246 C 
BRANCH   8   9
HETATM    9  O2  UNL     1      26.598  24.956  14.604  1.00  0.00    -0.317 OA
BRANCH   9  10
HETATM   10  C2  UNL     1      26.884  23.674  15.037  1.00  0.00     0.254 C 
HETATM   11  C1  UNL     1      26.043  23.115  16.121  1.00  0.00     0.126 C 
HETATM   12  O1  UNL     1      27.837  23.085  14.476  1.00  0.00    -0.266 OA
ENDBRANCH   9  10
ENDBRANCH   8   9
ENDBRANCH   1   8
BRANCH   1  13
HETATM   13  N1  UNL     1      23.596  24.799  13.212  1.00  0.00    -0.115 N 
HETATM   14  O3  UNL     1      22.964  25.136  12.213  1.00  0.00    -0.534 OA
HETATM   15  O4  UNL     1      23.438  23.558  13.737  1.00  0.00    -0.534 OA
ENDBRANCH   1  13
TORSDOF 4
ENDMDL
MODEL 3
REMARK VINA RESULT: -7.088147121      2.140      4.388
REMARK  4 active torsions:
REMARK  status: ('A' for Active; 'I' for Inactive)
REMARK    1  A    between atoms: C2_2  and  O2_4 
REMARK    2  A    between atoms: O2_4  and  C3_5 
REMARK    3  A    between atoms: C3_5  and  C4_6 
REMARK    4  A    between atoms: C4_6  and  N1_7 
ROOT
HETATM    1  C4  UNL     1      24.323  26.251  13.278  1.00  0.00     0.218 C 
HETATM    2  C5  UNL     1      23.365  25.200  13.805  1.00  0.00     0.070 C 
HETATM    3  C6  UNL     1      24.065  23.905  14.129  1.00  0.00     0.005 C 
HETATM    4  C7  UNL     1      25.057  24.129  15.262  1.00  0.00     0.002 C 
HETATM    5  C8  UNL     1      26.432  24.220  14.597  1.00  0.00     0.026 C 
HETATM    6  C9  UNL     1      26.461  25.517  13.787  1.00  0.00     0.171 C 
HETATM    7  O5  UNL     1      25.427  26.354  14.104  1.00  0.00    -0.354 OA
ENDROOT
BRANCH   1   8
HETATM    8  C3  UNL     1      23.528  27.566  13.276  1.00  0.00     0.246 C 
BRANCH   8   9
HETATM    9  O2  UNL     1      22.447  27.395  14.136  1.00  0.00    -0.317 OA
BRANCH   9  10
HETATM   10  C2  UNL     1      22.185  28.179  15.246  1.00  0.00     0.254 C 
HETATM   11  C1  UNL     1      23.161  28.136  16.358  1.00  0.00     0.126 C 
HETATM   12  O1  UNL     1      21.137  28.865  15.219  1.00  0.00    -0.266 OA
ENDBRANCH   9  10
ENDBRANCH   8   9
ENDBRANCH   1   8
BRANCH   1  13
HETATM   13  N1  UNL     1      24.708  26.005  11.920  1.00  0.00    -0.115 N 
HETATM   14  O3  UNL     1      24.313  24.996  11.343  1.00  0.00    -0.534 OA
HETATM   15  O4  UNL     1      25.511  26.892  11.280  1.00  0.00    -0.534 OA
ENDBRANCH   1  13
TORSDOF 4
ENDMDL
MODEL 4
REMARK VINA RESULT: -7.073121005      1.497      2.338
REMARK  4 active torsions:
REMARK  status: ('A' for Active; 'I' for Inactive)
REMARK    1  A    between atoms: C2_2  and  O2_4 
REMARK    2  A    between atoms: O2_4  and  C3_5 
REMARK    3  A    between atoms: C3_5  and  C4_6 
REMARK    4  A    between atoms: C4_6  and  N1_7 
ROOT
HETATM    1  C4  UNL     1      24.072  25.788  14.355  1.00  0.00     0.218 C 
HETATM    2  C5  UNL     1      23.847  27.221  13.913  1.00  0.00     0.070 C 
HETATM    3  C6  UNL     1      22.569  27.794  14.471  1.00  0.00     0.005 C 
HETATM    4  C7  UNL     1      22.662  27.866  15.990  1.00  0.00     0.002 C 
HETATM    5  C8  UNL     1      21.862  26.671  16.511  1.00  0.00     0.026 C 
HETATM    6  C9  UNL     1      22.632  25.406  16.129  1.00  0.00     0.171 C 
HETATM    7  O5  UNL     1      23.910  25.676  15.724  1.00  0.00    -0.354 OA
ENDROOT
BRANCH   1   8
HETATM    8  C3  UNL     1      25.519  25.458  13.955  1.00  0.00     0.246 C 
BRANCH   8   9
HETATM    9  O2  UNL     1      25.465  24.784  12.739  1.00  0.00    -0.317 OA
BRANCH   9  10
HETATM   10  C2  UNL     1      25.940  25.278  11.537  1.00  0.00     0.254 C 
HETATM   11  C1  UNL     1      25.695  26.708  11.242  1.00  0.00     0.126 C 
HETATM   12  O1  UNL     1      26.541  24.471  10.790  1.00  0.00    -0.266 OA
ENDBRANCH   9  10
ENDBRANCH   8   9
ENDBRANCH   1   8
BRANCH   1  13
HETATM   13  N1  UNL     1      23.234  24.863  13.652  1.00  0.00    -0.115 N 
HETATM   14  O3  UNL     1      22.534  25.253  12.722  1.00  0.00    -0.534 OA
HETATM   15  O4  UNL     1      23.219  23.557  14.021  1.00  0.00    -0.534 OA
ENDBRANCH   1  13
TORSDOF 4
ENDMDL
MODEL 5
REMARK VINA RESULT: -7.008907619      2.210      3.714
REMARK  4 active torsions:
REMARK  status: ('A' for Active; 'I' for Inactive)
REMARK    1  A    between atoms: C2_2  and  O2_4 
REMARK    2  A    between atoms: O2_4  and  C3_5 
REMARK    3  A    between atoms: C3_5  and  C4_6 
REMARK    4  A    between atoms: C4_6  and  N1_7 
ROOT
HETATM    1  C4  UNL     1      25.039  25.627  13.007  1.00  0.00     0.218 C 
HETATM    2  C5  UNL     1      25.655  26.903  13.546  1.00  0.00     0.070 C 
HETATM    3  C6  UNL     1      24.610  27.921  13.928  1.00  0.00     0.005 C 
HETATM    4  C7  UNL     1      23.766  27.382  15.075  1.00  0.00     0.002 C 
HETATM    5  C8  UNL     1      22.461  26.899  14.438  1.00  0.00     0.026 C 
HETATM    6  C9  UNL     1      22.796  25.674  13.587  1.00  0.00     0.171 C 
HETATM    7  O5  UNL     1      24.042  25.178  13.854  1.00  0.00    -0.354 OA
ENDROOT
BRANCH   1   8
HETATM    8  C3  UNL     1      26.190  24.610  12.945  1.00  0.00     0.246 C 
BRANCH   8   9
HETATM    9  O2  UNL     1      26.836  24.644  14.177  1.00  0.00    -0.317 OA
BRANCH   9  10
HETATM   10  C2  UNL     1      27.035  23.549  14.999  1.00  0.00     0.254 C 
HETATM   11  C1  UNL     1      26.029  23.296  16.056  1.00  0.00     0.126 C 
HETATM   12  O1  UNL     1      28.055  22.856  14.781  1.00  0.00    -0.266 OA
ENDBRANCH   9  10
ENDBRANCH   8   9
ENDBRANCH   1   8
BRANCH   1  13
HETATM   13  N1  UNL     1      24.556  25.778  11.667  1.00  0.00    -0.115 N 
HETATM   14  O3  UNL     1      24.905  26.746  10.995  1.00  0.00    -0.534 OA
HETATM   15  O4  UNL     1      23.713  24.850  11.148  1.00  0.00    -0.534 OA
ENDBRANCH   1  13
TORSDOF 4
ENDMDL
