MODEL 1
REMARK VINA RESULT: -5.233133888      0.000      0.000
REMARK  5 active torsions:
REMARK  status: ('A' for Active; 'I' for Inactive)
REMARK    1  A    between atoms: C2_2  and  C3_3 
REMARK    2  A    between atoms: C2_2  and  N2_8 
REMARK    3  A    between atoms: C3_3  and  N1_4 
REMARK    4  A    between atoms: C8_13  and  C9_14 
REMARK    5  A    between atoms: C9_14  and  N3_15 
ROOT
HETATM    1  N2  UNL     1      -5.650   3.165  15.789  1.00  0.00    -0.381 N 
HETATM    2  C4  UNL     1      -6.231   4.083  16.679  1.00  0.00     0.059 C 
HETATM    3  C5  UNL     1      -6.391   3.604  18.102  1.00  0.00     0.044 C 
HETATM    4  C6  UNL     1      -6.734   2.149  18.064  1.00  0.00     0.007 C 
HETATM    5  C7  UNL     1      -5.511   1.434  17.529  1.00  0.00     0.027 C 
HETATM    6  C8  UNL     1      -4.960   2.047  16.286  1.00  0.00     0.109 C 
ENDROOT
BRANCH   1   7
HETATM    7  C2  UNL     1      -5.244   3.710  14.566  1.00  0.00     0.105 C 
HETATM    8  C1  UNL     1      -6.031   5.012  14.329  1.00  0.00     0.034 C 
BRANCH   7   9
HETATM    9  C3  UNL     1      -3.778   4.122  14.478  1.00  0.00     0.254 C 
BRANCH   9  10
HETATM   10  N1  UNL     1      -3.156   3.395  13.372  1.00  0.00    -0.077 N 
ATOM     11  H13 UNL     1      -3.626   3.560  12.482  1.00  0.00     0.274 HD
ATOM     12  H12 UNL     1      -2.242   3.773  13.120  1.00  0.00     0.274 HD
ATOM     13  H11 UNL     1      -3.116   2.406  13.615  1.00  0.00     0.274 HD
ENDBRANCH   9  10
ENDBRANCH   7   9
ENDBRANCH   1   7
BRANCH   6  14
HETATM   14  C9  UNL     1      -4.904   0.931  15.253  1.00  0.00     0.254 C 
BRANCH  14  15
HETATM   15  N3  UNL     1      -4.171  -0.206  15.711  1.00  0.00    -0.077 N 
ATOM     16  H33 UNL     1      -3.275   0.073  16.113  1.00  0.00     0.274 HD
ATOM     17  H32 UNL     1      -4.604  -0.611  16.541  1.00  0.00     0.274 HD
ATOM     18  H31 UNL     1      -4.042  -0.910  14.984  1.00  0.00     0.274 HD
ENDBRANCH  14  15
ENDBRANCH   6  14
TORSDOF 5
ENDMDL
MODEL 2
REMARK VINA RESULT: -4.939819918      1.312      3.732
REMARK  5 active torsions:
REMARK  status: ('A' for Active; 'I' for Inactive)
REMARK    1  A    between atoms: C2_2  and  C3_3 
REMARK    2  A    between atoms: C2_2  and  N2_8 
REMARK    3  A    between atoms: C3_3  and  N1_4 
REMARK    4  A    between atoms: C8_13  and  C9_14 
REMARK    5  A    between atoms: C9_14  and  N3_15 
ROOT
HETATM    1  N2  UNL     1      -5.698   2.865  15.825  1.00  0.00    -0.381 N 
HETATM    2  C4  UNL     1      -6.132   3.508  16.996  1.00  0.00     0.059 C 
HETATM    3  C5  UNL     1      -6.460   4.975  16.855  1.00  0.00     0.044 C 
HETATM    4  C6  UNL     1      -5.491   5.574  15.886  1.00  0.00     0.007 C 
HETATM    5  C7  UNL     1      -5.798   4.957  14.537  1.00  0.00     0.027 C 
HETATM    6  C8  UNL     1      -5.907   3.470  14.575  1.00  0.00     0.109 C 
ENDROOT
BRANCH   1   7
HETATM    7  C2  UNL     1      -5.678   1.469  15.895  1.00  0.00     0.105 C 
HETATM    8  C1  UNL     1      -4.274   1.024  16.343  1.00  0.00     0.034 C 
BRANCH   7   9
HETATM    9  C3  UNL     1      -6.625   0.842  16.914  1.00  0.00     0.254 C 
BRANCH   9  10
HETATM   10  N1  UNL     1      -5.865  -0.092  17.744  1.00  0.00    -0.077 N 
ATOM     11  H13 UNL     1      -4.932  -0.274  17.373  1.00  0.00     0.274 HD
ATOM     12  H12 UNL     1      -5.584   0.317  18.635  1.00  0.00     0.274 HD
ATOM     13  H11 UNL     1      -6.412  -0.943  17.860  1.00  0.00     0.274 HD
ENDBRANCH   9  10
ENDBRANCH   7   9
ENDBRANCH   1   7
BRANCH   6  14
HETATM   14  C9  UNL     1      -4.924   2.947  13.538  1.00  0.00     0.254 C 
BRANCH  14  15
HETATM   15  N3  UNL     1      -3.596   3.431  13.745  1.00  0.00    -0.077 N 
ATOM     16  H33 UNL     1      -3.599   4.278  14.315  1.00  0.00     0.274 HD
ATOM     17  H32 UNL     1      -3.076   2.815  14.370  1.00  0.00     0.274 HD
ATOM     18  H31 UNL     1      -3.090   3.578  12.872  1.00  0.00     0.274 HD
ENDBRANCH  14  15
ENDBRANCH   6  14
TORSDOF 5
ENDMDL
MODEL 3
REMARK VINA RESULT: -4.896411655      1.343      1.901
REMARK  5 active torsions:
REMARK  status: ('A' for Active; 'I' for Inactive)
REMARK    1  A    between atoms: C2_2  and  C3_3 
REMARK    2  A    between atoms: C2_2  and  N2_8 
REMARK    3  A    between atoms: C3_3  and  N1_4 
REMARK    4  A    between atoms: C8_13  and  C9_14 
REMARK    5  A    between atoms: C9_14  and  N3_15 
ROOT
HETATM    1  N2  UNL     1      -4.638   3.608  14.722  1.00  0.00    -0.381 N 
HETATM    2  C4  UNL     1      -4.926   4.963  14.957  1.00  0.00     0.059 C 
HETATM    3  C5  UNL     1      -5.665   5.263  16.239  1.00  0.00     0.044 C 
HETATM    4  C6  UNL     1      -6.633   4.150  16.486  1.00  0.00     0.007 C 
HETATM    5  C7  UNL     1      -5.804   2.916  16.773  1.00  0.00     0.027 C 
HETATM    6  C8  UNL     1      -4.721   2.681  15.775  1.00  0.00     0.109 C 
ENDROOT
BRANCH   1   7
HETATM    7  C2  UNL     1      -3.715   3.373  13.699  1.00  0.00     0.105 C 
HETATM    8  C1  UNL     1      -4.455   3.443  12.350  1.00  0.00     0.034 C 
BRANCH   7   9
HETATM    9  C3  UNL     1      -2.588   4.395  13.574  1.00  0.00     0.254 C 
BRANCH   9  10
HETATM   10  N1  UNL     1      -1.358   3.795  14.091  1.00  0.00    -0.077 N 
ATOM     11  H13 UNL     1      -1.241   3.945  15.093  1.00  0.00     0.274 HD
ATOM     12  H12 UNL     1      -1.395   2.776  14.105  1.00  0.00     0.274 HD
ATOM     13  H11 UNL     1      -0.571   4.150  13.548  1.00  0.00     0.274 HD
ENDBRANCH   9  10
ENDBRANCH   7   9
ENDBRANCH   1   7
BRANCH   6  14
HETATM   14  C9  UNL     1      -4.930   1.269  15.250  1.00  0.00     0.254 C 
BRANCH  14  15
HETATM   15  N3  UNL     1      -4.206   0.291  15.997  1.00  0.00    -0.077 N 
ATOM     16  H33 UNL     1      -4.424  -0.653  15.675  1.00  0.00     0.274 HD
ATOM     17  H32 UNL     1      -3.212   0.316  15.767  1.00  0.00     0.274 HD
ATOM     18  H31 UNL     1      -4.352   0.377  17.003  1.00  0.00     0.274 HD
ENDBRANCH  14  15
ENDBRANCH   6  14
TORSDOF 5
ENDMDL
MODEL 4
REMARK VINA RESULT: -4.739493060      1.375      1.579
REMARK  5 active torsions:
REMARK  status: ('A' for Active; 'I' for Inactive)
REMARK    1  A    between atoms: C2_2  and  C3_3 
REMARK    2  A    between atoms: C2_2  and  N2_8 
REMARK    3  A    between atoms: C3_3  and  N1_4 
REMARK    4  A    between atoms: C8_13  and  C9_14 
REMARK    5  A    between atoms: C9_14  and  N3_15 
ROOT
HETATM    1  N2  UNL     1      -5.787   3.186  15.858  1.00  0.00    -0.381 N 
HETATM    2  C4  UNL     1      -6.264   3.248  17.178  1.00  0.00     0.059 C 
HETATM    3  C5  UNL     1      -6.081   1.996  18.000  1.00  0.00     0.044 C 
HETATM    4  C6  UNL     1      -6.275   0.818  17.099  1.00  0.00     0.007 C 
HETATM    5  C7  UNL     1      -5.120   0.834  16.119  1.00  0.00     0.027 C 
HETATM    6  C8  UNL     1      -4.900   2.164  15.481  1.00  0.00     0.109 C 
ENDROOT
BRANCH   1   7
HETATM    7  C2  UNL     1      -5.697   4.420  15.207  1.00  0.00     0.105 C 
HETATM    8  C1  UNL     1      -6.019   5.531  16.224  1.00  0.00     0.034 C 
BRANCH   7   9
HETATM    9  C3  UNL     1      -4.319   4.783  14.662  1.00  0.00     0.254 C 
BRANCH   9  10
HETATM   10  N1  UNL     1      -4.493   5.532  13.417  1.00  0.00    -0.077 N 
ATOM     11  H13 UNL     1      -5.371   6.050  13.393  1.00  0.00     0.274 HD
ATOM     12  H12 UNL     1      -3.859   6.328  13.347  1.00  0.00     0.274 HD
ATOM     13  H11 UNL     1      -4.398   4.886  12.634  1.00  0.00     0.274 HD
ENDBRANCH   9  10
ENDBRANCH   7   9
ENDBRANCH   1   7
BRANCH   6  14
HETATM   14  C9  UNL     1      -4.942   1.924  13.979  1.00  0.00     0.254 C 
BRANCH  14  15
HETATM   15  N3  UNL     1      -4.210   0.762  13.586  1.00  0.00    -0.077 N 
ATOM     16  H33 UNL     1      -4.838  -0.019  13.394  1.00  0.00     0.274 HD
ATOM     17  H32 UNL     1      -3.806   0.881  12.657  1.00  0.00     0.274 HD
ATOM     18  H31 UNL     1      -3.495   0.499  14.266  1.00  0.00     0.274 HD
ENDBRANCH  14  15
ENDBRANCH   6  14
TORSDOF 5
ENDMDL
MODEL 5
REMARK VINA RESULT: -4.625384785      1.513      3.058
REMARK  5 active torsions:
REMARK  status: ('A' for Active; 'I' for Inactive)
REMARK    1  A    between atoms: C2_2  and  C3_3 
REMARK    2  A    between atoms: C2_2  and  N2_8 
REMARK    3  A    between atoms: C3_3  and  N1_4 
REMARK    4  A    between atoms: C8_13  and  C9_14 
REMARK    5  A    between atoms: C9_14  and  N3_15 
ROOT
HETATM    1  N2  UNL     1      -5.183   2.591  14.843  1.00  0.00    -0.381 N 
HETATM    2  C4  UNL     1      -4.934   1.320  15.387  1.00  0.00     0.059 C 
HETATM    3  C5  UNL     1      -5.645   1.012  16.682  1.00  0.00     0.044 C 
HETATM    4  C6  UNL     1      -5.700   2.269  17.491  1.00  0.00     0.007 C 
HETATM    5  C7  UNL     1      -6.611   3.220  16.743  1.00  0.00     0.027 C 
HETATM    6  C8  UNL     1      -6.280   3.344  15.294  1.00  0.00     0.109 C 
ENDROOT
BRANCH   1   7
HETATM    7  C2  UNL     1      -4.760   2.756  13.520  1.00  0.00     0.105 C 
HETATM    8  C1  UNL     1      -3.417   3.508  13.529  1.00  0.00     0.034 C 
BRANCH   7   9
HETATM    9  C3  UNL     1      -4.479   1.470  12.748  1.00  0.00     0.254 C 
BRANCH   9  10
HETATM   10  N1  UNL     1      -3.111   1.528  12.232  1.00  0.00    -0.077 N 
ATOM     11  H13 UNL     1      -2.985   2.267  11.541  1.00  0.00     0.274 HD
ATOM     12  H12 UNL     1      -2.445   1.869  12.926  1.00  0.00     0.274 HD
ATOM     13  H11 UNL     1      -2.862   0.608  11.871  1.00  0.00     0.274 HD
ENDBRANCH   9  10
ENDBRANCH   7   9
ENDBRANCH   1   7
BRANCH   6  14
HETATM   14  C9  UNL     1      -6.074   4.829  15.033  1.00  0.00     0.254 C 
BRANCH  14  15
HETATM   15  N3  UNL     1      -5.721   5.551  16.213  1.00  0.00    -0.077 N 
ATOM     16  H33 UNL     1      -4.785   5.299  16.532  1.00  0.00     0.274 HD
ATOM     17  H32 UNL     1      -5.564   6.537  16.006  1.00  0.00     0.274 HD
ATOM     18  H31 UNL     1      -6.405   5.439  16.962  1.00  0.00     0.274 HD
ENDBRANCH  14  15
ENDBRANCH   6  14
TORSDOF 5
ENDMDL
