MODEL 1
REMARK VINA RESULT: -4.594291686      0.000      0.000
REMARK  4 active torsions:
REMARK  status: ('A' for Active; 'I' for Inactive)
REMARK    1  A    between atoms: C2_2  and  C3_3 
REMARK    2  A    between atoms: C3_3  and  C4_4 
REMARK    3  A    between atoms: C4_4  and  N1_5 
REMARK    4  A    between atoms: C9_14  and  N3_15 
ROOT
HETATM    1  C4  UNL     1      -4.626   2.847  14.634  1.00  0.00     0.154 C 
HETATM    2  C5  UNL     1      -4.752   1.714  13.678  1.00  0.00     0.071 C 
HETATM    3  C6  UNL     1      -4.328   1.976  12.274  1.00  0.00     0.274 C 
HETATM    4  N2  UNL     1      -4.322   3.371  11.902  1.00  0.00     0.086 N 
HETATM    5  C7  UNL     1      -3.699   3.437  10.574  1.00  0.00     0.310 C 
HETATM    6  C8  UNL     1      -3.438   4.079  12.781  1.00  0.00     0.307 C 
HETATM    7  C9  UNL     1      -3.692   3.931  14.235  1.00  0.00     0.247 C 
ENDROOT
BRANCH   1   8
HETATM    8  C3  UNL     1      -5.981   3.358  15.110  1.00  0.00     0.040 C 
BRANCH   8   9
HETATM    9  C2  UNL     1      -6.337   2.973  16.498  1.00  0.00    -0.002 C 
HETATM   10  C1  UNL     1      -6.544   4.275  17.285  1.00  0.00     0.005 C 
ENDBRANCH   8   9
ENDBRANCH   1   8
BRANCH   1  11
HETATM   11  N1  UNL     1      -4.037   2.251  15.860  1.00  0.00    -0.068 N 
ATOM     12  H13 UNL     1      -3.118   1.829  15.727  1.00  0.00     0.275 HD
ATOM     13  H12 UNL     1      -3.740   2.931  16.560  1.00  0.00     0.275 HD
ATOM     14  H11 UNL     1      -4.759   1.604  16.177  1.00  0.00     0.275 HD
ENDBRANCH   1  11
BRANCH   7  15
HETATM   15  N3  UNL     1      -4.123   5.249  14.731  1.00  0.00    -0.071 N 
ATOM     16  H33 UNL     1      -4.544   5.174  15.658  1.00  0.00     0.274 HD
ATOM     17  H32 UNL     1      -3.321   5.834  14.965  1.00  0.00     0.274 HD
ATOM     18  H31 UNL     1      -4.748   5.723  14.079  1.00  0.00     0.274 HD
ENDBRANCH   7  15
TORSDOF 4
ENDMDL
MODEL 2
REMARK VINA RESULT: -4.500819978      1.708      2.606
REMARK  4 active torsions:
REMARK  status: ('A' for Active; 'I' for Inactive)
REMARK    1  A    between atoms: C2_2  and  C3_3 
REMARK    2  A    between atoms: C3_3  and  C4_4 
REMARK    3  A    between atoms: C4_4  and  N1_5 
REMARK    4  A    between atoms: C9_14  and  N3_15 
ROOT
HETATM    1  C4  UNL     1      -5.022   3.513  14.573  1.00  0.00     0.154 C 
HETATM    2  C5  UNL     1      -4.582   4.916  14.798  1.00  0.00     0.071 C 
HETATM    3  C6  UNL     1      -3.368   5.362  14.058  1.00  0.00     0.274 C 
HETATM    4  N2  UNL     1      -2.506   4.288  13.624  1.00  0.00     0.086 N 
HETATM    5  C7  UNL     1      -1.491   4.903  12.760  1.00  0.00     0.310 C 
HETATM    6  C8  UNL     1      -3.257   3.409  12.774  1.00  0.00     0.307 C 
HETATM    7  C9  UNL     1      -4.518   2.867  13.334  1.00  0.00     0.247 C 
ENDROOT
BRANCH   1   8
HETATM    8  C3  UNL     1      -4.859   2.647  15.818  1.00  0.00     0.040 C 
BRANCH   8   9
HETATM    9  C2  UNL     1      -6.132   2.250  16.468  1.00  0.00    -0.002 C 
HETATM   10  C1  UNL     1      -6.097   2.804  17.900  1.00  0.00     0.005 C 
ENDBRANCH   8   9
ENDBRANCH   1   8
BRANCH   1  11
HETATM   11  N1  UNL     1      -6.495   3.594  14.404  1.00  0.00    -0.068 N 
ATOM     12  H13 UNL     1      -6.870   3.005  13.661  1.00  0.00     0.275 HD
ATOM     13  H12 UNL     1      -7.032   3.166  15.158  1.00  0.00     0.275 HD
ATOM     14  H11 UNL     1      -6.662   4.593  14.279  1.00  0.00     0.275 HD
ENDBRANCH   1  11
BRANCH   7  15
HETATM   15  N3  UNL     1      -4.325   1.416  13.500  1.00  0.00    -0.071 N 
ATOM     16  H33 UNL     1      -4.134   1.178  14.474  1.00  0.00     0.274 HD
ATOM     17  H32 UNL     1      -5.204   0.912  13.380  1.00  0.00     0.274 HD
ATOM     18  H31 UNL     1      -3.602   1.049  12.881  1.00  0.00     0.274 HD
ENDBRANCH   7  15
TORSDOF 4
ENDMDL
MODEL 3
REMARK VINA RESULT: -4.412120547      1.523      4.526
REMARK  4 active torsions:
REMARK  status: ('A' for Active; 'I' for Inactive)
REMARK    1  A    between atoms: C2_2  and  C3_3 
REMARK    2  A    between atoms: C3_3  and  C4_4 
REMARK    3  A    between atoms: C4_4  and  N1_5 
REMARK    4  A    between atoms: C9_14  and  N3_15 
ROOT
HETATM    1  C4  UNL     1      -4.400   3.336  14.323  1.00  0.00     0.154 C 
HETATM    2  C5  UNL     1      -4.817   4.745  14.555  1.00  0.00     0.071 C 
HETATM    3  C6  UNL     1      -5.603   5.013  15.793  1.00  0.00     0.274 C 
HETATM    4  N2  UNL     1      -6.273   3.856  16.336  1.00  0.00     0.086 N 
HETATM    5  C7  UNL     1      -6.819   4.272  17.634  1.00  0.00     0.310 C 
HETATM    6  C8  UNL     1      -5.292   2.852  16.633  1.00  0.00     0.307 C 
HETATM    7  C9  UNL     1      -4.395   2.456  15.521  1.00  0.00     0.247 C 
ENDROOT
BRANCH   1   8
HETATM    8  C3  UNL     1      -5.097   2.715  13.118  1.00  0.00     0.040 C 
BRANCH   8   9
HETATM    9  C2  UNL     1      -4.215   2.469  11.951  1.00  0.00    -0.002 C 
HETATM   10  C1  UNL     1      -4.729   1.197  11.261  1.00  0.00     0.005 C 
ENDBRANCH   8   9
ENDBRANCH   1   8
BRANCH   1  11
HETATM   11  N1  UNL     1      -2.982   3.421  13.891  1.00  0.00    -0.068 N 
ATOM     12  H13 UNL     1      -2.345   3.792  14.596  1.00  0.00     0.275 HD
ATOM     13  H12 UNL     1      -2.514   2.520  13.792  1.00  0.00     0.275 HD
ATOM     14  H11 UNL     1      -3.030   3.969  13.032  1.00  0.00     0.275 HD
ENDBRANCH   1  11
BRANCH   7  15
HETATM   15  N3  UNL     1      -4.716   1.058  15.187  1.00  0.00    -0.071 N 
ATOM     16  H33 UNL     1      -4.499   0.852  14.211  1.00  0.00     0.274 HD
ATOM     17  H32 UNL     1      -4.066   0.413  15.637  1.00  0.00     0.274 HD
ATOM     18  H31 UNL     1      -5.683   0.820  15.407  1.00  0.00     0.274 HD
ENDBRANCH   7  15
TORSDOF 4
ENDMDL
MODEL 4
REMARK VINA RESULT: -4.371139773      3.769      5.021
REMARK  4 active torsions:
REMARK  status: ('A' for Active; 'I' for Inactive)
REMARK    1  A    between atoms: C2_2  and  C3_3 
REMARK    2  A    between atoms: C3_3  and  C4_4 
REMARK    3  A    between atoms: C4_4  and  N1_5 
REMARK    4  A    between atoms: C9_14  and  N3_15 
ROOT
HETATM    1  C4  UNL     1      -2.403   2.784  11.657  1.00  0.00     0.154 C 
HETATM    2  C5  UNL     1      -0.923   2.686  11.548  1.00  0.00     0.071 C 
HETATM    3  C6  UNL     1      -0.312   3.189  10.285  1.00  0.00     0.274 C 
HETATM    4  N2  UNL     1      -1.220   3.242   9.163  1.00  0.00     0.086 N 
HETATM    5  C7  UNL     1      -0.500   3.936   8.088  1.00  0.00     0.310 C 
HETATM    6  C8  UNL     1      -2.323   4.093   9.502  1.00  0.00     0.307 C 
HETATM    7  C9  UNL     1      -3.057   3.759  10.747  1.00  0.00     0.247 C 
ENDROOT
BRANCH   1   8
HETATM    8  C3  UNL     1      -3.076   1.416  11.666  1.00  0.00     0.040 C 
BRANCH   8   9
HETATM    9  C2  UNL     1      -2.276   0.328  11.053  1.00  0.00    -0.002 C 
HETATM   10  C1  UNL     1      -3.156  -0.931  11.053  1.00  0.00     0.005 C 
ENDBRANCH   8   9
ENDBRANCH   1   8
BRANCH   1  11
HETATM   11  N1  UNL     1      -2.654   3.297  13.029  1.00  0.00    -0.068 N 
ATOM     12  H13 UNL     1      -1.814   3.559  13.544  1.00  0.00     0.275 HD
ATOM     13  H12 UNL     1      -3.091   4.217  13.063  1.00  0.00     0.275 HD
ATOM     14  H11 UNL     1      -3.201   2.552  13.461  1.00  0.00     0.275 HD
ENDBRANCH   1  11
BRANCH   7  15
HETATM   15  N3  UNL     1      -4.408   3.330  10.347  1.00  0.00    -0.071 N 
ATOM     16  H33 UNL     1      -4.414   2.350  10.060  1.00  0.00     0.274 HD
ATOM     17  H32 UNL     1      -5.028   3.266  11.154  1.00  0.00     0.274 HD
ATOM     18  H31 UNL     1      -4.805   3.928   9.622  1.00  0.00     0.274 HD
ENDBRANCH   7  15
TORSDOF 4
ENDMDL
MODEL 5
REMARK VINA RESULT: -4.333140774      1.985      4.380
REMARK  4 active torsions:
REMARK  status: ('A' for Active; 'I' for Inactive)
REMARK    1  A    between atoms: C2_2  and  C3_3 
REMARK    2  A    between atoms: C3_3  and  C4_4 
REMARK    3  A    between atoms: C4_4  and  N1_5 
REMARK    4  A    between atoms: C9_14  and  N3_15 
ROOT
HETATM    1  C4  UNL     1      -4.825   4.941  14.709  1.00  0.00     0.154 C 
HETATM    2  C5  UNL     1      -5.745   5.287  15.826  1.00  0.00     0.071 C 
HETATM    3  C6  UNL     1      -6.262   4.151  16.640  1.00  0.00     0.274 C 
HETATM    4  N2  UNL     1      -6.219   2.871  15.973  1.00  0.00     0.086 N 
HETATM    5  C7  UNL     1      -6.577   1.871  16.987  1.00  0.00     0.310 C 
HETATM    6  C8  UNL     1      -4.862   2.586  15.610  1.00  0.00     0.307 C 
HETATM    7  C9  UNL     1      -4.164   3.614  14.801  1.00  0.00     0.247 C 
ENDROOT
BRANCH   1   8
HETATM    8  C3  UNL     1      -5.440   5.219  13.342  1.00  0.00     0.040 C 
BRANCH   8   9
HETATM    9  C2  UNL     1      -4.814   6.338  12.596  1.00  0.00    -0.002 C 
HETATM   10  C1  UNL     1      -5.945   7.081  11.869  1.00  0.00     0.005 C 
ENDBRANCH   8   9
ENDBRANCH   1   8
BRANCH   1  11
HETATM   11  N1  UNL     1      -3.725   5.936  14.796  1.00  0.00    -0.068 N 
ATOM     12  H13 UNL     1      -2.919   5.729  14.205  1.00  0.00     0.275 HD
ATOM     13  H12 UNL     1      -3.936   6.839  14.374  1.00  0.00     0.275 HD
ATOM     14  H11 UNL     1      -3.519   5.972  15.795  1.00  0.00     0.275 HD
ENDBRANCH   1  11
BRANCH   7  15
HETATM   15  N3  UNL     1      -3.914   3.022  13.476  1.00  0.00    -0.071 N 
ATOM     16  H33 UNL     1      -2.920   2.841  13.334  1.00  0.00     0.274 HD
ATOM     17  H32 UNL     1      -4.262   2.064  13.429  1.00  0.00     0.274 HD
ATOM     18  H31 UNL     1      -4.297   3.591  12.720  1.00  0.00     0.274 HD
ENDBRANCH   7  15
TORSDOF 4
ENDMDL
