MODEL 1
REMARK VINA RESULT: -5.050025376      0.000      0.000
REMARK  4 active torsions:
REMARK  status: ('A' for Active; 'I' for Inactive)
REMARK    1  A    between atoms: S1_2  and  C2_3 
REMARK    2  A    between atoms: C2_3  and  C3_4 
REMARK    3  A    between atoms: N1_7  and  O1_8 
REMARK    4  A    between atoms: C7_11  and  O2_12 
ROOT
HETATM    1  C3  UNL     1      -4.879   2.323  15.776  1.00  0.00     0.027 C 
HETATM    2  C4  UNL     1      -5.647   3.281  16.603  1.00  0.00     0.030 C 
HETATM    3  C5  UNL     1      -6.732   2.762  17.461  1.00  0.00     0.150 C 
HETATM    4  N1  UNL     1      -6.992   1.363  17.397  1.00  0.00    -0.294 N 
HETATM    5  C6  UNL     1      -5.855   0.527  17.259  1.00  0.00     0.181 C 
HETATM    6  C7  UNL     1      -4.956   0.885  16.122  1.00  0.00     0.143 C 
ENDROOT
BRANCH   1   7
HETATM    7  C2  UNL     1      -5.203   2.445  14.288  1.00  0.00     0.080 C 
BRANCH   7   8
HETATM    8  S1  UNL     1      -4.063   3.537  13.427  1.00  0.00    -0.173 SA
HETATM    9  C1  UNL     1      -4.761   5.221  13.491  1.00  0.00     0.089 C 
ENDBRANCH   7   8
ENDBRANCH   1   7
BRANCH   6  10
HETATM   10  O2  UNL     1      -3.678   0.391  16.445  1.00  0.00    -0.393 OA
ATOM     11  H2  UNL     1      -3.752  -0.390  16.980  1.00  0.00     0.210 HD
ENDBRANCH   6  10
BRANCH   4  12
HETATM   12  O1  UNL     1      -8.075   1.008  16.707  1.00  0.00    -0.292 OA
ATOM     13  H1  UNL     1      -8.386   0.122  16.854  1.00  0.00     0.244 HD
ENDBRANCH   4  12
TORSDOF 4
ENDMDL
MODEL 2
REMARK VINA RESULT: -4.940301663      4.986      6.086
REMARK  4 active torsions:
REMARK  status: ('A' for Active; 'I' for Inactive)
REMARK    1  A    between atoms: S1_2  and  C2_3 
REMARK    2  A    between atoms: C2_3  and  C3_4 
REMARK    3  A    between atoms: N1_7  and  O1_8 
REMARK    4  A    between atoms: C7_11  and  O2_12 
ROOT
HETATM    1  C3  UNL     1      -2.398   1.734  10.707  1.00  0.00     0.027 C 
HETATM    2  C4  UNL     1      -2.276   0.258  10.717  1.00  0.00     0.030 C 
HETATM    3  C5  UNL     1      -3.325  -0.532  11.393  1.00  0.00     0.150 C 
HETATM    4  N1  UNL     1      -4.369   0.194  12.033  1.00  0.00    -0.294 N 
HETATM    5  C6  UNL     1      -4.808   1.365  11.366  1.00  0.00     0.181 C 
HETATM    6  C7  UNL     1      -3.720   2.326  11.018  1.00  0.00     0.143 C 
ENDROOT
BRANCH   1   7
HETATM    7  C2  UNL     1      -1.377   2.411  11.620  1.00  0.00     0.080 C 
BRANCH   7   8
HETATM    8  S1  UNL     1      -0.387   3.635  10.750  1.00  0.00    -0.173 SA
HETATM    9  C1  UNL     1      -0.789   3.505   8.976  1.00  0.00     0.089 C 
ENDBRANCH   7   8
ENDBRANCH   1   7
BRANCH   6  10
HETATM   10  O2  UNL     1      -4.182   3.086   9.927  1.00  0.00    -0.393 OA
ATOM     11  H2  UNL     1      -5.063   3.401  10.095  1.00  0.00     0.210 HD
ENDBRANCH   6  10
BRANCH   4  12
HETATM   12  O1  UNL     1      -4.295   0.263  13.362  1.00  0.00    -0.292 OA
ATOM     13  H1  UNL     1      -4.575   1.084  13.749  1.00  0.00     0.244 HD
ENDBRANCH   4  12
TORSDOF 4
ENDMDL
MODEL 3
REMARK VINA RESULT: -4.843872874      4.859      5.748
REMARK  4 active torsions:
REMARK  status: ('A' for Active; 'I' for Inactive)
REMARK    1  A    between atoms: S1_2  and  C2_3 
REMARK    2  A    between atoms: C2_3  and  C3_4 
REMARK    3  A    between atoms: N1_7  and  O1_8 
REMARK    4  A    between atoms: C7_11  and  O2_12 
ROOT
HETATM    1  C3  UNL     1      -2.340   1.996  10.788  1.00  0.00     0.027 C 
HETATM    2  C4  UNL     1      -2.110   0.535  10.839  1.00  0.00     0.030 C 
HETATM    3  C5  UNL     1      -3.148  -0.322  11.447  1.00  0.00     0.150 C 
HETATM    4  N1  UNL     1      -4.292   0.333  11.986  1.00  0.00    -0.294 N 
HETATM    5  C6  UNL     1      -4.762   1.457  11.261  1.00  0.00     0.181 C 
HETATM    6  C7  UNL     1      -3.723   2.492  10.979  1.00  0.00     0.143 C 
ENDROOT
BRANCH   1   7
HETATM    7  C2  UNL     1      -1.449   2.763  11.764  1.00  0.00     0.080 C 
BRANCH   7   8
HETATM    8  S1  UNL     1      -2.380   3.932  12.766  1.00  0.00    -0.173 SA
HETATM    9  C1  UNL     1      -1.253   5.296  13.207  1.00  0.00     0.089 C 
ENDBRANCH   7   8
ENDBRANCH   1   7
BRANCH   6  10
HETATM   10  O2  UNL     1      -4.151   3.197   9.839  1.00  0.00    -0.393 OA
ATOM     11  H2  UNL     1      -4.191   4.128  10.023  1.00  0.00     0.210 HD
ENDBRANCH   6  10
BRANCH   4  12
HETATM   12  O1  UNL     1      -4.331   0.428  13.315  1.00  0.00    -0.292 OA
ATOM     13  H1  UNL     1      -5.196   0.522  13.697  1.00  0.00     0.244 HD
ENDBRANCH   4  12
TORSDOF 4
ENDMDL
MODEL 4
REMARK VINA RESULT: -4.559869207      1.498      1.687
REMARK  4 active torsions:
REMARK  status: ('A' for Active; 'I' for Inactive)
REMARK    1  A    between atoms: S1_2  and  C2_3 
REMARK    2  A    between atoms: C2_3  and  C3_4 
REMARK    3  A    between atoms: N1_7  and  O1_8 
REMARK    4  A    between atoms: C7_11  and  O2_12 
ROOT
HETATM    1  C3  UNL     1      -5.542   3.544  16.055  1.00  0.00     0.027 C 
HETATM    2  C4  UNL     1      -6.252   3.431  17.349  1.00  0.00     0.030 C 
HETATM    3  C5  UNL     1      -6.428   2.090  17.943  1.00  0.00     0.150 C 
HETATM    4  N1  UNL     1      -5.934   0.983  17.196  1.00  0.00    -0.294 N 
HETATM    5  C6  UNL     1      -4.717   1.199  16.500  1.00  0.00     0.181 C 
HETATM    6  C7  UNL     1      -4.715   2.398  15.610  1.00  0.00     0.143 C 
ENDROOT
BRANCH   1   7
HETATM    7  C2  UNL     1      -6.482   3.894  14.902  1.00  0.00     0.080 C 
BRANCH   7   8
HETATM    8  S1  UNL     1      -6.050   5.455  14.118  1.00  0.00    -0.173 SA
HETATM    9  C1  UNL     1      -4.566   5.164  13.098  1.00  0.00     0.089 C 
ENDBRANCH   7   8
ENDBRANCH   1   7
BRANCH   6  10
HETATM   10  O2  UNL     1      -3.373   2.793  15.464  1.00  0.00    -0.393 OA
ATOM     11  H2  UNL     1      -3.286   3.403  14.741  1.00  0.00     0.210 HD
ENDBRANCH   6  10
BRANCH   4  12
HETATM   12  O1  UNL     1      -6.854   0.253  16.566  1.00  0.00    -0.292 OA
ATOM     13  H1  UNL     1      -6.645  -0.667  16.455  1.00  0.00     0.244 HD
ENDBRANCH   4  12
TORSDOF 4
ENDMDL
MODEL 5
REMARK VINA RESULT: -4.470535956      5.018      5.684
REMARK  4 active torsions:
REMARK  status: ('A' for Active; 'I' for Inactive)
REMARK    1  A    between atoms: S1_2  and  C2_3 
REMARK    2  A    between atoms: C2_3  and  C3_4 
REMARK    3  A    between atoms: N1_7  and  O1_8 
REMARK    4  A    between atoms: C7_11  and  O2_12 
ROOT
HETATM    1  C3  UNL     1      -3.449   2.271  12.037  1.00  0.00     0.027 C 
HETATM    2  C4  UNL     1      -4.339   1.153  12.422  1.00  0.00     0.030 C 
HETATM    3  C5  UNL     1      -4.127  -0.167  11.793  1.00  0.00     0.150 C 
HETATM    4  N1  UNL     1      -3.095  -0.258  10.817  1.00  0.00    -0.294 N 
HETATM    5  C6  UNL     1      -1.925   0.500  11.078  1.00  0.00     0.181 C 
HETATM    6  C7  UNL     1      -2.173   1.945  11.359  1.00  0.00     0.143 C 
ENDROOT
BRANCH   1   7
HETATM    7  C2  UNL     1      -4.160   3.316  11.178  1.00  0.00     0.080 C 
BRANCH   7   8
HETATM    8  S1  UNL     1      -3.858   4.994  11.751  1.00  0.00    -0.173 SA
HETATM    9  C1  UNL     1      -3.395   4.897  13.512  1.00  0.00     0.089 C 
ENDBRANCH   7   8
ENDBRANCH   1   7
BRANCH   6  10
HETATM   10  O2  UNL     1      -1.083   2.403  12.123  1.00  0.00    -0.393 OA
ATOM     11  H2  UNL     1      -1.314   3.203  12.580  1.00  0.00     0.210 HD
ENDBRANCH   6  10
BRANCH   4  12
HETATM   12  O1  UNL     1      -3.501  -0.300   9.548  1.00  0.00    -0.292 OA
ATOM     13  H1  UNL     1      -4.055   0.419   9.268  1.00  0.00     0.244 HD
ENDBRANCH   4  12
TORSDOF 4
ENDMDL
