MODEL 1
REMARK VINA RESULT: -7.509060902      0.000      0.000
REMARK  7 active torsions:
REMARK  status: ('A' for Active; 'I' for Inactive)
REMARK    1  A    between atoms: C4_5  and  N2_6 
REMARK    2  A    between atoms: C7_9  and  N3_10 
REMARK       I    between atoms: N3_10  and  C8_12 
REMARK    3  A    between atoms: C8_12  and  C9_14 
REMARK    4  A    between atoms: C9_14  and  C10_15 
REMARK    5  A    between atoms: C10_15  and  N4_16 
REMARK       I    between atoms: N4_16  and  C11_18 
REMARK    6  A    between atoms: C11_18  and  C12_20 
REMARK    7  A    between atoms: C12_20  and  O3_21 
ROOT
HETATM    1  N3  UNL     1      -5.425  26.301  -3.283  1.00  0.00    -0.356 N 
ATOM      2  H3  UNL     1      -6.234  26.444  -3.887  1.00  0.00     0.162 HD
HETATM    3  C8  UNL     1      -4.137  26.293  -3.848  1.00  0.00     0.219 C 
HETATM    4  O1  UNL     1      -3.127  26.099  -3.129  1.00  0.00    -0.274 OA
ENDROOT
BRANCH   3   5
HETATM    5  C9  UNL     1      -4.000  26.523  -5.313  1.00  0.00     0.122 C 
BRANCH   5   6
HETATM    6  C10 UNL     1      -4.990  27.591  -5.724  1.00  0.00     0.132 C 
BRANCH   6   7
HETATM    7  N4  UNL     1      -6.322  27.081  -5.807  1.00  0.00    -0.358 N 
HETATM    8  C11 UNL     1      -7.451  27.865  -6.084  1.00  0.00     0.252 C 
HETATM    9  O2  UNL     1      -7.329  29.103  -6.254  1.00  0.00    -0.270 OA
ATOM     10  H4  UNL     1      -6.461  26.082  -5.656  1.00  0.00     0.162 HD
BRANCH   8  11
HETATM   11  C12 UNL     1      -8.775  27.229  -6.174  1.00  0.00     0.138 C 
HETATM   12  C13 UNL     1      -9.185  26.794  -7.533  1.00  0.00     0.048 C 
HETATM   13  C14 UNL     1      -9.664  25.346  -7.493  1.00  0.00     0.004 C 
HETATM   14  C15 UNL     1     -10.720  25.214  -6.433  1.00  0.00     0.000 C 
HETATM   15  C16 UNL     1     -10.145  25.483  -5.052  1.00  0.00     0.004 C 
HETATM   16  C17 UNL     1      -8.756  26.041  -5.224  1.00  0.00     0.048 C 
BRANCH  11  17
HETATM   17  O3  UNL     1      -9.749  28.123  -5.696  1.00  0.00    -0.380 OA
ATOM     18  H3  UNL     1     -10.504  27.630  -5.398  1.00  0.00     0.211 HD
ENDBRANCH  11  17
ENDBRANCH   8  11
ENDBRANCH   6   7
ENDBRANCH   5   6
ENDBRANCH   3   5
BRANCH   1  19
HETATM   19  C7  UNL     1      -5.624  26.112  -1.876  1.00  0.00     0.087 C 
HETATM   20  C6  UNL     1      -7.041  25.791  -1.488  1.00  0.00     0.055 C 
HETATM   21  C5  UNL     1      -7.095  25.700   0.006  1.00  0.00     0.275 C 
HETATM   22  N2  UNL     1      -6.924  27.009   0.652  1.00  0.00     0.093 N 
HETATM   23  C19 UNL     1      -6.329  27.951  -0.277  1.00  0.00     0.275 C 
HETATM   24  C18 UNL     1      -5.236  27.351  -1.096  1.00  0.00     0.055 C 
BRANCH  22  25
HETATM   25  C4  UNL     1      -8.161  27.380   1.202  1.00  0.00     0.226 C 
HETATM   26  C3  UNL     1      -9.207  27.965   0.348  1.00  0.00     0.066 C 
HETATM   27  C2  UNL     1      -9.824  29.177   1.081  1.00  0.00     0.274 C 
HETATM   28  N1  UNL     1     -10.213  28.862   2.416  1.00  0.00     0.084 N 
HETATM   29  C1  UNL     1     -10.613  30.102   3.066  1.00  0.00     0.309 C 
HETATM   30  C21 UNL     1      -9.153  28.309   3.216  1.00  0.00     0.274 C 
HETATM   31  C20 UNL     1      -7.876  28.287   2.415  1.00  0.00     0.066 C 
ENDBRANCH  22  25
ENDBRANCH   1  19
TORSDOF 7
ENDMDL
MODEL 2
REMARK VINA RESULT: -7.382026343      2.720      4.122
REMARK  7 active torsions:
REMARK  status: ('A' for Active; 'I' for Inactive)
REMARK    1  A    between atoms: C4_5  and  N2_6 
REMARK    2  A    between atoms: C7_9  and  N3_10 
REMARK       I    between atoms: N3_10  and  C8_12 
REMARK    3  A    between atoms: C8_12  and  C9_14 
REMARK    4  A    between atoms: C9_14  and  C10_15 
REMARK    5  A    between atoms: C10_15  and  N4_16 
REMARK       I    between atoms: N4_16  and  C11_18 
REMARK    6  A    between atoms: C11_18  and  C12_20 
REMARK    7  A    between atoms: C12_20  and  O3_21 
ROOT
HETATM    1  N3  UNL     1      -6.962  25.987   0.170  1.00  0.00    -0.356 N 
ATOM      2  H3  UNL     1      -6.140  25.985   0.773  1.00  0.00     0.162 HD
HETATM    3  C8  UNL     1      -7.091  24.999  -0.822  1.00  0.00     0.219 C 
HETATM    4  O1  UNL     1      -8.084  24.992  -1.590  1.00  0.00    -0.274 OA
ENDROOT
BRANCH   3   5
HETATM    5  C9  UNL     1      -6.028  23.962  -0.937  1.00  0.00     0.122 C 
BRANCH   5   6
HETATM    6  C10 UNL     1      -5.044  24.400  -2.000  1.00  0.00     0.132 C 
BRANCH   6   7
HETATM    7  N4  UNL     1      -5.696  25.031  -3.104  1.00  0.00    -0.358 N 
HETATM    8  C11 UNL     1      -5.354  26.295  -3.604  1.00  0.00     0.252 C 
HETATM    9  O2  UNL     1      -4.436  26.958  -3.062  1.00  0.00    -0.270 OA
ATOM     10  H4  UNL     1      -6.460  24.530  -3.558  1.00  0.00     0.162 HD
BRANCH   8  11
HETATM   11  C12 UNL     1      -6.075  26.838  -4.766  1.00  0.00     0.138 C 
HETATM   12  C13 UNL     1      -6.509  25.840  -5.775  1.00  0.00     0.048 C 
HETATM   13  C14 UNL     1      -7.986  26.037  -6.101  1.00  0.00     0.004 C 
HETATM   14  C15 UNL     1      -8.210  27.473  -6.484  1.00  0.00     0.000 C 
HETATM   15  C16 UNL     1      -7.930  28.401  -5.314  1.00  0.00     0.004 C 
HETATM   16  C17 UNL     1      -7.278  27.594  -4.221  1.00  0.00     0.048 C 
BRANCH  11  17
HETATM   17  O3  UNL     1      -5.258  27.779  -5.416  1.00  0.00    -0.380 OA
ATOM     18  H3  UNL     1      -4.808  28.305  -4.764  1.00  0.00     0.211 HD
ENDBRANCH  11  17
ENDBRANCH   8  11
ENDBRANCH   6   7
ENDBRANCH   5   6
ENDBRANCH   3   5
BRANCH   1  19
HETATM   19  C7  UNL     1      -7.963  26.997   0.352  1.00  0.00     0.087 C 
HETATM   20  C6  UNL     1      -7.807  28.193  -0.547  1.00  0.00     0.055 C 
HETATM   21  C5  UNL     1      -8.875  29.179  -0.184  1.00  0.00     0.275 C 
HETATM   22  N2  UNL     1      -8.644  29.791   1.132  1.00  0.00     0.093 N 
HETATM   23  C19 UNL     1      -7.713  28.989   1.902  1.00  0.00     0.275 C 
HETATM   24  C18 UNL     1      -7.960  27.524   1.771  1.00  0.00     0.055 C 
BRANCH  22  25
HETATM   25  C4  UNL     1      -8.280  31.132   0.922  1.00  0.00     0.226 C 
HETATM   26  C3  UNL     1      -6.880  31.554   1.089  1.00  0.00     0.066 C 
HETATM   27  C2  UNL     1      -6.853  32.878   1.883  1.00  0.00     0.274 C 
HETATM   28  N1  UNL     1      -7.740  33.855   1.340  1.00  0.00     0.084 N 
HETATM   29  C1  UNL     1      -7.769  34.986   2.256  1.00  0.00     0.309 C 
HETATM   30  C21 UNL     1      -9.099  33.400   1.213  1.00  0.00     0.274 C 
HETATM   31  C20 UNL     1      -9.219  32.007   1.774  1.00  0.00     0.066 C 
ENDBRANCH  22  25
ENDBRANCH   1  19
TORSDOF 7
ENDMDL
MODEL 3
REMARK VINA RESULT: -7.380875222      2.500      5.418
REMARK  7 active torsions:
REMARK  status: ('A' for Active; 'I' for Inactive)
REMARK    1  A    between atoms: C4_5  and  N2_6 
REMARK    2  A    between atoms: C7_9  and  N3_10 
REMARK       I    between atoms: N3_10  and  C8_12 
REMARK    3  A    between atoms: C8_12  and  C9_14 
REMARK    4  A    between atoms: C9_14  and  C10_15 
REMARK    5  A    between atoms: C10_15  and  N4_16 
REMARK       I    between atoms: N4_16  and  C11_18 
REMARK    6  A    between atoms: C11_18  and  C12_20 
REMARK    7  A    between atoms: C12_20  and  O3_21 
ROOT
HETATM    1  N3  UNL     1      -5.565  25.892  -5.130  1.00  0.00    -0.356 N 
ATOM      2  H3  UNL     1      -5.676  24.891  -4.967  1.00  0.00     0.162 HD
HETATM    3  C8  UNL     1      -4.335  26.506  -4.832  1.00  0.00     0.219 C 
HETATM    4  O1  UNL     1      -4.180  27.739  -5.005  1.00  0.00    -0.274 OA
ENDROOT
BRANCH   3   5
HETATM    5  C9  UNL     1      -3.225  25.661  -4.312  1.00  0.00     0.122 C 
BRANCH   5   6
HETATM    6  C10 UNL     1      -3.051  25.952  -2.838  1.00  0.00     0.132 C 
BRANCH   6   7
HETATM    7  N4  UNL     1      -4.296  26.240  -2.200  1.00  0.00    -0.358 N 
HETATM    8  C11 UNL     1      -4.493  27.290  -1.292  1.00  0.00     0.252 C 
HETATM    9  O2  UNL     1      -3.534  28.036  -0.977  1.00  0.00    -0.270 OA
ATOM     10  H4  UNL     1      -5.094  25.643  -2.418  1.00  0.00     0.162 HD
BRANCH   8  11
HETATM   11  C12 UNL     1      -5.828  27.513  -0.715  1.00  0.00     0.138 C 
HETATM   12  C13 UNL     1      -6.957  27.474  -1.678  1.00  0.00     0.048 C 
HETATM   13  C14 UNL     1      -8.050  26.544  -1.160  1.00  0.00     0.004 C 
HETATM   14  C15 UNL     1      -8.415  26.958   0.238  1.00  0.00     0.000 C 
HETATM   15  C16 UNL     1      -7.244  26.767   1.188  1.00  0.00     0.004 C 
HETATM   16  C17 UNL     1      -6.019  26.460   0.365  1.00  0.00     0.048 C 
BRANCH  11  17
HETATM   17  O3  UNL     1      -5.850  28.766  -0.077  1.00  0.00    -0.380 OA
ATOM     18  H3  UNL     1      -5.960  29.447  -0.732  1.00  0.00     0.211 HD
ENDBRANCH  11  17
ENDBRANCH   8  11
ENDBRANCH   6   7
ENDBRANCH   5   6
ENDBRANCH   3   5
BRANCH   1  19
HETATM   19  C7  UNL     1      -6.666  26.643  -5.659  1.00  0.00     0.087 C 
HETATM   20  C6  UNL     1      -7.165  27.734  -4.752  1.00  0.00     0.055 C 
HETATM   21  C5  UNL     1      -8.352  28.368  -5.410  1.00  0.00     0.275 C 
HETATM   22  N2  UNL     1      -9.518  27.475  -5.435  1.00  0.00     0.093 N 
HETATM   23  C19 UNL     1      -9.104  26.102  -5.216  1.00  0.00     0.275 C 
HETATM   24  C18 UNL     1      -7.853  25.749  -5.947  1.00  0.00     0.055 C 
BRANCH  22  25
HETATM   25  C4  UNL     1     -10.467  27.985  -4.534  1.00  0.00     0.226 C 
HETATM   26  C3  UNL     1     -10.213  29.252  -3.828  1.00  0.00     0.066 C 
HETATM   27  C2  UNL     1     -10.602  29.077  -2.343  1.00  0.00     0.274 C 
HETATM   28  N1  UNL     1     -11.908  28.525  -2.186  1.00  0.00     0.084 N 
HETATM   29  C1  UNL     1     -12.101  28.241  -0.771  1.00  0.00     0.309 C 
HETATM   30  C21 UNL     1     -12.101  27.280  -2.880  1.00  0.00     0.274 C 
HETATM   31  C20 UNL     1     -10.810  26.862  -3.536  1.00  0.00     0.066 C 
ENDBRANCH  22  25
ENDBRANCH   1  19
TORSDOF 7
ENDMDL
MODEL 4
REMARK VINA RESULT: -7.325714406      2.381      5.400
REMARK  7 active torsions:
REMARK  status: ('A' for Active; 'I' for Inactive)
REMARK    1  A    between atoms: C4_5  and  N2_6 
REMARK    2  A    between atoms: C7_9  and  N3_10 
REMARK       I    between atoms: N3_10  and  C8_12 
REMARK    3  A    between atoms: C8_12  and  C9_14 
REMARK    4  A    between atoms: C9_14  and  C10_15 
REMARK    5  A    between atoms: C10_15  and  N4_16 
REMARK       I    between atoms: N4_16  and  C11_18 
REMARK    6  A    between atoms: C11_18  and  C12_20 
REMARK    7  A    between atoms: C12_20  and  O3_21 
ROOT
HETATM    1  N3  UNL     1      -5.580  25.994  -5.208  1.00  0.00    -0.356 N 
ATOM      2  H3  UNL     1      -5.661  24.989  -5.054  1.00  0.00     0.162 HD
HETATM    3  C8  UNL     1      -4.353  26.633  -4.959  1.00  0.00     0.219 C 
HETATM    4  O1  UNL     1      -4.233  27.872  -5.122  1.00  0.00    -0.274 OA
ENDROOT
BRANCH   3   5
HETATM    5  C9  UNL     1      -3.200  25.807  -4.504  1.00  0.00     0.122 C 
BRANCH   5   6
HETATM    6  C10 UNL     1      -3.172  25.815  -2.991  1.00  0.00     0.132 C 
BRANCH   6   7
HETATM    7  N4  UNL     1      -4.432  26.197  -2.436  1.00  0.00    -0.358 N 
HETATM    8  C11 UNL     1      -5.309  25.315  -1.790  1.00  0.00     0.252 C 
HETATM    9  O2  UNL     1      -5.016  24.099  -1.690  1.00  0.00    -0.270 OA
ATOM     10  H4  UNL     1      -4.712  27.175  -2.514  1.00  0.00     0.162 HD
BRANCH   8  11
HETATM   11  C12 UNL     1      -6.571  25.823  -1.228  1.00  0.00     0.138 C 
HETATM   12  C13 UNL     1      -6.911  25.333   0.131  1.00  0.00     0.048 C 
HETATM   13  C14 UNL     1      -7.264  26.509   1.036  1.00  0.00     0.004 C 
HETATM   14  C15 UNL     1      -8.329  27.332   0.367  1.00  0.00     0.000 C 
HETATM   15  C16 UNL     1      -7.811  27.956  -0.918  1.00  0.00     0.004 C 
HETATM   16  C17 UNL     1      -6.472  27.341  -1.231  1.00  0.00     0.048 C 
BRANCH  11  17
HETATM   17  O3  UNL     1      -7.629  25.478  -2.087  1.00  0.00    -0.380 OA
ATOM     18  H3  UNL     1      -8.232  26.211  -2.148  1.00  0.00     0.211 HD
ENDBRANCH  11  17
ENDBRANCH   8  11
ENDBRANCH   6   7
ENDBRANCH   5   6
ENDBRANCH   3   5
BRANCH   1  19
HETATM   19  C7  UNL     1      -6.722  26.727  -5.675  1.00  0.00     0.087 C 
HETATM   20  C6  UNL     1      -7.284  27.701  -4.675  1.00  0.00     0.055 C 
HETATM   21  C5  UNL     1      -8.504  28.323  -5.282  1.00  0.00     0.275 C 
HETATM   22  N2  UNL     1      -9.618  27.371  -5.396  1.00  0.00     0.093 N 
HETATM   23  C19 UNL     1      -9.126  26.010  -5.300  1.00  0.00     0.275 C 
HETATM   24  C18 UNL     1      -7.855  25.797  -6.051  1.00  0.00     0.055 C 
BRANCH  22  25
HETATM   25  C4  UNL     1     -10.596  27.743  -4.459  1.00  0.00     0.226 C 
HETATM   26  C3  UNL     1     -10.664  29.128  -3.968  1.00  0.00     0.066 C 
HETATM   27  C2  UNL     1     -10.860  29.100  -2.436  1.00  0.00     0.274 C 
HETATM   28  N1  UNL     1     -11.932  28.245  -2.042  1.00  0.00     0.084 N 
HETATM   29  C1  UNL     1     -11.917  28.155  -0.588  1.00  0.00     0.309 C 
HETATM   30  C21 UNL     1     -11.812  26.898  -2.533  1.00  0.00     0.274 C 
HETATM   31  C20 UNL     1     -10.514  26.749  -3.284  1.00  0.00     0.066 C 
ENDBRANCH  22  25
ENDBRANCH   1  19
TORSDOF 7
ENDMDL
MODEL 5
REMARK VINA RESULT: -7.316525327      2.946      7.093
REMARK  7 active torsions:
REMARK  status: ('A' for Active; 'I' for Inactive)
REMARK    1  A    between atoms: C4_5  and  N2_6 
REMARK    2  A    between atoms: C7_9  and  N3_10 
REMARK       I    between atoms: N3_10  and  C8_12 
REMARK    3  A    between atoms: C8_12  and  C9_14 
REMARK    4  A    between atoms: C9_14  and  C10_15 
REMARK    5  A    between atoms: C10_15  and  N4_16 
REMARK       I    between atoms: N4_16  and  C11_18 
REMARK    6  A    between atoms: C11_18  and  C12_20 
REMARK    7  A    between atoms: C12_20  and  O3_21 
ROOT
HETATM    1  N3  UNL     1      -7.390  26.038  -5.701  1.00  0.00    -0.356 N 
ATOM      2  H3  UNL     1      -7.102  25.080  -5.900  1.00  0.00     0.162 HD
HETATM    3  C8  UNL     1      -6.408  27.024  -5.494  1.00  0.00     0.219 C 
HETATM    4  O1  UNL     1      -6.738  28.206  -5.228  1.00  0.00    -0.274 OA
ENDROOT
BRANCH   3   5
HETATM    5  C9  UNL     1      -4.975  26.636  -5.603  1.00  0.00     0.122 C 
BRANCH   5   6
HETATM    6  C10 UNL     1      -4.534  26.056  -4.278  1.00  0.00     0.132 C 
BRANCH   6   7
HETATM    7  N4  UNL     1      -5.171  26.700  -3.174  1.00  0.00    -0.358 N 
HETATM    8  C11 UNL     1      -5.815  26.022  -2.129  1.00  0.00     0.252 C 
HETATM    9  O2  UNL     1      -5.876  24.768  -2.138  1.00  0.00    -0.270 OA
ATOM     10  H4  UNL     1      -5.157  27.719  -3.143  1.00  0.00     0.162 HD
BRANCH   8  11
HETATM   11  C12 UNL     1      -6.415  26.787  -1.025  1.00  0.00     0.138 C 
HETATM   12  C13 UNL     1      -7.518  27.705  -1.406  1.00  0.00     0.048 C 
HETATM   13  C14 UNL     1      -8.722  27.477  -0.498  1.00  0.00     0.004 C 
HETATM   14  C15 UNL     1      -8.275  27.573   0.933  1.00  0.00     0.000 C 
HETATM   15  C16 UNL     1      -7.299  26.461   1.277  1.00  0.00     0.004 C 
HETATM   16  C17 UNL     1      -6.905  25.771  -0.004  1.00  0.00     0.048 C 
BRANCH  11  17
HETATM   17  O3  UNL     1      -5.416  27.552  -0.398  1.00  0.00    -0.380 OA
ATOM     18  H3  UNL     1      -5.809  28.333  -0.027  1.00  0.00     0.211 HD
ENDBRANCH  11  17
ENDBRANCH   8  11
ENDBRANCH   6   7
ENDBRANCH   5   6
ENDBRANCH   3   5
BRANCH   1  19
HETATM   19  C7  UNL     1      -8.788  26.352  -5.637  1.00  0.00     0.087 C 
HETATM   20  C6  UNL     1      -9.515  25.712  -4.486  1.00  0.00     0.055 C 
HETATM   21  C5  UNL     1     -10.964  26.073  -4.604  1.00  0.00     0.275 C 
HETATM   22  N2  UNL     1     -11.613  25.410  -5.743  1.00  0.00     0.093 N 
HETATM   23  C19 UNL     1     -10.615  24.937  -6.684  1.00  0.00     0.275 C 
HETATM   24  C18 UNL     1      -9.507  25.913  -6.895  1.00  0.00     0.055 C 
BRANCH  22  25
HETATM   25  C4  UNL     1     -12.488  24.438  -5.230  1.00  0.00     0.226 C 
HETATM   26  C3  UNL     1     -12.372  24.001  -3.830  1.00  0.00     0.066 C 
HETATM   27  C2  UNL     1     -12.482  22.461  -3.780  1.00  0.00     0.274 C 
HETATM   28  N1  UNL     1     -13.618  21.975  -4.494  1.00  0.00     0.084 N 
HETATM   29  C1  UNL     1     -13.528  20.522  -4.534  1.00  0.00     0.309 C 
HETATM   30  C21 UNL     1     -13.677  22.415  -5.862  1.00  0.00     0.274 C 
HETATM   31  C20 UNL     1     -12.449  23.228  -6.184  1.00  0.00     0.066 C 
ENDBRANCH  22  25
ENDBRANCH   1  19
TORSDOF 7
ENDMDL
