MODEL 1
REMARK VINA RESULT: -6.603997382      0.000      0.000
REMARK  7 active torsions:
REMARK  status: ('A' for Active; 'I' for Inactive)
REMARK    1  A    between atoms: C2_2  and  N1_4 
REMARK    2  A    between atoms: C2_2  and  C4_8 
REMARK    3  A    between atoms: C4_8  and  C5_9 
REMARK       I    between atoms: C5_9  and  N2_11 
REMARK    4  A    between atoms: C7_13  and  N3_14 
REMARK       I    between atoms: N3_14  and  C8_16 
REMARK       I    between atoms: C8_16  and  N4_18 
REMARK    5  A    between atoms: N4_18  and  S1_20 
REMARK    6  A    between atoms: S1_20  and  C9_23 
REMARK    7  A    between atoms: C13_27  and  C14_28 
ROOT
HETATM    1  C5  UNL     1      -8.813  32.946   1.014  1.00  0.00     0.222 C 
HETATM    2  O1  UNL     1      -8.826  33.829   0.127  1.00  0.00    -0.273 OA
HETATM    3  N2  UNL     1      -9.061  31.592   0.692  1.00  0.00    -0.350 N 
HETATM    4  C6  UNL     1      -9.343  31.118  -0.642  1.00  0.00     0.151 C 
HETATM    5  C7  UNL     1      -9.266  29.617  -0.544  1.00  0.00     0.110 C 
HETATM    6  C13 UNL     1      -8.476  29.394   0.699  1.00  0.00     0.032 C 
HETATM    7  C17 UNL     1      -9.070  30.465   1.620  1.00  0.00     0.133 C 
ENDROOT
BRANCH   5   8
HETATM    8  N3  UNL     1      -8.652  29.032  -1.716  1.00  0.00    -0.336 N 
HETATM    9  C8  UNL     1      -9.156  27.818  -2.205  1.00  0.00     0.330 C 
HETATM   10  O2  UNL     1     -10.109  27.255  -1.641  1.00  0.00    -0.246 OA
HETATM   11  N4  UNL     1      -8.568  27.230  -3.353  1.00  0.00    -0.236 N 
ATOM     12  H4  UNL     1      -7.787  27.699  -3.811  1.00  0.00     0.183 HD
ATOM     13  H3  UNL     1      -7.868  29.494  -2.178  1.00  0.00     0.164 HD
BRANCH  11  14
HETATM   14  S1  UNL     1      -9.151  25.736  -3.989  1.00  0.00     0.238 S 
HETATM   15  O3  UNL     1     -10.625  25.698  -4.137  1.00  0.00    -0.205 OA
HETATM   16  O4  UNL     1      -8.764  24.586  -3.085  1.00  0.00    -0.205 OA
BRANCH  14  17
HETATM   17  C9  UNL     1      -8.356  25.515  -5.569  1.00  0.00     0.130 C 
HETATM   18  C10 UNL     1      -7.901  26.868  -6.088  1.00  0.00     0.022 C 
HETATM   19  C11 UNL     1      -9.028  26.844  -7.119  1.00  0.00     0.003 C 
HETATM   20  C12 UNL     1      -9.260  25.389  -6.749  1.00  0.00     0.022 C 
ENDBRANCH  14  17
ENDBRANCH  11  14
ENDBRANCH   5   8
BRANCH   6  21
HETATM   21  C14 UNL     1      -8.617  28.027   1.299  1.00  0.00    -0.007 A 
HETATM   22  C15 UNL     1      -7.916  27.653   2.561  1.00  0.00     0.005 A 
HETATM   23  C16 UNL     1      -7.357  27.185   1.232  1.00  0.00     0.005 A 
ENDBRANCH   6  21
BRANCH   1  24
HETATM   24  C4  UNL     1      -8.536  33.310   2.413  1.00  0.00     0.140 C 
BRANCH  24  25
HETATM   25  C2  UNL     1      -7.175  33.892   2.646  1.00  0.00     0.124 C 
HETATM   26  C1  UNL     1      -6.168  32.807   2.233  1.00  0.00     0.046 C 
HETATM   27  C3  UNL     1      -6.904  34.165   4.108  1.00  0.00     0.046 C 
BRANCH  25  28
HETATM   28  N1  UNL     1      -6.916  35.059   1.824  1.00  0.00    -0.071 N 
ATOM     29  H13 UNL     1      -6.278  34.869   1.051  1.00  0.00     0.275 HD
ATOM     30  H12 UNL     1      -7.723  35.339   1.265  1.00  0.00     0.275 HD
ATOM     31  H11 UNL     1      -6.584  35.799   2.442  1.00  0.00     0.275 HD
ENDBRANCH  25  28
ENDBRANCH  24  25
ENDBRANCH   1  24
TORSDOF 7
ENDMDL
MODEL 2
REMARK VINA RESULT: -6.439304684      0.999      1.319
REMARK  7 active torsions:
REMARK  status: ('A' for Active; 'I' for Inactive)
REMARK    1  A    between atoms: C2_2  and  N1_4 
REMARK    2  A    between atoms: C2_2  and  C4_8 
REMARK    3  A    between atoms: C4_8  and  C5_9 
REMARK       I    between atoms: C5_9  and  N2_11 
REMARK    4  A    between atoms: C7_13  and  N3_14 
REMARK       I    between atoms: N3_14  and  C8_16 
REMARK       I    between atoms: C8_16  and  N4_18 
REMARK    5  A    between atoms: N4_18  and  S1_20 
REMARK    6  A    between atoms: S1_20  and  C9_23 
REMARK    7  A    between atoms: C13_27  and  C14_28 
ROOT
HETATM    1  C5  UNL     1      -8.808  32.899   0.909  1.00  0.00     0.222 C 
HETATM    2  O1  UNL     1      -8.839  33.801   0.043  1.00  0.00    -0.273 OA
HETATM    3  N2  UNL     1      -9.065  31.552   0.562  1.00  0.00    -0.350 N 
HETATM    4  C6  UNL     1      -9.377  31.108  -0.774  1.00  0.00     0.151 C 
HETATM    5  C7  UNL     1      -9.301  29.606  -0.711  1.00  0.00     0.110 C 
HETATM    6  C13 UNL     1      -8.484  29.354   0.508  1.00  0.00     0.032 C 
HETATM    7  C17 UNL     1      -9.056  30.405   1.465  1.00  0.00     0.133 C 
ENDROOT
BRANCH   5   8
HETATM    8  N3  UNL     1      -8.714  29.046  -1.910  1.00  0.00    -0.336 N 
HETATM    9  C8  UNL     1      -9.565  28.543  -2.906  1.00  0.00     0.330 C 
HETATM   10  O2  UNL     1     -10.798  28.576  -2.759  1.00  0.00    -0.246 OA
HETATM   11  N4  UNL     1      -9.009  27.992  -4.086  1.00  0.00    -0.236 N 
ATOM     12  H4  UNL     1      -7.995  27.970  -4.199  1.00  0.00     0.183 HD
ATOM     13  H3  UNL     1      -7.701  29.018  -2.029  1.00  0.00     0.164 HD
BRANCH  11  14
HETATM   14  S1  UNL     1     -10.015  27.359  -5.336  1.00  0.00     0.238 S 
HETATM   15  O3  UNL     1     -10.960  28.356  -5.889  1.00  0.00    -0.205 OA
HETATM   16  O4  UNL     1     -10.840  26.201  -4.819  1.00  0.00    -0.205 OA
BRANCH  14  17
HETATM   17  C9  UNL     1      -8.922  26.757  -6.609  1.00  0.00     0.130 C 
HETATM   18  C10 UNL     1      -9.651  26.788  -7.942  1.00  0.00     0.022 C 
HETATM   19  C11 UNL     1      -9.769  25.265  -7.905  1.00  0.00     0.003 C 
HETATM   20  C12 UNL     1      -8.805  25.275  -6.730  1.00  0.00     0.022 C 
ENDBRANCH  14  17
ENDBRANCH  11  14
ENDBRANCH   5   8
BRANCH   6  21
HETATM   21  C14 UNL     1      -8.614  27.974   1.080  1.00  0.00    -0.007 A 
HETATM   22  C15 UNL     1      -7.816  27.542   2.264  1.00  0.00     0.005 A 
HETATM   23  C16 UNL     1      -7.393  27.099   0.877  1.00  0.00     0.005 A 
ENDBRANCH   6  21
BRANCH   1  24
HETATM   24  C4  UNL     1      -8.500  33.230   2.310  1.00  0.00     0.140 C 
BRANCH  24  25
HETATM   25  C2  UNL     1      -7.143  33.831   2.522  1.00  0.00     0.124 C 
HETATM   26  C1  UNL     1      -6.129  32.765   2.078  1.00  0.00     0.046 C 
HETATM   27  C3  UNL     1      -6.847  34.092   3.981  1.00  0.00     0.046 C 
BRANCH  25  28
HETATM   28  N1  UNL     1      -6.918  35.010   1.708  1.00  0.00    -0.071 N 
ATOM     29  H13 UNL     1      -6.267  35.669   2.134  1.00  0.00     0.275 HD
ATOM     30  H12 UNL     1      -6.378  34.814   0.865  1.00  0.00     0.275 HD
ATOM     31  H11 UNL     1      -7.830  35.422   1.511  1.00  0.00     0.275 HD
ENDBRANCH  25  28
ENDBRANCH  24  25
ENDBRANCH   1  24
TORSDOF 7
ENDMDL
MODEL 3
REMARK VINA RESULT: -6.351068275      3.156      8.060
REMARK  7 active torsions:
REMARK  status: ('A' for Active; 'I' for Inactive)
REMARK    1  A    between atoms: C2_2  and  N1_4 
REMARK    2  A    between atoms: C2_2  and  C4_8 
REMARK    3  A    between atoms: C4_8  and  C5_9 
REMARK       I    between atoms: C5_9  and  N2_11 
REMARK    4  A    between atoms: C7_13  and  N3_14 
REMARK       I    between atoms: N3_14  and  C8_16 
REMARK       I    between atoms: C8_16  and  N4_18 
REMARK    5  A    between atoms: N4_18  and  S1_20 
REMARK    6  A    between atoms: S1_20  and  C9_23 
REMARK    7  A    between atoms: C13_27  and  C14_28 
ROOT
HETATM    1  C5  UNL     1      -6.428  25.534  -2.556  1.00  0.00     0.222 C 
HETATM    2  O1  UNL     1      -5.216  25.306  -2.349  1.00  0.00    -0.273 OA
HETATM    3  N2  UNL     1      -7.265  26.003  -1.517  1.00  0.00    -0.350 N 
HETATM    4  C6  UNL     1      -6.815  26.251  -0.168  1.00  0.00     0.151 C 
HETATM    5  C7  UNL     1      -7.956  26.980   0.492  1.00  0.00     0.110 C 
HETATM    6  C13 UNL     1      -8.739  27.507  -0.659  1.00  0.00     0.032 C 
HETATM    7  C17 UNL     1      -8.688  26.314  -1.619  1.00  0.00     0.133 C 
ENDROOT
BRANCH   5   8
HETATM    8  N3  UNL     1      -7.487  28.022   1.380  1.00  0.00    -0.336 N 
HETATM    9  C8  UNL     1      -6.887  29.162   0.825  1.00  0.00     0.330 C 
HETATM   10  O2  UNL     1      -6.761  29.273  -0.407  1.00  0.00    -0.246 OA
HETATM   11  N4  UNL     1      -6.422  30.192   1.678  1.00  0.00    -0.236 N 
ATOM     12  H4  UNL     1      -6.531  30.093   2.687  1.00  0.00     0.183 HD
ATOM     13  H3  UNL     1      -7.590  27.929   2.391  1.00  0.00     0.164 HD
BRANCH  11  14
HETATM   14  S1  UNL     1      -5.676  31.611   1.041  1.00  0.00     0.238 S 
HETATM   15  O3  UNL     1      -4.631  31.321   0.032  1.00  0.00    -0.205 OA
HETATM   16  O4  UNL     1      -5.018  32.408   2.147  1.00  0.00    -0.205 OA
BRANCH  14  17
HETATM   17  C9  UNL     1      -6.981  32.593   0.328  1.00  0.00     0.130 C 
HETATM   18  C10 UNL     1      -6.391  33.887  -0.207  1.00  0.00     0.022 C 
HETATM   19  C11 UNL     1      -7.021  34.648   0.957  1.00  0.00     0.003 C 
HETATM   20  C12 UNL     1      -7.805  33.387   1.284  1.00  0.00     0.022 C 
ENDBRANCH  14  17
ENDBRANCH  11  14
ENDBRANCH   5   8
BRANCH   6  21
HETATM   21  C14 UNL     1     -10.156  27.882  -0.339  1.00  0.00    -0.007 A 
HETATM   22  C15 UNL     1     -11.123  28.262  -1.409  1.00  0.00     0.005 A 
HETATM   23  C16 UNL     1     -10.478  29.346  -0.568  1.00  0.00     0.005 A 
ENDBRANCH   6  21
BRANCH   1  24
HETATM   24  C4  UNL     1      -7.002  25.318  -3.894  1.00  0.00     0.140 C 
BRANCH  24  25
HETATM   25  C2  UNL     1      -6.663  26.381  -4.895  1.00  0.00     0.124 C 
HETATM   26  C1  UNL     1      -7.803  26.377  -5.926  1.00  0.00     0.046 C 
HETATM   27  C3  UNL     1      -5.408  26.064  -5.674  1.00  0.00     0.046 C 
BRANCH  25  28
HETATM   28  N1  UNL     1      -6.612  27.707  -4.309  1.00  0.00    -0.071 N 
ATOM     29  H13 UNL     1      -7.484  28.225  -4.421  1.00  0.00     0.275 HD
ATOM     30  H12 UNL     1      -6.597  27.691  -3.289  1.00  0.00     0.275 HD
ATOM     31  H11 UNL     1      -5.809  28.187  -4.713  1.00  0.00     0.275 HD
ENDBRANCH  25  28
ENDBRANCH  24  25
ENDBRANCH   1  24
TORSDOF 7
ENDMDL
MODEL 4
REMARK VINA RESULT: -6.330102869      3.367      7.977
REMARK  7 active torsions:
REMARK  status: ('A' for Active; 'I' for Inactive)
REMARK    1  A    between atoms: C2_2  and  N1_4 
REMARK    2  A    between atoms: C2_2  and  C4_8 
REMARK    3  A    between atoms: C4_8  and  C5_9 
REMARK       I    between atoms: C5_9  and  N2_11 
REMARK    4  A    between atoms: C7_13  and  N3_14 
REMARK       I    between atoms: N3_14  and  C8_16 
REMARK       I    between atoms: C8_16  and  N4_18 
REMARK    5  A    between atoms: N4_18  and  S1_20 
REMARK    6  A    between atoms: S1_20  and  C9_23 
REMARK    7  A    between atoms: C13_27  and  C14_28 
ROOT
HETATM    1  C5  UNL     1      -6.047  25.500  -2.173  1.00  0.00     0.222 C 
HETATM    2  O1  UNL     1      -4.940  25.200  -1.674  1.00  0.00    -0.273 OA
HETATM    3  N2  UNL     1      -7.066  26.078  -1.380  1.00  0.00    -0.350 N 
HETATM    4  C6  UNL     1      -6.929  26.364   0.028  1.00  0.00     0.151 C 
HETATM    5  C7  UNL     1      -8.131  27.202   0.372  1.00  0.00     0.110 C 
HETATM    6  C13 UNL     1      -8.577  27.722  -0.950  1.00  0.00     0.032 C 
HETATM    7  C17 UNL     1      -8.395  26.481  -1.830  1.00  0.00     0.133 C 
ENDROOT
BRANCH   5   8
HETATM    8  N3  UNL     1      -7.804  28.253   1.311  1.00  0.00    -0.336 N 
HETATM    9  C8  UNL     1      -7.013  29.326   0.873  1.00  0.00     0.330 C 
HETATM   10  O2  UNL     1      -6.602  29.372  -0.299  1.00  0.00    -0.246 OA
HETATM   11  N4  UNL     1      -6.683  30.365   1.778  1.00  0.00    -0.236 N 
ATOM     12  H4  UNL     1      -7.025  30.320   2.737  1.00  0.00     0.183 HD
ATOM     13  H3  UNL     1      -8.141  28.215   2.273  1.00  0.00     0.164 HD
BRANCH  11  14
HETATM   14  S1  UNL     1      -5.711  31.703   1.286  1.00  0.00     0.238 S 
HETATM   15  O3  UNL     1      -4.920  31.434   0.063  1.00  0.00    -0.205 OA
HETATM   16  O4  UNL     1      -4.732  32.079   2.377  1.00  0.00    -0.205 OA
BRANCH  14  17
HETATM   17  C9  UNL     1      -6.826  33.068   1.024  1.00  0.00     0.130 C 
HETATM   18  C10 UNL     1      -7.828  32.689  -0.054  1.00  0.00     0.022 C 
HETATM   19  C11 UNL     1      -7.118  33.623  -1.033  1.00  0.00     0.003 C 
HETATM   20  C12 UNL     1      -6.327  34.166   0.146  1.00  0.00     0.022 C 
ENDBRANCH  14  17
ENDBRANCH  11  14
ENDBRANCH   5   8
BRANCH   6  21
HETATM   21  C14 UNL     1      -9.995  28.210  -0.991  1.00  0.00    -0.007 A 
HETATM   22  C15 UNL     1     -10.657  28.576  -2.276  1.00  0.00     0.005 A 
HETATM   23  C16 UNL     1     -10.139  29.672  -1.366  1.00  0.00     0.005 A 
ENDBRANCH   6  21
BRANCH   1  24
HETATM   24  C4  UNL     1      -6.305  25.256  -3.601  1.00  0.00     0.140 C 
BRANCH  24  25
HETATM   25  C2  UNL     1      -5.628  26.218  -4.529  1.00  0.00     0.124 C 
HETATM   26  C1  UNL     1      -6.734  27.129  -5.084  1.00  0.00     0.046 C 
HETATM   27  C3  UNL     1      -5.021  25.534  -5.732  1.00  0.00     0.046 C 
BRANCH  25  28
HETATM   28  N1  UNL     1      -4.666  27.068  -3.851  1.00  0.00    -0.071 N 
ATOM     29  H13 UNL     1      -4.728  28.045  -4.136  1.00  0.00     0.275 HD
ATOM     30  H12 UNL     1      -4.882  27.203  -2.863  1.00  0.00     0.275 HD
ATOM     31  H11 UNL     1      -3.742  26.665  -4.006  1.00  0.00     0.275 HD
ENDBRANCH  25  28
ENDBRANCH  24  25
ENDBRANCH   1  24
TORSDOF 7
ENDMDL
MODEL 5
REMARK VINA RESULT: -6.262259274      1.567      2.019
REMARK  7 active torsions:
REMARK  status: ('A' for Active; 'I' for Inactive)
REMARK    1  A    between atoms: C2_2  and  N1_4 
REMARK    2  A    between atoms: C2_2  and  C4_8 
REMARK    3  A    between atoms: C4_8  and  C5_9 
REMARK       I    between atoms: C5_9  and  N2_11 
REMARK    4  A    between atoms: C7_13  and  N3_14 
REMARK       I    between atoms: N3_14  and  C8_16 
REMARK       I    between atoms: C8_16  and  N4_18 
REMARK    5  A    between atoms: N4_18  and  S1_20 
REMARK    6  A    between atoms: S1_20  and  C9_23 
REMARK    7  A    between atoms: C13_27  and  C14_28 
ROOT
HETATM    1  C5  UNL     1      -8.772  32.952   1.029  1.00  0.00     0.222 C 
HETATM    2  O1  UNL     1      -8.769  33.840   0.147  1.00  0.00    -0.273 OA
HETATM    3  N2  UNL     1      -8.989  31.597   0.691  1.00  0.00    -0.350 N 
HETATM    4  C6  UNL     1      -9.220  31.127  -0.653  1.00  0.00     0.151 C 
HETATM    5  C7  UNL     1      -9.124  29.626  -0.561  1.00  0.00     0.110 C 
HETATM    6  C13 UNL     1      -8.373  29.407   0.706  1.00  0.00     0.032 C 
HETATM    7  C17 UNL     1      -9.013  30.464   1.612  1.00  0.00     0.133 C 
ENDROOT
BRANCH   5   8
HETATM    8  N3  UNL     1      -8.463  29.057  -1.716  1.00  0.00    -0.336 N 
HETATM    9  C8  UNL     1      -8.813  27.760  -2.121  1.00  0.00     0.330 C 
HETATM   10  O2  UNL     1      -9.672  27.114  -1.498  1.00  0.00    -0.246 OA
HETATM   11  N4  UNL     1      -8.178  27.187  -3.249  1.00  0.00    -0.236 N 
ATOM     12  H4  UNL     1      -7.474  27.725  -3.755  1.00  0.00     0.183 HD
ATOM     13  H3  UNL     1      -7.758  29.589  -2.225  1.00  0.00     0.164 HD
BRANCH  11  14
HETATM   14  S1  UNL     1      -8.572  25.595  -3.784  1.00  0.00     0.238 S 
HETATM   15  O3  UNL     1      -8.875  25.521  -5.232  1.00  0.00    -0.205 OA
HETATM   16  O4  UNL     1      -9.786  25.072  -3.047  1.00  0.00    -0.205 OA
BRANCH  14  17
HETATM   17  C9  UNL     1      -7.173  24.565  -3.382  1.00  0.00     0.130 C 
HETATM   18  C10 UNL     1      -7.278  24.133  -1.929  1.00  0.00     0.022 C 
HETATM   19  C11 UNL     1      -6.146  25.094  -1.569  1.00  0.00     0.003 C 
HETATM   20  C12 UNL     1      -5.904  25.278  -3.058  1.00  0.00     0.022 C 
ENDBRANCH  14  17
ENDBRANCH  11  14
ENDBRANCH   5   8
BRANCH   6  21
HETATM   21  C14 UNL     1      -8.513  28.035   1.294  1.00  0.00    -0.007 A 
HETATM   22  C15 UNL     1      -7.856  27.666   2.580  1.00  0.00     0.005 A 
HETATM   23  C16 UNL     1      -7.237  27.216   1.272  1.00  0.00     0.005 A 
ENDBRANCH   6  21
BRANCH   1  24
HETATM   24  C4  UNL     1      -8.547  33.312   2.439  1.00  0.00     0.140 C 
BRANCH  24  25
HETATM   25  C2  UNL     1      -7.202  33.909   2.720  1.00  0.00     0.124 C 
HETATM   26  C1  UNL     1      -6.170  32.823   2.378  1.00  0.00     0.046 C 
HETATM   27  C3  UNL     1      -7.000  34.217   4.186  1.00  0.00     0.046 C 
BRANCH  25  28
HETATM   28  N1  UNL     1      -6.913  35.059   1.884  1.00  0.00    -0.071 N 
ATOM     29  H13 UNL     1      -7.368  35.912   2.209  1.00  0.00     0.275 HD
ATOM     30  H12 UNL     1      -5.949  35.382   1.970  1.00  0.00     0.275 HD
ATOM     31  H11 UNL     1      -7.167  34.812   0.928  1.00  0.00     0.275 HD
ENDBRANCH  25  28
ENDBRANCH  24  25
ENDBRANCH   1  24
TORSDOF 7
ENDMDL
