MODEL 1
REMARK VINA RESULT: -6.634069164      0.000      0.000
REMARK  8 active torsions:
REMARK  status: ('A' for Active; 'I' for Inactive)
REMARK    1  A    between atoms: O1_2  and  C2_3 
REMARK    2  A    between atoms: C2_3  and  C3_5 
REMARK    3  A    between atoms: N1_8  and  C6_9 
REMARK    4  A    between atoms: C6_9  and  C7_10 
REMARK       I    between atoms: C7_10  and  N2_12 
REMARK    5  A    between atoms: N2_12  and  C8_14 
REMARK    6  A    between atoms: C8_14  and  C9_15 
REMARK       I    between atoms: C9_15  and  N3_17 
REMARK    7  A    between atoms: N3_17  and  C10_19 
REMARK    8  A    between atoms: C16_25  and  N4_27 
ROOT
HETATM    1  C9  UNL     1      -9.682  28.709  -3.609  1.00  0.00     0.235 C 
HETATM    2  O4  UNL     1     -10.241  27.642  -3.987  1.00  0.00    -0.272 OA
HETATM    3  N3  UNL     1      -8.700  28.630  -2.578  1.00  0.00    -0.355 N 
ATOM      4  H3  UNL     1      -8.236  29.482  -2.264  1.00  0.00     0.162 HD
ENDROOT
BRANCH   1   5
HETATM    5  C8  UNL     1      -9.979  30.040  -4.168  1.00  0.00     0.225 C 
BRANCH   5   6
HETATM    6  N2  UNL     1      -9.498  31.129  -3.318  1.00  0.00    -0.351 N 
HETATM    7  C7  UNL     1     -10.369  31.670  -2.364  1.00  0.00     0.246 C 
HETATM    8  O3  UNL     1     -11.537  31.224  -2.263  1.00  0.00    -0.272 OA
ATOM      9  H2  UNL     1      -8.548  31.486  -3.419  1.00  0.00     0.163 HD
BRANCH   7  10
HETATM   10  C6  UNL     1      -9.964  32.757  -1.465  1.00  0.00     0.374 C 
BRANCH  10  11
HETATM   11  N1  UNL     1      -9.712  32.358  -0.112  1.00  0.00     0.097 N 
HETATM   12  C5  UNL     1      -9.396  33.442   0.768  1.00  0.00     0.273 C 
HETATM   13  C4  UNL     1      -7.896  33.739   0.691  1.00  0.00     0.045 C 
HETATM   14  C3  UNL     1      -7.116  32.567   1.202  1.00  0.00     0.089 C 
HETATM   15  C20 UNL     1      -7.948  31.312   1.185  1.00  0.00     0.045 C 
HETATM   16  C19 UNL     1      -8.711  31.314  -0.136  1.00  0.00     0.273 C 
BRANCH  14  17
HETATM   17  C2  UNL     1      -5.878  32.321   0.414  1.00  0.00     0.262 C 
HETATM   18  O2  UNL     1      -5.403  33.211  -0.329  1.00  0.00    -0.265 OA
BRANCH  17  19
HETATM   19  O1  UNL     1      -5.250  31.076   0.521  1.00  0.00    -0.326 OA
HETATM   20  C1  UNL     1      -3.904  31.011   0.094  1.00  0.00     0.213 C 
ENDBRANCH  17  19
ENDBRANCH  14  17
ENDBRANCH  10  11
ENDBRANCH   7  10
ENDBRANCH   5   6
ENDBRANCH   1   5
BRANCH   3  21
HETATM   21  C10 UNL     1      -8.341  27.341  -1.959  1.00  0.00     0.087 C 
HETATM   22  C11 UNL     1      -6.956  27.026  -2.463  1.00  0.00     0.034 C 
HETATM   23  C12 UNL     1      -6.286  25.918  -1.713  1.00  0.00    -0.044 C 
HETATM   24  C13 UNL     1      -4.809  26.213  -1.575  1.00  0.00     0.015 C 
HETATM   25  C14 UNL     1      -6.431  24.591  -2.438  1.00  0.00     0.015 C 
HETATM   26  C15 UNL     1      -6.837  25.716  -0.325  1.00  0.00     0.047 C 
HETATM   27  C16 UNL     1      -7.169  27.071   0.248  1.00  0.00     0.122 C 
HETATM   28  C17 UNL     1      -7.443  27.021   1.717  1.00  0.00     0.046 C 
HETATM   29  C18 UNL     1      -8.420  27.541  -0.490  1.00  0.00     0.063 C 
BRANCH  27  30
HETATM   30  N4  UNL     1      -6.118  28.034   0.023  1.00  0.00    -0.071 N 
ATOM     31  H43 UNL     1      -6.222  28.487  -0.885  1.00  0.00     0.275 HD
ATOM     32  H42 UNL     1      -6.230  28.849   0.625  1.00  0.00     0.275 HD
ATOM     33  H41 UNL     1      -5.189  27.626   0.126  1.00  0.00     0.275 HD
ENDBRANCH  27  30
ENDBRANCH   3  21
TORSDOF 8
ENDMDL
MODEL 2
REMARK VINA RESULT: -6.495733517      2.825      4.677
REMARK  8 active torsions:
REMARK  status: ('A' for Active; 'I' for Inactive)
REMARK    1  A    between atoms: O1_2  and  C2_3 
REMARK    2  A    between atoms: C2_3  and  C3_5 
REMARK    3  A    between atoms: N1_8  and  C6_9 
REMARK    4  A    between atoms: C6_9  and  C7_10 
REMARK       I    between atoms: C7_10  and  N2_12 
REMARK    5  A    between atoms: N2_12  and  C8_14 
REMARK    6  A    between atoms: C8_14  and  C9_15 
REMARK       I    between atoms: C9_15  and  N3_17 
REMARK    7  A    between atoms: N3_17  and  C10_19 
REMARK    8  A    between atoms: C16_25  and  N4_27 
ROOT
HETATM    1  C9  UNL     1      -6.980  25.553  -0.600  1.00  0.00     0.235 C 
HETATM    2  O4  UNL     1      -6.820  24.309  -0.745  1.00  0.00    -0.272 OA
HETATM    3  N3  UNL     1      -6.968  26.377  -1.763  1.00  0.00    -0.355 N 
ATOM      4  H3  UNL     1      -7.100  27.384  -1.664  1.00  0.00     0.162 HD
ENDROOT
BRANCH   1   5
HETATM    5  C8  UNL     1      -7.182  26.213   0.702  1.00  0.00     0.225 C 
BRANCH   5   6
HETATM    6  N2  UNL     1      -7.478  27.639   0.572  1.00  0.00    -0.351 N 
HETATM    7  C7  UNL     1      -7.643  28.400   1.736  1.00  0.00     0.246 C 
HETATM    8  O3  UNL     1      -7.548  27.848   2.859  1.00  0.00    -0.272 OA
ATOM      9  H2  UNL     1      -7.561  28.072  -0.349  1.00  0.00     0.163 HD
BRANCH   7  10
HETATM   10  C6  UNL     1      -7.932  29.838   1.696  1.00  0.00     0.374 C 
BRANCH  10  11
HETATM   11  N1  UNL     1      -7.409  30.526   0.553  1.00  0.00     0.097 N 
HETATM   12  C5  UNL     1      -6.040  30.923   0.684  1.00  0.00     0.273 C 
HETATM   13  C4  UNL     1      -5.969  32.276   1.394  1.00  0.00     0.045 C 
HETATM   14  C3  UNL     1      -6.613  33.332   0.550  1.00  0.00     0.089 C 
HETATM   15  C20 UNL     1      -7.534  32.721  -0.473  1.00  0.00     0.045 C 
HETATM   16  C19 UNL     1      -8.307  31.618   0.242  1.00  0.00     0.273 C 
BRANCH  14  17
HETATM   17  C2  UNL     1      -7.389  34.312   1.358  1.00  0.00     0.262 C 
HETATM   18  O2  UNL     1      -8.237  35.059   0.818  1.00  0.00    -0.265 OA
BRANCH  17  19
HETATM   19  O1  UNL     1      -7.156  34.382   2.735  1.00  0.00    -0.326 OA
HETATM   20  C1  UNL     1      -8.253  34.083   3.575  1.00  0.00     0.213 C 
ENDBRANCH  17  19
ENDBRANCH  14  17
ENDBRANCH  10  11
ENDBRANCH   7  10
ENDBRANCH   5   6
ENDBRANCH   1   5
BRANCH   3  21
HETATM   21  C10 UNL     1      -6.770  25.804  -3.106  1.00  0.00     0.087 C 
HETATM   22  C11 UNL     1      -7.490  26.732  -4.050  1.00  0.00     0.034 C 
HETATM   23  C12 UNL     1      -7.153  26.502  -5.489  1.00  0.00    -0.044 C 
HETATM   24  C13 UNL     1      -7.103  27.824  -6.221  1.00  0.00     0.015 C 
HETATM   25  C14 UNL     1      -8.193  25.629  -6.170  1.00  0.00     0.015 C 
HETATM   26  C15 UNL     1      -5.820  25.825  -5.689  1.00  0.00     0.047 C 
HETATM   27  C16 UNL     1      -4.865  26.356  -4.651  1.00  0.00     0.122 C 
HETATM   28  C17 UNL     1      -3.445  25.983  -4.934  1.00  0.00     0.046 C 
HETATM   29  C18 UNL     1      -5.303  25.737  -3.326  1.00  0.00     0.063 C 
BRANCH  27  30
HETATM   30  N4  UNL     1      -4.932  27.793  -4.527  1.00  0.00    -0.071 N 
ATOM     31  H43 UNL     1      -4.560  28.252  -5.358  1.00  0.00     0.275 HD
ATOM     32  H42 UNL     1      -5.896  28.121  -4.576  1.00  0.00     0.275 HD
ATOM     33  H41 UNL     1      -4.471  28.131  -3.682  1.00  0.00     0.275 HD
ENDBRANCH  27  30
ENDBRANCH   3  21
TORSDOF 8
ENDMDL
MODEL 3
REMARK VINA RESULT: -6.336173061      2.712      4.555
REMARK  8 active torsions:
REMARK  status: ('A' for Active; 'I' for Inactive)
REMARK    1  A    between atoms: O1_2  and  C2_3 
REMARK    2  A    between atoms: C2_3  and  C3_5 
REMARK    3  A    between atoms: N1_8  and  C6_9 
REMARK    4  A    between atoms: C6_9  and  C7_10 
REMARK       I    between atoms: C7_10  and  N2_12 
REMARK    5  A    between atoms: N2_12  and  C8_14 
REMARK    6  A    between atoms: C8_14  and  C9_15 
REMARK       I    between atoms: C9_15  and  N3_17 
REMARK    7  A    between atoms: N3_17  and  C10_19 
REMARK    8  A    between atoms: C16_25  and  N4_27 
ROOT
HETATM    1  C9  UNL     1      -7.149  25.801  -0.658  1.00  0.00     0.235 C 
HETATM    2  O4  UNL     1      -7.036  24.547  -0.761  1.00  0.00    -0.272 OA
HETATM    3  N3  UNL     1      -7.071  26.587  -1.845  1.00  0.00    -0.355 N 
ATOM      4  H3  UNL     1      -7.164  27.601  -1.780  1.00  0.00     0.162 HD
ENDROOT
BRANCH   1   5
HETATM    5  C8  UNL     1      -7.359  26.509   0.617  1.00  0.00     0.225 C 
BRANCH   5   6
HETATM    6  N2  UNL     1      -7.976  27.822   0.438  1.00  0.00    -0.351 N 
HETATM    7  C7  UNL     1      -8.001  28.706   1.524  1.00  0.00     0.246 C 
HETATM    8  O3  UNL     1      -7.509  28.354   2.623  1.00  0.00    -0.272 OA
ATOM      9  H2  UNL     1      -8.380  28.089  -0.460  1.00  0.00     0.163 HD
BRANCH   7  10
HETATM   10  C6  UNL     1      -8.591  30.046   1.428  1.00  0.00     0.374 C 
BRANCH  10  11
HETATM   11  N1  UNL     1      -7.655  31.125   1.528  1.00  0.00     0.097 N 
HETATM   12  C5  UNL     1      -8.248  32.384   1.866  1.00  0.00     0.273 C 
HETATM   13  C4  UNL     1      -8.740  33.073   0.591  1.00  0.00     0.045 C 
HETATM   14  C3  UNL     1      -7.578  33.402  -0.295  1.00  0.00     0.089 C 
HETATM   15  C20 UNL     1      -6.373  32.572   0.061  1.00  0.00     0.045 C 
HETATM   16  C19 UNL     1      -6.878  31.154   0.307  1.00  0.00     0.273 C 
BRANCH  14  17
HETATM   17  C2  UNL     1      -7.884  33.194  -1.736  1.00  0.00     0.262 C 
HETATM   18  O2  UNL     1      -7.141  33.670  -2.625  1.00  0.00    -0.265 OA
BRANCH  17  19
HETATM   19  O1  UNL     1      -9.018  32.451  -2.082  1.00  0.00    -0.326 OA
HETATM   20  C1  UNL     1      -9.893  33.040  -3.024  1.00  0.00     0.213 C 
ENDBRANCH  17  19
ENDBRANCH  14  17
ENDBRANCH  10  11
ENDBRANCH   7  10
ENDBRANCH   5   6
ENDBRANCH   1   5
BRANCH   3  21
HETATM   21  C10 UNL     1      -6.860  25.965  -3.164  1.00  0.00     0.087 C 
HETATM   22  C11 UNL     1      -7.555  26.867  -4.150  1.00  0.00     0.034 C 
HETATM   23  C12 UNL     1      -7.198  26.583  -5.576  1.00  0.00    -0.044 C 
HETATM   24  C13 UNL     1      -7.122  27.878  -6.352  1.00  0.00     0.015 C 
HETATM   25  C14 UNL     1      -8.239  25.700  -6.242  1.00  0.00     0.015 C 
HETATM   26  C15 UNL     1      -5.872  25.884  -5.732  1.00  0.00     0.047 C 
HETATM   27  C16 UNL     1      -4.925  26.440  -4.698  1.00  0.00     0.122 C 
HETATM   28  C17 UNL     1      -3.507  26.040  -4.945  1.00  0.00     0.046 C 
HETATM   29  C18 UNL     1      -5.391  25.873  -3.359  1.00  0.00     0.063 C 
BRANCH  27  30
HETATM   30  N4  UNL     1      -4.977  27.881  -4.625  1.00  0.00    -0.071 N 
ATOM     31  H43 UNL     1      -4.393  28.232  -3.866  1.00  0.00     0.275 HD
ATOM     32  H42 UNL     1      -4.492  28.307  -5.414  1.00  0.00     0.275 HD
ATOM     33  H41 UNL     1      -5.932  28.231  -4.547  1.00  0.00     0.275 HD
ENDBRANCH  27  30
ENDBRANCH   3  21
TORSDOF 8
ENDMDL
MODEL 4
REMARK VINA RESULT: -6.325717753      2.538      7.081
REMARK  8 active torsions:
REMARK  status: ('A' for Active; 'I' for Inactive)
REMARK    1  A    between atoms: O1_2  and  C2_3 
REMARK    2  A    between atoms: C2_3  and  C3_5 
REMARK    3  A    between atoms: N1_8  and  C6_9 
REMARK    4  A    between atoms: C6_9  and  C7_10 
REMARK       I    between atoms: C7_10  and  N2_12 
REMARK    5  A    between atoms: N2_12  and  C8_14 
REMARK    6  A    between atoms: C8_14  and  C9_15 
REMARK       I    between atoms: C9_15  and  N3_17 
REMARK    7  A    between atoms: N3_17  and  C10_19 
REMARK    8  A    between atoms: C16_25  and  N4_27 
ROOT
HETATM    1  C9  UNL     1      -7.156  27.298   0.597  1.00  0.00     0.235 C 
HETATM    2  O4  UNL     1      -7.409  27.133   1.823  1.00  0.00    -0.272 OA
HETATM    3  N3  UNL     1      -7.052  28.632   0.102  1.00  0.00    -0.355 N 
ATOM      4  H3  UNL     1      -6.844  28.783  -0.886  1.00  0.00     0.162 HD
ENDROOT
BRANCH   1   5
HETATM    5  C8  UNL     1      -6.958  26.197  -0.362  1.00  0.00     0.225 C 
BRANCH   5   6
HETATM    6  N2  UNL     1      -6.279  26.627  -1.583  1.00  0.00    -0.351 N 
HETATM    7  C7  UNL     1      -5.522  25.689  -2.296  1.00  0.00     0.246 C 
HETATM    8  O3  UNL     1      -5.431  24.511  -1.873  1.00  0.00    -0.272 OA
ATOM      9  H2  UNL     1      -6.356  27.591  -1.909  1.00  0.00     0.163 HD
BRANCH   7  10
HETATM   10  C6  UNL     1      -4.816  26.034  -3.536  1.00  0.00     0.374 C 
BRANCH  10  11
HETATM   11  N1  UNL     1      -5.526  25.721  -4.740  1.00  0.00     0.097 N 
HETATM   12  C5  UNL     1      -5.245  26.604  -5.831  1.00  0.00     0.273 C 
HETATM   13  C4  UNL     1      -6.157  27.830  -5.742  1.00  0.00     0.045 C 
HETATM   14  C3  UNL     1      -7.586  27.419  -5.918  1.00  0.00     0.089 C 
HETATM   15  C20 UNL     1      -7.763  25.947  -5.653  1.00  0.00     0.045 C 
HETATM   16  C19 UNL     1      -6.933  25.624  -4.415  1.00  0.00     0.273 C 
BRANCH  14  17
HETATM   17  C2  UNL     1      -8.509  28.172  -5.026  1.00  0.00     0.262 C 
HETATM   18  O2  UNL     1      -9.580  28.648  -5.466  1.00  0.00    -0.265 OA
BRANCH  17  19
HETATM   19  O1  UNL     1      -8.158  28.337  -3.682  1.00  0.00    -0.326 OA
HETATM   20  C1  UNL     1      -9.224  28.393  -2.755  1.00  0.00     0.213 C 
ENDBRANCH  17  19
ENDBRANCH  14  17
ENDBRANCH  10  11
ENDBRANCH   7  10
ENDBRANCH   5   6
ENDBRANCH   1   5
BRANCH   3  21
HETATM   21  C10 UNL     1      -7.237  29.795   0.987  1.00  0.00     0.087 C 
HETATM   22  C11 UNL     1      -6.225  30.813   0.530  1.00  0.00     0.034 C 
HETATM   23  C12 UNL     1      -6.456  32.180   1.094  1.00  0.00    -0.044 C 
HETATM   24  C13 UNL     1      -6.118  33.226   0.056  1.00  0.00     0.015 C 
HETATM   25  C14 UNL     1      -5.583  32.431   2.311  1.00  0.00     0.015 C 
HETATM   26  C15 UNL     1      -7.881  32.416   1.525  1.00  0.00     0.047 C 
HETATM   27  C16 UNL     1      -8.789  31.722   0.542  1.00  0.00     0.122 C 
HETATM   28  C17 UNL     1     -10.219  32.129   0.696  1.00  0.00     0.046 C 
HETATM   29  C18 UNL     1      -8.648  30.229   0.826  1.00  0.00     0.063 C 
BRANCH  27  30
HETATM   30  N4  UNL     1      -8.401  31.964  -0.827  1.00  0.00    -0.071 N 
ATOM     31  H43 UNL     1      -9.156  32.407  -1.351  1.00  0.00     0.275 HD
ATOM     32  H42 UNL     1      -7.704  32.705  -0.887  1.00  0.00     0.275 HD
ATOM     33  H41 UNL     1      -8.078  31.116  -1.294  1.00  0.00     0.275 HD
ENDBRANCH  27  30
ENDBRANCH   3  21
TORSDOF 8
ENDMDL
MODEL 5
REMARK VINA RESULT: -6.275613445      2.877      7.089
REMARK  8 active torsions:
REMARK  status: ('A' for Active; 'I' for Inactive)
REMARK    1  A    between atoms: O1_2  and  C2_3 
REMARK    2  A    between atoms: C2_3  and  C3_5 
REMARK    3  A    between atoms: N1_8  and  C6_9 
REMARK    4  A    between atoms: C6_9  and  C7_10 
REMARK       I    between atoms: C7_10  and  N2_12 
REMARK    5  A    between atoms: N2_12  and  C8_14 
REMARK    6  A    between atoms: C8_14  and  C9_15 
REMARK       I    between atoms: C9_15  and  N3_17 
REMARK    7  A    between atoms: N3_17  and  C10_19 
REMARK    8  A    between atoms: C16_25  and  N4_27 
ROOT
HETATM    1  C9  UNL     1      -7.407  27.650   1.596  1.00  0.00     0.235 C 
HETATM    2  O4  UNL     1      -7.784  27.794   2.792  1.00  0.00    -0.272 OA
HETATM    3  N3  UNL     1      -7.368  28.802   0.756  1.00  0.00    -0.355 N 
ATOM      4  H3  UNL     1      -7.063  28.704  -0.212  1.00  0.00     0.162 HD
ENDROOT
BRANCH   1   5
HETATM    5  C8  UNL     1      -7.000  26.362   1.007  1.00  0.00     0.225 C 
BRANCH   5   6
HETATM    6  N2  UNL     1      -7.779  26.014  -0.181  1.00  0.00    -0.351 N 
HETATM    7  C7  UNL     1      -7.133  25.365  -1.241  1.00  0.00     0.246 C 
HETATM    8  O3  UNL     1      -5.908  25.106  -1.157  1.00  0.00    -0.272 OA
ATOM      9  H2  UNL     1      -8.772  26.240  -0.237  1.00  0.00     0.163 HD
BRANCH   7  10
HETATM   10  C6  UNL     1      -7.840  24.972  -2.465  1.00  0.00     0.374 C 
BRANCH  10  11
HETATM   11  N1  UNL     1      -8.342  26.062  -3.247  1.00  0.00     0.097 N 
HETATM   12  C5  UNL     1      -8.826  25.680  -4.539  1.00  0.00     0.273 C 
HETATM   13  C4  UNL     1      -7.661  25.648  -5.530  1.00  0.00     0.045 C 
HETATM   14  C3  UNL     1      -7.098  27.025  -5.705  1.00  0.00     0.089 C 
HETATM   15  C20 UNL     1      -7.485  27.918  -4.555  1.00  0.00     0.045 C 
HETATM   16  C19 UNL     1      -7.322  27.088  -3.286  1.00  0.00     0.273 C 
BRANCH  14  17
HETATM   17  C2  UNL     1      -5.615  27.024  -5.820  1.00  0.00     0.262 C 
HETATM   18  O2  UNL     1      -5.006  28.019  -6.277  1.00  0.00    -0.265 OA
BRANCH  17  19
HETATM   19  O1  UNL     1      -4.910  25.889  -5.407  1.00  0.00    -0.326 OA
HETATM   20  C1  UNL     1      -3.643  26.114  -4.819  1.00  0.00     0.213 C 
ENDBRANCH  17  19
ENDBRANCH  14  17
ENDBRANCH  10  11
ENDBRANCH   7  10
ENDBRANCH   5   6
ENDBRANCH   1   5
BRANCH   3  21
HETATM   21  C10 UNL     1      -7.760  30.131   1.259  1.00  0.00     0.087 C 
HETATM   22  C11 UNL     1      -6.753  31.092   0.682  1.00  0.00     0.034 C 
HETATM   23  C12 UNL     1      -7.151  32.528   0.818  1.00  0.00    -0.044 C 
HETATM   24  C13 UNL     1      -6.720  33.297  -0.410  1.00  0.00     0.015 C 
HETATM   25  C14 UNL     1      -6.496  33.173   2.027  1.00  0.00     0.015 C 
HETATM   26  C15 UNL     1      -8.637  32.724   0.974  1.00  0.00     0.047 C 
HETATM   27  C16 UNL     1      -9.337  31.711   0.103  1.00  0.00     0.122 C 
HETATM   28  C17 UNL     1     -10.796  31.999  -0.052  1.00  0.00     0.046 C 
HETATM   29  C18 UNL     1      -9.152  30.365   0.799  1.00  0.00     0.063 C 
BRANCH  27  30
HETATM   30  N4  UNL     1      -8.756  31.626  -1.215  1.00  0.00    -0.071 N 
ATOM     31  H43 UNL     1      -8.880  30.695  -1.613  1.00  0.00     0.275 HD
ATOM     32  H42 UNL     1      -9.296  32.166  -1.891  1.00  0.00     0.275 HD
ATOM     33  H41 UNL     1      -7.774  31.902  -1.224  1.00  0.00     0.275 HD
ENDBRANCH  27  30
ENDBRANCH   3  21
TORSDOF 8
ENDMDL
