MODEL 1
REMARK VINA RESULT: -7.893945162      0.000      0.000
REMARK  6 active torsions:
REMARK  status: ('A' for Active; 'I' for Inactive)
REMARK    1  A    between atoms: S1_2  and  N1_5 
REMARK       I    between atoms: N1_5  and  C2_7 
REMARK    2  A    between atoms: C2_7  and  C3_9 
REMARK    3  A    between atoms: C3_9  and  N2_10 
REMARK       I    between atoms: N2_10  and  C4_12 
REMARK    4  A    between atoms: C4_12  and  C5_14 
REMARK    5  A    between atoms: C5_14  and  C6_15 
REMARK       I    between atoms: N3_19  and  C10_20 
REMARK       I    between atoms: C10_20  and  N4_22 
REMARK    6  A    between atoms: N4_22  and  C11_24 
ROOT
HETATM    1  C5  UNL     1      -7.386  25.678  -0.083  1.00  0.00     0.109 C 
ENDROOT
BRANCH   1   2
HETATM    2  C4  UNL     1      -7.660  26.868   0.721  1.00  0.00     0.219 C 
HETATM    3  N2  UNL     1      -8.457  27.958   0.250  1.00  0.00    -0.343 N 
ATOM      4  H2  UNL     1      -8.840  27.892  -0.693  1.00  0.00     0.163 HD
HETATM    5  O4  UNL     1      -7.198  26.997   1.891  1.00  0.00    -0.274 OA
BRANCH   3   6
HETATM    6  C3  UNL     1      -8.758  29.139   1.008  1.00  0.00     0.115 A 
HETATM    7  C17 UNL     1      -9.532  29.001   2.293  1.00  0.00     0.044 A 
HETATM    8  C18 UNL     1     -10.239  29.523   1.124  1.00  0.00     0.044 A 
BRANCH   6   9
HETATM    9  C2  UNL     1      -7.869  30.304   0.909  1.00  0.00     0.259 C 
HETATM   10  N1  UNL     1      -6.874  30.691   1.820  1.00  0.00    -0.253 N 
ATOM     11  H1  UNL     1      -6.732  30.119   2.652  1.00  0.00     0.181 HD
HETATM   12  O3  UNL     1      -8.007  31.061  -0.114  1.00  0.00    -0.270 OA
BRANCH  10  13
HETATM   13  S1  UNL     1      -5.879  32.084   1.606  1.00  0.00     0.229 S 
HETATM   14  C1  UNL     1      -6.821  33.578   1.666  1.00  0.00     0.186 C 
HETATM   15  O1  UNL     1      -4.802  32.111   2.650  1.00  0.00    -0.206 OA
HETATM   16  O2  UNL     1      -5.158  32.025   0.266  1.00  0.00    -0.206 OA
ENDBRANCH  10  13
ENDBRANCH   6   9
ENDBRANCH   3   6
ENDBRANCH   1   2
BRANCH   1  17
HETATM   17  C6  UNL     1      -6.506  25.866  -1.262  1.00  0.00     0.012 C 
HETATM   18  C7  UNL     1      -5.400  26.853  -1.116  1.00  0.00     0.008 C 
HETATM   19  C8  UNL     1      -4.418  26.614  -2.260  1.00  0.00     0.020 C 
HETATM   20  C9  UNL     1      -4.923  25.646  -3.283  1.00  0.00     0.127 C 
HETATM   21  N3  UNL     1      -6.299  25.929  -3.626  1.00  0.00    -0.334 N 
HETATM   22  C10 UNL     1      -6.692  25.987  -4.989  1.00  0.00     0.318 C 
HETATM   23  C16 UNL     1      -7.254  26.145  -2.548  1.00  0.00     0.132 C 
HETATM   24  O5  UNL     1      -5.846  25.795  -5.892  1.00  0.00    -0.247 OA
HETATM   25  N4  UNL     1      -8.033  26.261  -5.357  1.00  0.00    -0.338 N 
ATOM     26  H4  UNL     1      -8.730  26.420  -4.628  1.00  0.00     0.164 HD
BRANCH  25  27
HETATM   27  C11 UNL     1      -8.434  26.321  -6.743  1.00  0.00     0.086 C 
HETATM   28  C12 UNL     1      -9.114  27.603  -7.110  1.00  0.00     0.025 C 
HETATM   29  C13 UNL     1     -10.301  27.263  -7.979  1.00  0.00     0.002 C 
HETATM   30  C14 UNL     1     -10.075  25.804  -8.334  1.00  0.00     0.002 C 
HETATM   31  C15 UNL     1      -9.523  25.281  -7.005  1.00  0.00     0.025 C 
ENDBRANCH  25  27
ENDBRANCH   1  17
TORSDOF 6
ENDMDL
MODEL 2
REMARK VINA RESULT: -7.868587016      1.174      1.294
REMARK  6 active torsions:
REMARK  status: ('A' for Active; 'I' for Inactive)
REMARK    1  A    between atoms: S1_2  and  N1_5 
REMARK       I    between atoms: N1_5  and  C2_7 
REMARK    2  A    between atoms: C2_7  and  C3_9 
REMARK    3  A    between atoms: C3_9  and  N2_10 
REMARK       I    between atoms: N2_10  and  C4_12 
REMARK    4  A    between atoms: C4_12  and  C5_14 
REMARK    5  A    between atoms: C5_14  and  C6_15 
REMARK       I    between atoms: N3_19  and  C10_20 
REMARK       I    between atoms: C10_20  and  N4_22 
REMARK    6  A    between atoms: N4_22  and  C11_24 
ROOT
HETATM    1  C5  UNL     1      -7.483  26.262   0.364  1.00  0.00     0.109 C 
ENDROOT
BRANCH   1   2
HETATM    2  C4  UNL     1      -7.845  27.533   0.989  1.00  0.00     0.219 C 
HETATM    3  N2  UNL     1      -8.565  28.561   0.302  1.00  0.00    -0.343 N 
ATOM      4  H2  UNL     1      -8.825  28.388  -0.669  1.00  0.00     0.163 HD
HETATM    5  O4  UNL     1      -7.534  27.794   2.186  1.00  0.00    -0.274 OA
BRANCH   3   6
HETATM    6  C3  UNL     1      -8.947  29.818   0.879  1.00  0.00     0.115 A 
HETATM    7  C17 UNL     1      -9.891  29.822   2.054  1.00  0.00     0.044 A 
HETATM    8  C18 UNL     1     -10.424  30.213   0.749  1.00  0.00     0.044 A 
BRANCH   6   9
HETATM    9  C2  UNL     1      -8.036  30.965   0.777  1.00  0.00     0.259 C 
HETATM   10  N1  UNL     1      -7.994  31.927  -0.244  1.00  0.00    -0.253 N 
ATOM     11  H1  UNL     1      -8.657  31.844  -1.014  1.00  0.00     0.181 HD
HETATM   12  O3  UNL     1      -7.178  31.116   1.715  1.00  0.00    -0.270 OA
BRANCH  10  13
HETATM   13  S1  UNL     1      -6.880  33.243  -0.264  1.00  0.00     0.229 S 
HETATM   14  C1  UNL     1      -7.144  34.347   1.091  1.00  0.00     0.186 C 
HETATM   15  O1  UNL     1      -5.472  32.725  -0.238  1.00  0.00    -0.206 OA
HETATM   16  O2  UNL     1      -7.008  34.034  -1.559  1.00  0.00    -0.206 OA
ENDBRANCH  10  13
ENDBRANCH   6   9
ENDBRANCH   3   6
ENDBRANCH   1   2
BRANCH   1  17
HETATM   17  C6  UNL     1      -6.546  26.334  -0.784  1.00  0.00     0.012 C 
HETATM   18  C7  UNL     1      -5.398  27.274  -0.648  1.00  0.00     0.008 C 
HETATM   19  C8  UNL     1      -4.383  26.917  -1.730  1.00  0.00     0.020 C 
HETATM   20  C9  UNL     1      -4.893  25.912  -2.715  1.00  0.00     0.127 C 
HETATM   21  N3  UNL     1      -6.237  26.239  -3.135  1.00  0.00    -0.334 N 
HETATM   22  C10 UNL     1      -6.569  26.232  -4.515  1.00  0.00     0.318 C 
HETATM   23  C16 UNL     1      -7.224  26.568  -2.116  1.00  0.00     0.132 C 
HETATM   24  O5  UNL     1      -5.698  25.943  -5.367  1.00  0.00    -0.247 OA
HETATM   25  N4  UNL     1      -7.879  26.546  -4.960  1.00  0.00    -0.338 N 
ATOM     26  H4  UNL     1      -8.596  26.783  -4.273  1.00  0.00     0.164 HD
BRANCH  25  27
HETATM   27  C11 UNL     1      -8.218  26.539  -6.363  1.00  0.00     0.086 C 
HETATM   28  C12 UNL     1      -8.922  27.781  -6.810  1.00  0.00     0.025 C 
HETATM   29  C13 UNL     1     -10.057  27.367  -7.717  1.00  0.00     0.002 C 
HETATM   30  C14 UNL     1      -9.768  25.905  -8.002  1.00  0.00     0.002 C 
HETATM   31  C15 UNL     1      -9.259  25.453  -6.631  1.00  0.00     0.025 C 
ENDBRANCH  25  27
ENDBRANCH   1  17
TORSDOF 6
ENDMDL
MODEL 3
REMARK VINA RESULT: -7.544035048      2.560      4.129
REMARK  6 active torsions:
REMARK  status: ('A' for Active; 'I' for Inactive)
REMARK    1  A    between atoms: S1_2  and  N1_5 
REMARK       I    between atoms: N1_5  and  C2_7 
REMARK    2  A    between atoms: C2_7  and  C3_9 
REMARK    3  A    between atoms: C3_9  and  N2_10 
REMARK       I    between atoms: N2_10  and  C4_12 
REMARK    4  A    between atoms: C4_12  and  C5_14 
REMARK    5  A    between atoms: C5_14  and  C6_15 
REMARK       I    between atoms: N3_19  and  C10_20 
REMARK       I    between atoms: C10_20  and  N4_22 
REMARK    6  A    between atoms: N4_22  and  C11_24 
ROOT
HETATM    1  C5  UNL     1     -10.702  28.520   0.185  1.00  0.00     0.109 C 
ENDROOT
BRANCH   1   2
HETATM    2  C4  UNL     1     -10.632  29.979   0.120  1.00  0.00     0.219 C 
HETATM    3  N2  UNL     1     -10.195  30.686  -1.045  1.00  0.00    -0.343 N 
ATOM      4  H2  UNL     1      -9.915  30.134  -1.856  1.00  0.00     0.163 HD
HETATM    5  O4  UNL     1     -10.960  30.703   1.104  1.00  0.00    -0.274 OA
BRANCH   3   6
HETATM    6  C3  UNL     1     -10.119  32.114  -1.155  1.00  0.00     0.115 A 
HETATM    7  C17 UNL     1     -11.384  32.891  -1.414  1.00  0.00     0.044 A 
HETATM    8  C18 UNL     1     -10.451  32.716  -2.527  1.00  0.00     0.044 A 
BRANCH   6   9
HETATM    9  C2  UNL     1      -9.048  32.836  -0.456  1.00  0.00     0.259 C 
HETATM   10  N1  UNL     1      -7.688  32.495  -0.406  1.00  0.00    -0.253 N 
ATOM     11  H1  UNL     1      -7.381  31.657  -0.899  1.00  0.00     0.181 HD
HETATM   12  O3  UNL     1      -9.377  33.895   0.184  1.00  0.00    -0.270 OA
BRANCH  10  13
HETATM   13  S1  UNL     1      -6.507  33.420   0.446  1.00  0.00     0.229 S 
HETATM   14  C1  UNL     1      -6.604  33.159   2.192  1.00  0.00     0.186 C 
HETATM   15  O1  UNL     1      -5.132  33.079  -0.049  1.00  0.00    -0.206 OA
HETATM   16  O2  UNL     1      -6.691  34.906   0.172  1.00  0.00    -0.206 OA
ENDBRANCH  10  13
ENDBRANCH   6   9
ENDBRANCH   3   6
ENDBRANCH   1   2
BRANCH   1  17
HETATM   17  C6  UNL     1      -9.425  27.810   0.444  1.00  0.00     0.012 C 
HETATM   18  C7  UNL     1      -8.565  28.361   1.527  1.00  0.00     0.008 C 
HETATM   19  C8  UNL     1      -7.531  27.295   1.879  1.00  0.00     0.020 C 
HETATM   20  C9  UNL     1      -7.533  26.132   0.936  1.00  0.00     0.127 C 
HETATM   21  N3  UNL     1      -7.595  26.583  -0.437  1.00  0.00    -0.334 N 
HETATM   22  C10 UNL     1      -6.704  26.041  -1.400  1.00  0.00     0.318 C 
HETATM   23  C16 UNL     1      -8.585  27.589  -0.795  1.00  0.00     0.132 C 
HETATM   24  O5  UNL     1      -5.865  25.176  -1.060  1.00  0.00    -0.247 OA
HETATM   25  N4  UNL     1      -6.740  26.461  -2.755  1.00  0.00    -0.338 N 
ATOM     26  H4  UNL     1      -7.420  27.166  -3.041  1.00  0.00     0.164 HD
BRANCH  25  27
HETATM   27  C11 UNL     1      -5.835  25.911  -3.735  1.00  0.00     0.086 C 
HETATM   28  C12 UNL     1      -4.708  26.831  -4.085  1.00  0.00     0.025 C 
HETATM   29  C13 UNL     1      -4.524  26.788  -5.583  1.00  0.00     0.002 C 
HETATM   30  C14 UNL     1      -5.362  25.596  -6.009  1.00  0.00     0.002 C 
HETATM   31  C15 UNL     1      -6.562  25.755  -5.070  1.00  0.00     0.025 C 
ENDBRANCH  25  27
ENDBRANCH   1  17
TORSDOF 6
ENDMDL
MODEL 4
REMARK VINA RESULT: -7.283742316      2.785      3.721
REMARK  6 active torsions:
REMARK  status: ('A' for Active; 'I' for Inactive)
REMARK    1  A    between atoms: S1_2  and  N1_5 
REMARK       I    between atoms: N1_5  and  C2_7 
REMARK    2  A    between atoms: C2_7  and  C3_9 
REMARK    3  A    between atoms: C3_9  and  N2_10 
REMARK       I    between atoms: N2_10  and  C4_12 
REMARK    4  A    between atoms: C4_12  and  C5_14 
REMARK    5  A    between atoms: C5_14  and  C6_15 
REMARK       I    between atoms: N3_19  and  C10_20 
REMARK       I    between atoms: C10_20  and  N4_22 
REMARK    6  A    between atoms: N4_22  and  C11_24 
ROOT
HETATM    1  C5  UNL     1      -7.412  25.466  -1.310  1.00  0.00     0.109 C 
ENDROOT
BRANCH   1   2
HETATM    2  C4  UNL     1      -7.219  26.508  -0.303  1.00  0.00     0.219 C 
HETATM    3  N2  UNL     1      -8.305  27.138   0.382  1.00  0.00    -0.343 N 
ATOM      4  H2  UNL     1      -9.252  26.843   0.141  1.00  0.00     0.163 HD
HETATM    5  O4  UNL     1      -6.065  26.912   0.019  1.00  0.00    -0.274 OA
BRANCH   3   6
HETATM    6  C3  UNL     1      -8.161  28.157   1.382  1.00  0.00     0.115 A 
HETATM    7  C17 UNL     1      -7.987  27.744   2.821  1.00  0.00     0.044 A 
HETATM    8  C18 UNL     1      -9.290  28.271   2.415  1.00  0.00     0.044 A 
BRANCH   6   9
HETATM    9  C2  UNL     1      -7.592  29.459   1.009  1.00  0.00     0.259 C 
HETATM   10  N1  UNL     1      -6.749  30.269   1.784  1.00  0.00    -0.253 N 
ATOM     11  H1  UNL     1      -6.488  29.944   2.715  1.00  0.00     0.181 HD
HETATM   12  O3  UNL     1      -7.890  29.918  -0.149  1.00  0.00    -0.270 OA
BRANCH  10  13
HETATM   13  S1  UNL     1      -6.131  31.786   1.246  1.00  0.00     0.229 S 
HETATM   14  C1  UNL     1      -7.380  33.036   1.232  1.00  0.00     0.186 C 
HETATM   15  O1  UNL     1      -4.986  32.213   2.117  1.00  0.00    -0.206 OA
HETATM   16  O2  UNL     1      -5.559  31.663  -0.160  1.00  0.00    -0.206 OA
ENDBRANCH  10  13
ENDBRANCH   6   9
ENDBRANCH   3   6
ENDBRANCH   1   2
BRANCH   1  17
HETATM   17  C6  UNL     1      -7.695  25.928  -2.691  1.00  0.00     0.012 C 
HETATM   18  C7  UNL     1      -6.611  25.734  -3.694  1.00  0.00     0.008 C 
HETATM   19  C8  UNL     1      -7.230  25.909  -5.078  1.00  0.00     0.020 C 
HETATM   20  C9  UNL     1      -8.638  26.415  -5.039  1.00  0.00     0.127 C 
HETATM   21  N3  UNL     1      -8.767  27.508  -4.101  1.00  0.00    -0.334 N 
HETATM   22  C10 UNL     1      -9.442  28.695  -4.487  1.00  0.00     0.318 C 
HETATM   23  C16 UNL     1      -8.196  27.353  -2.770  1.00  0.00     0.132 C 
HETATM   24  O5  UNL     1      -9.923  28.796  -5.639  1.00  0.00    -0.247 OA
HETATM   25  N4  UNL     1      -9.587  29.785  -3.590  1.00  0.00    -0.338 N 
ATOM     26  H4  UNL     1      -9.198  29.712  -2.649  1.00  0.00     0.164 HD
BRANCH  25  27
HETATM   27  C11 UNL     1     -10.273  30.993  -3.981  1.00  0.00     0.086 C 
HETATM   28  C12 UNL     1      -9.734  32.222  -3.319  1.00  0.00     0.025 C 
HETATM   29  C13 UNL     1     -10.910  33.067  -2.888  1.00  0.00     0.002 C 
HETATM   30  C14 UNL     1     -12.086  32.428  -3.602  1.00  0.00     0.002 C 
HETATM   31  C15 UNL     1     -11.714  30.948  -3.474  1.00  0.00     0.025 C 
ENDBRANCH  25  27
ENDBRANCH   1  17
TORSDOF 6
ENDMDL
MODEL 5
REMARK VINA RESULT: -7.155811738      2.455      3.259
REMARK  6 active torsions:
REMARK  status: ('A' for Active; 'I' for Inactive)
REMARK    1  A    between atoms: S1_2  and  N1_5 
REMARK       I    between atoms: N1_5  and  C2_7 
REMARK    2  A    between atoms: C2_7  and  C3_9 
REMARK    3  A    between atoms: C3_9  and  N2_10 
REMARK       I    between atoms: N2_10  and  C4_12 
REMARK    4  A    between atoms: C4_12  and  C5_14 
REMARK    5  A    between atoms: C5_14  and  C6_15 
REMARK       I    between atoms: N3_19  and  C10_20 
REMARK       I    between atoms: C10_20  and  N4_22 
REMARK    6  A    between atoms: N4_22  and  C11_24 
ROOT
HETATM    1  C5  UNL     1      -4.360  26.314  -2.262  1.00  0.00     0.109 C 
ENDROOT
BRANCH   1   2
HETATM    2  C4  UNL     1      -4.973  27.050  -1.157  1.00  0.00     0.219 C 
HETATM    3  N2  UNL     1      -6.360  26.941  -0.824  1.00  0.00    -0.343 N 
ATOM      4  H2  UNL     1      -6.936  26.324  -1.396  1.00  0.00     0.163 HD
HETATM    5  O4  UNL     1      -4.298  27.833  -0.428  1.00  0.00    -0.274 OA
BRANCH   3   6
HETATM    6  C3  UNL     1      -6.999  27.637   0.255  1.00  0.00     0.115 A 
HETATM    7  C17 UNL     1      -7.044  26.988   1.614  1.00  0.00     0.044 A 
HETATM    8  C18 UNL     1      -8.275  27.001   0.824  1.00  0.00     0.044 A 
BRANCH   6   9
HETATM    9  C2  UNL     1      -7.049  29.105   0.238  1.00  0.00     0.259 C 
HETATM   10  N1  UNL     1      -6.304  29.988   1.034  1.00  0.00    -0.253 N 
ATOM     11  H1  UNL     1      -5.650  29.595   1.710  1.00  0.00     0.181 HD
HETATM   12  O3  UNL     1      -7.858  29.654  -0.589  1.00  0.00    -0.270 OA
BRANCH  10  13
HETATM   13  S1  UNL     1      -6.438  31.705   0.930  1.00  0.00     0.229 S 
HETATM   14  C1  UNL     1      -8.039  32.269   1.421  1.00  0.00     0.186 C 
HETATM   15  O1  UNL     1      -5.381  32.355   1.775  1.00  0.00    -0.206 OA
HETATM   16  O2  UNL     1      -6.178  32.176  -0.495  1.00  0.00    -0.206 OA
ENDBRANCH  10  13
ENDBRANCH   6   9
ENDBRANCH   3   6
ENDBRANCH   1   2
BRANCH   1  17
HETATM   17  C6  UNL     1      -5.143  26.239  -3.519  1.00  0.00     0.012 C 
HETATM   18  C7  UNL     1      -4.367  26.277  -4.790  1.00  0.00     0.008 C 
HETATM   19  C8  UNL     1      -5.295  25.810  -5.908  1.00  0.00     0.020 C 
HETATM   20  C9  UNL     1      -6.719  25.658  -5.473  1.00  0.00     0.127 C 
HETATM   21  N3  UNL     1      -7.139  26.790  -4.679  1.00  0.00    -0.334 N 
HETATM   22  C10 UNL     1      -8.373  27.433  -4.961  1.00  0.00     0.318 C 
HETATM   23  C16 UNL     1      -6.274  27.241  -3.598  1.00  0.00     0.132 C 
HETATM   24  O5  UNL     1      -9.094  27.020  -5.897  1.00  0.00    -0.247 OA
HETATM   25  N4  UNL     1      -8.814  28.546  -4.200  1.00  0.00    -0.338 N 
ATOM     26  H4  UNL     1      -8.232  28.891  -3.435  1.00  0.00     0.164 HD
BRANCH  25  27
HETATM   27  C11 UNL     1     -10.068  29.201  -4.485  1.00  0.00     0.086 C 
HETATM   28  C12 UNL     1     -10.099  30.636  -4.060  1.00  0.00     0.025 C 
HETATM   29  C13 UNL     1     -11.436  30.894  -3.406  1.00  0.00     0.002 C 
HETATM   30  C14 UNL     1     -12.249  29.662  -3.761  1.00  0.00     0.002 C 
HETATM   31  C15 UNL     1     -11.174  28.579  -3.633  1.00  0.00     0.025 C 
ENDBRANCH  25  27
ENDBRANCH   1  17
TORSDOF 6
ENDMDL
