MODEL 1
REMARK VINA RESULT: -6.945651659      0.000      0.000
REMARK  7 active torsions:
REMARK  status: ('A' for Active; 'I' for Inactive)
REMARK    1  A    between atoms: C2_2  and  C5_5 
REMARK       I    between atoms: C5_5  and  N1_7 
REMARK    2  A    between atoms: N1_7  and  C6_9 
REMARK    3  A    between atoms: C6_9  and  C7_10 
REMARK       I    between atoms: C7_10  and  N2_12 
REMARK    4  A    between atoms: N2_12  and  C8_14 
REMARK    5  A    between atoms: C8_14  and  C9_15 
REMARK       I    between atoms: C9_15  and  N3_17 
REMARK    6  A    between atoms: C12_20  and  C13_21 
REMARK    7  A    between atoms: C12_20  and  N4_24 
ROOT
HETATM    1  C9  UNL     1      -4.672  26.874  -1.379  1.00  0.00     0.237 C 
HETATM    2  O3  UNL     1      -3.797  27.763  -1.517  1.00  0.00    -0.272 OA
HETATM    3  N3  UNL     1      -5.825  27.133  -0.620  1.00  0.00    -0.351 N 
HETATM    4  C10 UNL     1      -6.866  26.148  -0.429  1.00  0.00     0.129 C 
HETATM    5  C11 UNL     1      -8.035  26.651   0.342  1.00  0.00     0.062 C 
HETATM    6  C12 UNL     1      -8.523  28.028  -0.027  1.00  0.00     0.123 C 
HETATM    7  C19 UNL     1      -7.378  28.981  -0.303  1.00  0.00     0.062 C 
HETATM    8  C20 UNL     1      -6.019  28.409   0.008  1.00  0.00     0.129 C 
ENDROOT
BRANCH   1   9
HETATM    9  C8  UNL     1      -4.507  25.556  -2.006  1.00  0.00     0.225 C 
BRANCH   9  10
HETATM   10  N2  UNL     1      -5.232  25.523  -3.265  1.00  0.00    -0.351 N 
HETATM   11  C7  UNL     1      -4.601  25.891  -4.451  1.00  0.00     0.235 C 
HETATM   12  O2  UNL     1      -3.371  26.253  -4.380  1.00  0.00    -0.272 OA
ATOM     13  H2  UNL     1      -6.209  25.229  -3.280  1.00  0.00     0.163 HD
BRANCH  11  14
HETATM   14  C6  UNL     1      -5.234  25.891  -5.760  1.00  0.00     0.225 C 
BRANCH  14  15
HETATM   15  N1  UNL     1      -6.640  25.625  -5.733  1.00  0.00    -0.352 N 
HETATM   16  C5  UNL     1      -7.554  26.735  -5.823  1.00  0.00     0.225 C 
HETATM   17  O1  UNL     1      -7.122  27.915  -5.923  1.00  0.00    -0.273 OA
ATOM     18  H1  UNL     1      -6.988  24.670  -5.651  1.00  0.00     0.162 HD
BRANCH  16  19
HETATM   19  C2  UNL     1      -9.001  26.443  -5.794  1.00  0.00     0.030 C 
HETATM   20  C1  UNL     1      -9.350  25.675  -4.538  1.00  0.00     0.024 C 
HETATM   21  C3  UNL     1      -9.831  27.708  -5.916  1.00  0.00     0.024 C 
HETATM   22  C4  UNL     1      -9.342  25.598  -7.022  1.00  0.00     0.024 C 
ENDBRANCH  16  19
ENDBRANCH  14  15
ENDBRANCH  11  14
ENDBRANCH   9  10
ENDBRANCH   1   9
BRANCH   6  23
HETATM   23  C13 UNL     1      -9.256  27.930  -1.310  1.00  0.00     0.202 C 
HETATM   24  O4  UNL     1     -10.311  27.261  -1.441  1.00  0.00    -0.646 OA
HETATM   25  O5  UNL     1      -8.791  28.582  -2.421  1.00  0.00    -0.646 OA
ENDBRANCH   6  23
BRANCH   6  26
HETATM   26  N4  UNL     1      -9.346  28.622   0.954  1.00  0.00    -0.374 N 
HETATM   27  C14 UNL     1      -9.023  28.443   2.321  1.00  0.00     0.123 C 
HETATM   28  C15 UNL     1     -10.356  28.439   3.088  1.00  0.00     0.020 C 
HETATM   29  C16 UNL     1     -10.843  29.870   3.049  1.00  0.00     0.007 C 
HETATM   30  C17 UNL     1     -10.184  30.692   1.964  1.00  0.00     0.044 C 
HETATM   31  C18 UNL     1      -9.959  29.863   0.703  1.00  0.00     0.059 C 
ENDBRANCH   6  26
TORSDOF 7
ENDMDL
MODEL 2
REMARK VINA RESULT: -6.859124890      2.554      7.624
REMARK  7 active torsions:
REMARK  status: ('A' for Active; 'I' for Inactive)
REMARK    1  A    between atoms: C2_2  and  C5_5 
REMARK       I    between atoms: C5_5  and  N1_7 
REMARK    2  A    between atoms: N1_7  and  C6_9 
REMARK    3  A    between atoms: C6_9  and  C7_10 
REMARK       I    between atoms: C7_10  and  N2_12 
REMARK    4  A    between atoms: N2_12  and  C8_14 
REMARK    5  A    between atoms: C8_14  and  C9_15 
REMARK       I    between atoms: C9_15  and  N3_17 
REMARK    6  A    between atoms: C12_20  and  C13_21 
REMARK    7  A    between atoms: C12_20  and  N4_24 
ROOT
HETATM    1  C9  UNL     1      -6.767  25.947  -1.661  1.00  0.00     0.237 C 
HETATM    2  O3  UNL     1      -7.295  25.069  -0.938  1.00  0.00    -0.272 OA
HETATM    3  N3  UNL     1      -7.143  26.067  -3.010  1.00  0.00    -0.351 N 
HETATM    4  C10 UNL     1      -6.571  27.061  -3.890  1.00  0.00     0.129 C 
HETATM    5  C11 UNL     1      -7.164  27.067  -5.255  1.00  0.00     0.062 C 
HETATM    6  C12 UNL     1      -8.664  26.948  -5.321  1.00  0.00     0.123 C 
HETATM    7  C19 UNL     1      -9.201  25.958  -4.307  1.00  0.00     0.062 C 
HETATM    8  C20 UNL     1      -8.128  25.191  -3.577  1.00  0.00     0.129 C 
ENDROOT
BRANCH   1   9
HETATM    9  C8  UNL     1      -5.754  26.861  -1.116  1.00  0.00     0.225 C 
BRANCH   9  10
HETATM   10  N2  UNL     1      -6.219  27.399   0.151  1.00  0.00    -0.351 N 
HETATM   11  C7  UNL     1      -7.173  28.415   0.178  1.00  0.00     0.235 C 
HETATM   12  O2  UNL     1      -7.613  28.844  -0.950  1.00  0.00    -0.272 OA
ATOM     13  H2  UNL     1      -5.845  27.032   1.026  1.00  0.00     0.163 HD
BRANCH  11  14
HETATM   14  C6  UNL     1      -7.705  29.019   1.389  1.00  0.00     0.225 C 
BRANCH  14  15
HETATM   15  N1  UNL     1      -6.977  30.166   1.841  1.00  0.00    -0.352 N 
HETATM   16  C5  UNL     1      -7.443  31.474   1.458  1.00  0.00     0.225 C 
HETATM   17  O1  UNL     1      -8.469  31.604   0.737  1.00  0.00    -0.273 OA
ATOM     18  H1  UNL     1      -6.147  30.059   2.424  1.00  0.00     0.162 HD
BRANCH  16  19
HETATM   19  C2  UNL     1      -6.681  32.646   1.934  1.00  0.00     0.030 C 
HETATM   20  C1  UNL     1      -5.479  32.192   2.733  1.00  0.00     0.024 C 
HETATM   21  C3  UNL     1      -6.272  33.552   0.788  1.00  0.00     0.024 C 
HETATM   22  C4  UNL     1      -7.600  33.483   2.823  1.00  0.00     0.024 C 
ENDBRANCH  16  19
ENDBRANCH  14  15
ENDBRANCH  11  14
ENDBRANCH   9  10
ENDBRANCH   1   9
BRANCH   6  23
HETATM   23  C13 UNL     1      -9.249  28.251  -4.928  1.00  0.00     0.202 C 
HETATM   24  O4  UNL     1     -10.401  28.360  -4.441  1.00  0.00    -0.646 OA
HETATM   25  O5  UNL     1      -8.530  29.406  -5.092  1.00  0.00    -0.646 OA
ENDBRANCH   6  23
BRANCH   6  26
HETATM   26  N4  UNL     1      -9.149  26.566  -6.590  1.00  0.00    -0.374 N 
HETATM   27  C14 UNL     1     -10.137  25.554  -6.670  1.00  0.00     0.123 C 
HETATM   28  C15 UNL     1      -9.894  24.811  -7.995  1.00  0.00     0.020 C 
HETATM   29  C16 UNL     1     -10.322  25.776  -9.078  1.00  0.00     0.007 C 
HETATM   30  C17 UNL     1     -10.394  27.209  -8.601  1.00  0.00     0.044 C 
HETATM   31  C18 UNL     1      -9.271  27.521  -7.615  1.00  0.00     0.059 C 
ENDBRANCH   6  26
TORSDOF 7
ENDMDL
MODEL 3
REMARK VINA RESULT: -6.728340760      2.508      7.299
REMARK  7 active torsions:
REMARK  status: ('A' for Active; 'I' for Inactive)
REMARK    1  A    between atoms: C2_2  and  C5_5 
REMARK       I    between atoms: C5_5  and  N1_7 
REMARK    2  A    between atoms: N1_7  and  C6_9 
REMARK    3  A    between atoms: C6_9  and  C7_10 
REMARK       I    between atoms: C7_10  and  N2_12 
REMARK    4  A    between atoms: N2_12  and  C8_14 
REMARK    5  A    between atoms: C8_14  and  C9_15 
REMARK       I    between atoms: C9_15  and  N3_17 
REMARK    6  A    between atoms: C12_20  and  C13_21 
REMARK    7  A    between atoms: C12_20  and  N4_24 
ROOT
HETATM    1  C9  UNL     1      -7.238  25.746  -1.630  1.00  0.00     0.237 C 
HETATM    2  O3  UNL     1      -8.159  25.752  -0.779  1.00  0.00    -0.272 OA
HETATM    3  N3  UNL     1      -7.546  25.726  -3.001  1.00  0.00    -0.351 N 
HETATM    4  C10 UNL     1      -6.526  25.721  -4.025  1.00  0.00     0.129 C 
HETATM    5  C11 UNL     1      -7.066  25.778  -5.411  1.00  0.00     0.062 C 
HETATM    6  C12 UNL     1      -8.191  26.753  -5.639  1.00  0.00     0.123 C 
HETATM    7  C19 UNL     1      -9.170  26.771  -4.483  1.00  0.00     0.062 C 
HETATM    8  C20 UNL     1      -8.910  25.708  -3.446  1.00  0.00     0.129 C 
ENDROOT
BRANCH   1   9
HETATM    9  C8  UNL     1      -5.830  25.762  -1.211  1.00  0.00     0.225 C 
BRANCH   9  10
HETATM   10  N2  UNL     1      -5.499  27.071  -0.672  1.00  0.00    -0.351 N 
HETATM   11  C7  UNL     1      -4.389  27.768  -1.147  1.00  0.00     0.235 C 
HETATM   12  O2  UNL     1      -3.688  27.210  -2.066  1.00  0.00    -0.272 OA
ATOM     13  H2  UNL     1      -6.081  27.481   0.057  1.00  0.00     0.163 HD
BRANCH  11  14
HETATM   14  C6  UNL     1      -3.974  29.080  -0.678  1.00  0.00     0.225 C 
BRANCH  14  15
HETATM   15  N1  UNL     1      -4.988  29.800   0.030  1.00  0.00    -0.352 N 
HETATM   16  C5  UNL     1      -4.771  31.194   0.320  1.00  0.00     0.225 C 
HETATM   17  O1  UNL     1      -3.707  31.766  -0.042  1.00  0.00    -0.273 OA
ATOM     18  H1  UNL     1      -5.848  29.335   0.323  1.00  0.00     0.162 HD
BRANCH  16  19
HETATM   19  C2  UNL     1      -5.828  31.921   1.050  1.00  0.00     0.030 C 
HETATM   20  C1  UNL     1      -6.036  33.288   0.436  1.00  0.00     0.024 C 
HETATM   21  C3  UNL     1      -7.124  31.132   1.093  1.00  0.00     0.024 C 
HETATM   22  C4  UNL     1      -5.383  32.076   2.504  1.00  0.00     0.024 C 
ENDBRANCH  16  19
ENDBRANCH  14  15
ENDBRANCH  11  14
ENDBRANCH   9  10
ENDBRANCH   1   9
BRANCH   6  23
HETATM   23  C13 UNL     1      -7.619  28.118  -5.675  1.00  0.00     0.202 C 
HETATM   24  O4  UNL     1      -8.157  29.097  -5.100  1.00  0.00    -0.646 OA
HETATM   25  O5  UNL     1      -6.456  28.360  -6.358  1.00  0.00    -0.646 OA
ENDBRANCH   6  23
BRANCH   6  26
HETATM   26  N4  UNL     1      -8.927  26.508  -6.818  1.00  0.00    -0.374 N 
HETATM   27  C14 UNL     1      -9.888  25.467  -6.823  1.00  0.00     0.123 C 
HETATM   28  C15 UNL     1      -9.916  24.906  -8.255  1.00  0.00     0.020 C 
HETATM   29  C16 UNL     1     -10.584  25.976  -9.089  1.00  0.00     0.007 C 
HETATM   30  C17 UNL     1     -10.584  27.334  -8.424  1.00  0.00     0.044 C 
HETATM   31  C18 UNL     1      -9.284  27.575  -7.661  1.00  0.00     0.059 C 
ENDBRANCH   6  26
TORSDOF 7
ENDMDL
MODEL 4
REMARK VINA RESULT: -6.708244618      2.984      4.864
REMARK  7 active torsions:
REMARK  status: ('A' for Active; 'I' for Inactive)
REMARK    1  A    between atoms: C2_2  and  C5_5 
REMARK       I    between atoms: C5_5  and  N1_7 
REMARK    2  A    between atoms: N1_7  and  C6_9 
REMARK    3  A    between atoms: C6_9  and  C7_10 
REMARK       I    between atoms: C7_10  and  N2_12 
REMARK    4  A    between atoms: N2_12  and  C8_14 
REMARK    5  A    between atoms: C8_14  and  C9_15 
REMARK       I    between atoms: C9_15  and  N3_17 
REMARK    6  A    between atoms: C12_20  and  C13_21 
REMARK    7  A    between atoms: C12_20  and  N4_24 
ROOT
HETATM    1  C9  UNL     1      -8.991  28.320  -0.444  1.00  0.00     0.237 C 
HETATM    2  O3  UNL     1      -8.063  27.487  -0.307  1.00  0.00    -0.272 OA
HETATM    3  N3  UNL     1      -8.951  29.539   0.255  1.00  0.00    -0.351 N 
HETATM    4  C10 UNL     1      -9.991  30.537   0.134  1.00  0.00     0.129 C 
HETATM    5  C11 UNL     1      -9.717  31.784   0.897  1.00  0.00     0.062 C 
HETATM    6  C12 UNL     1      -8.311  32.317   0.805  1.00  0.00     0.123 C 
HETATM    7  C19 UNL     1      -7.279  31.207   0.844  1.00  0.00     0.062 C 
HETATM    8  C20 UNL     1      -7.859  29.846   1.133  1.00  0.00     0.129 C 
ENDROOT
BRANCH   1   9
HETATM    9  C8  UNL     1     -10.126  28.039  -1.333  1.00  0.00     0.225 C 
BRANCH   9  10
HETATM   10  N2  UNL     1      -9.645  27.856  -2.692  1.00  0.00    -0.351 N 
HETATM   11  C7  UNL     1      -9.662  26.592  -3.280  1.00  0.00     0.235 C 
HETATM   12  O2  UNL     1     -10.115  25.618  -2.578  1.00  0.00    -0.272 OA
ATOM     13  H2  UNL     1      -9.292  28.655  -3.217  1.00  0.00     0.163 HD
BRANCH  11  14
HETATM   14  C6  UNL     1      -9.207  26.302  -4.630  1.00  0.00     0.225 C 
BRANCH  14  15
HETATM   15  N1  UNL     1      -7.816  25.978  -4.725  1.00  0.00    -0.352 N 
HETATM   16  C5  UNL     1      -6.866  27.050  -4.875  1.00  0.00     0.225 C 
HETATM   17  O1  UNL     1      -7.253  28.249  -4.924  1.00  0.00    -0.273 OA
ATOM     18  H1  UNL     1      -7.504  25.007  -4.686  1.00  0.00     0.162 HD
BRANCH  16  19
HETATM   19  C2  UNL     1      -5.435  26.697  -4.969  1.00  0.00     0.030 C 
HETATM   20  C1  UNL     1      -5.263  25.451  -5.810  1.00  0.00     0.024 C 
HETATM   21  C3  UNL     1      -4.609  27.848  -5.514  1.00  0.00     0.024 C 
HETATM   22  C4  UNL     1      -4.913  26.438  -3.557  1.00  0.00     0.024 C 
ENDBRANCH  16  19
ENDBRANCH  14  15
ENDBRANCH  11  14
ENDBRANCH   9  10
ENDBRANCH   1   9
BRANCH   6  23
HETATM   23  C13 UNL     1      -8.142  32.948  -0.524  1.00  0.00     0.202 C 
HETATM   24  O4  UNL     1      -7.057  32.920  -1.156  1.00  0.00    -0.646 OA
HETATM   25  O5  UNL     1      -9.191  33.598  -1.116  1.00  0.00    -0.646 OA
ENDBRANCH   6  23
BRANCH   6  26
HETATM   26  N4  UNL     1      -7.984  33.240   1.821  1.00  0.00    -0.374 N 
HETATM   27  C14 UNL     1      -8.997  33.660   2.718  1.00  0.00     0.123 C 
HETATM   28  C15 UNL     1      -8.658  35.108   3.111  1.00  0.00     0.020 C 
HETATM   29  C16 UNL     1      -7.444  35.005   4.008  1.00  0.00     0.007 C 
HETATM   30  C17 UNL     1      -6.714  33.688   3.869  1.00  0.00     0.044 C 
HETATM   31  C18 UNL     1      -6.712  33.207   2.421  1.00  0.00     0.059 C 
ENDBRANCH   6  26
TORSDOF 7
ENDMDL
MODEL 5
REMARK VINA RESULT: -6.645151289      2.896      7.995
REMARK  7 active torsions:
REMARK  status: ('A' for Active; 'I' for Inactive)
REMARK    1  A    between atoms: C2_2  and  C5_5 
REMARK       I    between atoms: C5_5  and  N1_7 
REMARK    2  A    between atoms: N1_7  and  C6_9 
REMARK    3  A    between atoms: C6_9  and  C7_10 
REMARK       I    between atoms: C7_10  and  N2_12 
REMARK    4  A    between atoms: N2_12  and  C8_14 
REMARK    5  A    between atoms: C8_14  and  C9_15 
REMARK       I    between atoms: C9_15  and  N3_17 
REMARK    6  A    between atoms: C12_20  and  C13_21 
REMARK    7  A    between atoms: C12_20  and  N4_24 
ROOT
HETATM    1  C9  UNL     1      -8.258  27.747   1.793  1.00  0.00     0.237 C 
HETATM    2  O3  UNL     1      -7.474  27.389   2.704  1.00  0.00    -0.272 OA
HETATM    3  N3  UNL     1      -7.858  27.660   0.448  1.00  0.00    -0.351 N 
HETATM    4  C10 UNL     1      -8.720  28.056  -0.644  1.00  0.00     0.129 C 
HETATM    5  C11 UNL     1      -8.134  27.811  -1.990  1.00  0.00     0.062 C 
HETATM    6  C12 UNL     1      -7.441  26.486  -2.175  1.00  0.00     0.123 C 
HETATM    7  C19 UNL     1      -6.633  26.093  -0.955  1.00  0.00     0.062 C 
HETATM    8  C20 UNL     1      -6.557  27.168   0.099  1.00  0.00     0.129 C 
ENDROOT
BRANCH   1   9
HETATM    9  C8  UNL     1      -9.597  28.257   2.111  1.00  0.00     0.225 C 
BRANCH   9  10
HETATM   10  N2  UNL     1      -9.502  29.648   2.522  1.00  0.00    -0.351 N 
HETATM   11  C7  UNL     1     -10.519  30.547   2.206  1.00  0.00     0.235 C 
HETATM   12  O2  UNL     1     -11.525  30.096   1.547  1.00  0.00    -0.272 OA
ATOM     13  H2  UNL     1      -8.686  29.968   3.043  1.00  0.00     0.163 HD
BRANCH  11  14
HETATM   14  C6  UNL     1     -10.521  31.955   2.570  1.00  0.00     0.225 C 
BRANCH  14  15
HETATM   15  N1  UNL     1      -9.223  32.496   2.833  1.00  0.00    -0.352 N 
HETATM   16  C5  UNL     1      -8.503  33.119   1.752  1.00  0.00     0.225 C 
HETATM   17  O1  UNL     1      -9.007  33.184   0.599  1.00  0.00    -0.273 OA
ATOM     18  H1  UNL     1      -8.815  32.442   3.767  1.00  0.00     0.162 HD
BRANCH  16  19
HETATM   19  C2  UNL     1      -7.165  33.673   2.042  1.00  0.00     0.030 C 
HETATM   20  C1  UNL     1      -6.194  32.553   2.345  1.00  0.00     0.024 C 
HETATM   21  C3  UNL     1      -6.662  34.546   0.907  1.00  0.00     0.024 C 
HETATM   22  C4  UNL     1      -7.282  34.592   3.258  1.00  0.00     0.024 C 
ENDBRANCH  16  19
ENDBRANCH  14  15
ENDBRANCH  11  14
ENDBRANCH   9  10
ENDBRANCH   1   9
BRANCH   6  23
HETATM   23  C13 UNL     1      -8.477  25.436  -2.301  1.00  0.00     0.202 C 
HETATM   24  O4  UNL     1      -8.214  24.210  -2.235  1.00  0.00    -0.646 OA
HETATM   25  O5  UNL     1      -9.787  25.782  -2.499  1.00  0.00    -0.646 OA
ENDBRANCH   6  23
BRANCH   6  26
HETATM   26  N4  UNL     1      -6.577  26.446  -3.290  1.00  0.00    -0.374 N 
HETATM   27  C14 UNL     1      -5.374  25.703  -3.201  1.00  0.00     0.123 C 
HETATM   28  C15 UNL     1      -4.347  26.427  -4.086  1.00  0.00     0.020 C 
HETATM   29  C16 UNL     1      -4.791  26.166  -5.509  1.00  0.00     0.007 C 
HETATM   30  C17 UNL     1      -6.235  25.726  -5.608  1.00  0.00     0.044 C 
HETATM   31  C18 UNL     1      -7.107  26.460  -4.593  1.00  0.00     0.059 C 
ENDBRANCH   6  26
TORSDOF 7
ENDMDL
