MODEL 1
REMARK VINA RESULT: -7.510219188      0.000      0.000
REMARK  6 active torsions:
REMARK  status: ('A' for Active; 'I' for Inactive)
REMARK       I    between atoms: C2_2  and  N1_4 
REMARK    1  A    between atoms: N3_14  and  C9_15 
REMARK    2  A    between atoms: C9_15  and  C10_16 
REMARK       I    between atoms: C10_16  and  N4_18 
REMARK    3  A    between atoms: N4_18  and  C11_20 
REMARK    4  A    between atoms: C11_20  and  C12_21 
REMARK    5  A    between atoms: C12_21  and  N5_22 
REMARK       I    between atoms: N5_22  and  C13_24 
REMARK    6  A    between atoms: C13_24  and  C14_26 
ROOT
HETATM    1  C9  UNL     1      -7.031  25.500  -1.224  1.00  0.00     0.219 C 
ENDROOT
BRANCH   1   2
HETATM    2  N3  UNL     1      -7.105  26.885  -0.964  1.00  0.00    -0.402 N 
HETATM    3  C8  UNL     1      -6.996  27.311   0.389  1.00  0.00     0.117 C 
HETATM    4  C7  UNL     1      -8.361  27.250   1.053  1.00  0.00     0.021 C 
HETATM    5  C6  UNL     1      -8.849  28.607   1.510  1.00  0.00     0.029 C 
HETATM    6  C5  UNL     1     -10.358  28.719   1.467  1.00  0.00     0.232 C 
HETATM    7  N2  UNL     1     -10.701  29.567   0.330  1.00  0.00    -0.074 N 
HETATM    8  C4  UNL     1     -11.464  28.810  -0.651  1.00  0.00     0.252 C 
ATOM      9  H22 UNL     1      -9.876  30.003  -0.083  1.00  0.00     0.277 HD
ATOM     10  H21 UNL     1     -11.190  30.415   0.620  1.00  0.00     0.277 HD
HETATM   11  C3  UNL     1     -10.759  28.678  -1.975  1.00  0.00     0.153 C 
HETATM   12  N1  UNL     1     -10.447  27.305  -2.258  1.00  0.00    -0.349 N 
HETATM   13  C2  UNL     1     -11.500  26.394  -2.481  1.00  0.00     0.215 C 
HETATM   14  C21 UNL     1      -9.096  26.761  -2.337  1.00  0.00     0.145 C 
HETATM   15  C1  UNL     1     -12.902  26.835  -2.422  1.00  0.00     0.117 C 
HETATM   16  O1  UNL     1     -11.251  25.194  -2.731  1.00  0.00    -0.274 OA
HETATM   17  C20 UNL     1      -8.022  27.607  -1.783  1.00  0.00     0.137 C 
ENDBRANCH   1   2
BRANCH   1  18
HETATM   18  C10 UNL     1      -5.691  25.004  -1.648  1.00  0.00     0.235 C 
HETATM   19  O2  UNL     1      -5.499  23.779  -1.720  1.00  0.00    -0.272 OA
HETATM   20  N4  UNL     1      -4.695  25.940  -1.951  1.00  0.00    -0.358 N 
ATOM     21  H4  UNL     1      -4.908  26.935  -1.881  1.00  0.00     0.162 HD
BRANCH  20  22
HETATM   22  C11 UNL     1      -3.376  25.528  -2.358  1.00  0.00     0.142 C 
BRANCH  22  23
HETATM   23  C12 UNL     1      -3.145  25.886  -3.787  1.00  0.00     0.142 C 
BRANCH  23  24
HETATM   24  N5  UNL     1      -4.377  25.878  -4.528  1.00  0.00    -0.359 N 
HETATM   25  C13 UNL     1      -4.788  26.999  -5.286  1.00  0.00     0.221 C 
HETATM   26  O3  UNL     1      -4.133  28.058  -5.379  1.00  0.00    -0.273 OA
ATOM     27  H5  UNL     1      -4.966  25.045  -4.507  1.00  0.00     0.162 HD
BRANCH  25  28
HETATM   28  C14 UNL     1      -6.089  26.908  -6.023  1.00  0.00     0.078 C 
HETATM   29  C15 UNL     1      -6.856  28.180  -5.714  1.00  0.00     0.014 C 
HETATM   30  C16 UNL     1      -8.136  28.113  -6.548  1.00  0.00     0.001 C 
HETATM   31  C17 UNL     1      -8.987  27.026  -5.893  1.00  0.00     0.000 C 
HETATM   32  C18 UNL     1      -8.276  25.707  -6.024  1.00  0.00     0.001 C 
HETATM   33  C19 UNL     1      -6.871  25.745  -5.510  1.00  0.00     0.014 C 
ENDBRANCH  25  28
ENDBRANCH  23  24
ENDBRANCH  22  23
ENDBRANCH  20  22
ENDBRANCH   1  18
TORSDOF 6
ENDMDL
MODEL 2
REMARK VINA RESULT: -7.409698851      3.176      4.610
REMARK  6 active torsions:
REMARK  status: ('A' for Active; 'I' for Inactive)
REMARK       I    between atoms: C2_2  and  N1_4 
REMARK    1  A    between atoms: N3_14  and  C9_15 
REMARK    2  A    between atoms: C9_15  and  C10_16 
REMARK       I    between atoms: C10_16  and  N4_18 
REMARK    3  A    between atoms: N4_18  and  C11_20 
REMARK    4  A    between atoms: C11_20  and  C12_21 
REMARK    5  A    between atoms: C12_21  and  N5_22 
REMARK       I    between atoms: N5_22  and  C13_24 
REMARK    6  A    between atoms: C13_24  and  C14_26 
ROOT
HETATM    1  C9  UNL     1      -7.911  28.782  -0.148  1.00  0.00     0.219 C 
ENDROOT
BRANCH   1   2
HETATM    2  N3  UNL     1      -8.177  28.998   1.221  1.00  0.00    -0.402 N 
HETATM    3  C8  UNL     1      -9.534  28.968   1.644  1.00  0.00     0.117 C 
HETATM    4  C7  UNL     1     -10.159  30.338   1.446  1.00  0.00     0.021 C 
HETATM    5  C6  UNL     1     -10.610  30.968   2.744  1.00  0.00     0.029 C 
HETATM    6  C5  UNL     1     -10.525  32.479   2.710  1.00  0.00     0.232 C 
HETATM    7  N2  UNL     1      -9.384  32.872   3.531  1.00  0.00    -0.074 N 
HETATM    8  C4  UNL     1      -8.378  33.530   2.711  1.00  0.00     0.252 C 
ATOM      9  H22 UNL     1      -8.997  32.082   4.048  1.00  0.00     0.277 HD
ATOM     10  H21 UNL     1      -9.665  33.448   4.324  1.00  0.00     0.277 HD
HETATM   11  C3  UNL     1      -7.074  32.780   2.660  1.00  0.00     0.153 C 
HETATM   12  N1  UNL     1      -6.792  32.328   1.325  1.00  0.00    -0.349 N 
HETATM   13  C2  UNL     1      -6.534  33.281   0.319  1.00  0.00     0.215 C 
HETATM   14  C21 UNL     1      -6.748  30.929   0.916  1.00  0.00     0.145 C 
HETATM   15  C1  UNL     1      -6.557  34.720   0.621  1.00  0.00     0.117 C 
HETATM   16  O1  UNL     1      -6.284  32.910  -0.849  1.00  0.00    -0.274 OA
HETATM   17  C20 UNL     1      -7.336  29.958   1.858  1.00  0.00     0.137 C 
ENDBRANCH   1   2
BRANCH   1  18
HETATM   18  C10 UNL     1      -7.153  27.537  -0.460  1.00  0.00     0.235 C 
HETATM   19  O2  UNL     1      -7.731  26.442  -0.362  1.00  0.00    -0.272 OA
HETATM   20  N4  UNL     1      -5.813  27.648  -0.851  1.00  0.00    -0.358 N 
ATOM     21  H4  UNL     1      -5.389  28.573  -0.921  1.00  0.00     0.162 HD
BRANCH  20  22
HETATM   22  C11 UNL     1      -5.021  26.484  -1.158  1.00  0.00     0.142 C 
BRANCH  22  23
HETATM   23  C12 UNL     1      -4.439  26.605  -2.525  1.00  0.00     0.142 C 
BRANCH  23  24
HETATM   24  N5  UNL     1      -5.465  26.547  -3.531  1.00  0.00    -0.359 N 
HETATM   25  C13 UNL     1      -5.253  27.064  -4.830  1.00  0.00     0.221 C 
HETATM   26  O3  UNL     1      -4.186  27.594  -5.206  1.00  0.00    -0.273 OA
ATOM     27  H5  UNL     1      -6.364  26.122  -3.302  1.00  0.00     0.162 HD
BRANCH  25  28
HETATM   28  C14 UNL     1      -6.377  26.968  -5.815  1.00  0.00     0.078 C 
HETATM   29  C15 UNL     1      -7.264  28.178  -5.586  1.00  0.00     0.014 C 
HETATM   30  C16 UNL     1      -8.349  28.114  -6.660  1.00  0.00     0.001 C 
HETATM   31  C17 UNL     1      -9.247  26.944  -6.257  1.00  0.00     0.000 C 
HETATM   32  C18 UNL     1      -8.446  25.672  -6.327  1.00  0.00     0.001 C 
HETATM   33  C19 UNL     1      -7.174  25.737  -5.542  1.00  0.00     0.014 C 
ENDBRANCH  25  28
ENDBRANCH  23  24
ENDBRANCH  22  23
ENDBRANCH  20  22
ENDBRANCH   1  18
TORSDOF 6
ENDMDL
MODEL 3
REMARK VINA RESULT: -7.384104967      1.759      3.050
REMARK  6 active torsions:
REMARK  status: ('A' for Active; 'I' for Inactive)
REMARK       I    between atoms: C2_2  and  N1_4 
REMARK    1  A    between atoms: N3_14  and  C9_15 
REMARK    2  A    between atoms: C9_15  and  C10_16 
REMARK       I    between atoms: C10_16  and  N4_18 
REMARK    3  A    between atoms: N4_18  and  C11_20 
REMARK    4  A    between atoms: C11_20  and  C12_21 
REMARK    5  A    between atoms: C12_21  and  N5_22 
REMARK       I    between atoms: N5_22  and  C13_24 
REMARK    6  A    between atoms: C13_24  and  C14_26 
ROOT
HETATM    1  C9  UNL     1      -6.426  27.020  -1.434  1.00  0.00     0.219 C 
ENDROOT
BRANCH   1   2
HETATM    2  N3  UNL     1      -7.627  26.442  -0.970  1.00  0.00    -0.402 N 
HETATM    3  C8  UNL     1      -8.633  26.146  -1.931  1.00  0.00     0.117 C 
HETATM    4  C7  UNL     1      -9.481  27.381  -2.177  1.00  0.00     0.021 C 
HETATM    5  C6  UNL     1     -10.929  27.183  -1.789  1.00  0.00     0.029 C 
HETATM    6  C5  UNL     1     -11.580  28.467  -1.321  1.00  0.00     0.232 C 
HETATM    7  N2  UNL     1     -11.730  28.379   0.128  1.00  0.00    -0.074 N 
HETATM    8  C4  UNL     1     -10.934  29.408   0.780  1.00  0.00     0.252 C 
ATOM      9  H22 UNL     1     -11.509  27.447   0.478  1.00  0.00     0.277 HD
ATOM     10  H21 UNL     1     -12.710  28.418   0.413  1.00  0.00     0.277 HD
HETATM   11  C3  UNL     1      -9.844  28.847   1.654  1.00  0.00     0.153 C 
HETATM   12  N1  UNL     1      -8.547  29.209   1.155  1.00  0.00    -0.349 N 
HETATM   13  C2  UNL     1      -8.161  30.565   1.169  1.00  0.00     0.215 C 
HETATM   14  C21 UNL     1      -7.571  28.265   0.623  1.00  0.00     0.145 C 
HETATM   15  C1  UNL     1      -9.069  31.602   1.681  1.00  0.00     0.117 C 
HETATM   16  O1  UNL     1      -7.034  30.901   0.742  1.00  0.00    -0.274 OA
HETATM   17  C20 UNL     1      -8.080  26.920   0.295  1.00  0.00     0.137 C 
ENDBRANCH   1   2
BRANCH   1  18
HETATM   18  C10 UNL     1      -5.362  26.050  -1.820  1.00  0.00     0.235 C 
HETATM   19  O2  UNL     1      -5.629  24.838  -1.831  1.00  0.00    -0.272 OA
HETATM   20  N4  UNL     1      -4.095  26.544  -2.155  1.00  0.00    -0.358 N 
ATOM     21  H4  UNL     1      -3.930  27.550  -2.135  1.00  0.00     0.162 HD
BRANCH  20  22
HETATM   22  C11 UNL     1      -3.019  25.660  -2.528  1.00  0.00     0.142 C 
BRANCH  22  23
HETATM   23  C12 UNL     1      -2.826  25.683  -4.006  1.00  0.00     0.142 C 
BRANCH  23  24
HETATM   24  N5  UNL     1      -4.089  25.673  -4.693  1.00  0.00    -0.359 N 
HETATM   25  C13 UNL     1      -4.655  26.862  -5.209  1.00  0.00     0.221 C 
HETATM   26  O3  UNL     1      -4.120  27.987  -5.121  1.00  0.00    -0.273 OA
ATOM     27  H5  UNL     1      -4.586  24.791  -4.810  1.00  0.00     0.162 HD
BRANCH  25  28
HETATM   28  C14 UNL     1      -5.978  26.764  -5.905  1.00  0.00     0.078 C 
HETATM   29  C15 UNL     1      -6.739  28.036  -5.581  1.00  0.00     0.014 C 
HETATM   30  C16 UNL     1      -8.043  27.961  -6.375  1.00  0.00     0.001 C 
HETATM   31  C17 UNL     1      -8.871  26.876  -5.687  1.00  0.00     0.000 C 
HETATM   32  C18 UNL     1      -8.160  25.557  -5.832  1.00  0.00     0.001 C 
HETATM   33  C19 UNL     1      -6.741  25.602  -5.362  1.00  0.00     0.014 C 
ENDBRANCH  25  28
ENDBRANCH  23  24
ENDBRANCH  22  23
ENDBRANCH  20  22
ENDBRANCH   1  18
TORSDOF 6
ENDMDL
MODEL 4
REMARK VINA RESULT: -7.199835947      2.287      5.161
REMARK  6 active torsions:
REMARK  status: ('A' for Active; 'I' for Inactive)
REMARK       I    between atoms: C2_2  and  N1_4 
REMARK    1  A    between atoms: N3_14  and  C9_15 
REMARK    2  A    between atoms: C9_15  and  C10_16 
REMARK       I    between atoms: C10_16  and  N4_18 
REMARK    3  A    between atoms: N4_18  and  C11_20 
REMARK    4  A    between atoms: C11_20  and  C12_21 
REMARK    5  A    between atoms: C12_21  and  N5_22 
REMARK       I    between atoms: N5_22  and  C13_24 
REMARK    6  A    between atoms: C13_24  and  C14_26 
ROOT
HETATM    1  C9  UNL     1      -6.412  27.541  -5.330  1.00  0.00     0.219 C 
ENDROOT
BRANCH   1   2
HETATM    2  N3  UNL     1      -7.300  26.499  -4.988  1.00  0.00    -0.402 N 
HETATM    3  C8  UNL     1      -7.721  25.622  -6.024  1.00  0.00     0.117 C 
HETATM    4  C7  UNL     1      -8.917  26.221  -6.744  1.00  0.00     0.021 C 
HETATM    5  C6  UNL     1     -10.161  25.370  -6.620  1.00  0.00     0.029 C 
HETATM    6  C5  UNL     1     -11.428  26.197  -6.636  1.00  0.00     0.232 C 
HETATM    7  N2  UNL     1     -11.952  26.223  -5.274  1.00  0.00    -0.074 N 
HETATM    8  C4  UNL     1     -11.944  27.584  -4.758  1.00  0.00     0.252 C 
ATOM      9  H22 UNL     1     -11.450  25.581  -4.661  1.00  0.00     0.277 HD
ATOM     10  H21 UNL     1     -12.877  25.798  -5.213  1.00  0.00     0.277 HD
HETATM   11  C3  UNL     1     -11.039  27.760  -3.568  1.00  0.00     0.153 C 
HETATM   12  N1  UNL     1      -9.963  28.662  -3.869  1.00  0.00    -0.349 N 
HETATM   13  C2  UNL     1     -10.254  30.018  -4.123  1.00  0.00     0.215 C 
HETATM   14  C21 UNL     1      -8.556  28.281  -3.934  1.00  0.00     0.145 C 
HETATM   15  C1  UNL     1     -11.640  30.510  -4.087  1.00  0.00     0.117 C 
HETATM   16  O1  UNL     1      -9.332  30.821  -4.385  1.00  0.00    -0.274 OA
HETATM   17  C20 UNL     1      -8.278  26.835  -4.005  1.00  0.00     0.137 C 
ENDBRANCH   1   2
BRANCH   1  18
HETATM   18  C10 UNL     1      -4.967  27.233  -5.140  1.00  0.00     0.235 C 
HETATM   19  O2  UNL     1      -4.120  28.012  -5.608  1.00  0.00    -0.272 OA
HETATM   20  N4  UNL     1      -4.615  26.072  -4.441  1.00  0.00    -0.358 N 
ATOM     21  H4  UNL     1      -5.351  25.470  -4.072  1.00  0.00     0.162 HD
BRANCH  20  22
HETATM   22  C11 UNL     1      -3.236  25.711  -4.229  1.00  0.00     0.142 C 
BRANCH  22  23
HETATM   23  C12 UNL     1      -2.889  25.835  -2.785  1.00  0.00     0.142 C 
BRANCH  23  24
HETATM   24  N5  UNL     1      -4.073  25.912  -1.973  1.00  0.00    -0.359 N 
HETATM   25  C13 UNL     1      -4.354  27.054  -1.187  1.00  0.00     0.221 C 
HETATM   26  O3  UNL     1      -3.624  28.066  -1.138  1.00  0.00    -0.273 OA
ATOM     27  H5  UNL     1      -4.724  25.126  -1.964  1.00  0.00     0.162 HD
BRANCH  25  28
HETATM   28  C14 UNL     1      -5.607  27.048  -0.365  1.00  0.00     0.078 C 
HETATM   29  C15 UNL     1      -6.531  26.015  -0.983  1.00  0.00     0.014 C 
HETATM   30  C16 UNL     1      -7.760  25.955  -0.077  1.00  0.00     0.001 C 
HETATM   31  C17 UNL     1      -8.501  27.271  -0.314  1.00  0.00     0.000 C 
HETATM   32  C18 UNL     1      -7.633  28.408   0.153  1.00  0.00     0.001 C 
HETATM   33  C19 UNL     1      -6.263  28.385  -0.449  1.00  0.00     0.014 C 
ENDBRANCH  25  28
ENDBRANCH  23  24
ENDBRANCH  22  23
ENDBRANCH  20  22
ENDBRANCH   1  18
TORSDOF 6
ENDMDL
MODEL 5
REMARK VINA RESULT: -7.185362068      2.120      3.399
REMARK  6 active torsions:
REMARK  status: ('A' for Active; 'I' for Inactive)
REMARK       I    between atoms: C2_2  and  N1_4 
REMARK    1  A    between atoms: N3_14  and  C9_15 
REMARK    2  A    between atoms: C9_15  and  C10_16 
REMARK       I    between atoms: C10_16  and  N4_18 
REMARK    3  A    between atoms: N4_18  and  C11_20 
REMARK    4  A    between atoms: C11_20  and  C12_21 
REMARK    5  A    between atoms: C12_21  and  N5_22 
REMARK       I    between atoms: N5_22  and  C13_24 
REMARK    6  A    between atoms: C13_24  and  C14_26 
ROOT
HETATM    1  C9  UNL     1      -5.904  27.651  -0.824  1.00  0.00     0.219 C 
ENDROOT
BRANCH   1   2
HETATM    2  N3  UNL     1      -7.206  27.402  -0.339  1.00  0.00    -0.402 N 
HETATM    3  C8  UNL     1      -8.157  26.857  -1.246  1.00  0.00     0.117 C 
HETATM    4  C7  UNL     1      -8.810  27.979  -2.033  1.00  0.00     0.021 C 
HETATM    5  C6  UNL     1     -10.300  28.074  -1.789  1.00  0.00     0.029 C 
HETATM    6  C5  UNL     1     -10.813  29.493  -1.910  1.00  0.00     0.232 C 
HETATM    7  N2  UNL     1     -11.097  29.973  -0.562  1.00  0.00    -0.074 N 
HETATM    8  C4  UNL     1     -10.230  31.096  -0.234  1.00  0.00     0.252 C 
ATOM      9  H22 UNL     1     -11.031  29.227   0.130  1.00  0.00     0.277 HD
ATOM     10  H21 UNL     1     -12.083  30.205  -0.439  1.00  0.00     0.277 HD
HETATM   11  C3  UNL     1      -9.303  30.810   0.916  1.00  0.00     0.153 C 
HETATM   12  N1  UNL     1      -7.931  30.838   0.491  1.00  0.00    -0.349 N 
HETATM   13  C2  UNL     1      -7.372  32.058   0.058  1.00  0.00     0.215 C 
HETATM   14  C21 UNL     1      -7.046  29.678   0.470  1.00  0.00     0.145 C 
HETATM   15  C1  UNL     1      -8.176  33.289   0.034  1.00  0.00     0.117 C 
HETATM   16  O1  UNL     1      -6.179  32.104  -0.315  1.00  0.00    -0.274 OA
HETATM   17  C20 UNL     1      -7.698  28.362   0.594  1.00  0.00     0.137 C 
ENDBRANCH   1   2
BRANCH   1  18
HETATM   18  C10 UNL     1      -5.225  26.481  -1.450  1.00  0.00     0.235 C 
HETATM   19  O2  UNL     1      -5.882  25.448  -1.662  1.00  0.00    -0.272 OA
HETATM   20  N4  UNL     1      -3.868  26.589  -1.775  1.00  0.00    -0.358 N 
ATOM     21  H4  UNL     1      -3.378  27.462  -1.585  1.00  0.00     0.162 HD
BRANCH  20  22
HETATM   22  C11 UNL     1      -3.149  25.492  -2.374  1.00  0.00     0.142 C 
BRANCH  22  23
HETATM   23  C12 UNL     1      -2.970  25.733  -3.834  1.00  0.00     0.142 C 
BRANCH  23  24
HETATM   24  N5  UNL     1      -4.236  25.746  -4.516  1.00  0.00    -0.359 N 
HETATM   25  C13 UNL     1      -4.698  26.902  -5.186  1.00  0.00     0.221 C 
HETATM   26  O3  UNL     1      -4.063  27.976  -5.248  1.00  0.00    -0.273 OA
ATOM     27  H5  UNL     1      -4.812  24.905  -4.515  1.00  0.00     0.162 HD
BRANCH  25  28
HETATM   28  C14 UNL     1      -6.032  26.833  -5.865  1.00  0.00     0.078 C 
HETATM   29  C15 UNL     1      -6.737  28.146  -5.581  1.00  0.00     0.014 C 
HETATM   30  C16 UNL     1      -8.052  28.095  -6.358  1.00  0.00     0.001 C 
HETATM   31  C17 UNL     1      -8.915  27.071  -5.623  1.00  0.00     0.000 C 
HETATM   32  C18 UNL     1      -8.260  25.720  -5.725  1.00  0.00     0.001 C 
HETATM   33  C19 UNL     1      -6.835  25.725  -5.271  1.00  0.00     0.014 C 
ENDBRANCH  25  28
ENDBRANCH  23  24
ENDBRANCH  22  23
ENDBRANCH  20  22
ENDBRANCH   1  18
TORSDOF 6
ENDMDL
