MODEL 1
REMARK VINA RESULT: -6.780663852      0.000      0.000
REMARK  7 active torsions:
REMARK  status: ('A' for Active; 'I' for Inactive)
REMARK    1  A    between atoms: N2_5  and  C4_6 
REMARK    2  A    between atoms: C4_6  and  C5_7 
REMARK    3  A    between atoms: C5_7  and  C6_8 
REMARK    4  A    between atoms: C6_8  and  C7_9 
REMARK    5  A    between atoms: C7_9  and  N3_10 
REMARK       I    between atoms: N3_10  and  C8_12 
REMARK       I    between atoms: C8_12  and  N5_16 
REMARK    6  A    between atoms: C11_19  and  O1_20 
REMARK    7  A    between atoms: C11_19  and  C12_22 
REMARK       I    between atoms: C12_22  and  N6_24 
ROOT
HETATM    1  N3  UNL     1      -9.994  28.494   2.358  1.00  0.00    -0.227 N 
ATOM      2  H3  UNL     1     -10.768  28.322   1.716  1.00  0.00     0.177 HD
HETATM    3  C8  UNL     1      -8.675  28.269   1.918  1.00  0.00     0.669 C 
HETATM    4  N4  UNL     1      -7.668  28.748   2.521  1.00  0.00    -0.235 N 
ATOM      5  H41 UNL     1      -6.712  28.585   2.202  1.00  0.00     0.174 HD
ATOM      6  H42 UNL     1      -7.818  29.314   3.357  1.00  0.00     0.174 HD
HETATM    7  N5  UNL     1      -8.466  27.481   0.755  1.00  0.00    -0.218 N 
HETATM    8  C9  UNL     1      -7.567  26.380   0.827  1.00  0.00     0.144 C 
HETATM    9  C10 UNL     1      -7.159  25.751  -0.450  1.00  0.00     0.068 C 
HETATM   10  C11 UNL     1      -7.589  26.580  -1.649  1.00  0.00     0.141 C 
HETATM   11  C18 UNL     1      -9.090  26.798  -1.449  1.00  0.00     0.068 C 
HETATM   12  C19 UNL     1      -9.216  27.898  -0.422  1.00  0.00     0.144 C 
ENDROOT
BRANCH   1  13
HETATM   13  C7  UNL     1     -10.280  28.966   3.702  1.00  0.00     0.138 C 
BRANCH  13  14
HETATM   14  C6  UNL     1     -11.128  30.215   3.571  1.00  0.00     0.022 C 
BRANCH  14  15
HETATM   15  C5  UNL     1     -10.685  30.970   2.313  1.00  0.00     0.032 C 
BRANCH  15  16
HETATM   16  C4  UNL     1     -10.208  32.335   2.790  1.00  0.00     0.272 C 
BRANCH  16  17
HETATM   17  N2  UNL     1      -8.919  32.613   2.212  1.00  0.00     0.091 N 
HETATM   18  C3  UNL     1      -8.731  34.022   2.051  1.00  0.00     0.302 C 
HETATM   19  C2  UNL     1      -7.245  34.269   1.842  1.00  0.00     0.302 C 
HETATM   20  N1  UNL     1      -6.616  33.108   1.294  1.00  0.00     0.087 N 
HETATM   21  C1  UNL     1      -5.976  32.255   2.244  1.00  0.00     0.310 C 
HETATM   22  C21 UNL     1      -7.442  32.440   0.338  1.00  0.00     0.302 C 
HETATM   23  C20 UNL     1      -8.672  31.857   1.014  1.00  0.00     0.302 C 
ENDBRANCH  16  17
ENDBRANCH  15  16
ENDBRANCH  14  15
ENDBRANCH  13  14
ENDBRANCH   1  13
BRANCH  10  24
HETATM   24  O1  UNL     1      -7.008  27.824  -1.508  1.00  0.00    -0.380 OA
ATOM     25  H1  UNL     1      -7.690  28.417  -1.219  1.00  0.00     0.211 HD
ENDBRANCH  10  24
BRANCH  10  26
HETATM   26  C12 UNL     1      -7.284  25.937  -2.904  1.00  0.00     0.254 C 
HETATM   27  O2  UNL     1      -6.701  24.785  -2.822  1.00  0.00    -0.270 OA
HETATM   28  N6  UNL     1      -7.531  26.381  -4.207  1.00  0.00    -0.350 N 
HETATM   29  C13 UNL     1      -8.124  27.630  -4.621  1.00  0.00     0.126 C 
HETATM   30  C17 UNL     1      -7.194  25.505  -5.371  1.00  0.00     0.126 C 
HETATM   31  C14 UNL     1      -9.580  27.307  -4.930  1.00  0.00     0.020 C 
HETATM   32  C15 UNL     1      -9.629  26.043  -5.770  1.00  0.00     0.003 C 
HETATM   33  C16 UNL     1      -8.298  25.699  -6.391  1.00  0.00     0.020 C 
ENDBRANCH  10  26
TORSDOF 7
ENDMDL
MODEL 2
REMARK VINA RESULT: -6.676612359      1.168      1.761
REMARK  7 active torsions:
REMARK  status: ('A' for Active; 'I' for Inactive)
REMARK    1  A    between atoms: N2_5  and  C4_6 
REMARK    2  A    between atoms: C4_6  and  C5_7 
REMARK    3  A    between atoms: C5_7  and  C6_8 
REMARK    4  A    between atoms: C6_8  and  C7_9 
REMARK    5  A    between atoms: C7_9  and  N3_10 
REMARK       I    between atoms: N3_10  and  C8_12 
REMARK       I    between atoms: C8_12  and  N5_16 
REMARK    6  A    between atoms: C11_19  and  O1_20 
REMARK    7  A    between atoms: C11_19  and  C12_22 
REMARK       I    between atoms: C12_22  and  N6_24 
ROOT
HETATM    1  N3  UNL     1     -10.132  28.479   2.521  1.00  0.00    -0.227 N 
ATOM      2  H3  UNL     1     -10.954  28.381   1.924  1.00  0.00     0.177 HD
HETATM    3  C8  UNL     1      -8.853  28.280   1.966  1.00  0.00     0.669 C 
HETATM    4  N4  UNL     1      -7.795  28.683   2.538  1.00  0.00    -0.235 N 
ATOM      5  H41 UNL     1      -6.869  28.539   2.135  1.00  0.00     0.174 HD
ATOM      6  H42 UNL     1      -7.874  29.167   3.432  1.00  0.00     0.174 HD
HETATM    7  N5  UNL     1      -8.744  27.607   0.721  1.00  0.00    -0.218 N 
HETATM    8  C9  UNL     1      -7.866  26.491   0.620  1.00  0.00     0.144 C 
HETATM    9  C10 UNL     1      -7.564  25.984  -0.738  1.00  0.00     0.068 C 
HETATM   10  C11 UNL     1      -8.061  26.932  -1.817  1.00  0.00     0.141 C 
HETATM   11  C18 UNL     1      -9.539  27.151  -1.487  1.00  0.00     0.068 C 
HETATM   12  C19 UNL     1      -9.568  28.146  -0.353  1.00  0.00     0.144 C 
ENDROOT
BRANCH   1  13
HETATM   13  C7  UNL     1     -10.311  28.822   3.921  1.00  0.00     0.138 C 
BRANCH  13  14
HETATM   14  C6  UNL     1     -11.167  30.071   3.975  1.00  0.00     0.022 C 
BRANCH  14  15
HETATM   15  C5  UNL     1     -10.961  30.854   2.674  1.00  0.00     0.032 C 
BRANCH  15  16
HETATM   16  C4  UNL     1     -10.460  32.231   3.089  1.00  0.00     0.272 C 
BRANCH  16  17
HETATM   17  N2  UNL     1      -9.271  32.545   2.339  1.00  0.00     0.091 N 
HETATM   18  C3  UNL     1      -9.126  33.961   2.193  1.00  0.00     0.302 C 
HETATM   19  C2  UNL     1      -7.690  34.239   1.780  1.00  0.00     0.302 C 
HETATM   20  N1  UNL     1      -7.131  33.103   1.114  1.00  0.00     0.087 N 
HETATM   21  C1  UNL     1      -6.350  32.235   1.937  1.00  0.00     0.310 C 
HETATM   22  C21 UNL     1      -8.079  32.447   0.268  1.00  0.00     0.302 C 
HETATM   23  C20 UNL     1      -9.190  31.826   1.097  1.00  0.00     0.302 C 
ENDBRANCH  16  17
ENDBRANCH  15  16
ENDBRANCH  14  15
ENDBRANCH  13  14
ENDBRANCH   1  13
BRANCH  10  24
HETATM   24  O1  UNL     1      -7.445  28.148  -1.600  1.00  0.00    -0.380 OA
ATOM     25  H1  UNL     1      -6.538  28.050  -1.866  1.00  0.00     0.211 HD
ENDBRANCH  10  24
BRANCH  10  26
HETATM   26  C12 UNL     1      -7.860  26.411  -3.147  1.00  0.00     0.254 C 
HETATM   27  O2  UNL     1      -8.897  26.423  -3.921  1.00  0.00    -0.270 OA
HETATM   28  N6  UNL     1      -6.698  25.891  -3.726  1.00  0.00    -0.350 N 
HETATM   29  C13 UNL     1      -5.405  25.710  -3.111  1.00  0.00     0.126 C 
HETATM   30  C17 UNL     1      -6.702  25.475  -5.162  1.00  0.00     0.126 C 
HETATM   31  C14 UNL     1      -4.568  26.899  -3.564  1.00  0.00     0.020 C 
HETATM   32  C15 UNL     1      -4.760  27.087  -5.059  1.00  0.00     0.003 C 
HETATM   33  C16 UNL     1      -5.354  25.875  -5.730  1.00  0.00     0.020 C 
ENDBRANCH  10  26
TORSDOF 7
ENDMDL
MODEL 3
REMARK VINA RESULT: -6.445212598      2.681      7.728
REMARK  7 active torsions:
REMARK  status: ('A' for Active; 'I' for Inactive)
REMARK    1  A    between atoms: N2_5  and  C4_6 
REMARK    2  A    between atoms: C4_6  and  C5_7 
REMARK    3  A    between atoms: C5_7  and  C6_8 
REMARK    4  A    between atoms: C6_8  and  C7_9 
REMARK    5  A    between atoms: C7_9  and  N3_10 
REMARK       I    between atoms: N3_10  and  C8_12 
REMARK       I    between atoms: C8_12  and  N5_16 
REMARK    6  A    between atoms: C11_19  and  O1_20 
REMARK    7  A    between atoms: C11_19  and  C12_22 
REMARK       I    between atoms: C12_22  and  N6_24 
ROOT
HETATM    1  N3  UNL     1      -5.265  25.991  -2.760  1.00  0.00    -0.227 N 
ATOM      2  H3  UNL     1      -6.178  25.553  -2.890  1.00  0.00     0.177 HD
HETATM    3  C8  UNL     1      -5.024  26.741  -1.592  1.00  0.00     0.669 C 
HETATM    4  N4  UNL     1      -3.852  27.042  -1.210  1.00  0.00    -0.235 N 
ATOM      5  H41 UNL     1      -3.678  27.585  -0.364  1.00  0.00     0.174 HD
ATOM      6  H42 UNL     1      -3.057  26.733  -1.769  1.00  0.00     0.174 HD
HETATM    7  N5  UNL     1      -6.130  27.172  -0.814  1.00  0.00    -0.218 N 
HETATM    8  C9  UNL     1      -6.235  28.551  -0.478  1.00  0.00     0.144 C 
HETATM    9  C10 UNL     1      -7.232  28.925   0.552  1.00  0.00     0.068 C 
HETATM   10  C11 UNL     1      -7.798  27.705   1.259  1.00  0.00     0.141 C 
HETATM   11  C18 UNL     1      -8.295  26.800   0.129  1.00  0.00     0.068 C 
HETATM   12  C19 UNL     1      -7.067  26.124  -0.431  1.00  0.00     0.144 C 
ENDROOT
BRANCH   1  13
HETATM   13  C7  UNL     1      -4.248  25.825  -3.784  1.00  0.00     0.138 C 
BRANCH  13  14
HETATM   14  C6  UNL     1      -4.886  26.174  -5.114  1.00  0.00     0.022 C 
BRANCH  14  15
HETATM   15  C5  UNL     1      -5.102  27.691  -5.163  1.00  0.00     0.032 C 
BRANCH  15  16
HETATM   16  C4  UNL     1      -6.386  27.905  -5.952  1.00  0.00     0.272 C 
BRANCH  16  17
HETATM   17  N2  UNL     1      -7.457  27.184  -5.315  1.00  0.00     0.091 N 
HETATM   18  C3  UNL     1      -8.491  26.880  -6.257  1.00  0.00     0.302 C 
HETATM   19  C2  UNL     1      -9.362  25.791  -5.651  1.00  0.00     0.302 C 
HETATM   20  N1  UNL     1      -9.290  25.828  -4.223  1.00  0.00     0.087 N 
HETATM   21  C1  UNL     1      -8.361  24.915  -3.635  1.00  0.00     0.310 C 
HETATM   22  C21 UNL     1      -9.234  27.163  -3.714  1.00  0.00     0.302 C 
HETATM   23  C20 UNL     1      -7.934  27.833  -4.124  1.00  0.00     0.302 C 
ENDBRANCH  16  17
ENDBRANCH  15  16
ENDBRANCH  14  15
ENDBRANCH  13  14
ENDBRANCH   1  13
BRANCH  10  24
HETATM   24  O1  UNL     1      -6.731  27.040   1.830  1.00  0.00    -0.380 OA
ATOM     25  H1  UNL     1      -6.878  26.112   1.690  1.00  0.00     0.211 HD
ENDBRANCH  10  24
BRANCH  10  26
HETATM   26  C12 UNL     1      -8.839  28.043   2.199  1.00  0.00     0.254 C 
HETATM   27  O2  UNL     1      -8.531  27.924   3.449  1.00  0.00    -0.270 OA
HETATM   28  N6  UNL     1     -10.143  28.485   1.952  1.00  0.00    -0.350 N 
HETATM   29  C13 UNL     1     -10.788  28.675   0.675  1.00  0.00     0.126 C 
HETATM   30  C17 UNL     1     -11.034  28.853   3.094  1.00  0.00     0.126 C 
HETATM   31  C14 UNL     1     -10.702  30.170   0.393  1.00  0.00     0.020 C 
HETATM   32  C15 UNL     1     -11.102  30.924   1.649  1.00  0.00     0.003 C 
HETATM   33  C16 UNL     1     -11.835  30.060   2.644  1.00  0.00     0.020 C 
ENDBRANCH  10  26
TORSDOF 7
ENDMDL
MODEL 4
REMARK VINA RESULT: -6.443503651      2.545      7.574
REMARK  7 active torsions:
REMARK  status: ('A' for Active; 'I' for Inactive)
REMARK    1  A    between atoms: N2_5  and  C4_6 
REMARK    2  A    between atoms: C4_6  and  C5_7 
REMARK    3  A    between atoms: C5_7  and  C6_8 
REMARK    4  A    between atoms: C6_8  and  C7_9 
REMARK    5  A    between atoms: C7_9  and  N3_10 
REMARK       I    between atoms: N3_10  and  C8_12 
REMARK       I    between atoms: C8_12  and  N5_16 
REMARK    6  A    between atoms: C11_19  and  O1_20 
REMARK    7  A    between atoms: C11_19  and  C12_22 
REMARK       I    between atoms: C12_22  and  N6_24 
ROOT
HETATM    1  N3  UNL     1      -5.834  25.938  -3.227  1.00  0.00    -0.227 N 
ATOM      2  H3  UNL     1      -6.798  25.606  -3.275  1.00  0.00     0.177 HD
HETATM    3  C8  UNL     1      -5.382  26.564  -2.048  1.00  0.00     0.669 C 
HETATM    4  N4  UNL     1      -4.150  26.714  -1.790  1.00  0.00    -0.235 N 
ATOM      5  H41 UNL     1      -3.823  27.168  -0.937  1.00  0.00     0.174 HD
ATOM      6  H42 UNL     1      -3.461  26.371  -2.460  1.00  0.00     0.174 HD
HETATM    7  N5  UNL     1      -6.341  27.042  -1.116  1.00  0.00    -0.218 N 
HETATM    8  C9  UNL     1      -6.255  28.393  -0.678  1.00  0.00     0.144 C 
HETATM    9  C10 UNL     1      -7.082  28.784   0.486  1.00  0.00     0.068 C 
HETATM   10  C11 UNL     1      -7.697  27.576   1.172  1.00  0.00     0.141 C 
HETATM   11  C18 UNL     1      -8.414  26.819   0.053  1.00  0.00     0.068 C 
HETATM   12  C19 UNL     1      -7.338  26.068  -0.695  1.00  0.00     0.144 C 
ENDROOT
BRANCH   1  13
HETATM   13  C7  UNL     1      -4.963  25.752  -4.374  1.00  0.00     0.138 C 
BRANCH  13  14
HETATM   14  C6  UNL     1      -5.704  26.266  -5.592  1.00  0.00     0.022 C 
BRANCH  14  15
HETATM   15  C5  UNL     1      -7.127  25.698  -5.567  1.00  0.00     0.032 C 
BRANCH  15  16
HETATM   16  C4  UNL     1      -8.049  26.863  -5.900  1.00  0.00     0.272 C 
BRANCH  16  17
HETATM   17  N2  UNL     1      -9.044  26.988  -4.866  1.00  0.00     0.091 N 
HETATM   18  C3  UNL     1      -8.626  27.932  -3.875  1.00  0.00     0.302 C 
HETATM   19  C2  UNL     1      -9.852  28.325  -3.066  1.00  0.00     0.302 C 
HETATM   20  N1  UNL     1     -10.833  27.286  -3.105  1.00  0.00     0.087 N 
HETATM   21  C1  UNL     1     -11.864  27.455  -4.080  1.00  0.00     0.310 C 
HETATM   22  C21 UNL     1     -10.248  25.982  -3.061  1.00  0.00     0.302 C 
HETATM   23  C20 UNL     1      -9.443  25.719  -4.322  1.00  0.00     0.302 C 
ENDBRANCH  16  17
ENDBRANCH  15  16
ENDBRANCH  14  15
ENDBRANCH  13  14
ENDBRANCH   1  13
BRANCH  10  24
HETATM   24  O1  UNL     1      -6.653  26.762   1.566  1.00  0.00    -0.380 OA
ATOM     25  H1  UNL     1      -5.938  27.334   1.821  1.00  0.00     0.211 HD
ENDBRANCH  10  24
BRANCH  10  26
HETATM   26  C12 UNL     1      -8.582  27.942   2.251  1.00  0.00     0.254 C 
HETATM   27  O2  UNL     1      -8.148  27.700   3.445  1.00  0.00    -0.270 OA
HETATM   28  N6  UNL     1      -9.852  28.526   2.192  1.00  0.00    -0.350 N 
HETATM   29  C13 UNL     1     -10.615  28.874   1.017  1.00  0.00     0.126 C 
HETATM   30  C17 UNL     1     -10.563  28.893   3.455  1.00  0.00     0.126 C 
HETATM   31  C14 UNL     1     -10.404  30.370   0.822  1.00  0.00     0.020 C 
HETATM   32  C15 UNL     1     -10.576  31.063   2.162  1.00  0.00     0.003 C 
HETATM   33  C16 UNL     1     -11.278  30.202   3.182  1.00  0.00     0.020 C 
ENDBRANCH  10  26
TORSDOF 7
ENDMDL
MODEL 5
REMARK VINA RESULT: -6.407489420      3.369      5.837
REMARK  7 active torsions:
REMARK  status: ('A' for Active; 'I' for Inactive)
REMARK    1  A    between atoms: N2_5  and  C4_6 
REMARK    2  A    between atoms: C4_6  and  C5_7 
REMARK    3  A    between atoms: C5_7  and  C6_8 
REMARK    4  A    between atoms: C6_8  and  C7_9 
REMARK    5  A    between atoms: C7_9  and  N3_10 
REMARK       I    between atoms: N3_10  and  C8_12 
REMARK       I    between atoms: C8_12  and  N5_16 
REMARK    6  A    between atoms: C11_19  and  O1_20 
REMARK    7  A    between atoms: C11_19  and  C12_22 
REMARK       I    between atoms: C12_22  and  N6_24 
ROOT
HETATM    1  N3  UNL     1      -9.960  28.309   2.624  1.00  0.00    -0.227 N 
ATOM      2  H3  UNL     1     -10.801  28.248   2.049  1.00  0.00     0.177 HD
HETATM    3  C8  UNL     1      -8.701  28.114   2.022  1.00  0.00     0.669 C 
HETATM    4  N4  UNL     1      -7.621  28.477   2.578  1.00  0.00    -0.235 N 
ATOM      5  H41 UNL     1      -6.709  28.336   2.142  1.00  0.00     0.174 HD
ATOM      6  H42 UNL     1      -7.664  28.925   3.493  1.00  0.00     0.174 HD
HETATM    7  N5  UNL     1      -8.641  27.491   0.748  1.00  0.00    -0.218 N 
HETATM    8  C9  UNL     1      -7.784  26.368   0.575  1.00  0.00     0.144 C 
HETATM    9  C10 UNL     1      -7.531  25.914  -0.811  1.00  0.00     0.068 C 
HETATM   10  C11 UNL     1      -8.045  26.912  -1.835  1.00  0.00     0.141 C 
HETATM   11  C18 UNL     1      -9.508  27.139  -1.452  1.00  0.00     0.068 C 
HETATM   12  C19 UNL     1      -9.487  28.087  -0.277  1.00  0.00     0.144 C 
ENDROOT
BRANCH   1  13
HETATM   13  C7  UNL     1     -10.092  28.596   4.042  1.00  0.00     0.138 C 
BRANCH  13  14
HETATM   14  C6  UNL     1     -11.432  29.272   4.244  1.00  0.00     0.022 C 
BRANCH  14  15
HETATM   15  C5  UNL     1     -12.364  28.291   4.964  1.00  0.00     0.032 C 
BRANCH  15  16
HETATM   16  C4  UNL     1     -13.779  28.686   4.561  1.00  0.00     0.272 C 
BRANCH  16  17
HETATM   17  N2  UNL     1     -14.665  27.577   4.805  1.00  0.00     0.091 N 
HETATM   18  C3  UNL     1     -15.010  27.501   6.192  1.00  0.00     0.302 C 
HETATM   19  C2  UNL     1     -16.234  26.609   6.315  1.00  0.00     0.302 C 
HETATM   20  N1  UNL     1     -16.302  25.695   5.218  1.00  0.00     0.087 N 
HETATM   21  C1  UNL     1     -17.147  26.099   4.139  1.00  0.00     0.310 C 
HETATM   22  C21 UNL     1     -15.014  25.211   4.831  1.00  0.00     0.302 C 
HETATM   23  C20 UNL     1     -14.170  26.340   4.264  1.00  0.00     0.302 C 
ENDBRANCH  16  17
ENDBRANCH  15  16
ENDBRANCH  14  15
ENDBRANCH  13  14
ENDBRANCH   1  13
BRANCH  10  24
HETATM   24  O1  UNL     1      -7.402  28.109  -1.587  1.00  0.00    -0.380 OA
ATOM     25  H1  UNL     1      -7.387  28.589  -2.406  1.00  0.00     0.211 HD
ENDBRANCH  10  24
BRANCH  10  26
HETATM   26  C12 UNL     1      -7.892  26.444  -3.191  1.00  0.00     0.254 C 
HETATM   27  O2  UNL     1      -8.949  26.511  -3.934  1.00  0.00    -0.270 OA
HETATM   28  N6  UNL     1      -6.758  25.925  -3.824  1.00  0.00    -0.350 N 
HETATM   29  C13 UNL     1      -5.453  25.690  -3.254  1.00  0.00     0.126 C 
HETATM   30  C17 UNL     1      -6.810  25.570  -5.275  1.00  0.00     0.126 C 
HETATM   31  C14 UNL     1      -4.602  26.880  -3.680  1.00  0.00     0.020 C 
HETATM   32  C15 UNL     1      -4.831  27.134  -5.159  1.00  0.00     0.003 C 
HETATM   33  C16 UNL     1      -5.470  25.965  -5.864  1.00  0.00     0.020 C 
ENDBRANCH  10  26
TORSDOF 7
ENDMDL
