MODEL 1
REMARK VINA RESULT: -7.826957338      0.000      0.000
REMARK  7 active torsions:
REMARK  status: ('A' for Active; 'I' for Inactive)
REMARK    1  A    between atoms: C3_4  and  N2_5 
REMARK    2  A    between atoms: C4_6  and  C5_7 
REMARK    3  A    between atoms: C5_7  and  N3_8 
REMARK    4  A    between atoms: C7_14  and  C8_15 
REMARK    5  A    between atoms: C8_15  and  O3_16 
REMARK    6  A    between atoms: C9_18  and  S1_19 
REMARK    7  A    between atoms: C11_27  and  N7_28 
ROOT
HETATM    1  N1  UNL     1      15.911   7.833  10.879  1.00  0.00    -0.191 NA
HETATM    2  C1  UNL     1      16.743   7.661  11.648  1.00  0.00     0.107 C 
HETATM    3  C2  UNL     1      17.754   7.442  12.628  1.00  0.00     0.132 A 
HETATM    4  C3  UNL     1      18.173   6.203  12.987  1.00  0.00     0.136 A 
HETATM    5  N5  UNL     1      19.143   6.172  13.957  1.00  0.00    -0.337 N 
ATOM      6  H5  UNL     1      19.497   5.267  14.268  1.00  0.00     0.168 HD
HETATM    7  C10 UNL     1      19.642   7.290  14.513  1.00  0.00     0.183 A 
HETATM    8  N6  UNL     1      19.225   8.517  14.157  1.00  0.00    -0.338 N 
ATOM      9  H6  UNL     1      19.616   9.353  14.591  1.00  0.00     0.168 HD
HETATM   10  C11 UNL     1      18.283   8.605  13.215  1.00  0.00     0.124 A 
ENDROOT
BRANCH   4  11
HETATM   11  N2  UNL     1      17.769   4.953  12.503  1.00  0.00    -0.299 N 
HETATM   12  C4  UNL     1      17.362   3.919  13.427  1.00  0.00     0.106 C 
HETATM   13  N4  UNL     1      17.666   2.700  13.082  1.00  0.00    -0.377 N 
HETATM   14  C6  UNL     1      18.347   2.273  11.911  1.00  0.00     0.130 C 
ATOM     15  H4  UNL     1      17.382   1.965  13.730  1.00  0.00     0.160 HD
HETATM   16  C7  UNL     1      18.742   3.340  10.953  1.00  0.00     0.066 C 
HETATM   17  C9  UNL     1      17.818   4.544  11.116  1.00  0.00     0.238 C 
BRANCH  12  18
HETATM   18  C5  UNL     1      16.660   4.171  14.694  1.00  0.00     0.277 C 
BRANCH  18  19
HETATM   19  N3  UNL     1      16.881   3.246  15.745  1.00  0.00    -0.148 N 
HETATM   20  O1  UNL     1      17.979   3.127  16.296  1.00  0.00    -0.536 OA
HETATM   21  O2  UNL     1      15.848   2.454  16.173  1.00  0.00    -0.536 OA
ENDBRANCH  18  19
ENDBRANCH  12  18
BRANCH  16  22
HETATM   22  C8  UNL     1      20.191   3.650  10.934  1.00  0.00     0.173 C 
BRANCH  22  23
HETATM   23  O3  UNL     1      20.424   4.304   9.693  1.00  0.00    -0.400 OA
ATOM     24  H3  UNL     1      20.199   5.215   9.838  1.00  0.00     0.209 HD
ENDBRANCH  22  23
ENDBRANCH  16  22
BRANCH  17  25
HETATM   25  S1  UNL     1      16.291   4.061  10.404  1.00  0.00     0.275 S 
HETATM   26  O4  UNL     1      16.038   2.441  10.232  1.00  0.00    -0.210 OA
HETATM   27  O5  UNL     1      14.973   4.736  11.180  1.00  0.00    -0.210 OA
ENDBRANCH  17  25
ENDBRANCH   4  11
BRANCH  10  28
HETATM   28  N7  UNL     1      17.887   9.773  12.877  1.00  0.00    -0.384 N 
ATOM     29  H72 UNL     1      17.657   9.930  11.896  1.00  0.00     0.157 HD
ATOM     30  H71 UNL     1      17.802  10.530  13.555  1.00  0.00     0.157 HD
ENDBRANCH  10  28
TORSDOF 7
ENDMDL
MODEL 2
REMARK VINA RESULT: -7.655192376      1.192      1.362
REMARK  7 active torsions:
REMARK  status: ('A' for Active; 'I' for Inactive)
REMARK    1  A    between atoms: C3_4  and  N2_5 
REMARK    2  A    between atoms: C4_6  and  C5_7 
REMARK    3  A    between atoms: C5_7  and  N3_8 
REMARK    4  A    between atoms: C7_14  and  C8_15 
REMARK    5  A    between atoms: C8_15  and  O3_16 
REMARK    6  A    between atoms: C9_18  and  S1_19 
REMARK    7  A    between atoms: C11_27  and  N7_28 
ROOT
HETATM    1  N1  UNL     1      15.277   7.536  13.940  1.00  0.00    -0.191 NA
HETATM    2  C1  UNL     1      16.421   7.499  13.878  1.00  0.00     0.107 C 
HETATM    3  C2  UNL     1      17.844   7.432  13.826  1.00  0.00     0.132 A 
HETATM    4  C3  UNL     1      18.510   6.418  13.219  1.00  0.00     0.136 A 
HETATM    5  N5  UNL     1      19.878   6.501  13.277  1.00  0.00    -0.337 N 
ATOM      6  H5  UNL     1      20.433   5.766  12.837  1.00  0.00     0.168 HD
HETATM    7  C10 UNL     1      20.513   7.514  13.891  1.00  0.00     0.183 A 
HETATM    8  N6  UNL     1      19.851   8.518  14.492  1.00  0.00    -0.338 N 
ATOM      9  H6  UNL     1      20.352   9.277  14.953  1.00  0.00     0.168 HD
HETATM   10  C11 UNL     1      18.517   8.487  14.465  1.00  0.00     0.124 A 
ENDROOT
BRANCH   4  11
HETATM   11  N2  UNL     1      18.004   5.307  12.533  1.00  0.00    -0.299 N 
HETATM   12  C4  UNL     1      17.544   4.152  13.271  1.00  0.00     0.106 C 
HETATM   13  N4  UNL     1      17.750   2.999  12.703  1.00  0.00    -0.377 N 
HETATM   14  C6  UNL     1      18.370   2.746  11.450  1.00  0.00     0.130 C 
ATOM     15  H4  UNL     1      17.427   2.180  13.218  1.00  0.00     0.160 HD
HETATM   16  C7  UNL     1      18.820   3.940  10.685  1.00  0.00     0.066 C 
HETATM   17  C9  UNL     1      17.991   5.154  11.095  1.00  0.00     0.238 C 
BRANCH  12  18
HETATM   18  C5  UNL     1      16.891   4.218  14.587  1.00  0.00     0.277 C 
BRANCH  18  19
HETATM   19  N3  UNL     1      17.065   3.103  15.446  1.00  0.00    -0.148 N 
HETATM   20  O1  UNL     1      16.372   2.087  15.351  1.00  0.00    -0.536 OA
HETATM   21  O2  UNL     1      18.032   3.145  16.415  1.00  0.00    -0.536 OA
ENDBRANCH  18  19
ENDBRANCH  12  18
BRANCH  16  22
HETATM   22  C8  UNL     1      20.287   4.149  10.670  1.00  0.00     0.173 C 
BRANCH  22  23
HETATM   23  O3  UNL     1      20.578   4.720   9.400  1.00  0.00    -0.400 OA
ATOM     24  H3  UNL     1      21.435   5.119   9.490  1.00  0.00     0.209 HD
ENDBRANCH  22  23
ENDBRANCH  16  22
BRANCH  17  25
HETATM   25  S1  UNL     1      16.417   4.913  10.362  1.00  0.00     0.275 S 
HETATM   26  O4  UNL     1      15.530   3.642  10.922  1.00  0.00    -0.210 OA
HETATM   27  O5  UNL     1      15.470   6.291  10.396  1.00  0.00    -0.210 OA
ENDBRANCH  17  25
ENDBRANCH   4  11
BRANCH  10  28
HETATM   28  N7  UNL     1      17.890   9.443  15.038  1.00  0.00    -0.384 N 
ATOM     29  H72 UNL     1      18.133   9.657  16.005  1.00  0.00     0.157 HD
ATOM     30  H71 UNL     1      17.168   9.979  14.556  1.00  0.00     0.157 HD
ENDBRANCH  10  28
TORSDOF 7
ENDMDL
MODEL 3
REMARK VINA RESULT: -7.408038743      2.958      4.833
REMARK  7 active torsions:
REMARK  status: ('A' for Active; 'I' for Inactive)
REMARK    1  A    between atoms: C3_4  and  N2_5 
REMARK    2  A    between atoms: C4_6  and  C5_7 
REMARK    3  A    between atoms: C5_7  and  N3_8 
REMARK    4  A    between atoms: C7_14  and  C8_15 
REMARK    5  A    between atoms: C8_15  and  O3_16 
REMARK    6  A    between atoms: C9_18  and  S1_19 
REMARK    7  A    between atoms: C11_27  and  N7_28 
ROOT
HETATM    1  N1  UNL     1      14.830   4.619  10.947  1.00  0.00    -0.191 NA
HETATM    2  C1  UNL     1      15.940   4.365  11.078  1.00  0.00     0.107 C 
HETATM    3  C2  UNL     1      17.328   4.076  11.223  1.00  0.00     0.132 A 
HETATM    4  C3  UNL     1      18.118   4.700  12.132  1.00  0.00     0.136 A 
HETATM    5  N5  UNL     1      19.434   4.313  12.126  1.00  0.00    -0.337 N 
ATOM      6  H5  UNL     1      20.077   4.747  12.788  1.00  0.00     0.168 HD
HETATM    7  C10 UNL     1      19.907   3.382  11.278  1.00  0.00     0.183 A 
HETATM    8  N6  UNL     1      19.123   2.765  10.378  1.00  0.00    -0.338 N 
ATOM      9  H6  UNL     1      19.501   2.062   9.744  1.00  0.00     0.168 HD
HETATM   10  C11 UNL     1      17.832   3.104  10.342  1.00  0.00     0.124 A 
ENDROOT
BRANCH   4  11
HETATM   11  N2  UNL     1      17.782   5.671  13.083  1.00  0.00    -0.299 N 
HETATM   12  C4  UNL     1      16.885   5.340  14.167  1.00  0.00     0.106 C 
HETATM   13  N4  UNL     1      16.093   6.297  14.558  1.00  0.00    -0.377 N 
HETATM   14  C6  UNL     1      16.008   7.619  14.045  1.00  0.00     0.130 C 
ATOM     15  H4  UNL     1      15.457   6.070  15.323  1.00  0.00     0.160 HD
HETATM   16  C7  UNL     1      16.949   7.960  12.945  1.00  0.00     0.066 C 
HETATM   17  C9  UNL     1      18.180   7.061  13.026  1.00  0.00     0.238 C 
BRANCH  12  18
HETATM   18  C5  UNL     1      16.822   4.022  14.814  1.00  0.00     0.277 C 
BRANCH  18  19
HETATM   19  N3  UNL     1      17.249   3.948  16.164  1.00  0.00    -0.148 N 
HETATM   20  O1  UNL     1      18.439   3.842  16.471  1.00  0.00    -0.536 OA
HETATM   21  O2  UNL     1      16.319   3.997  17.168  1.00  0.00    -0.536 OA
ENDBRANCH  18  19
ENDBRANCH  12  18
BRANCH  16  22
HETATM   22  C8  UNL     1      16.325   8.063  11.605  1.00  0.00     0.173 C 
BRANCH  22  23
HETATM   23  O3  UNL     1      15.334   9.077  11.723  1.00  0.00    -0.400 OA
ATOM     24  H3  UNL     1      14.593   8.661  12.145  1.00  0.00     0.209 HD
ENDBRANCH  22  23
ENDBRANCH  16  22
BRANCH  17  25
HETATM   25  S1  UNL     1      19.101   7.652  14.394  1.00  0.00     0.275 S 
HETATM   26  O4  UNL     1      19.939   6.527  15.261  1.00  0.00    -0.210 OA
HETATM   27  O5  UNL     1      20.135   8.901  13.987  1.00  0.00    -0.210 OA
ENDBRANCH  17  25
ENDBRANCH   4  11
BRANCH  10  28
HETATM   28  N7  UNL     1      17.088   2.516   9.484  1.00  0.00    -0.384 N 
ATOM     29  H72 UNL     1      16.582   3.099   8.818  1.00  0.00     0.157 HD
ATOM     30  H71 UNL     1      16.994   1.500   9.458  1.00  0.00     0.157 HD
ENDBRANCH  10  28
TORSDOF 7
ENDMDL
MODEL 4
REMARK VINA RESULT: -7.350433240      1.988      4.282
REMARK  7 active torsions:
REMARK  status: ('A' for Active; 'I' for Inactive)
REMARK    1  A    between atoms: C3_4  and  N2_5 
REMARK    2  A    between atoms: C4_6  and  C5_7 
REMARK    3  A    between atoms: C5_7  and  N3_8 
REMARK    4  A    between atoms: C7_14  and  C8_15 
REMARK    5  A    between atoms: C8_15  and  O3_16 
REMARK    6  A    between atoms: C9_18  and  S1_19 
REMARK    7  A    between atoms: C11_27  and  N7_28 
ROOT
HETATM    1  N1  UNL     1      17.788   7.778  14.378  1.00  0.00    -0.191 NA
HETATM    2  C1  UNL     1      17.453   7.589  13.298  1.00  0.00     0.107 C 
HETATM    3  C2  UNL     1      17.068   7.357  11.945  1.00  0.00     0.132 A 
HETATM    4  C3  UNL     1      17.184   6.146  11.346  1.00  0.00     0.136 A 
HETATM    5  N5  UNL     1      16.783   6.102  10.035  1.00  0.00    -0.337 N 
ATOM      6  H5  UNL     1      16.848   5.218   9.531  1.00  0.00     0.168 HD
HETATM    7  C10 UNL     1      16.308   7.183   9.390  1.00  0.00     0.183 A 
HETATM    8  N6  UNL     1      16.194   8.382   9.986  1.00  0.00    -0.338 N 
ATOM      9  H6  UNL     1      15.832   9.189   9.479  1.00  0.00     0.168 HD
HETATM   10  C11 UNL     1      16.570   8.481  11.263  1.00  0.00     0.124 A 
ENDROOT
BRANCH   4  11
HETATM   11  N2  UNL     1      17.643   4.933  11.874  1.00  0.00    -0.299 N 
HETATM   12  C4  UNL     1      19.032   4.561  11.722  1.00  0.00     0.106 C 
HETATM   13  N4  UNL     1      19.262   3.288  11.567  1.00  0.00    -0.377 N 
HETATM   14  C6  UNL     1      18.313   2.232  11.530  1.00  0.00     0.130 C 
ATOM     15  H4  UNL     1      20.240   3.018  11.460  1.00  0.00     0.160 HD
HETATM   16  C7  UNL     1      16.889   2.619  11.710  1.00  0.00     0.066 C 
HETATM   17  C9  UNL     1      16.808   3.928  12.492  1.00  0.00     0.238 C 
BRANCH  12  18
HETATM   18  C5  UNL     1      20.150   5.515  11.723  1.00  0.00     0.277 C 
BRANCH  18  19
HETATM   19  N3  UNL     1      21.066   5.432  10.644  1.00  0.00    -0.148 N 
HETATM   20  O1  UNL     1      22.187   5.943  10.694  1.00  0.00    -0.536 OA
HETATM   21  O2  UNL     1      20.704   4.763   9.504  1.00  0.00    -0.536 OA
ENDBRANCH  18  19
ENDBRANCH  12  18
BRANCH  16  22
HETATM   22  C8  UNL     1      16.072   2.568  10.475  1.00  0.00     0.173 C 
BRANCH  22  23
HETATM   23  O3  UNL     1      16.955   2.923   9.418  1.00  0.00    -0.400 OA
ATOM     24  H3  UNL     1      16.429   3.420   8.803  1.00  0.00     0.209 HD
ENDBRANCH  22  23
ENDBRANCH  16  22
BRANCH  17  25
HETATM   25  S1  UNL     1      17.208   3.508  14.146  1.00  0.00     0.275 S 
HETATM   26  O4  UNL     1      16.859   4.634  15.298  1.00  0.00    -0.210 OA
HETATM   27  O5  UNL     1      16.565   2.037  14.614  1.00  0.00    -0.210 OA
ENDBRANCH  17  25
ENDBRANCH   4  11
BRANCH  10  28
HETATM   28  N7  UNL     1      16.460   9.622  11.828  1.00  0.00    -0.384 N 
ATOM     29  H72 UNL     1      16.834   9.722  12.771  1.00  0.00     0.157 HD
ATOM     30  H71 UNL     1      16.017  10.414  11.362  1.00  0.00     0.157 HD
ENDBRANCH  10  28
TORSDOF 7
ENDMDL
MODEL 5
REMARK VINA RESULT: -7.323867060      2.728      4.570
REMARK  7 active torsions:
REMARK  status: ('A' for Active; 'I' for Inactive)
REMARK    1  A    between atoms: C3_4  and  N2_5 
REMARK    2  A    between atoms: C4_6  and  C5_7 
REMARK    3  A    between atoms: C5_7  and  N3_8 
REMARK    4  A    between atoms: C7_14  and  C8_15 
REMARK    5  A    between atoms: C8_15  and  O3_16 
REMARK    6  A    between atoms: C9_18  and  S1_19 
REMARK    7  A    between atoms: C11_27  and  N7_28 
ROOT
HETATM    1  N1  UNL     1      14.539   7.478  15.075  1.00  0.00    -0.191 NA
HETATM    2  C1  UNL     1      15.157   6.514  15.031  1.00  0.00     0.107 C 
HETATM    3  C2  UNL     1      15.903   5.302  14.955  1.00  0.00     0.132 A 
HETATM    4  C3  UNL     1      16.755   5.026  13.936  1.00  0.00     0.136 A 
HETATM    5  N5  UNL     1      17.379   3.807  14.011  1.00  0.00    -0.337 N 
ATOM      6  H5  UNL     1      18.032   3.543  13.272  1.00  0.00     0.168 HD
HETATM    7  C10 UNL     1      17.163   2.947  15.021  1.00  0.00     0.183 A 
HETATM    8  N6  UNL     1      16.318   3.222  16.030  1.00  0.00    -0.338 N 
ATOM      9  H6  UNL     1      16.168   2.555  16.787  1.00  0.00     0.168 HD
HETATM   10  C11 UNL     1      15.684   4.396  16.007  1.00  0.00     0.124 A 
ENDROOT
BRANCH   4  11
HETATM   11  N2  UNL     1      17.097   5.809  12.827  1.00  0.00    -0.299 N 
HETATM   12  C4  UNL     1      17.067   5.233  11.501  1.00  0.00     0.106 C 
HETATM   13  N4  UNL     1      17.975   5.667  10.675  1.00  0.00    -0.377 N 
HETATM   14  C6  UNL     1      18.986   6.635  10.925  1.00  0.00     0.130 C 
ATOM     15  H4  UNL     1      17.960   5.265   9.738  1.00  0.00     0.160 HD
HETATM   16  C7  UNL     1      18.996   7.240  12.283  1.00  0.00     0.066 C 
HETATM   17  C9  UNL     1      17.598   7.164  12.890  1.00  0.00     0.238 C 
BRANCH  12  18
HETATM   18  C5  UNL     1      16.104   4.212  11.064  1.00  0.00     0.277 C 
BRANCH  18  19
HETATM   19  N3  UNL     1      16.636   2.970  10.633  1.00  0.00    -0.148 N 
HETATM   20  O1  UNL     1      16.969   2.770   9.462  1.00  0.00    -0.536 OA
HETATM   21  O2  UNL     1      16.790   1.954  11.538  1.00  0.00    -0.536 OA
ENDBRANCH  18  19
ENDBRANCH  12  18
BRANCH  16  22
HETATM   22  C8  UNL     1      20.094   6.772  13.161  1.00  0.00     0.173 C 
BRANCH  22  23
HETATM   23  O3  UNL     1      20.622   5.613  12.527  1.00  0.00    -0.400 OA
ATOM     24  H3  UNL     1      21.566   5.690  12.601  1.00  0.00     0.209 HD
ENDBRANCH  22  23
ENDBRANCH  16  22
BRANCH  17  25
HETATM   25  S1  UNL     1      16.654   8.371  12.039  1.00  0.00     0.275 S 
HETATM   26  O4  UNL     1      17.480   9.669  11.446  1.00  0.00    -0.210 OA
HETATM   27  O5  UNL     1      15.721   7.718  10.815  1.00  0.00    -0.210 OA
ENDBRANCH  17  25
ENDBRANCH   4  11
BRANCH  10  28
HETATM   28  N7  UNL     1      14.881   4.656  16.968  1.00  0.00    -0.384 N 
ATOM     29  H72 UNL     1      14.778   5.631  17.248  1.00  0.00     0.157 HD
ATOM     30  H71 UNL     1      14.357   3.923  17.446  1.00  0.00     0.157 HD
ENDBRANCH  10  28
TORSDOF 7
ENDMDL
