MODEL 1
REMARK VINA RESULT: -7.421843357      0.000      0.000
REMARK  6 active torsions:
REMARK  status: ('A' for Active; 'I' for Inactive)
REMARK    1  A    between atoms: C2_3  and  C3_4 
REMARK    2  A    between atoms: C2_3  and  N5_12 
REMARK    3  A    between atoms: C3_4  and  N2_5 
REMARK    4  A    between atoms: C7_14  and  C8_15 
REMARK    5  A    between atoms: C8_15  and  N6_16 
REMARK    6  A    between atoms: N6_16  and  C9_18 
ROOT
HETATM    1  N1  UNL     1      15.393   7.567   9.967  1.00  0.00    -0.195 NA
HETATM    2  C1  UNL     1      16.017   6.599  10.204  1.00  0.00     0.087 C 
HETATM    3  C2  UNL     1      16.792   5.391  10.477  1.00  0.00     0.221 C 
ENDROOT
BRANCH   3   4
HETATM    4  C3  UNL     1      15.893   4.283  10.979  1.00  0.00     0.190 C 
BRANCH   4   5
HETATM    5  N2  UNL     1      16.686   3.063  11.142  1.00  0.00    -0.284 N 
HETATM    6  C4  UNL     1      17.387   2.516  10.141  1.00  0.00     0.201 A 
HETATM    7  N3  UNL     1      17.983   1.425  10.641  1.00  0.00    -0.346 N 
HETATM    8  C5  UNL     1      17.635   1.326  11.929  1.00  0.00     0.198 A 
ATOM      9  H3  UNL     1      18.592   0.785  10.132  1.00  0.00     0.167 HD
HETATM   10  N4  UNL     1      16.829   2.343  12.242  1.00  0.00    -0.293 N 
ATOM     11  H4  UNL     1      16.407   2.528  13.152  1.00  0.00     0.188 HD
ENDBRANCH   4   5
ENDBRANCH   3   4
BRANCH   3  12
HETATM   12  N5  UNL     1      17.798   5.676  11.477  1.00  0.00    -0.287 N 
HETATM   13  C6  UNL     1      17.417   5.830  12.770  1.00  0.00     0.125 A 
HETATM   14  C7  UNL     1      18.365   6.104  13.735  1.00  0.00     0.059 A 
HETATM   15  N10 UNL     1      19.647   6.204  13.332  1.00  0.00    -0.298 N 
HETATM   16  N11 UNL     1      19.988   6.047  12.053  1.00  0.00    -0.251 N 
ATOM     17  H10 UNL     1      20.372   6.406  14.020  1.00  0.00     0.187 HD
HETATM   18  C11 UNL     1      19.083   5.781  11.092  1.00  0.00     0.342 A 
ATOM     19  H11 UNL     1      20.970   6.131  11.793  1.00  0.00     0.191 HD
HETATM   20  O2  UNL     1      19.414   5.631   9.876  1.00  0.00    -0.245 OA
BRANCH  14  21
HETATM   21  C8  UNL     1      18.001   6.282  15.165  1.00  0.00     0.198 C 
BRANCH  21  22
HETATM   22  N6  UNL     1      18.273   5.076  15.901  1.00  0.00    -0.219 N 
ATOM     23  H6  UNL     1      19.166   5.007  16.389  1.00  0.00     0.178 HD
BRANCH  22  24
HETATM   24  C9  UNL     1      17.462   4.077  15.984  1.00  0.00     0.697 A 
HETATM   25  N7  UNL     1      17.649   2.796  15.639  1.00  0.00    -0.128 N 
HETATM   26  N8  UNL     1      16.532   2.145  15.910  1.00  0.00    -0.237 N 
ATOM     27  H7  UNL     1      18.498   2.397  15.239  1.00  0.00     0.205 HD
HETATM   28  C10 UNL     1      15.645   3.017  16.425  1.00  0.00     0.353 A 
ATOM     29  H8  UNL     1      16.370   1.149  15.756  1.00  0.00     0.192 HD
HETATM   30  O1  UNL     1      14.463   2.712  16.796  1.00  0.00    -0.245 OA
HETATM   31  N9  UNL     1      16.217   4.220  16.474  1.00  0.00    -0.139 N 
ATOM     32  H9  UNL     1      15.793   5.082  16.816  1.00  0.00     0.189 HD
ENDBRANCH  22  24
ENDBRANCH  21  22
ENDBRANCH  14  21
ENDBRANCH   3  12
TORSDOF 6
ENDMDL
MODEL 2
REMARK VINA RESULT: -7.277823993      0.756      1.147
REMARK  6 active torsions:
REMARK  status: ('A' for Active; 'I' for Inactive)
REMARK    1  A    between atoms: C2_3  and  C3_4 
REMARK    2  A    between atoms: C2_3  and  N5_12 
REMARK    3  A    between atoms: C3_4  and  N2_5 
REMARK    4  A    between atoms: C7_14  and  C8_15 
REMARK    5  A    between atoms: C8_15  and  N6_16 
REMARK    6  A    between atoms: N6_16  and  C9_18 
ROOT
HETATM    1  N1  UNL     1      15.415   7.486   9.954  1.00  0.00    -0.195 NA
HETATM    2  C1  UNL     1      16.084   6.543  10.166  1.00  0.00     0.087 C 
HETATM    3  C2  UNL     1      16.914   5.365  10.408  1.00  0.00     0.221 C 
ENDROOT
BRANCH   3   4
HETATM    4  C3  UNL     1      16.079   4.226  10.947  1.00  0.00     0.190 C 
BRANCH   4   5
HETATM    5  N2  UNL     1      16.922   3.035  11.074  1.00  0.00    -0.284 N 
HETATM    6  C4  UNL     1      16.969   2.297  12.189  1.00  0.00     0.201 A 
HETATM    7  N3  UNL     1      17.831   1.298  11.953  1.00  0.00    -0.346 N 
HETATM    8  C5  UNL     1      18.291   1.446  10.706  1.00  0.00     0.198 A 
ATOM      9  H3  UNL     1      18.090   0.559  12.606  1.00  0.00     0.167 HD
HETATM   10  N4  UNL     1      17.727   2.524  10.157  1.00  0.00    -0.293 N 
ATOM     11  H4  UNL     1      17.886   2.883   9.216  1.00  0.00     0.188 HD
ENDBRANCH   4   5
ENDBRANCH   3   4
BRANCH   3  12
HETATM   12  N5  UNL     1      17.948   5.690  11.365  1.00  0.00    -0.287 N 
HETATM   13  C6  UNL     1      17.617   5.829  12.673  1.00  0.00     0.125 A 
HETATM   14  C7  UNL     1      18.593   6.140  13.599  1.00  0.00     0.059 A 
HETATM   15  N10 UNL     1      19.851   6.291  13.142  1.00  0.00    -0.298 N 
HETATM   16  N11 UNL     1      20.144   6.148  11.850  1.00  0.00    -0.251 N 
ATOM     17  H10 UNL     1      20.596   6.521  13.800  1.00  0.00     0.187 HD
HETATM   18  C11 UNL     1      19.212   5.846  10.927  1.00  0.00     0.342 A 
ATOM     19  H11 UNL     1      21.111   6.271  11.549  1.00  0.00     0.191 HD
HETATM   20  O2  UNL     1      19.497   5.710   9.698  1.00  0.00    -0.245 OA
BRANCH  14  21
HETATM   21  C8  UNL     1      18.281   6.303  15.043  1.00  0.00     0.198 C 
BRANCH  21  22
HETATM   22  N6  UNL     1      18.178   5.016  15.677  1.00  0.00    -0.219 N 
ATOM     23  H6  UNL     1      19.042   4.518  15.889  1.00  0.00     0.178 HD
BRANCH  22  24
HETATM   24  C9  UNL     1      17.063   4.450  15.996  1.00  0.00     0.697 A 
HETATM   25  N7  UNL     1      15.813   4.925  15.918  1.00  0.00    -0.128 N 
HETATM   26  N8  UNL     1      15.002   3.980  16.358  1.00  0.00    -0.237 N 
ATOM     27  H7  UNL     1      15.538   5.848  15.580  1.00  0.00     0.205 HD
HETATM   28  C10 UNL     1      15.742   2.914  16.712  1.00  0.00     0.353 A 
ATOM     29  H8  UNL     1      13.985   4.048  16.419  1.00  0.00     0.192 HD
HETATM   30  O1  UNL     1      15.267   1.826  17.180  1.00  0.00    -0.245 OA
HETATM   31  N9  UNL     1      17.026   3.199  16.490  1.00  0.00    -0.139 N 
ATOM     32  H9  UNL     1      17.824   2.588  16.661  1.00  0.00     0.189 HD
ENDBRANCH  22  24
ENDBRANCH  21  22
ENDBRANCH  14  21
ENDBRANCH   3  12
TORSDOF 6
ENDMDL
MODEL 3
REMARK VINA RESULT: -6.984119578      1.729      3.332
REMARK  6 active torsions:
REMARK  status: ('A' for Active; 'I' for Inactive)
REMARK    1  A    between atoms: C2_3  and  C3_4 
REMARK    2  A    between atoms: C2_3  and  N5_12 
REMARK    3  A    between atoms: C3_4  and  N2_5 
REMARK    4  A    between atoms: C7_14  and  C8_15 
REMARK    5  A    between atoms: C8_15  and  N6_16 
REMARK    6  A    between atoms: N6_16  and  C9_18 
ROOT
HETATM    1  N1  UNL     1      16.170   2.460  10.555  1.00  0.00    -0.195 NA
HETATM    2  C1  UNL     1      16.994   3.295  10.611  1.00  0.00     0.087 C 
HETATM    3  C2  UNL     1      18.027   4.329  10.660  1.00  0.00     0.221 C 
ENDROOT
BRANCH   3   4
HETATM    4  C3  UNL     1      19.214   3.857  11.468  1.00  0.00     0.190 C 
BRANCH   4   5
HETATM    5  N2  UNL     1      20.341   4.761  11.231  1.00  0.00    -0.284 N 
HETATM    6  C4  UNL     1      20.848   4.982  10.012  1.00  0.00     0.201 A 
HETATM    7  N3  UNL     1      21.856   5.852  10.166  1.00  0.00    -0.346 N 
HETATM    8  C5  UNL     1      21.945   6.142  11.469  1.00  0.00     0.198 A 
ATOM      9  H3  UNL     1      22.448   6.226   9.425  1.00  0.00     0.167 HD
HETATM   10  N4  UNL     1      21.005   5.466  12.132  1.00  0.00    -0.293 N 
ATOM     11  H4  UNL     1      20.832   5.489  13.137  1.00  0.00     0.188 HD
ENDBRANCH   4   5
ENDBRANCH   3   4
BRANCH   3  12
HETATM   12  N5  UNL     1      17.485   5.525  11.265  1.00  0.00    -0.287 N 
HETATM   13  C6  UNL     1      17.076   5.484  12.557  1.00  0.00     0.125 A 
HETATM   14  C7  UNL     1      16.557   6.618  13.149  1.00  0.00     0.059 A 
HETATM   15  N10 UNL     1      16.483   7.731  12.393  1.00  0.00    -0.298 N 
HETATM   16  N11 UNL     1      16.894   7.739  11.125  1.00  0.00    -0.251 N 
ATOM     17  H10 UNL     1      16.104   8.586  12.799  1.00  0.00     0.187 HD
HETATM   18  C11 UNL     1      17.403   6.647  10.524  1.00  0.00     0.342 A 
ATOM     19  H11 UNL     1      16.820   8.604  10.590  1.00  0.00     0.191 HD
HETATM   20  O2  UNL     1      17.794   6.660   9.317  1.00  0.00    -0.245 OA
BRANCH  14  21
HETATM   21  C8  UNL     1      16.094   6.625  14.562  1.00  0.00     0.198 C 
BRANCH  21  22
HETATM   22  N6  UNL     1      16.604   5.474  15.257  1.00  0.00    -0.219 N 
ATOM     23  H6  UNL     1      17.606   5.292  15.206  1.00  0.00     0.178 HD
BRANCH  22  24
HETATM   24  C9  UNL     1      15.876   4.656  15.940  1.00  0.00     0.697 A 
HETATM   25  N7  UNL     1      14.648   4.828  16.447  1.00  0.00    -0.128 N 
HETATM   26  N8  UNL     1      14.317   3.710  17.069  1.00  0.00    -0.237 N 
ATOM     27  H7  UNL     1      14.075   5.667  16.368  1.00  0.00     0.205 HD
HETATM   28  C10 UNL     1      15.336   2.839  16.952  1.00  0.00     0.353 A 
ATOM     29  H8  UNL     1      13.437   3.537  17.556  1.00  0.00     0.192 HD
HETATM   30  O1  UNL     1      15.341   1.660  17.440  1.00  0.00    -0.245 OA
HETATM   31  N9  UNL     1      16.310   3.421  16.250  1.00  0.00    -0.139 N 
ATOM     32  H9  UNL     1      17.208   3.010  15.999  1.00  0.00     0.189 HD
ENDBRANCH  22  24
ENDBRANCH  21  22
ENDBRANCH  14  21
ENDBRANCH   3  12
TORSDOF 6
ENDMDL
MODEL 4
REMARK VINA RESULT: -6.966990402      1.685      2.162
REMARK  6 active torsions:
REMARK  status: ('A' for Active; 'I' for Inactive)
REMARK    1  A    between atoms: C2_3  and  C3_4 
REMARK    2  A    between atoms: C2_3  and  N5_12 
REMARK    3  A    between atoms: C3_4  and  N2_5 
REMARK    4  A    between atoms: C7_14  and  C8_15 
REMARK    5  A    between atoms: C8_15  and  N6_16 
REMARK    6  A    between atoms: N6_16  and  C9_18 
ROOT
HETATM    1  N1  UNL     1      18.146   7.502   9.075  1.00  0.00    -0.195 NA
HETATM    2  C1  UNL     1      18.178   6.612   9.843  1.00  0.00     0.087 C 
HETATM    3  C2  UNL     1      18.232   5.495  10.783  1.00  0.00     0.221 C 
ENDROOT
BRANCH   3   4
HETATM    4  C3  UNL     1      17.026   4.600  10.617  1.00  0.00     0.190 C 
BRANCH   4   5
HETATM    5  N2  UNL     1      17.383   3.239  11.023  1.00  0.00    -0.284 N 
HETATM    6  C4  UNL     1      16.803   2.616  12.056  1.00  0.00     0.201 A 
HETATM    7  N3  UNL     1      17.366   1.402  12.137  1.00  0.00    -0.346 N 
HETATM    8  C5  UNL     1      18.272   1.309  11.159  1.00  0.00     0.198 A 
ATOM      9  H3  UNL     1      17.142   0.679  12.821  1.00  0.00     0.167 HD
HETATM   10  N4  UNL     1      18.285   2.448  10.465  1.00  0.00    -0.293 N 
ATOM     11  H4  UNL     1      18.874   2.667   9.661  1.00  0.00     0.188 HD
ENDBRANCH   4   5
ENDBRANCH   3   4
BRANCH   3  12
HETATM   12  N5  UNL     1      18.263   6.004  12.137  1.00  0.00    -0.287 N 
HETATM   13  C6  UNL     1      17.095   6.327  12.747  1.00  0.00     0.125 A 
HETATM   14  C7  UNL     1      17.109   6.814  14.039  1.00  0.00     0.059 A 
HETATM   15  N10 UNL     1      18.308   6.945  14.638  1.00  0.00    -0.298 N 
HETATM   16  N11 UNL     1      19.438   6.617  14.011  1.00  0.00    -0.251 N 
ATOM     17  H10 UNL     1      18.353   7.302  15.592  1.00  0.00     0.187 HD
HETATM   18  C11 UNL     1      19.453   6.141  12.751  1.00  0.00     0.342 A 
ATOM     19  H11 UNL     1      20.324   6.732  14.503  1.00  0.00     0.191 HD
HETATM   20  O2  UNL     1      20.532   5.831  12.159  1.00  0.00    -0.245 OA
BRANCH  14  21
HETATM   21  C8  UNL     1      15.857   7.183  14.751  1.00  0.00     0.198 C 
BRANCH  21  22
HETATM   22  N6  UNL     1      15.002   6.034  14.880  1.00  0.00    -0.219 N 
ATOM     23  H6  UNL     1      14.340   5.846  14.127  1.00  0.00     0.178 HD
BRANCH  22  24
HETATM   24  C9  UNL     1      15.016   5.227  15.886  1.00  0.00     0.697 A 
HETATM   25  N7  UNL     1      14.298   5.260  17.017  1.00  0.00    -0.128 N 
HETATM   26  N8  UNL     1      14.660   4.221  17.747  1.00  0.00    -0.237 N 
ATOM     27  H7  UNL     1      13.600   5.960  17.267  1.00  0.00     0.205 HD
HETATM   28  C10 UNL     1      15.605   3.536  17.075  1.00  0.00     0.353 A 
ATOM     29  H8  UNL     1      14.287   3.979  18.665  1.00  0.00     0.192 HD
HETATM   30  O1  UNL     1      16.170   2.475  17.502  1.00  0.00    -0.245 OA
HETATM   31  N9  UNL     1      15.831   4.157  15.916  1.00  0.00    -0.139 N 
ATOM     32  H9  UNL     1      16.493   3.875  15.194  1.00  0.00     0.189 HD
ENDBRANCH  22  24
ENDBRANCH  21  22
ENDBRANCH  14  21
ENDBRANCH   3  12
TORSDOF 6
ENDMDL
MODEL 5
REMARK VINA RESULT: -6.913364003      2.384      4.741
REMARK  6 active torsions:
REMARK  status: ('A' for Active; 'I' for Inactive)
REMARK    1  A    between atoms: C2_3  and  C3_4 
REMARK    2  A    between atoms: C2_3  and  N5_12 
REMARK    3  A    between atoms: C3_4  and  N2_5 
REMARK    4  A    between atoms: C7_14  and  C8_15 
REMARK    5  A    between atoms: C8_15  and  N6_16 
REMARK    6  A    between atoms: N6_16  and  C9_18 
ROOT
HETATM    1  N1  UNL     1      21.163   5.472   8.533  1.00  0.00    -0.195 NA
HETATM    2  C1  UNL     1      20.583   5.978   9.422  1.00  0.00     0.087 C 
HETATM    3  C2  UNL     1      19.870   6.626  10.520  1.00  0.00     0.221 C 
ENDROOT
BRANCH   3   4
HETATM    4  C3  UNL     1      20.592   6.403  11.829  1.00  0.00     0.190 C 
BRANCH   4   5
HETATM    5  N2  UNL     1      21.855   7.144  11.809  1.00  0.00    -0.284 N 
HETATM    6  C4  UNL     1      21.910   8.481  11.789  1.00  0.00     0.201 A 
HETATM    7  N3  UNL     1      23.209   8.812  11.775  1.00  0.00    -0.346 N 
HETATM    8  C5  UNL     1      23.917   7.678  11.786  1.00  0.00     0.198 A 
ATOM      9  H3  UNL     1      23.589   9.759  11.760  1.00  0.00     0.167 HD
HETATM   10  N4  UNL     1      23.078   6.640  11.808  1.00  0.00    -0.293 N 
ATOM     11  H4  UNL     1      23.331   5.652  11.821  1.00  0.00     0.188 HD
ENDBRANCH   4   5
ENDBRANCH   3   4
BRANCH   3  12
HETATM   12  N5  UNL     1      18.533   6.082  10.617  1.00  0.00    -0.287 N 
HETATM   13  C6  UNL     1      18.334   4.945  11.329  1.00  0.00     0.125 A 
HETATM   14  C7  UNL     1      17.063   4.414  11.430  1.00  0.00     0.059 A 
HETATM   15  N10 UNL     1      16.067   5.069  10.803  1.00  0.00    -0.298 N 
HETATM   16  N11 UNL     1      16.297   6.185  10.111  1.00  0.00    -0.251 N 
ATOM     17  H10 UNL     1      15.117   4.703  10.858  1.00  0.00     0.187 HD
HETATM   18  C11 UNL     1      17.525   6.724   9.996  1.00  0.00     0.342 A 
ATOM     19  H11 UNL     1      15.513   6.649   9.652  1.00  0.00     0.191 HD
HETATM   20  O2  UNL     1      17.738   7.787   9.336  1.00  0.00    -0.245 OA
BRANCH  14  21
HETATM   21  C8  UNL     1      16.792   3.170  12.198  1.00  0.00     0.198 C 
BRANCH  21  22
HETATM   22  N6  UNL     1      17.467   3.212  13.467  1.00  0.00    -0.219 N 
ATOM     23  H6  UNL     1      18.471   3.031  13.479  1.00  0.00     0.178 HD
BRANCH  22  24
HETATM   24  C9  UNL     1      16.887   3.464  14.592  1.00  0.00     0.697 A 
HETATM   25  N7  UNL     1      16.231   4.564  14.985  1.00  0.00    -0.128 N 
HETATM   26  N8  UNL     1      15.811   4.354  16.220  1.00  0.00    -0.237 N 
ATOM     27  H7  UNL     1      16.084   5.408  14.433  1.00  0.00     0.205 HD
HETATM   28  C10 UNL     1      16.203   3.124  16.600  1.00  0.00     0.353 A 
ATOM     29  H8  UNL     1      15.279   5.014  16.789  1.00  0.00     0.192 HD
HETATM   30  O1  UNL     1      15.959   2.607  17.741  1.00  0.00    -0.245 OA
HETATM   31  N9  UNL     1      16.873   2.564  15.592  1.00  0.00    -0.139 N 
ATOM     32  H9  UNL     1      17.293   1.635  15.582  1.00  0.00     0.189 HD
ENDBRANCH  22  24
ENDBRANCH  21  22
ENDBRANCH  14  21
ENDBRANCH   3  12
TORSDOF 6
ENDMDL
