MODEL 1
REMARK VINA RESULT: -8.699095530      0.000      0.000
REMARK  9 active torsions:
REMARK  status: ('A' for Active; 'I' for Inactive)
REMARK    1  A    between atoms: C2_2  and  C3_3 
REMARK    2  A    between atoms: C2_2  and  C19_31 
REMARK    3  A    between atoms: C3_3  and  N1_4 
REMARK    4  A    between atoms: C4_9  and  C5_10 
REMARK    5  A    between atoms: C5_10  and  N4_11 
REMARK    6  A    between atoms: N5_14  and  C8_15 
REMARK    7  A    between atoms: C8_15  and  C9_16 
REMARK       I    between atoms: C9_16  and  N6_18 
REMARK    8  A    between atoms: N6_18  and  C10_20 
REMARK    9  A    between atoms: C10_20  and  C11_21 
ROOT
HETATM    1  N1  UNL     1      13.466   7.639   8.124  1.00  0.00    -0.217 N 
HETATM    2  N2  UNL     1      14.175   7.145   7.138  1.00  0.00    -0.224 N 
ATOM      3  H2  UNL     1      13.947   7.245   6.149  1.00  0.00     0.210 HD
HETATM    4  N3  UNL     1      15.238   6.493   7.611  1.00  0.00    -0.267 N 
ATOM      5  H3  UNL     1      15.946   6.020   7.049  1.00  0.00     0.190 HD
HETATM    6  C4  UNL     1      15.217   6.566   8.934  1.00  0.00     0.152 A 
HETATM    7  N7  UNL     1      14.099   7.287   9.236  1.00  0.00    -0.265 N 
ATOM      8  H7  UNL     1      13.795   7.523  10.180  1.00  0.00     0.190 HD
ENDROOT
BRANCH   6   9
HETATM    9  C5  UNL     1      16.097   6.058   9.999  1.00  0.00     0.137 C 
BRANCH   9  10
HETATM   10  N4  UNL     1      16.749   4.844   9.704  1.00  0.00    -0.384 N 
HETATM   11  C6  UNL     1      15.969   3.662   9.654  1.00  0.00     0.137 C 
HETATM   12  C7  UNL     1      16.034   3.004  11.044  1.00  0.00     0.114 C 
HETATM   13  N5  UNL     1      17.384   2.685  11.337  1.00  0.00    -0.285 NA
HETATM   14  C17 UNL     1      18.337   3.222  10.381  1.00  0.00     0.114 C 
HETATM   15  C18 UNL     1      18.097   4.692  10.120  1.00  0.00     0.137 C 
BRANCH  13  16
HETATM   16  C8  UNL     1      17.722   1.339  11.581  1.00  0.00     0.134 C 
BRANCH  16  17
HETATM   17  C9  UNL     1      17.448   0.779  12.896  1.00  0.00     0.251 C 
HETATM   18  O1  UNL     1      16.932  -0.390  12.978  1.00  0.00    -0.268 OA
HETATM   19  N6  UNL     1      17.724   1.460  14.098  1.00  0.00    -0.353 N 
ATOM     20  H6  UNL     1      18.134   2.393  14.062  1.00  0.00     0.163 HD
BRANCH  19  21
HETATM   21  C10 UNL     1      17.435   0.856  15.392  1.00  0.00     0.161 C 
BRANCH  21  22
HETATM   22  C11 UNL     1      16.351   1.582  16.058  1.00  0.00    -0.041 A 
HETATM   23  C12 UNL     1      15.834   2.737  15.451  1.00  0.00     0.009 A 
HETATM   24  C13 UNL     1      14.815   3.427  16.061  1.00  0.00     0.001 A 
HETATM   25  C14 UNL     1      14.294   2.999  17.261  1.00  0.00     0.000 A 
HETATM   26  C15 UNL     1      14.802   1.853  17.869  1.00  0.00     0.001 A 
HETATM   27  C16 UNL     1      15.821   1.168  17.251  1.00  0.00     0.009 A 
ENDBRANCH  21  22
ENDBRANCH  19  21
ENDBRANCH  16  17
ENDBRANCH  13  16
ENDBRANCH   9  10
ENDBRANCH   6   9
BRANCH   1  28
HETATM   28  C3  UNL     1      12.226   8.422   8.094  1.00  0.00     0.183 C 
BRANCH  28  29
HETATM   29  C2  UNL     1      12.496   9.673   7.248  1.00  0.00     0.074 C 
HETATM   30  C1  UNL     1      13.143  10.748   8.090  1.00  0.00     0.020 C 
BRANCH  29  31
HETATM   31  C19 UNL     1      11.282  10.129   6.562  1.00  0.00     0.125 A 
HETATM   32  N8  UNL     1      10.085  10.318   7.133  1.00  0.00    -0.266 N 
HETATM   33  N9  UNL     1       9.254  10.730   6.204  1.00  0.00    -0.181 N 
ATOM     34  H8  UNL     1       9.859  10.169   8.117  1.00  0.00     0.190 HD
HETATM   35  O2  UNL     1       9.914  10.790   5.105  1.00  0.00    -0.140 OA
ATOM     36  H9  UNL     1       8.268  10.958   6.331  1.00  0.00     0.218 HD
HETATM   37  N10 UNL     1      11.149  10.437   5.265  1.00  0.00    -0.226 N 
ATOM     38  H10 UNL     1      11.874  10.400   4.550  1.00  0.00     0.198 HD
ENDBRANCH  29  31
ENDBRANCH  28  29
ENDBRANCH   1  28
TORSDOF 9
ENDMDL
MODEL 2
REMARK VINA RESULT: -8.498508689      4.552      7.520
REMARK  9 active torsions:
REMARK  status: ('A' for Active; 'I' for Inactive)
REMARK    1  A    between atoms: C2_2  and  C3_3 
REMARK    2  A    between atoms: C2_2  and  C19_31 
REMARK    3  A    between atoms: C3_3  and  N1_4 
REMARK    4  A    between atoms: C4_9  and  C5_10 
REMARK    5  A    between atoms: C5_10  and  N4_11 
REMARK    6  A    between atoms: N5_14  and  C8_15 
REMARK    7  A    between atoms: C8_15  and  C9_16 
REMARK       I    between atoms: C9_16  and  N6_18 
REMARK    8  A    between atoms: N6_18  and  C10_20 
REMARK    9  A    between atoms: C10_20  and  C11_21 
ROOT
HETATM    1  N1  UNL     1      16.255   1.069   9.557  1.00  0.00    -0.217 N 
HETATM    2  N2  UNL     1      15.629   0.673   8.477  1.00  0.00    -0.224 N 
ATOM      3  H2  UNL     1      15.219  -0.252   8.347  1.00  0.00     0.210 HD
HETATM    4  N3  UNL     1      15.604   1.649   7.569  1.00  0.00    -0.267 N 
ATOM      5  H3  UNL     1      15.176   1.594   6.644  1.00  0.00     0.190 HD
HETATM    6  C4  UNL     1      16.229   2.703   8.073  1.00  0.00     0.152 A 
HETATM    7  N7  UNL     1      16.630   2.320   9.320  1.00  0.00    -0.265 N 
ATOM      8  H7  UNL     1      17.143   2.910   9.975  1.00  0.00     0.190 HD
ENDROOT
BRANCH   6   9
HETATM    9  C5  UNL     1      16.523   4.055   7.570  1.00  0.00     0.137 C 
BRANCH   9  10
HETATM   10  N4  UNL     1      16.611   5.052   8.561  1.00  0.00    -0.384 N 
HETATM   11  C6  UNL     1      17.897   5.516   8.930  1.00  0.00     0.137 C 
HETATM   12  C7  UNL     1      18.355   4.696  10.149  1.00  0.00     0.114 C 
HETATM   13  N5  UNL     1      17.439   4.905  11.211  1.00  0.00    -0.285 NA
HETATM   14  C17 UNL     1      16.249   5.644  10.827  1.00  0.00     0.114 C 
HETATM   15  C18 UNL     1      15.619   5.073   9.576  1.00  0.00     0.137 C 
BRANCH  13  16
HETATM   16  C8  UNL     1      17.919   5.449  12.420  1.00  0.00     0.134 C 
BRANCH  16  17
HETATM   17  C9  UNL     1      17.055   5.418  13.589  1.00  0.00     0.251 C 
HETATM   18  O1  UNL     1      17.145   6.359  14.453  1.00  0.00    -0.268 OA
HETATM   19  N6  UNL     1      16.111   4.399  13.827  1.00  0.00    -0.353 N 
ATOM     20  H6  UNL     1      16.019   3.636  13.156  1.00  0.00     0.163 HD
BRANCH  19  21
HETATM   21  C10 UNL     1      15.265   4.414  15.012  1.00  0.00     0.161 C 
BRANCH  21  22
HETATM   22  C11 UNL     1      15.398   3.151  15.744  1.00  0.00    -0.041 A 
HETATM   23  C12 UNL     1      16.472   2.301  15.441  1.00  0.00     0.009 A 
HETATM   24  C13 UNL     1      16.613   1.116  16.121  1.00  0.00     0.001 A 
HETATM   25  C14 UNL     1      15.711   0.752  17.096  1.00  0.00     0.000 A 
HETATM   26  C15 UNL     1      14.643   1.591  17.401  1.00  0.00     0.001 A 
HETATM   27  C16 UNL     1      14.510   2.776  16.717  1.00  0.00     0.009 A 
ENDBRANCH  21  22
ENDBRANCH  19  21
ENDBRANCH  16  17
ENDBRANCH  13  16
ENDBRANCH   9  10
ENDBRANCH   6   9
BRANCH   1  28
HETATM   28  C3  UNL     1      16.529   0.349  10.807  1.00  0.00     0.183 C 
BRANCH  28  29
HETATM   29  C2  UNL     1      18.016  -0.029  10.799  1.00  0.00     0.074 C 
HETATM   30  C1  UNL     1      18.219  -1.375  11.456  1.00  0.00     0.020 C 
BRANCH  29  31
HETATM   31  C19 UNL     1      18.842   1.031  11.386  1.00  0.00     0.125 A 
HETATM   32  N8  UNL     1      20.086   1.355  11.008  1.00  0.00    -0.266 N 
HETATM   33  N9  UNL     1      20.492   2.350  11.762  1.00  0.00    -0.181 N 
ATOM     34  H8  UNL     1      20.623   0.907  10.265  1.00  0.00     0.190 HD
HETATM   35  O2  UNL     1      19.536   2.628  12.572  1.00  0.00    -0.140 OA
ATOM     36  H9  UNL     1      21.398   2.816  11.713  1.00  0.00     0.218 HD
HETATM   37  N10 UNL     1      18.511   1.858  12.387  1.00  0.00    -0.226 N 
ATOM     38  H10 UNL     1      17.630   1.877  12.900  1.00  0.00     0.198 HD
ENDBRANCH  29  31
ENDBRANCH  28  29
ENDBRANCH   1  28
TORSDOF 9
ENDMDL
MODEL 3
REMARK VINA RESULT: -8.468042921      1.397      1.860
REMARK  9 active torsions:
REMARK  status: ('A' for Active; 'I' for Inactive)
REMARK    1  A    between atoms: C2_2  and  C3_3 
REMARK    2  A    between atoms: C2_2  and  C19_31 
REMARK    3  A    between atoms: C3_3  and  N1_4 
REMARK    4  A    between atoms: C4_9  and  C5_10 
REMARK    5  A    between atoms: C5_10  and  N4_11 
REMARK    6  A    between atoms: N5_14  and  C8_15 
REMARK    7  A    between atoms: C8_15  and  C9_16 
REMARK       I    between atoms: C9_16  and  N6_18 
REMARK    8  A    between atoms: N6_18  and  C10_20 
REMARK    9  A    between atoms: C10_20  and  C11_21 
ROOT
HETATM    1  N1  UNL     1      14.208   7.633   7.894  1.00  0.00    -0.217 N 
HETATM    2  N2  UNL     1      14.229   7.409   6.603  1.00  0.00    -0.224 N 
ATOM      3  H2  UNL     1      13.680   7.923   5.914  1.00  0.00     0.210 HD
HETATM    4  N3  UNL     1      15.070   6.415   6.317  1.00  0.00    -0.267 N 
ATOM      5  H3  UNL     1      15.267   6.049   5.385  1.00  0.00     0.190 HD
HETATM    6  C4  UNL     1      15.607   5.983   7.449  1.00  0.00     0.152 A 
HETATM    7  N7  UNL     1      15.054   6.759   8.426  1.00  0.00    -0.265 N 
ATOM      8  H7  UNL     1      15.261   6.679   9.421  1.00  0.00     0.190 HD
ENDROOT
BRANCH   6   9
HETATM    9  C5  UNL     1      16.583   4.934   7.782  1.00  0.00     0.137 C 
BRANCH   9  10
HETATM   10  N4  UNL     1      16.055   3.832   8.484  1.00  0.00    -0.384 N 
HETATM   11  C6  UNL     1      16.151   3.831   9.897  1.00  0.00     0.137 C 
HETATM   12  C7  UNL     1      17.432   3.067  10.276  1.00  0.00     0.114 C 
HETATM   13  N5  UNL     1      17.331   1.738   9.794  1.00  0.00    -0.285 NA
HETATM   14  C17 UNL     1      16.186   1.509   8.930  1.00  0.00     0.114 C 
HETATM   15  C18 UNL     1      16.083   2.562   7.850  1.00  0.00     0.137 C 
BRANCH  13  16
HETATM   16  C8  UNL     1      17.398   0.677  10.720  1.00  0.00     0.134 C 
BRANCH  16  17
HETATM   17  C9  UNL     1      17.871   0.956  12.067  1.00  0.00     0.251 C 
HETATM   18  O1  UNL     1      19.115   1.197  12.250  1.00  0.00    -0.268 OA
HETATM   19  N6  UNL     1      17.026   0.977  13.194  1.00  0.00    -0.353 N 
ATOM     20  H6  UNL     1      16.031   0.787  13.077  1.00  0.00     0.163 HD
BRANCH  19  21
HETATM   21  C10 UNL     1      17.546   1.265  14.523  1.00  0.00     0.161 C 
BRANCH  21  22
HETATM   22  C11 UNL     1      16.475   1.767  15.388  1.00  0.00    -0.041 A 
HETATM   23  C12 UNL     1      16.104   1.017  16.514  1.00  0.00     0.009 A 
HETATM   24  C13 UNL     1      15.104   1.476  17.336  1.00  0.00     0.001 A 
HETATM   25  C14 UNL     1      14.461   2.664  17.068  1.00  0.00     0.000 A 
HETATM   26  C15 UNL     1      14.825   3.414  15.952  1.00  0.00     0.001 A 
HETATM   27  C16 UNL     1      15.828   2.948  15.135  1.00  0.00     0.009 A 
ENDBRANCH  21  22
ENDBRANCH  19  21
ENDBRANCH  16  17
ENDBRANCH  13  16
ENDBRANCH   9  10
ENDBRANCH   6   9
BRANCH   1  28
HETATM   28  C3  UNL     1      13.443   8.617   8.669  1.00  0.00     0.183 C 
BRANCH  28  29
HETATM   29  C2  UNL     1      13.216   9.835   7.764  1.00  0.00     0.074 C 
HETATM   30  C1  UNL     1      14.153  10.957   8.148  1.00  0.00     0.020 C 
BRANCH  29  31
HETATM   31  C19 UNL     1      11.806  10.238   7.752  1.00  0.00     0.125 A 
HETATM   32  N8  UNL     1      10.755   9.407   7.717  1.00  0.00    -0.266 N 
HETATM   33  N9  UNL     1       9.663  10.136   7.721  1.00  0.00    -0.181 N 
ATOM     34  H8  UNL     1      10.796   8.388   7.692  1.00  0.00     0.190 HD
HETATM   35  O2  UNL     1      10.028  11.366   7.757  1.00  0.00    -0.140 OA
ATOM     36  H9  UNL     1       8.704   9.791   7.699  1.00  0.00     0.218 HD
HETATM   37  N10 UNL     1      11.318  11.485   7.777  1.00  0.00    -0.226 N 
ATOM     38  H10 UNL     1      11.853  12.352   7.806  1.00  0.00     0.198 HD
ENDBRANCH  29  31
ENDBRANCH  28  29
ENDBRANCH   1  28
TORSDOF 9
ENDMDL
MODEL 4
REMARK VINA RESULT: -8.348594238      1.249      1.558
REMARK  9 active torsions:
REMARK  status: ('A' for Active; 'I' for Inactive)
REMARK    1  A    between atoms: C2_2  and  C3_3 
REMARK    2  A    between atoms: C2_2  and  C19_31 
REMARK    3  A    between atoms: C3_3  and  N1_4 
REMARK    4  A    between atoms: C4_9  and  C5_10 
REMARK    5  A    between atoms: C5_10  and  N4_11 
REMARK    6  A    between atoms: N5_14  and  C8_15 
REMARK    7  A    between atoms: C8_15  and  C9_16 
REMARK       I    between atoms: C9_16  and  N6_18 
REMARK    8  A    between atoms: N6_18  and  C10_20 
REMARK    9  A    between atoms: C10_20  and  C11_21 
ROOT
HETATM    1  N1  UNL     1      14.121   7.807   7.159  1.00  0.00    -0.217 N 
HETATM    2  N2  UNL     1      14.762   8.008   6.034  1.00  0.00    -0.224 N 
ATOM      3  H2  UNL     1      14.481   8.674   5.314  1.00  0.00     0.210 HD
HETATM    4  N3  UNL     1      15.833   7.218   5.961  1.00  0.00    -0.267 N 
ATOM      5  H3  UNL     1      16.497   7.182   5.187  1.00  0.00     0.190 HD
HETATM    6  C4  UNL     1      15.889   6.487   7.066  1.00  0.00     0.152 A 
HETATM    7  N7  UNL     1      14.807   6.872   7.804  1.00  0.00    -0.265 N 
ATOM      8  H7  UNL     1      14.561   6.495   8.719  1.00  0.00     0.190 HD
ENDROOT
BRANCH   6   9
HETATM    9  C5  UNL     1      16.814   5.458   7.565  1.00  0.00     0.137 C 
BRANCH   9  10
HETATM   10  N4  UNL     1      16.220   4.463   8.368  1.00  0.00    -0.384 N 
HETATM   11  C6  UNL     1      16.325   4.589   9.775  1.00  0.00     0.137 C 
HETATM   12  C7  UNL     1      17.557   3.782  10.222  1.00  0.00     0.114 C 
HETATM   13  N5  UNL     1      17.366   2.423   9.868  1.00  0.00    -0.285 NA
HETATM   14  C17 UNL     1      16.203   2.189   9.030  1.00  0.00     0.114 C 
HETATM   15  C18 UNL     1      16.162   3.141   7.855  1.00  0.00     0.137 C 
BRANCH  13  16
HETATM   16  C8  UNL     1      17.371   1.451  10.889  1.00  0.00     0.134 C 
BRANCH  16  17
HETATM   17  C9  UNL     1      17.793   1.845  12.224  1.00  0.00     0.251 C 
HETATM   18  O1  UNL     1      19.043   1.858  12.501  1.00  0.00    -0.268 OA
HETATM   19  N6  UNL     1      16.893   2.218  13.241  1.00  0.00    -0.353 N 
ATOM     20  H6  UNL     1      15.891   2.214  13.049  1.00  0.00     0.163 HD
BRANCH  19  21
HETATM   21  C10 UNL     1      17.364   2.608  14.563  1.00  0.00     0.161 C 
BRANCH  21  22
HETATM   22  C11 UNL     1      16.374   2.246  15.580  1.00  0.00    -0.041 A 
HETATM   23  C12 UNL     1      15.281   3.099  15.796  1.00  0.00     0.009 A 
HETATM   24  C13 UNL     1      14.342   2.773  16.745  1.00  0.00     0.001 A 
HETATM   25  C14 UNL     1      14.461   1.619  17.485  1.00  0.00     0.000 A 
HETATM   26  C15 UNL     1      15.543   0.767  17.275  1.00  0.00     0.001 A 
HETATM   27  C16 UNL     1      16.478   1.101  16.324  1.00  0.00     0.009 A 
ENDBRANCH  21  22
ENDBRANCH  19  21
ENDBRANCH  16  17
ENDBRANCH  13  16
ENDBRANCH   9  10
ENDBRANCH   6   9
BRANCH   1  28
HETATM   28  C3  UNL     1      12.900   8.438   7.675  1.00  0.00     0.183 C 
BRANCH  28  29
HETATM   29  C2  UNL     1      12.835   9.854   7.089  1.00  0.00     0.074 C 
HETATM   30  C1  UNL     1      13.299  10.867   8.110  1.00  0.00     0.020 C 
BRANCH  29  31
HETATM   31  C19 UNL     1      11.504  10.148   6.547  1.00  0.00     0.125 A 
HETATM   32  N8  UNL     1      10.363  10.183   7.249  1.00  0.00    -0.266 N 
HETATM   33  N9  UNL     1       9.388  10.482   6.422  1.00  0.00    -0.181 N 
ATOM     34  H8  UNL     1      10.269  10.008   8.250  1.00  0.00     0.190 HD
HETATM   35  O2  UNL     1       9.909  10.626   5.258  1.00  0.00    -0.140 OA
ATOM     36  H9  UNL     1       8.402  10.582   6.660  1.00  0.00     0.218 HD
HETATM   37  N10 UNL     1      11.190  10.435   5.277  1.00  0.00    -0.226 N 
ATOM     38  H10 UNL     1      11.830  10.490   4.485  1.00  0.00     0.198 HD
ENDBRANCH  29  31
ENDBRANCH  28  29
ENDBRANCH   1  28
TORSDOF 9
ENDMDL
MODEL 5
REMARK VINA RESULT: -8.319955879      1.436      1.986
REMARK  9 active torsions:
REMARK  status: ('A' for Active; 'I' for Inactive)
REMARK    1  A    between atoms: C2_2  and  C3_3 
REMARK    2  A    between atoms: C2_2  and  C19_31 
REMARK    3  A    between atoms: C3_3  and  N1_4 
REMARK    4  A    between atoms: C4_9  and  C5_10 
REMARK    5  A    between atoms: C5_10  and  N4_11 
REMARK    6  A    between atoms: N5_14  and  C8_15 
REMARK    7  A    between atoms: C8_15  and  C9_16 
REMARK       I    between atoms: C9_16  and  N6_18 
REMARK    8  A    between atoms: N6_18  and  C10_20 
REMARK    9  A    between atoms: C10_20  and  C11_21 
ROOT
HETATM    1  N1  UNL     1      14.215   7.363   7.979  1.00  0.00    -0.217 N 
HETATM    2  N2  UNL     1      14.431   7.062   6.722  1.00  0.00    -0.224 N 
ATOM      3  H2  UNL     1      13.886   7.416   5.936  1.00  0.00     0.210 HD
HETATM    4  N3  UNL     1      15.465   6.227   6.615  1.00  0.00    -0.267 N 
ATOM      5  H3  UNL     1      15.836   5.844   5.745  1.00  0.00     0.190 HD
HETATM    6  C4  UNL     1      15.930   5.981   7.831  1.00  0.00     0.152 A 
HETATM    7  N7  UNL     1      15.133   6.702   8.672  1.00  0.00    -0.265 N 
ATOM      8  H7  UNL     1      15.230   6.729   9.687  1.00  0.00     0.190 HD
ENDROOT
BRANCH   6   9
HETATM    9  C5  UNL     1      17.032   5.159   8.357  1.00  0.00     0.137 C 
BRANCH   9  10
HETATM   10  N4  UNL     1      16.639   4.133   9.240  1.00  0.00    -0.384 N 
HETATM   11  C6  UNL     1      17.213   4.108  10.534  1.00  0.00     0.137 C 
HETATM   12  C7  UNL     1      18.436   3.175  10.482  1.00  0.00     0.114 C 
HETATM   13  N5  UNL     1      18.004   1.876  10.117  1.00  0.00    -0.285 NA
HETATM   14  C17 UNL     1      16.613   1.810   9.705  1.00  0.00     0.114 C 
HETATM   15  C18 UNL     1      16.283   2.876   8.684  1.00  0.00     0.137 C 
BRANCH  13  16
HETATM   16  C8  UNL     1      18.248   0.808  11.005  1.00  0.00     0.134 C 
BRANCH  16  17
HETATM   17  C9  UNL     1      17.644   0.851  12.328  1.00  0.00     0.251 C 
HETATM   18  O1  UNL     1      16.701   0.031  12.606  1.00  0.00    -0.268 OA
HETATM   19  N6  UNL     1      18.046   1.754  13.332  1.00  0.00    -0.353 N 
ATOM     20  H6  UNL     1      18.795   2.419  13.136  1.00  0.00     0.163 HD
BRANCH  19  21
HETATM   21  C10 UNL     1      17.414   1.756  14.643  1.00  0.00     0.161 C 
BRANCH  21  22
HETATM   22  C11 UNL     1      16.637   2.985  14.828  1.00  0.00    -0.041 A 
HETATM   23  C12 UNL     1      15.489   2.948  15.634  1.00  0.00     0.009 A 
HETATM   24  C13 UNL     1      14.752   4.092  15.820  1.00  0.00     0.001 A 
HETATM   25  C14 UNL     1      15.126   5.275  15.224  1.00  0.00     0.000 A 
HETATM   26  C15 UNL     1      16.265   5.319  14.423  1.00  0.00     0.001 A 
HETATM   27  C16 UNL     1      16.997   4.170  14.243  1.00  0.00     0.009 A 
ENDBRANCH  21  22
ENDBRANCH  19  21
ENDBRANCH  16  17
ENDBRANCH  13  16
ENDBRANCH   9  10
ENDBRANCH   6   9
BRANCH   1  28
HETATM   28  C3  UNL     1      13.198   8.235   8.579  1.00  0.00     0.183 C 
BRANCH  28  29
HETATM   29  C2  UNL     1      13.110   9.498   7.713  1.00  0.00     0.074 C 
HETATM   30  C1  UNL     1      14.157  10.502   8.139  1.00  0.00     0.020 C 
BRANCH  29  31
HETATM   31  C19 UNL     1      11.751  10.048   7.705  1.00  0.00     0.125 A 
HETATM   32  N8  UNL     1      10.617   9.335   7.710  1.00  0.00    -0.266 N 
HETATM   33  N9  UNL     1       9.609  10.176   7.703  1.00  0.00    -0.181 N 
ATOM     34  H8  UNL     1      10.549   8.317   7.717  1.00  0.00     0.190 HD
HETATM   35  O2  UNL     1      10.103  11.360   7.694  1.00  0.00    -0.140 OA
ATOM     36  H9  UNL     1       8.618   9.933   7.704  1.00  0.00     0.218 HD
HETATM   37  N10 UNL     1      11.398  11.341   7.696  1.00  0.00    -0.226 N 
ATOM     38  H10 UNL     1      12.023  12.146   7.690  1.00  0.00     0.198 HD
ENDBRANCH  29  31
ENDBRANCH  28  29
ENDBRANCH   1  28
TORSDOF 9
ENDMDL
