MODEL 1
REMARK VINA RESULT: -7.485313268      0.000      0.000
REMARK  6 active torsions:
REMARK  status: ('A' for Active; 'I' for Inactive)
REMARK    1  A    between atoms: N2_7  and  C5_8 
REMARK    2  A    between atoms: C5_8  and  C6_9 
REMARK    3  A    between atoms: C6_9  and  N3_10 
REMARK    4  A    between atoms: C8_17  and  N7_18 
REMARK    5  A    between atoms: N7_18  and  O1_20 
REMARK    6  A    between atoms: N8_24  and  N9_25 
ROOT
HETATM    1  C5  UNL     1      16.579   4.030  14.649  1.00  0.00     0.176 C 
ENDROOT
BRANCH   1   2
HETATM    2  N2  UNL     1      17.651   3.622  13.772  1.00  0.00    -0.238 N 
HETATM    3  N1  UNL     1      17.586   2.528  12.906  1.00  0.00    -0.278 N 
HETATM    4  C4  UNL     1      18.825   2.448  12.212  1.00  0.00     0.148 A 
ATOM      5  H1  UNL     1      16.791   1.899  12.791  1.00  0.00     0.189 HD
HETATM    6  C2  UNL     1      19.108   1.525  11.311  1.00  0.00    -0.040 C 
HETATM    7  N8  UNL     1      19.684   3.491  12.635  1.00  0.00    -0.193 N 
HETATM    8  C1  UNL     1      18.140   0.471  10.935  1.00  0.00     0.047 C 
HETATM    9  C3  UNL     1      20.437   1.523  10.636  1.00  0.00     0.047 C 
HETATM   10  C10 UNL     1      18.921   4.221  13.619  1.00  0.00     0.363 A 
HETATM   11  O2  UNL     1      19.380   5.222  14.210  1.00  0.00    -0.243 OA
BRANCH   7  12
HETATM   12  N9  UNL     1      20.987   3.798  12.227  1.00  0.00    -0.333 N 
ATOM     13  H92 UNL     1      21.765   3.139  12.186  1.00  0.00     0.177 HD
ATOM     14  H91 UNL     1      21.380   4.685  11.914  1.00  0.00     0.177 HD
ENDBRANCH   7  12
ENDBRANCH   1   2
BRANCH   1  15
HETATM   15  C6  UNL     1      15.338   3.184  14.443  1.00  0.00     0.174 C 
BRANCH  15  16
HETATM   16  N3  UNL     1      15.281   2.186  15.497  1.00  0.00    -0.260 N 
HETATM   17  N4  UNL     1      14.292   2.288  16.416  1.00  0.00    -0.238 N 
HETATM   18  N5  UNL     1      14.382   1.365  17.295  1.00  0.00    -0.270 N 
ATOM     19  H4  UNL     1      13.569   3.008  16.408  1.00  0.00     0.208 HD
HETATM   20  C7  UNL     1      15.430   0.609  17.003  1.00  0.00     0.174 A 
ATOM     21  H5  UNL     1      13.754   1.233  18.088  1.00  0.00     0.190 HD
HETATM   22  N6  UNL     1      15.863  -0.519  17.741  1.00  0.00    -0.078 NA
HETATM   23  C8  UNL     1      16.008   1.153  15.829  1.00  0.00     0.167 A 
BRANCH  23  24
HETATM   24  N7  UNL     1      17.128   0.558  15.249  1.00  0.00    -0.148 NA
HETATM   25  C9  UNL     1      17.001  -0.661  14.544  1.00  0.00     0.152 C 
BRANCH  24  26
HETATM   26  O1  UNL     1      18.103   0.405  16.233  1.00  0.00    -0.307 OA
ATOM     27  H1  UNL     1      18.842   0.960  16.011  1.00  0.00     0.237 HD
ENDBRANCH  24  26
ENDBRANCH  23  24
ENDBRANCH  15  16
ENDBRANCH   1  15
TORSDOF 6
ENDMDL
MODEL 2
REMARK VINA RESULT: -7.337727112      1.058      1.182
REMARK  6 active torsions:
REMARK  status: ('A' for Active; 'I' for Inactive)
REMARK    1  A    between atoms: N2_7  and  C5_8 
REMARK    2  A    between atoms: C5_8  and  C6_9 
REMARK    3  A    between atoms: C6_9  and  N3_10 
REMARK    4  A    between atoms: C8_17  and  N7_18 
REMARK    5  A    between atoms: N7_18  and  O1_20 
REMARK    6  A    between atoms: N8_24  and  N9_25 
ROOT
HETATM    1  C5  UNL     1      15.141   3.120  13.804  1.00  0.00     0.176 C 
ENDROOT
BRANCH   1   2
HETATM    2  N2  UNL     1      16.366   2.693  13.170  1.00  0.00    -0.238 N 
HETATM    3  N1  UNL     1      16.484   1.551  12.375  1.00  0.00    -0.278 N 
HETATM    4  C4  UNL     1      17.833   1.466  11.933  1.00  0.00     0.148 A 
ATOM      5  H1  UNL     1      15.735   0.895  12.150  1.00  0.00     0.189 HD
HETATM    6  C2  UNL     1      18.297   0.502  11.158  1.00  0.00    -0.040 C 
HETATM    7  N8  UNL     1      18.579   2.554  12.446  1.00  0.00    -0.193 N 
HETATM    8  C1  UNL     1      17.435  -0.598  10.671  1.00  0.00     0.047 C 
HETATM    9  C3  UNL     1      19.729   0.499  10.747  1.00  0.00     0.047 C 
HETATM   10  C10 UNL     1      17.632   3.317  13.223  1.00  0.00     0.363 A 
HETATM   11  O2  UNL     1      17.954   4.362  13.828  1.00  0.00    -0.243 OA
BRANCH   7  12
HETATM   12  N9  UNL     1      19.930   2.873  12.272  1.00  0.00    -0.333 N 
ATOM     13  H92 UNL     1      20.357   3.191  11.401  1.00  0.00     0.177 HD
ATOM     14  H91 UNL     1      20.698   2.846  12.943  1.00  0.00     0.177 HD
ENDBRANCH   7  12
ENDBRANCH   1   2
BRANCH   1  15
HETATM   15  C6  UNL     1      15.324   3.316  15.296  1.00  0.00     0.174 C 
BRANCH  15  16
HETATM   16  N3  UNL     1      15.112   2.040  15.957  1.00  0.00    -0.260 N 
HETATM   17  N4  UNL     1      14.012   1.901  16.734  1.00  0.00    -0.238 N 
HETATM   18  N5  UNL     1      13.970   0.743  17.272  1.00  0.00    -0.270 N 
ATOM     19  H4  UNL     1      13.309   2.627  16.873  1.00  0.00     0.208 HD
HETATM   20  C7  UNL     1      15.035   0.059  16.880  1.00  0.00     0.174 A 
ATOM     21  H5  UNL     1      13.240   0.403  17.899  1.00  0.00     0.190 HD
HETATM   22  N6  UNL     1      15.347  -1.268  17.260  1.00  0.00    -0.078 NA
HETATM   23  C8  UNL     1      15.771   0.914  16.022  1.00  0.00     0.167 A 
BRANCH  23  24
HETATM   24  N7  UNL     1      16.948   0.470  15.420  1.00  0.00    -0.148 NA
HETATM   25  C9  UNL     1      16.965  -0.750  14.705  1.00  0.00     0.152 C 
BRANCH  24  26
HETATM   26  O1  UNL     1      17.951   0.434  16.387  1.00  0.00    -0.307 OA
ATOM     27  H1  UNL     1      18.750   0.122  15.979  1.00  0.00     0.237 HD
ENDBRANCH  24  26
ENDBRANCH  23  24
ENDBRANCH  15  16
ENDBRANCH   1  15
TORSDOF 6
ENDMDL
MODEL 3
REMARK VINA RESULT: -7.264933638      1.263      1.358
REMARK  6 active torsions:
REMARK  status: ('A' for Active; 'I' for Inactive)
REMARK    1  A    between atoms: N2_7  and  C5_8 
REMARK    2  A    between atoms: C5_8  and  C6_9 
REMARK    3  A    between atoms: C6_9  and  N3_10 
REMARK    4  A    between atoms: C8_17  and  N7_18 
REMARK    5  A    between atoms: N7_18  and  O1_20 
REMARK    6  A    between atoms: N8_24  and  N9_25 
ROOT
HETATM    1  C5  UNL     1      16.362   4.168  14.620  1.00  0.00     0.176 C 
ENDROOT
BRANCH   1   2
HETATM    2  N2  UNL     1      17.399   3.916  13.646  1.00  0.00    -0.238 N 
HETATM    3  N1  UNL     1      17.239   4.077  12.268  1.00  0.00    -0.278 N 
HETATM    4  C4  UNL     1      18.471   3.736  11.645  1.00  0.00     0.148 A 
ATOM      5  H1  UNL     1      16.390   4.385  11.793  1.00  0.00     0.189 HD
HETATM    6  C2  UNL     1      18.674   3.775  10.340  1.00  0.00    -0.040 C 
HETATM    7  N8  UNL     1      19.420   3.357  12.625  1.00  0.00    -0.193 N 
HETATM    8  C1  UNL     1      17.616   4.187   9.392  1.00  0.00     0.047 C 
HETATM    9  C3  UNL     1      20.003   3.399   9.780  1.00  0.00     0.047 C 
HETATM   10  C10 UNL     1      18.721   3.479  13.881  1.00  0.00     0.363 A 
HETATM   11  O2  UNL     1      19.266   3.219  14.975  1.00  0.00    -0.243 OA
BRANCH   7  12
HETATM   12  N9  UNL     1      20.749   2.948  12.472  1.00  0.00    -0.333 N 
ATOM     13  H92 UNL     1      21.054   2.015  12.191  1.00  0.00     0.177 HD
ATOM     14  H91 UNL     1      21.613   3.474  12.606  1.00  0.00     0.177 HD
ENDBRANCH   7  12
ENDBRANCH   1   2
BRANCH   1  15
HETATM   15  C6  UNL     1      15.188   3.226  14.439  1.00  0.00     0.174 C 
BRANCH  15  16
HETATM   16  N3  UNL     1      15.213   2.248  15.512  1.00  0.00    -0.260 N 
HETATM   17  N4  UNL     1      14.272   2.342  16.482  1.00  0.00    -0.238 N 
HETATM   18  N5  UNL     1      14.434   1.439  17.371  1.00  0.00    -0.270 N 
ATOM     19  H4  UNL     1      13.531   3.043  16.499  1.00  0.00     0.208 HD
HETATM   20  C7  UNL     1      15.484   0.704  17.038  1.00  0.00     0.174 A 
ATOM     21  H5  UNL     1      13.852   1.307  18.199  1.00  0.00     0.190 HD
HETATM   22  N6  UNL     1      15.985  -0.397  17.772  1.00  0.00    -0.078 NA
HETATM   23  C8  UNL     1      15.984   1.240  15.825  1.00  0.00     0.167 A 
BRANCH  23  24
HETATM   24  N7  UNL     1      17.087   0.663  15.196  1.00  0.00    -0.148 NA
HETATM   25  C9  UNL     1      16.962  -0.586  14.545  1.00  0.00     0.152 C 
BRANCH  24  26
HETATM   26  O1  UNL     1      18.127   0.581  16.121  1.00  0.00    -0.307 OA
ATOM     27  H1  UNL     1      17.800   0.871  16.965  1.00  0.00     0.237 HD
ENDBRANCH  24  26
ENDBRANCH  23  24
ENDBRANCH  15  16
ENDBRANCH   1  15
TORSDOF 6
ENDMDL
MODEL 4
REMARK VINA RESULT: -7.222459122      1.014      1.057
REMARK  6 active torsions:
REMARK  status: ('A' for Active; 'I' for Inactive)
REMARK    1  A    between atoms: N2_7  and  C5_8 
REMARK    2  A    between atoms: C5_8  and  C6_9 
REMARK    3  A    between atoms: C6_9  and  N3_10 
REMARK    4  A    between atoms: C8_17  and  N7_18 
REMARK    5  A    between atoms: N7_18  and  O1_20 
REMARK    6  A    between atoms: N8_24  and  N9_25 
ROOT
HETATM    1  C5  UNL     1      15.498   3.034  13.522  1.00  0.00     0.176 C 
ENDROOT
BRANCH   1   2
HETATM    2  N2  UNL     1      16.785   3.084  12.866  1.00  0.00    -0.238 N 
HETATM    3  N1  UNL     1      17.451   1.968  12.356  1.00  0.00    -0.278 N 
HETATM    4  C4  UNL     1      18.677   2.415  11.789  1.00  0.00     0.148 A 
ATOM      5  H1  UNL     1      17.118   1.004  12.384  1.00  0.00     0.189 HD
HETATM    6  C2  UNL     1      19.559   1.617  11.216  1.00  0.00    -0.040 C 
HETATM    7  N8  UNL     1      18.795   3.818  11.938  1.00  0.00    -0.193 N 
HETATM    8  C1  UNL     1      19.346   0.157  11.109  1.00  0.00     0.047 C 
HETATM    9  C3  UNL     1      20.818   2.180  10.650  1.00  0.00     0.047 C 
HETATM   10  C10 UNL     1      17.587   4.219  12.619  1.00  0.00     0.363 A 
HETATM   11  O2  UNL     1      17.355   5.410  12.917  1.00  0.00    -0.243 OA
BRANCH   7  12
HETATM   12  N9  UNL     1      19.823   4.676  11.535  1.00  0.00    -0.333 N 
ATOM     13  H92 UNL     1      19.848   5.201  10.660  1.00  0.00     0.177 HD
ATOM     14  H91 UNL     1      20.691   4.923  12.010  1.00  0.00     0.177 HD
ENDBRANCH   7  12
ENDBRANCH   1   2
BRANCH   1  15
HETATM   15  C6  UNL     1      15.619   3.315  15.007  1.00  0.00     0.174 C 
BRANCH  15  16
HETATM   16  N3  UNL     1      15.348   2.086  15.731  1.00  0.00    -0.260 N 
HETATM   17  N4  UNL     1      14.251   2.043  16.524  1.00  0.00    -0.238 N 
HETATM   18  N5  UNL     1      14.154   0.916  17.118  1.00  0.00    -0.270 N 
ATOM     19  H4  UNL     1      13.588   2.811  16.632  1.00  0.00     0.208 HD
HETATM   20  C7  UNL     1      15.177   0.159  16.751  1.00  0.00     0.174 A 
ATOM     21  H5  UNL     1      13.414   0.645  17.766  1.00  0.00     0.190 HD
HETATM   22  N6  UNL     1      15.424  -1.163  17.193  1.00  0.00    -0.078 NA
HETATM   23  C8  UNL     1      15.948   0.931  15.846  1.00  0.00     0.167 A 
BRANCH  23  24
HETATM   24  N7  UNL     1      17.093   0.397  15.256  1.00  0.00    -0.148 NA
HETATM   25  C9  UNL     1      16.987  -0.665  14.329  1.00  0.00     0.152 C 
BRANCH  24  26
HETATM   26  O1  UNL     1      17.974   0.019  16.269  1.00  0.00    -0.307 OA
ATOM     27  H1  UNL     1      17.643  -0.775  16.672  1.00  0.00     0.237 HD
ENDBRANCH  24  26
ENDBRANCH  23  24
ENDBRANCH  15  16
ENDBRANCH   1  15
TORSDOF 6
ENDMDL
MODEL 5
REMARK VINA RESULT: -7.060445150      1.785      2.368
REMARK  6 active torsions:
REMARK  status: ('A' for Active; 'I' for Inactive)
REMARK    1  A    between atoms: N2_7  and  C5_8 
REMARK    2  A    between atoms: C5_8  and  C6_9 
REMARK    3  A    between atoms: C6_9  and  N3_10 
REMARK    4  A    between atoms: C8_17  and  N7_18 
REMARK    5  A    between atoms: N7_18  and  O1_20 
REMARK    6  A    between atoms: N8_24  and  N9_25 
ROOT
HETATM    1  C5  UNL     1      15.207   3.074  13.656  1.00  0.00     0.176 C 
ENDROOT
BRANCH   1   2
HETATM    2  N2  UNL     1      16.409   2.742  12.926  1.00  0.00    -0.238 N 
HETATM    3  N1  UNL     1      17.629   3.403  13.078  1.00  0.00    -0.278 N 
HETATM    4  C4  UNL     1      18.566   2.795  12.197  1.00  0.00     0.148 A 
ATOM      5  H1  UNL     1      17.817   4.182  13.708  1.00  0.00     0.189 HD
HETATM    6  C2  UNL     1      19.826   3.174  12.081  1.00  0.00    -0.040 C 
HETATM    7  N8  UNL     1      17.943   1.744  11.480  1.00  0.00    -0.193 N 
HETATM    8  C1  UNL     1      20.386   4.288  12.877  1.00  0.00     0.047 C 
HETATM    9  C3  UNL     1      20.732   2.473  11.128  1.00  0.00     0.047 C 
HETATM   10  C10 UNL     1      16.581   1.729  11.958  1.00  0.00     0.363 A 
HETATM   11  O2  UNL     1      15.735   0.913  11.533  1.00  0.00    -0.243 OA
BRANCH   7  12
HETATM   12  N9  UNL     1      18.475   0.881  10.516  1.00  0.00    -0.333 N 
ATOM     13  H92 UNL     1      18.620  -0.122  10.635  1.00  0.00     0.177 HD
ATOM     14  H91 UNL     1      18.801   1.080   9.570  1.00  0.00     0.177 HD
ENDBRANCH   7  12
ENDBRANCH   1   2
BRANCH   1  15
HETATM   15  C6  UNL     1      15.493   3.284  15.131  1.00  0.00     0.174 C 
BRANCH  15  16
HETATM   16  N3  UNL     1      15.246   2.035  15.829  1.00  0.00    -0.260 N 
HETATM   17  N4  UNL     1      14.152   1.955  16.623  1.00  0.00    -0.238 N 
HETATM   18  N5  UNL     1      14.078   0.815  17.194  1.00  0.00    -0.270 N 
ATOM     19  H4  UNL     1      13.475   2.708  16.750  1.00  0.00     0.208 HD
HETATM   20  C7  UNL     1      15.113   0.084  16.808  1.00  0.00     0.174 A 
ATOM     21  H5  UNL     1      13.345   0.517  17.838  1.00  0.00     0.190 HD
HETATM   22  N6  UNL     1      15.385  -1.242  17.221  1.00  0.00    -0.078 NA
HETATM   23  C8  UNL     1      15.867   0.889  15.918  1.00  0.00     0.167 A 
BRANCH  23  24
HETATM   24  N7  UNL     1      17.020   0.389  15.314  1.00  0.00    -0.148 NA
HETATM   25  C9  UNL     1      16.947  -0.740  14.466  1.00  0.00     0.152 C 
BRANCH  24  26
HETATM   26  O1  UNL     1      17.965   0.139  16.309  1.00  0.00    -0.307 OA
ATOM     27  H1  UNL     1      18.242  -0.767  16.238  1.00  0.00     0.237 HD
ENDBRANCH  24  26
ENDBRANCH  23  24
ENDBRANCH  15  16
ENDBRANCH   1  15
TORSDOF 6
ENDMDL
