MODEL 1
REMARK VINA RESULT: -7.272013472      0.000      0.000
REMARK  6 active torsions:
REMARK  status: ('A' for Active; 'I' for Inactive)
REMARK    1  A    between atoms: C2_2  and  C3_3 
REMARK    2  A    between atoms: C2_2  and  C4_6 
REMARK    3  A    between atoms: C2_2  and  N6_22 
REMARK    4  A    between atoms: C3_3  and  O1_4 
REMARK    5  A    between atoms: C4_6  and  N1_7 
REMARK    6  A    between atoms: N6_22  and  C9_24 
ROOT
HETATM    1  C9  UNL     1      16.758   0.692  13.635  1.00  0.00     0.294 C 
HETATM    2  C10 UNL     1      16.491   1.975  14.269  1.00  0.00     0.099 C 
HETATM    3  N7  UNL     1      16.262   2.990  14.807  1.00  0.00    -0.194 NA
HETATM    4  C11 UNL     1      16.731  -0.376  14.672  1.00  0.00     0.099 C 
HETATM    5  N8  UNL     1      16.691  -1.210  15.474  1.00  0.00    -0.194 NA
ENDROOT
BRANCH   1   6
HETATM    6  N6  UNL     1      17.960   0.667  12.925  1.00  0.00    -0.383 N 
ATOM      7  H6  UNL     1      18.834   0.842  13.421  1.00  0.00     0.156 HD
BRANCH   6   8
HETATM    8  C2  UNL     1      17.996   0.407  11.540  1.00  0.00     0.063 C 
HETATM    9  C1  UNL     1      18.413  -0.972  11.178  1.00  0.00     0.042 C 
BRANCH   8  10
HETATM   10  C3  UNL     1      16.521   0.523  11.074  1.00  0.00     0.196 C 
BRANCH  10  11
HETATM   11  O1  UNL     1      16.532   1.610  10.175  1.00  0.00    -0.398 OA
ATOM     12  H1  UNL     1      15.785   1.449   9.611  1.00  0.00     0.209 HD
ENDBRANCH  10  11
ENDBRANCH   8  10
BRANCH   8  13
HETATM   13  C4  UNL     1      18.790   1.505  10.873  1.00  0.00     0.184 C 
BRANCH  13  14
HETATM   14  N1  UNL     1      19.236   2.545  11.766  1.00  0.00    -0.257 N 
HETATM   15  N2  UNL     1      20.379   2.568  12.422  1.00  0.00    -0.238 N 
HETATM   16  N3  UNL     1      20.503   3.651  13.169  1.00  0.00    -0.278 N 
ATOM     17  H2  UNL     1      21.086   1.835  12.361  1.00  0.00     0.208 HD
HETATM   18  C5  UNL     1      19.396   4.372  12.998  1.00  0.00     0.163 A 
ATOM     19  H3  UNL     1      21.296   3.891  13.764  1.00  0.00     0.189 HD
HETATM   20  C6  UNL     1      19.009   5.602  13.541  1.00  0.00     0.281 A 
HETATM   21  C8  UNL     1      18.616   3.680  12.127  1.00  0.00     0.161 A 
HETATM   22  O2  UNL     1      19.723   6.236  14.340  1.00  0.00    -0.265 OA
HETATM   23  N4  UNL     1      17.813   6.090  13.169  1.00  0.00    -0.273 N 
HETATM   24  C7  UNL     1      17.032   5.406  12.303  1.00  0.00     0.328 A 
ATOM     25  H4  UNL     1      17.492   6.984  13.543  1.00  0.00     0.173 HD
HETATM   26  O3  UNL     1      15.911   5.886  11.966  1.00  0.00    -0.247 OA
HETATM   27  N5  UNL     1      17.430   4.218  11.790  1.00  0.00    -0.291 N 
ATOM     28  H5  UNL     1      16.821   3.723  11.139  1.00  0.00     0.172 HD
ENDBRANCH  13  14
ENDBRANCH   8  13
ENDBRANCH   6   8
ENDBRANCH   1   6
TORSDOF 6
ENDMDL
MODEL 2
REMARK VINA RESULT: -7.085424138      2.855      3.624
REMARK  6 active torsions:
REMARK  status: ('A' for Active; 'I' for Inactive)
REMARK    1  A    between atoms: C2_2  and  C3_3 
REMARK    2  A    between atoms: C2_2  and  C4_6 
REMARK    3  A    between atoms: C2_2  and  N6_22 
REMARK    4  A    between atoms: C3_3  and  O1_4 
REMARK    5  A    between atoms: C4_6  and  N1_7 
REMARK    6  A    between atoms: N6_22  and  C9_24 
ROOT
HETATM    1  C9  UNL     1      16.744   0.826  13.655  1.00  0.00     0.294 C 
HETATM    2  C10 UNL     1      16.387   2.079  14.306  1.00  0.00     0.099 C 
HETATM    3  N7  UNL     1      16.085   3.067  14.856  1.00  0.00    -0.194 NA
HETATM    4  C11 UNL     1      16.732  -0.266  14.667  1.00  0.00     0.099 C 
HETATM    5  N8  UNL     1      16.704  -1.120  15.448  1.00  0.00    -0.194 NA
ENDROOT
BRANCH   1   6
HETATM    6  N6  UNL     1      17.972   0.880  12.993  1.00  0.00    -0.383 N 
ATOM      7  H6  UNL     1      18.832   0.883  13.541  1.00  0.00     0.156 HD
BRANCH   6   8
HETATM    8  C2  UNL     1      18.053   0.930  11.587  1.00  0.00     0.063 C 
HETATM    9  C1  UNL     1      18.885  -0.138  10.975  1.00  0.00     0.042 C 
BRANCH   8  10
HETATM   10  C3  UNL     1      16.609   0.655  11.094  1.00  0.00     0.196 C 
BRANCH  10  11
HETATM   11  O1  UNL     1      16.286   1.796  10.330  1.00  0.00    -0.398 OA
ATOM     12  H1  UNL     1      17.021   1.891   9.737  1.00  0.00     0.209 HD
ENDBRANCH  10  11
ENDBRANCH   8  10
BRANCH   8  13
HETATM   13  C4  UNL     1      18.430   2.336  11.184  1.00  0.00     0.184 C 
BRANCH  13  14
HETATM   14  N1  UNL     1      19.849   2.594  11.176  1.00  0.00    -0.257 N 
HETATM   15  N2  UNL     1      20.640   2.620  12.231  1.00  0.00    -0.238 N 
HETATM   16  N3  UNL     1      21.892   2.890  11.907  1.00  0.00    -0.278 N 
ATOM     17  H2  UNL     1      20.322   2.452  13.186  1.00  0.00     0.208 HD
HETATM   18  C5  UNL     1      21.929   3.048  10.586  1.00  0.00     0.163 A 
ATOM     19  H3  UNL     1      22.682   2.963  12.549  1.00  0.00     0.189 HD
HETATM   20  C6  UNL     1      22.993   3.338   9.725  1.00  0.00     0.281 A 
HETATM   21  C8  UNL     1      20.658   2.863  10.140  1.00  0.00     0.161 A 
HETATM   22  O2  UNL     1      24.157   3.508  10.133  1.00  0.00    -0.265 OA
HETATM   23  N4  UNL     1      22.716   3.432   8.413  1.00  0.00    -0.273 N 
HETATM   24  C7  UNL     1      21.454   3.249   7.964  1.00  0.00     0.328 A 
ATOM     25  H4  UNL     1      23.464   3.643   7.751  1.00  0.00     0.173 HD
HETATM   26  O3  UNL     1      21.217   3.342   6.724  1.00  0.00    -0.247 OA
HETATM   27  N5  UNL     1      20.441   2.968   8.817  1.00  0.00    -0.291 N 
ATOM     28  H5  UNL     1      19.499   2.836   8.450  1.00  0.00     0.172 HD
ENDBRANCH  13  14
ENDBRANCH   8  13
ENDBRANCH   6   8
ENDBRANCH   1   6
TORSDOF 6
ENDMDL
MODEL 3
REMARK VINA RESULT: -6.992098026      2.835      5.470
REMARK  6 active torsions:
REMARK  status: ('A' for Active; 'I' for Inactive)
REMARK    1  A    between atoms: C2_2  and  C3_3 
REMARK    2  A    between atoms: C2_2  and  C4_6 
REMARK    3  A    between atoms: C2_2  and  N6_22 
REMARK    4  A    between atoms: C3_3  and  O1_4 
REMARK    5  A    between atoms: C4_6  and  N1_7 
REMARK    6  A    between atoms: N6_22  and  C9_24 
ROOT
HETATM    1  C9  UNL     1      19.030   1.715  11.073  1.00  0.00     0.294 C 
HETATM    2  C10 UNL     1      18.917   0.265  11.138  1.00  0.00     0.099 C 
HETATM    3  N7  UNL     1      18.845  -0.904  11.160  1.00  0.00    -0.194 NA
HETATM    4  C11 UNL     1      20.191   2.072  10.213  1.00  0.00     0.099 C 
HETATM    5  N8  UNL     1      21.081   2.352   9.528  1.00  0.00    -0.194 NA
ENDROOT
BRANCH   1   6
HETATM    6  N6  UNL     1      19.137   2.316  12.329  1.00  0.00    -0.383 N 
ATOM      7  H6  UNL     1      20.020   2.256  12.835  1.00  0.00     0.156 HD
BRANCH   6   8
HETATM    8  C2  UNL     1      18.054   3.003  12.915  1.00  0.00     0.063 C 
HETATM    9  C1  UNL     1      18.335   3.576  14.256  1.00  0.00     0.042 C 
BRANCH   8  10
HETATM   10  C3  UNL     1      17.812   4.225  11.991  1.00  0.00     0.196 C 
BRANCH  10  11
HETATM   11  O1  UNL     1      16.451   4.118  11.634  1.00  0.00    -0.398 OA
ATOM     12  H1  UNL     1      16.315   3.185  11.524  1.00  0.00     0.209 HD
ENDBRANCH  10  11
ENDBRANCH   8  10
BRANCH   8  13
HETATM   13  C4  UNL     1      16.837   2.112  12.849  1.00  0.00     0.184 C 
BRANCH  13  14
HETATM   14  N1  UNL     1      16.708   1.196  13.955  1.00  0.00    -0.257 N 
HETATM   15  N2  UNL     1      17.289   0.017  14.060  1.00  0.00    -0.238 N 
HETATM   16  N3  UNL     1      16.975  -0.595  15.187  1.00  0.00    -0.278 N 
ATOM     17  H2  UNL     1      17.910  -0.377  13.352  1.00  0.00     0.208 HD
HETATM   18  C5  UNL     1      16.152   0.213  15.854  1.00  0.00     0.163 A 
ATOM     19  H3  UNL     1      17.300  -1.512  15.491  1.00  0.00     0.189 HD
HETATM   20  C6  UNL     1      15.527   0.064  17.096  1.00  0.00     0.281 A 
HETATM   21  C8  UNL     1      15.991   1.321  15.083  1.00  0.00     0.161 A 
HETATM   22  O2  UNL     1      15.673  -0.951  17.802  1.00  0.00    -0.265 OA
HETATM   23  N4  UNL     1      14.742   1.072  17.516  1.00  0.00    -0.273 N 
HETATM   24  C7  UNL     1      14.579   2.177  16.753  1.00  0.00     0.328 A 
ATOM     25  H4  UNL     1      14.267   1.003  18.416  1.00  0.00     0.173 HD
HETATM   26  O3  UNL     1      13.836   3.113  17.169  1.00  0.00    -0.247 OA
HETATM   27  N5  UNL     1      15.196   2.297  15.555  1.00  0.00    -0.291 N 
ATOM     28  H5  UNL     1      15.054   3.142  15.000  1.00  0.00     0.172 HD
ENDBRANCH  13  14
ENDBRANCH   8  13
ENDBRANCH   6   8
ENDBRANCH   1   6
TORSDOF 6
ENDMDL
MODEL 4
REMARK VINA RESULT: -6.901253111      2.611      4.490
REMARK  6 active torsions:
REMARK  status: ('A' for Active; 'I' for Inactive)
REMARK    1  A    between atoms: C2_2  and  C3_3 
REMARK    2  A    between atoms: C2_2  and  C4_6 
REMARK    3  A    between atoms: C2_2  and  N6_22 
REMARK    4  A    between atoms: C3_3  and  O1_4 
REMARK    5  A    between atoms: C4_6  and  N1_7 
REMARK    6  A    between atoms: N6_22  and  C9_24 
ROOT
HETATM    1  C9  UNL     1      17.594   0.166  11.350  1.00  0.00     0.294 C 
HETATM    2  C10 UNL     1      16.947  -0.346  10.151  1.00  0.00     0.099 C 
HETATM    3  N7  UNL     1      16.420  -0.790   9.204  1.00  0.00    -0.194 NA
HETATM    4  C11 UNL     1      17.156  -0.643  12.521  1.00  0.00     0.099 C 
HETATM    5  N8  UNL     1      16.832  -1.283  13.428  1.00  0.00    -0.194 NA
ENDROOT
BRANCH   1   6
HETATM    6  N6  UNL     1      17.357   1.525  11.566  1.00  0.00    -0.383 N 
ATOM      7  H6  UNL     1      16.431   1.826  11.871  1.00  0.00     0.156 HD
BRANCH   6   8
HETATM    8  C2  UNL     1      18.364   2.492  11.374  1.00  0.00     0.063 C 
HETATM    9  C1  UNL     1      19.645   1.958  10.846  1.00  0.00     0.042 C 
BRANCH   8  10
HETATM   10  C3  UNL     1      17.818   3.420  10.258  1.00  0.00     0.196 C 
BRANCH  10  11
HETATM   11  O1  UNL     1      16.424   3.204  10.287  1.00  0.00    -0.398 OA
ATOM     12  H1  UNL     1      16.060   4.069  10.434  1.00  0.00     0.209 HD
ENDBRANCH  10  11
ENDBRANCH   8  10
BRANCH   8  13
HETATM   13  C4  UNL     1      18.491   3.302  12.642  1.00  0.00     0.184 C 
BRANCH  13  14
HETATM   14  N1  UNL     1      17.304   3.318  13.461  1.00  0.00    -0.257 N 
HETATM   15  N2  UNL     1      16.308   4.178  13.371  1.00  0.00    -0.238 N 
HETATM   16  N3  UNL     1      15.363   3.940  14.262  1.00  0.00    -0.278 N 
ATOM     17  H2  UNL     1      16.273   4.939  12.693  1.00  0.00     0.208 HD
HETATM   18  C5  UNL     1      15.750   2.880  14.969  1.00  0.00     0.163 A 
ATOM     19  H3  UNL     1      14.499   4.468  14.386  1.00  0.00     0.189 HD
HETATM   20  C6  UNL     1      15.128   2.204  16.025  1.00  0.00     0.281 A 
HETATM   21  C8  UNL     1      16.954   2.499  14.466  1.00  0.00     0.161 A 
HETATM   22  O2  UNL     1      14.026   2.552  16.486  1.00  0.00    -0.265 OA
HETATM   23  N4  UNL     1      15.773   1.143  16.542  1.00  0.00    -0.273 N 
HETATM   24  C7  UNL     1      16.971   0.761  16.046  1.00  0.00     0.328 A 
ATOM     25  H4  UNL     1      15.355   0.624  17.314  1.00  0.00     0.173 HD
HETATM   26  O3  UNL     1      17.559  -0.241  16.548  1.00  0.00    -0.247 OA
HETATM   27  N5  UNL     1      17.552   1.431  15.022  1.00  0.00    -0.291 N 
ATOM     28  H5  UNL     1      18.456   1.120  14.668  1.00  0.00     0.172 HD
ENDBRANCH  13  14
ENDBRANCH   8  13
ENDBRANCH   6   8
ENDBRANCH   1   6
TORSDOF 6
ENDMDL
MODEL 5
REMARK VINA RESULT: -6.893597938      2.399      3.457
REMARK  6 active torsions:
REMARK  status: ('A' for Active; 'I' for Inactive)
REMARK    1  A    between atoms: C2_2  and  C3_3 
REMARK    2  A    between atoms: C2_2  and  C4_6 
REMARK    3  A    between atoms: C2_2  and  N6_22 
REMARK    4  A    between atoms: C3_3  and  O1_4 
REMARK    5  A    between atoms: C4_6  and  N1_7 
REMARK    6  A    between atoms: N6_22  and  C9_24 
ROOT
HETATM    1  C9  UNL     1      16.865   1.500  14.232  1.00  0.00     0.294 C 
HETATM    2  C10 UNL     1      17.317   0.665  15.336  1.00  0.00     0.099 C 
HETATM    3  N7  UNL     1      17.663   0.017  16.248  1.00  0.00    -0.194 NA
HETATM    4  C11 UNL     1      15.707   2.318  14.685  1.00  0.00     0.099 C 
HETATM    5  N8  UNL     1      14.820   2.970  15.041  1.00  0.00    -0.194 NA
ENDROOT
BRANCH   1   6
HETATM    6  N6  UNL     1      16.543   0.770  13.086  1.00  0.00    -0.383 N 
ATOM      7  H6  UNL     1      15.745   0.135  13.110  1.00  0.00     0.156 HD
BRANCH   6   8
HETATM    8  C2  UNL     1      17.291   0.889  11.898  1.00  0.00     0.063 C 
HETATM    9  C1  UNL     1      18.493   0.021  11.831  1.00  0.00     0.042 C 
BRANCH   8  10
HETATM   10  C3  UNL     1      16.349   0.370  10.780  1.00  0.00     0.196 C 
BRANCH  10  11
HETATM   11  O1  UNL     1      15.186   1.156  10.921  1.00  0.00    -0.398 OA
ATOM     12  H1  UNL     1      14.820   1.183  10.045  1.00  0.00     0.209 HD
ENDBRANCH  10  11
ENDBRANCH   8  10
BRANCH   8  13
HETATM   13  C4  UNL     1      17.554   2.356  11.649  1.00  0.00     0.184 C 
BRANCH  13  14
HETATM   14  N1  UNL     1      18.930   2.752  11.820  1.00  0.00    -0.257 N 
HETATM   15  N2  UNL     1      19.509   3.081  12.958  1.00  0.00    -0.238 N 
HETATM   16  N3  UNL     1      20.779   3.404  12.795  1.00  0.00    -0.278 N 
ATOM     17  H2  UNL     1      19.031   3.085  13.860  1.00  0.00     0.208 HD
HETATM   18  C5  UNL     1      21.050   3.284  11.497  1.00  0.00     0.163 A 
ATOM     19  H3  UNL     1      21.430   3.691  13.526  1.00  0.00     0.189 HD
HETATM   20  C6  UNL     1      22.234   3.495  10.783  1.00  0.00     0.281 A 
HETATM   21  C8  UNL     1      19.898   2.879  10.899  1.00  0.00     0.161 A 
HETATM   22  O2  UNL     1      23.289   3.866  11.330  1.00  0.00    -0.265 OA
HETATM   23  N4  UNL     1      22.200   3.282   9.456  1.00  0.00    -0.273 N 
HETATM   24  C7  UNL     1      21.057   2.879   8.856  1.00  0.00     0.328 A 
ATOM     25  H4  UNL     1      23.042   3.425   8.898  1.00  0.00     0.173 HD
HETATM   26  O3  UNL     1      21.049   2.684   7.605  1.00  0.00    -0.247 OA
HETATM   27  N5  UNL     1      19.924   2.681   9.569  1.00  0.00    -0.291 N 
ATOM     28  H5  UNL     1      19.076   2.377   9.090  1.00  0.00     0.172 HD
ENDBRANCH  13  14
ENDBRANCH   8  13
ENDBRANCH   6   8
ENDBRANCH   1   6
TORSDOF 6
ENDMDL
