MODEL 1
REMARK VINA RESULT: -7.331647809      0.000      0.000
REMARK  5 active torsions:
REMARK  status: ('A' for Active; 'I' for Inactive)
REMARK    1  A    between atoms: N4_14  and  C7_15 
REMARK    2  A    between atoms: C7_15  and  C8_16 
REMARK    3  A    between atoms: C8_16  and  C9_17 
REMARK    4  A    between atoms: C9_17  and  N5_18 
REMARK    5  A    between atoms: C11_25  and  N9_26 
ROOT
HETATM    1  C7  UNL     1      17.325   4.984  13.448  1.00  0.00     0.131 C 
ENDROOT
BRANCH   1   2
HETATM    2  N4  UNL     1      16.364   4.161  14.114  1.00  0.00    -0.335 N 
HETATM    3  C4  UNL     1      16.601   3.045  14.837  1.00  0.00     0.149 A 
HETATM    4  C3  UNL     1      17.772   2.381  15.117  1.00  0.00     0.280 A 
HETATM    5  C5  UNL     1      15.408   2.544  15.344  1.00  0.00     0.145 A 
HETATM    6  N2  UNL     1      17.715   1.278  15.868  1.00  0.00    -0.273 N 
HETATM    7  O2  UNL     1      18.837   2.847  14.651  1.00  0.00    -0.265 OA
HETATM    8  C2  UNL     1      16.540   0.799  16.358  1.00  0.00     0.330 A 
ATOM      9  H2  UNL     1      18.579   0.780  16.081  1.00  0.00     0.173 HD
HETATM   10  N1  UNL     1      15.388   1.430  16.098  1.00  0.00    -0.288 N 
HETATM   11  O1  UNL     1      16.580  -0.250  17.055  1.00  0.00    -0.246 OA
HETATM   12  C1  UNL     1      14.147   0.927  16.622  1.00  0.00     0.163 C 
HETATM   13  N3  UNL     1      14.457   3.388  14.906  1.00  0.00    -0.336 N 
HETATM   14  C6  UNL     1      15.046   4.353  14.169  1.00  0.00     0.185 A 
ATOM     15  H3  UNL     1      13.459   3.312  15.100  1.00  0.00     0.168 HD
ENDBRANCH   1   2
BRANCH   1  16
HETATM   16  C8  UNL     1      17.257   4.745  11.935  1.00  0.00     0.036 C 
BRANCH  16  17
HETATM   17  C9  UNL     1      18.583   4.212  11.507  1.00  0.00     0.119 C 
BRANCH  17  18
HETATM   18  N5  UNL     1      18.547   2.878  10.950  1.00  0.00    -0.182 NA
HETATM   19  N6  UNL     1      17.340   2.235  11.267  1.00  0.00    -0.289 N 
HETATM   20  C10 UNL     1      17.634   1.005  11.890  1.00  0.00     0.201 A 
ATOM     21  H6  UNL     1      16.405   2.598  11.077  1.00  0.00     0.183 HD
HETATM   22  N7  UNL     1      16.642   0.078  12.354  1.00  0.00    -0.062 NA
HETATM   23  N8  UNL     1      18.905   0.856  11.974  1.00  0.00    -0.323 N 
HETATM   24  C11 UNL     1      19.548   1.986  11.409  1.00  0.00     0.382 A 
ATOM     25  H8  UNL     1      19.379   0.050  12.383  1.00  0.00     0.165 HD
BRANCH  24  26
HETATM   26  N9  UNL     1      20.579   2.575  12.239  1.00  0.00    -0.044 N 
ATOM     27  H93 UNL     1      20.650   3.574  12.049  1.00  0.00     0.278 HD
ATOM     28  H92 UNL     1      20.272   2.597  13.211  1.00  0.00     0.278 HD
ATOM     29  H91 UNL     1      21.499   2.140  12.174  1.00  0.00     0.278 HD
ENDBRANCH  24  26
ENDBRANCH  17  18
ENDBRANCH  16  17
ENDBRANCH   1  16
TORSDOF 5
ENDMDL
MODEL 2
REMARK VINA RESULT: -7.053255026      1.563      1.622
REMARK  5 active torsions:
REMARK  status: ('A' for Active; 'I' for Inactive)
REMARK    1  A    between atoms: N4_14  and  C7_15 
REMARK    2  A    between atoms: C7_15  and  C8_16 
REMARK    3  A    between atoms: C8_16  and  C9_17 
REMARK    4  A    between atoms: C9_17  and  N5_18 
REMARK    5  A    between atoms: C11_25  and  N9_26 
ROOT
HETATM    1  C7  UNL     1      17.283   3.313  13.136  1.00  0.00     0.131 C 
ENDROOT
BRANCH   1   2
HETATM    2  N4  UNL     1      16.341   2.989  14.161  1.00  0.00    -0.335 N 
HETATM    3  C4  UNL     1      16.247   1.832  14.851  1.00  0.00     0.149 A 
HETATM    4  C3  UNL     1      16.971   0.666  14.766  1.00  0.00     0.280 A 
HETATM    5  C5  UNL     1      15.215   1.914  15.780  1.00  0.00     0.145 A 
HETATM    6  N2  UNL     1      16.655  -0.342  15.583  1.00  0.00    -0.273 N 
HETATM    7  O2  UNL     1      17.896   0.611  13.923  1.00  0.00    -0.265 OA
HETATM    8  C2  UNL     1      15.644  -0.247  16.487  1.00  0.00     0.330 A 
ATOM      9  H2  UNL     1      17.188  -1.210  15.526  1.00  0.00     0.173 HD
HETATM   10  N1  UNL     1      14.925   0.878  16.588  1.00  0.00    -0.288 N 
HETATM   11  O1  UNL     1      15.413  -1.249  17.215  1.00  0.00    -0.246 OA
HETATM   12  C1  UNL     1      13.860   0.980  17.548  1.00  0.00     0.163 C 
HETATM   13  N3  UNL     1      14.701   3.147  15.626  1.00  0.00    -0.336 N 
HETATM   14  C6  UNL     1      15.386   3.780  14.651  1.00  0.00     0.185 A 
ATOM     15  H3  UNL     1      13.924   3.538  16.158  1.00  0.00     0.168 HD
ENDBRANCH   1   2
BRANCH   1  16
HETATM   16  C8  UNL     1      16.802   2.759  11.790  1.00  0.00     0.036 C 
BRANCH  16  17
HETATM   17  C9  UNL     1      18.009   2.546  10.939  1.00  0.00     0.119 C 
BRANCH  17  18
HETATM   18  N5  UNL     1      18.120   1.220  10.370  1.00  0.00    -0.182 NA
HETATM   19  N6  UNL     1      17.017   0.428  10.726  1.00  0.00    -0.289 N 
HETATM   20  C10 UNL     1      17.489  -0.758  11.325  1.00  0.00     0.201 A 
ATOM     21  H6  UNL     1      16.038   0.670  10.575  1.00  0.00     0.183 HD
HETATM   22  N7  UNL     1      16.641  -1.806  11.817  1.00  0.00    -0.062 NA
HETATM   23  N8  UNL     1      18.770  -0.745  11.359  1.00  0.00    -0.323 N 
HETATM   24  C11 UNL     1      19.243   0.461  10.782  1.00  0.00     0.382 A 
ATOM     25  H8  UNL     1      19.358  -1.486  11.742  1.00  0.00     0.165 HD
BRANCH  24  26
HETATM   26  N9  UNL     1      20.222   1.171  11.578  1.00  0.00    -0.044 N 
ATOM     27  H93 UNL     1      19.951   2.149  11.673  1.00  0.00     0.278 HD
ATOM     28  H92 UNL     1      20.163   0.872  12.551  1.00  0.00     0.278 HD
ATOM     29  H91 UNL     1      21.187   1.107  11.252  1.00  0.00     0.278 HD
ENDBRANCH  24  26
ENDBRANCH  17  18
ENDBRANCH  16  17
ENDBRANCH   1  16
TORSDOF 5
ENDMDL
MODEL 3
REMARK VINA RESULT: -6.600430961      1.988      3.126
REMARK  5 active torsions:
REMARK  status: ('A' for Active; 'I' for Inactive)
REMARK    1  A    between atoms: N4_14  and  C7_15 
REMARK    2  A    between atoms: C7_15  and  C8_16 
REMARK    3  A    between atoms: C8_16  and  C9_17 
REMARK    4  A    between atoms: C9_17  and  N5_18 
REMARK    5  A    between atoms: C11_25  and  N9_26 
ROOT
HETATM    1  C7  UNL     1      16.938   4.423  12.216  1.00  0.00     0.131 C 
ENDROOT
BRANCH   1   2
HETATM    2  N4  UNL     1      16.956   3.021  11.938  1.00  0.00    -0.335 N 
HETATM    3  C4  UNL     1      16.956   2.008  12.831  1.00  0.00     0.149 A 
HETATM    4  C3  UNL     1      16.965   2.014  14.206  1.00  0.00     0.280 A 
HETATM    5  C5  UNL     1      16.951   0.787  12.167  1.00  0.00     0.145 A 
HETATM    6  N2  UNL     1      16.968   0.844  14.849  1.00  0.00    -0.273 N 
HETATM    7  O2  UNL     1      16.971   3.124  14.788  1.00  0.00    -0.265 OA
HETATM    8  C2  UNL     1      16.962  -0.343  14.186  1.00  0.00     0.330 A 
ATOM      9  H2  UNL     1      16.975   0.841  15.869  1.00  0.00     0.173 HD
HETATM   10  N1  UNL     1      16.953  -0.374  12.848  1.00  0.00    -0.288 N 
HETATM   11  O1  UNL     1      16.969  -1.399  14.874  1.00  0.00    -0.246 OA
HETATM   12  C1  UNL     1      16.940  -1.629  12.147  1.00  0.00     0.163 C 
HETATM   13  N3  UNL     1      16.946   1.098  10.859  1.00  0.00    -0.336 N 
HETATM   14  C6  UNL     1      16.949   2.442  10.737  1.00  0.00     0.185 A 
ATOM     15  H3  UNL     1      16.940   0.430  10.088  1.00  0.00     0.168 HD
ENDBRANCH   1   2
BRANCH   1  16
HETATM   16  C8  UNL     1      17.925   5.150  11.294  1.00  0.00     0.036 C 
BRANCH  16  17
HETATM   17  C9  UNL     1      19.148   5.445  12.095  1.00  0.00     0.119 C 
BRANCH  17  18
HETATM   18  N5  UNL     1      20.307   4.654  11.742  1.00  0.00    -0.182 NA
HETATM   19  N6  UNL     1      20.079   3.931  10.560  1.00  0.00    -0.289 N 
HETATM   20  C10 UNL     1      20.331   2.567  10.811  1.00  0.00     0.201 A 
ATOM     21  H6  UNL     1      19.781   4.328   9.669  1.00  0.00     0.183 HD
HETATM   22  N7  UNL     1      20.199   1.529   9.829  1.00  0.00    -0.062 NA
HETATM   23  N8  UNL     1      20.687   2.410  12.032  1.00  0.00    -0.323 N 
HETATM   24  C11 UNL     1      20.696   3.669  12.684  1.00  0.00     0.382 A 
ATOM     25  H8  UNL     1      20.928   1.519  12.467  1.00  0.00     0.165 HD
BRANCH  24  26
HETATM   26  N9  UNL     1      19.994   3.701  13.950  1.00  0.00    -0.044 N 
ATOM     27  H93 UNL     1      20.662   3.662  14.720  1.00  0.00     0.278 HD
ATOM     28  H92 UNL     1      19.595   4.627  14.104  1.00  0.00     0.278 HD
ATOM     29  H91 UNL     1      19.276   2.988  14.075  1.00  0.00     0.278 HD
ENDBRANCH  24  26
ENDBRANCH  17  18
ENDBRANCH  16  17
ENDBRANCH   1  16
TORSDOF 5
ENDMDL
MODEL 4
REMARK VINA RESULT: -6.546967041      2.338      4.904
REMARK  5 active torsions:
REMARK  status: ('A' for Active; 'I' for Inactive)
REMARK    1  A    between atoms: N4_14  and  C7_15 
REMARK    2  A    between atoms: C7_15  and  C8_16 
REMARK    3  A    between atoms: C8_16  and  C9_17 
REMARK    4  A    between atoms: C9_17  and  N5_18 
REMARK    5  A    between atoms: C11_25  and  N9_26 
ROOT
HETATM    1  C7  UNL     1      19.308   4.524  11.745  1.00  0.00     0.131 C 
ENDROOT
BRANCH   1   2
HETATM    2  N4  UNL     1      19.348   3.101  11.615  1.00  0.00    -0.335 N 
HETATM    3  C4  UNL     1      18.326   2.278  11.296  1.00  0.00     0.149 A 
HETATM    4  C3  UNL     1      17.000   2.540  11.040  1.00  0.00     0.280 A 
HETATM    5  C5  UNL     1      18.771   0.962  11.245  1.00  0.00     0.145 A 
HETATM    6  N2  UNL     1      16.193   1.516  10.750  1.00  0.00    -0.273 N 
HETATM    7  O2  UNL     1      16.617   3.731  11.091  1.00  0.00    -0.265 OA
HETATM    8  C2  UNL     1      16.643   0.234  10.703  1.00  0.00     0.330 A 
ATOM      9  H2  UNL     1      15.208   1.702  10.559  1.00  0.00     0.173 HD
HETATM   10  N1  UNL     1      17.929  -0.044  10.949  1.00  0.00    -0.288 N 
HETATM   11  O1  UNL     1      15.810  -0.670  10.424  1.00  0.00    -0.246 OA
HETATM   12  C1  UNL     1      18.406  -1.399  10.893  1.00  0.00     0.163 C 
HETATM   13  N3  UNL     1      20.082   1.023  11.539  1.00  0.00    -0.336 N 
HETATM   14  C6  UNL     1      20.414   2.313  11.759  1.00  0.00     0.185 A 
ATOM     15  H3  UNL     1      20.719   0.228  11.587  1.00  0.00     0.168 HD
ENDBRANCH   1   2
BRANCH   1  16
HETATM   16  C8  UNL     1      19.449   4.917  13.220  1.00  0.00     0.036 C 
BRANCH  16  17
HETATM   17  C9  UNL     1      18.101   5.339  13.700  1.00  0.00     0.119 C 
BRANCH  17  18
HETATM   18  N5  UNL     1      17.539   4.500  14.736  1.00  0.00    -0.182 NA
HETATM   19  N6  UNL     1      18.189   3.257  14.783  1.00  0.00    -0.289 N 
HETATM   20  C10 UNL     1      17.221   2.238  14.671  1.00  0.00     0.201 A 
ATOM     21  H6  UNL     1      19.194   3.115  14.881  1.00  0.00     0.183 HD
HETATM   22  N7  UNL     1      17.522   0.835  14.678  1.00  0.00    -0.062 NA
HETATM   23  N8  UNL     1      16.055   2.759  14.563  1.00  0.00    -0.323 N 
HETATM   24  C11 UNL     1      16.168   4.172  14.593  1.00  0.00     0.382 A 
ATOM     25  H8  UNL     1      15.182   2.239  14.469  1.00  0.00     0.165 HD
BRANCH  24  26
HETATM   26  N9  UNL     1      15.467   4.860  13.528  1.00  0.00    -0.044 N 
ATOM     27  H93 UNL     1      16.077   5.557  13.103  1.00  0.00     0.278 HD
ATOM     28  H92 UNL     1      15.333   4.230  12.737  1.00  0.00     0.278 HD
ATOM     29  H91 UNL     1      14.578   5.286  13.788  1.00  0.00     0.278 HD
ENDBRANCH  24  26
ENDBRANCH  17  18
ENDBRANCH  16  17
ENDBRANCH   1  16
TORSDOF 5
ENDMDL
MODEL 5
REMARK VINA RESULT: -6.533238716      1.687      2.357
REMARK  5 active torsions:
REMARK  status: ('A' for Active; 'I' for Inactive)
REMARK    1  A    between atoms: N4_14  and  C7_15 
REMARK    2  A    between atoms: C7_15  and  C8_16 
REMARK    3  A    between atoms: C8_16  and  C9_17 
REMARK    4  A    between atoms: C9_17  and  N5_18 
REMARK    5  A    between atoms: C11_25  and  N9_26 
ROOT
HETATM    1  C7  UNL     1      17.042   3.051  12.231  1.00  0.00     0.131 C 
ENDROOT
BRANCH   1   2
HETATM    2  N4  UNL     1      16.311   2.907  13.451  1.00  0.00    -0.335 N 
HETATM    3  C4  UNL     1      16.303   1.842  14.281  1.00  0.00     0.149 A 
HETATM    4  C3  UNL     1      16.941   0.627  14.200  1.00  0.00     0.280 A 
HETATM    5  C5  UNL     1      15.484   2.097  15.376  1.00  0.00     0.145 A 
HETATM    6  N2  UNL     1      16.748  -0.262  15.178  1.00  0.00    -0.273 N 
HETATM    7  O2  UNL     1      17.674   0.414  13.206  1.00  0.00    -0.265 OA
HETATM    8  C2  UNL     1      15.944   0.002  16.243  1.00  0.00     0.330 A 
ATOM      9  H2  UNL     1      17.218  -1.166  15.125  1.00  0.00     0.173 HD
HETATM   10  N1  UNL     1      15.313   1.178  16.344  1.00  0.00    -0.288 N 
HETATM   11  O1  UNL     1      15.818  -0.896  17.118  1.00  0.00    -0.246 OA
HETATM   12  C1  UNL     1      14.469   1.459  17.473  1.00  0.00     0.163 C 
HETATM   13  N3  UNL     1      15.007   3.338  15.176  1.00  0.00    -0.336 N 
HETATM   14  C6  UNL     1      15.511   3.812  14.017  1.00  0.00     0.185 A 
ATOM     15  H3  UNL     1      14.371   3.838  15.798  1.00  0.00     0.168 HD
ENDBRANCH   1   2
BRANCH   1  16
HETATM   16  C8  UNL     1      18.090   4.161  12.379  1.00  0.00     0.036 C 
BRANCH  16  17
HETATM   17  C9  UNL     1      19.400   3.503  12.655  1.00  0.00     0.119 C 
BRANCH  17  18
HETATM   18  N5  UNL     1      20.323   3.503  11.541  1.00  0.00    -0.182 NA
HETATM   19  N6  UNL     1      19.827   4.276  10.480  1.00  0.00    -0.289 N 
HETATM   20  C10 UNL     1      19.810   3.483   9.314  1.00  0.00     0.201 A 
ATOM     21  H6  UNL     1      19.529   5.250  10.542  1.00  0.00     0.183 HD
HETATM   22  N7  UNL     1      19.361   3.944   8.032  1.00  0.00    -0.062 NA
HETATM   23  N8  UNL     1      20.249   2.309   9.583  1.00  0.00    -0.323 N 
HETATM   24  C11 UNL     1      20.590   2.240  10.958  1.00  0.00     0.382 A 
ATOM     25  H8  UNL     1      20.340   1.545   8.913  1.00  0.00     0.165 HD
BRANCH  24  26
HETATM   26  N9  UNL     1      20.045   1.096  11.661  1.00  0.00    -0.044 N 
ATOM     27  H93 UNL     1      20.390   1.081  12.620  1.00  0.00     0.278 HD
ATOM     28  H92 UNL     1      19.049   1.234  11.828  1.00  0.00     0.278 HD
ATOM     29  H91 UNL     1      20.202   0.191  11.219  1.00  0.00     0.278 HD
ENDBRANCH  24  26
ENDBRANCH  17  18
ENDBRANCH  16  17
ENDBRANCH   1  16
TORSDOF 5
ENDMDL
