MODEL 1
REMARK VINA RESULT: -7.254198499      0.000      0.000
REMARK  8 active torsions:
REMARK  status: ('A' for Active; 'I' for Inactive)
REMARK    1  A    between atoms: O1_1  and  N1_3 
REMARK    2  A    between atoms: C2_5  and  O2_6 
REMARK    3  A    between atoms: C3_10  and  N3_11 
REMARK    4  A    between atoms: N7_24  and  C9_25 
REMARK    5  A    between atoms: C9_25  and  O3_26 
REMARK    6  A    between atoms: O3_26  and  C10_27 
REMARK    7  A    between atoms: C10_27  and  C11_28 
REMARK    8  A    between atoms: C11_28  and  O4_29 
ROOT
HETATM    1  N3  UNL     1      16.763   2.240  14.846  1.00  0.00    -0.315 N 
ATOM      2  H3  UNL     1      16.879   3.236  15.030  1.00  0.00     0.170 HD
HETATM    3  C4  UNL     1      17.257   1.719  13.777  1.00  0.00     0.139 A 
HETATM    4  N4  UNL     1      17.148   0.416  13.462  1.00  0.00    -0.337 N 
ATOM      5  H4  UNL     1      16.647  -0.206  14.097  1.00  0.00     0.168 HD
HETATM    6  C5  UNL     1      17.679  -0.095  12.333  1.00  0.00     0.183 A 
HETATM    7  N5  UNL     1      18.350   0.672  11.453  1.00  0.00    -0.336 N 
ATOM      8  H5  UNL     1      18.745   0.272  10.602  1.00  0.00     0.168 HD
HETATM    9  C6  UNL     1      18.484   1.995  11.732  1.00  0.00     0.142 A 
HETATM   10  C7  UNL     1      17.944   2.521  12.883  1.00  0.00     0.122 A 
HETATM   11  N6  UNL     1      18.218   3.816  12.906  1.00  0.00    -0.346 N 
ATOM     12  H6  UNL     1      17.946   4.471  13.639  1.00  0.00     0.167 HD
HETATM   13  C8  UNL     1      18.917   4.123  11.798  1.00  0.00     0.187 A 
HETATM   14  N7  UNL     1      19.088   3.007  11.065  1.00  0.00    -0.305 N 
ENDROOT
BRANCH   1  15
HETATM   15  C3  UNL     1      16.056   1.420  15.769  1.00  0.00     0.183 C 
HETATM   16  N1  UNL     1      16.511   0.160  16.242  1.00  0.00    -0.129 NA
HETATM   17  C1  UNL     1      15.861   0.066  17.532  1.00  0.00     0.183 C 
HETATM   18  C2  UNL     1      14.485   0.652  17.186  1.00  0.00     0.235 C 
HETATM   19  N2  UNL     1      14.915   1.727  16.282  1.00  0.00    -0.337 N 
ATOM     20  H2  UNL     1      14.392   2.582  16.090  1.00  0.00     0.164 HD
BRANCH  16  21
HETATM   21  O1  UNL     1      17.859   0.111  16.344  1.00  0.00    -0.305 OA
ATOM     22  H1  UNL     1      18.253  -0.411  15.655  1.00  0.00     0.237 HD
ENDBRANCH  16  21
BRANCH  18  23
HETATM   23  O2  UNL     1      13.778  -0.331  16.498  1.00  0.00    -0.376 OA
ATOM     24  H2  UNL     1      13.679  -0.031  15.601  1.00  0.00     0.212 HD
ENDBRANCH  18  23
ENDBRANCH   1  15
BRANCH  14  25
HETATM   25  C9  UNL     1      19.791   2.921   9.799  1.00  0.00     0.301 C 
BRANCH  25  26
HETATM   26  O3  UNL     1      20.968   2.242   9.996  1.00  0.00    -0.369 OA
BRANCH  26  27
HETATM   27  C10 UNL     1      22.098   2.980   9.740  1.00  0.00     0.196 C 
BRANCH  27  28
HETATM   28  C11 UNL     1      22.499   3.891  10.874  1.00  0.00     0.190 C 
BRANCH  28  29
HETATM   29  O4  UNL     1      23.387   3.143  11.682  1.00  0.00    -0.399 OA
ATOM     30  H4  UNL     1      23.690   2.422  11.142  1.00  0.00     0.209 HD
ENDBRANCH  28  29
ENDBRANCH  27  28
ENDBRANCH  26  27
ENDBRANCH  25  26
ENDBRANCH  14  25
TORSDOF 8
ENDMDL
MODEL 2
REMARK VINA RESULT: -7.219798310      1.571      1.685
REMARK  8 active torsions:
REMARK  status: ('A' for Active; 'I' for Inactive)
REMARK    1  A    between atoms: O1_1  and  N1_3 
REMARK    2  A    between atoms: C2_5  and  O2_6 
REMARK    3  A    between atoms: C3_10  and  N3_11 
REMARK    4  A    between atoms: N7_24  and  C9_25 
REMARK    5  A    between atoms: C9_25  and  O3_26 
REMARK    6  A    between atoms: O3_26  and  C10_27 
REMARK    7  A    between atoms: C10_27  and  C11_28 
REMARK    8  A    between atoms: C11_28  and  O4_29 
ROOT
HETATM    1  N3  UNL     1      16.362   2.675  14.886  1.00  0.00    -0.315 N 
ATOM      2  H3  UNL     1      16.586   3.611  15.224  1.00  0.00     0.170 HD
HETATM    3  C4  UNL     1      16.555   2.371  13.650  1.00  0.00     0.139 A 
HETATM    4  N4  UNL     1      16.286   1.161  13.128  1.00  0.00    -0.337 N 
ATOM      5  H4  UNL     1      15.906   0.434  13.734  1.00  0.00     0.168 HD
HETATM    6  C5  UNL     1      16.501   0.879  11.827  1.00  0.00     0.183 A 
HETATM    7  N5  UNL     1      16.998   1.795  10.974  1.00  0.00    -0.336 N 
ATOM      8  H5  UNL     1      17.155   1.567   9.992  1.00  0.00     0.168 HD
HETATM    9  C6  UNL     1      17.285   3.031  11.459  1.00  0.00     0.142 A 
HETATM   10  C7  UNL     1      17.067   3.324  12.787  1.00  0.00     0.122 A 
HETATM   11  N6  UNL     1      17.427   4.582  12.989  1.00  0.00    -0.346 N 
ATOM     12  H6  UNL     1      17.379   5.080  13.878  1.00  0.00     0.167 HD
HETATM   13  C8  UNL     1      17.866   5.092  11.824  1.00  0.00     0.187 A 
HETATM   14  N7  UNL     1      17.783   4.144  10.872  1.00  0.00    -0.305 N 
ENDROOT
BRANCH   1  15
HETATM   15  C3  UNL     1      15.836   1.700  15.779  1.00  0.00     0.183 C 
HETATM   16  N1  UNL     1      16.477   0.473  16.102  1.00  0.00    -0.129 NA
HETATM   17  C1  UNL     1      15.950   0.193  17.421  1.00  0.00     0.183 C 
HETATM   18  C2  UNL     1      14.490   0.627  17.229  1.00  0.00     0.235 C 
HETATM   19  N2  UNL     1      14.713   1.817  16.397  1.00  0.00    -0.337 N 
ATOM     20  H2  UNL     1      14.077   2.612  16.322  1.00  0.00     0.164 HD
BRANCH  16  21
HETATM   21  O1  UNL     1      17.825   0.588  16.103  1.00  0.00    -0.305 OA
ATOM     22  H1  UNL     1      18.166   0.825  15.249  1.00  0.00     0.237 HD
ENDBRANCH  16  21
BRANCH  18  23
HETATM   23  O2  UNL     1      13.853  -0.379  16.506  1.00  0.00    -0.376 OA
ATOM     24  H2  UNL     1      13.539  -1.020  17.134  1.00  0.00     0.212 HD
ENDBRANCH  18  23
ENDBRANCH   1  15
BRANCH  14  25
HETATM   25  C9  UNL     1      18.162   4.302   9.481  1.00  0.00     0.301 C 
BRANCH  25  26
HETATM   26  O3  UNL     1      18.840   3.176   9.081  1.00  0.00    -0.369 OA
BRANCH  26  27
HETATM   27  C10 UNL     1      20.186   3.199   9.351  1.00  0.00     0.196 C 
BRANCH  27  28
HETATM   28  C11 UNL     1      20.655   2.042  10.198  1.00  0.00     0.190 C 
BRANCH  28  29
HETATM   29  O4  UNL     1      19.808   0.955   9.879  1.00  0.00    -0.399 OA
ATOM     30  H4  UNL     1      20.335   0.353   9.365  1.00  0.00     0.209 HD
ENDBRANCH  28  29
ENDBRANCH  27  28
ENDBRANCH  26  27
ENDBRANCH  25  26
ENDBRANCH  14  25
TORSDOF 8
ENDMDL
MODEL 3
REMARK VINA RESULT: -7.169059752      1.782      2.581
REMARK  8 active torsions:
REMARK  status: ('A' for Active; 'I' for Inactive)
REMARK    1  A    between atoms: O1_1  and  N1_3 
REMARK    2  A    between atoms: C2_5  and  O2_6 
REMARK    3  A    between atoms: C3_10  and  N3_11 
REMARK    4  A    between atoms: N7_24  and  C9_25 
REMARK    5  A    between atoms: C9_25  and  O3_26 
REMARK    6  A    between atoms: O3_26  and  C10_27 
REMARK    7  A    between atoms: C10_27  and  C11_28 
REMARK    8  A    between atoms: C11_28  and  O4_29 
ROOT
HETATM    1  N3  UNL     1      16.848   2.257  15.107  1.00  0.00    -0.315 N 
ATOM      2  H3  UNL     1      17.198   3.145  15.467  1.00  0.00     0.170 HD
HETATM    3  C4  UNL     1      17.083   1.917  13.888  1.00  0.00     0.139 A 
HETATM    4  N4  UNL     1      16.658   0.765  13.339  1.00  0.00    -0.337 N 
ATOM      5  H4  UNL     1      16.116   0.115  13.910  1.00  0.00     0.168 HD
HETATM    6  C5  UNL     1      16.924   0.442  12.057  1.00  0.00     0.183 A 
HETATM    7  N5  UNL     1      17.631   1.255  11.251  1.00  0.00    -0.336 N 
ATOM      8  H5  UNL     1      17.824   0.998  10.283  1.00  0.00     0.168 HD
HETATM    9  C6  UNL     1      18.081   2.430  11.765  1.00  0.00     0.142 A 
HETATM   10  C7  UNL     1      17.813   2.764  13.073  1.00  0.00     0.122 A 
HETATM   11  N6  UNL     1      18.360   3.946  13.311  1.00  0.00    -0.346 N 
ATOM     12  H6  UNL     1      18.328   4.451  14.196  1.00  0.00     0.167 HD
HETATM   13  C8  UNL     1      18.968   4.368  12.186  1.00  0.00     0.187 A 
HETATM   14  N7  UNL     1      18.803   3.440  11.225  1.00  0.00    -0.305 N 
ENDROOT
BRANCH   1  15
HETATM   15  C3  UNL     1      16.099   1.389  15.950  1.00  0.00     0.183 C 
HETATM   16  N1  UNL     1      16.460   0.048  16.252  1.00  0.00    -0.129 NA
HETATM   17  C1  UNL     1      15.838  -0.150  17.544  1.00  0.00     0.183 C 
HETATM   18  C2  UNL     1      14.507   0.583  17.321  1.00  0.00     0.235 C 
HETATM   19  N2  UNL     1      15.002   1.722  16.537  1.00  0.00    -0.337 N 
ATOM     20  H2  UNL     1      14.548   2.633  16.468  1.00  0.00     0.164 HD
BRANCH  16  21
HETATM   21  O1  UNL     1      17.801  -0.120  16.299  1.00  0.00    -0.305 OA
ATOM     22  H1  UNL     1      18.266   0.707  16.328  1.00  0.00     0.237 HD
ENDBRANCH  16  21
BRANCH  18  23
HETATM   23  O2  UNL     1      13.703  -0.250  16.546  1.00  0.00    -0.376 OA
ATOM     24  H2  UNL     1      13.707   0.099  15.662  1.00  0.00     0.212 HD
ENDBRANCH  18  23
ENDBRANCH   1  15
BRANCH  14  25
HETATM   25  C9  UNL     1      19.310   3.523   9.868  1.00  0.00     0.301 C 
BRANCH  25  26
HETATM   26  O3  UNL     1      18.250   3.450   8.999  1.00  0.00    -0.369 OA
BRANCH  26  27
HETATM   27  C10 UNL     1      17.638   4.654   8.747  1.00  0.00     0.196 C 
BRANCH  27  28
HETATM   28  C11 UNL     1      17.435   4.936   7.279  1.00  0.00     0.190 C 
BRANCH  28  29
HETATM   29  O4  UNL     1      16.736   3.821   6.759  1.00  0.00    -0.399 OA
ATOM     30  H4  UNL     1      17.365   3.109   6.725  1.00  0.00     0.209 HD
ENDBRANCH  28  29
ENDBRANCH  27  28
ENDBRANCH  26  27
ENDBRANCH  25  26
ENDBRANCH  14  25
TORSDOF 8
ENDMDL
MODEL 4
REMARK VINA RESULT: -6.872665259      1.348      2.015
REMARK  8 active torsions:
REMARK  status: ('A' for Active; 'I' for Inactive)
REMARK    1  A    between atoms: O1_1  and  N1_3 
REMARK    2  A    between atoms: C2_5  and  O2_6 
REMARK    3  A    between atoms: C3_10  and  N3_11 
REMARK    4  A    between atoms: N7_24  and  C9_25 
REMARK    5  A    between atoms: C9_25  and  O3_26 
REMARK    6  A    between atoms: O3_26  and  C10_27 
REMARK    7  A    between atoms: C10_27  and  C11_28 
REMARK    8  A    between atoms: C11_28  and  O4_29 
ROOT
HETATM    1  N3  UNL     1      16.554   1.392  13.987  1.00  0.00    -0.315 N 
ATOM      2  H3  UNL     1      16.160   1.063  13.106  1.00  0.00     0.170 HD
HETATM    3  C4  UNL     1      17.584   2.165  13.986  1.00  0.00     0.139 A 
HETATM    4  N4  UNL     1      18.162   2.641  15.103  1.00  0.00    -0.337 N 
ATOM      5  H4  UNL     1      17.774   2.380  16.010  1.00  0.00     0.168 HD
HETATM    6  C5  UNL     1      19.240   3.450  15.063  1.00  0.00     0.183 A 
HETATM    7  N5  UNL     1      19.801   3.828  13.899  1.00  0.00    -0.336 N 
ATOM      8  H5  UNL     1      20.617   4.440  13.884  1.00  0.00     0.168 HD
HETATM    9  C6  UNL     1      19.249   3.372  12.745  1.00  0.00     0.142 A 
HETATM   10  C7  UNL     1      18.148   2.546  12.781  1.00  0.00     0.122 A 
HETATM   11  N6  UNL     1      17.819   2.253  11.532  1.00  0.00    -0.346 N 
ATOM     12  H6  UNL     1      17.042   1.659  11.244  1.00  0.00     0.167 HD
HETATM   13  C8  UNL     1      18.684   2.872  10.708  1.00  0.00     0.187 A 
HETATM   14  N7  UNL     1      19.571   3.566  11.445  1.00  0.00    -0.305 N 
ENDROOT
BRANCH   1  15
HETATM   15  C3  UNL     1      15.970   0.997  15.223  1.00  0.00     0.183 C 
HETATM   16  N1  UNL     1      16.468  -0.040  16.056  1.00  0.00    -0.129 NA
HETATM   17  C1  UNL     1      16.002   0.369  17.364  1.00  0.00     0.183 C 
HETATM   18  C2  UNL     1      14.600   0.881  17.004  1.00  0.00     0.235 C 
HETATM   19  N2  UNL     1      14.916   1.537  15.729  1.00  0.00    -0.337 N 
ATOM     20  H2  UNL     1      14.384   2.301  15.310  1.00  0.00     0.164 HD
BRANCH  16  21
HETATM   21  O1  UNL     1      17.816  -0.135  16.000  1.00  0.00    -0.305 OA
ATOM     22  H1  UNL     1      18.228   0.699  15.807  1.00  0.00     0.237 HD
ENDBRANCH  16  21
BRANCH  18  23
HETATM   23  O2  UNL     1      13.791  -0.236  16.808  1.00  0.00    -0.376 OA
ATOM     24  H2  UNL     1      13.775  -0.719  17.627  1.00  0.00     0.212 HD
ENDBRANCH  18  23
ENDBRANCH   1  15
BRANCH  14  25
HETATM   25  C9  UNL     1      20.663   4.368  10.927  1.00  0.00     0.301 C 
BRANCH  25  26
HETATM   26  O3  UNL     1      21.795   4.088  11.652  1.00  0.00    -0.369 OA
BRANCH  26  27
HETATM   27  C10 UNL     1      22.645   5.155  11.813  1.00  0.00     0.196 C 
BRANCH  27  28
HETATM   28  C11 UNL     1      24.105   4.781  11.770  1.00  0.00     0.190 C 
BRANCH  28  29
HETATM   29  O4  UNL     1      24.164   3.400  12.072  1.00  0.00    -0.399 OA
ATOM     30  H4  UNL     1      23.631   2.964  11.418  1.00  0.00     0.209 HD
ENDBRANCH  28  29
ENDBRANCH  27  28
ENDBRANCH  26  27
ENDBRANCH  25  26
ENDBRANCH  14  25
TORSDOF 8
ENDMDL
MODEL 5
REMARK VINA RESULT: -6.675926374      1.273      2.074
REMARK  8 active torsions:
REMARK  status: ('A' for Active; 'I' for Inactive)
REMARK    1  A    between atoms: O1_1  and  N1_3 
REMARK    2  A    between atoms: C2_5  and  O2_6 
REMARK    3  A    between atoms: C3_10  and  N3_11 
REMARK    4  A    between atoms: N7_24  and  C9_25 
REMARK    5  A    between atoms: C9_25  and  O3_26 
REMARK    6  A    between atoms: O3_26  and  C10_27 
REMARK    7  A    between atoms: C10_27  and  C11_28 
REMARK    8  A    between atoms: C11_28  and  O4_29 
ROOT
HETATM    1  N3  UNL     1      16.395   1.479  14.070  1.00  0.00    -0.315 N 
ATOM      2  H3  UNL     1      15.921   1.224  13.203  1.00  0.00     0.170 HD
HETATM    3  C4  UNL     1      17.464   2.195  14.035  1.00  0.00     0.139 A 
HETATM    4  N4  UNL     1      18.146   2.573  15.132  1.00  0.00    -0.337 N 
ATOM      5  H4  UNL     1      17.808   2.281  16.049  1.00  0.00     0.168 HD
HETATM    6  C5  UNL     1      19.262   3.325  15.056  1.00  0.00     0.183 A 
HETATM    7  N5  UNL     1      19.761   3.741  13.877  1.00  0.00    -0.336 N 
ATOM      8  H5  UNL     1      20.607   4.309  13.836  1.00  0.00     0.168 HD
HETATM    9  C6  UNL     1      19.103   3.383  12.743  1.00  0.00     0.142 A 
HETATM   10  C7  UNL     1      17.963   2.616  12.815  1.00  0.00     0.122 A 
HETATM   11  N6  UNL     1      17.531   2.414  11.579  1.00  0.00    -0.346 N 
ATOM     12  H6  UNL     1      16.703   1.880  11.317  1.00  0.00     0.167 HD
HETATM   13  C8  UNL     1      18.369   3.034  10.729  1.00  0.00     0.187 A 
HETATM   14  N7  UNL     1      19.344   3.636  11.435  1.00  0.00    -0.305 N 
ENDROOT
BRANCH   1  15
HETATM   15  C3  UNL     1      15.877   1.044  15.322  1.00  0.00     0.183 C 
HETATM   16  N1  UNL     1      16.407  -0.032  16.084  1.00  0.00    -0.129 NA
HETATM   17  C1  UNL     1      16.024   0.331  17.431  1.00  0.00     0.183 C 
HETATM   18  C2  UNL     1      14.612   0.876  17.175  1.00  0.00     0.235 C 
HETATM   19  N2  UNL     1      14.863   1.578  15.909  1.00  0.00    -0.337 N 
ATOM     20  H2  UNL     1      14.320   2.365  15.552  1.00  0.00     0.164 HD
BRANCH  16  21
HETATM   21  O1  UNL     1      17.748  -0.143  15.945  1.00  0.00    -0.305 OA
ATOM     22  H1  UNL     1      17.996  -0.920  15.459  1.00  0.00     0.237 HD
ENDBRANCH  16  21
BRANCH  18  23
HETATM   23  O2  UNL     1      13.775  -0.220  16.984  1.00  0.00    -0.376 OA
ATOM     24  H2  UNL     1      12.965  -0.041  17.448  1.00  0.00     0.212 HD
ENDBRANCH  18  23
ENDBRANCH   1  15
BRANCH  14  25
HETATM   25  C9  UNL     1      20.441   4.408  10.883  1.00  0.00     0.301 C 
BRANCH  25  26
HETATM   26  O3  UNL     1      21.611   3.723  11.098  1.00  0.00    -0.369 OA
BRANCH  26  27
HETATM   27  C10 UNL     1      22.012   2.938  10.045  1.00  0.00     0.196 C 
BRANCH  27  28
HETATM   28  C11 UNL     1      21.518   3.423   8.704  1.00  0.00     0.190 C 
BRANCH  28  29
HETATM   29  O4  UNL     1      20.714   2.382   8.184  1.00  0.00    -0.399 OA
ATOM     30  H4  UNL     1      20.641   2.546   7.251  1.00  0.00     0.209 HD
ENDBRANCH  28  29
ENDBRANCH  27  28
ENDBRANCH  26  27
ENDBRANCH  25  26
ENDBRANCH  14  25
TORSDOF 8
ENDMDL
