MODEL 1
REMARK VINA RESULT: -6.653575291      0.000      0.000
REMARK  8 active torsions:
REMARK  status: ('A' for Active; 'I' for Inactive)
REMARK    1  A    between atoms: N1_2  and  C2_4 
REMARK    2  A    between atoms: C3_7  and  N3_8 
REMARK    3  A    between atoms: N4_11  and  C6_12 
REMARK    4  A    between atoms: C6_12  and  C7_13 
REMARK    5  A    between atoms: C7_13  and  N5_14 
REMARK    6  A    between atoms: C8_21  and  C9_22 
REMARK    7  A    between atoms: C9_22  and  N9_23 
REMARK    8  A    between atoms: C12_31  and  N11_32 
ROOT
HETATM    1  N3  UNL     1      18.533   6.307  12.565  1.00  0.00    -0.210 N 
HETATM    2  C4  UNL     1      18.768   6.392  13.992  1.00  0.00     0.186 C 
HETATM    3  C5  UNL     1      17.643   6.984  14.772  1.00  0.00     0.083 C 
HETATM    4  N4  UNL     1      16.421   7.152  14.122  1.00  0.00    -0.369 N 
HETATM    5  C10 UNL     1      16.338   7.154  12.713  1.00  0.00     0.147 C 
HETATM    6  C11 UNL     1      17.667   7.332  12.023  1.00  0.00     0.161 C 
ENDROOT
BRANCH   1   7
HETATM    7  C3  UNL     1      19.133   5.269  11.805  1.00  0.00     0.709 A 
HETATM    8  N2  UNL     1      20.148   5.585  10.984  1.00  0.00    -0.021 N 
HETATM    9  C2  UNL     1      20.800   4.694  10.218  1.00  0.00     0.706 A 
ATOM     10  H2  UNL     1      20.442   6.561  10.940  1.00  0.00     0.203 HD
HETATM   11  N12 UNL     1      20.404   3.414  10.284  1.00  0.00    -0.022 N 
HETATM   12  C12 UNL     1      19.391   3.068  11.095  1.00  0.00     0.706 A 
ATOM     13  H12 UNL     1      20.872   2.706   9.718  1.00  0.00     0.203 HD
HETATM   14  N10 UNL     1      18.746   3.990  11.863  1.00  0.00    -0.021 N 
ATOM     15  H10 UNL     1      17.979   3.709  12.474  1.00  0.00     0.203 HD
BRANCH   9  16
HETATM   16  N1  UNL     1      21.785   5.049   9.429  1.00  0.00    -0.229 N 
HETATM   17  C1  UNL     1      22.852   5.808  10.046  1.00  0.00     0.165 C 
ATOM     18  H1  UNL     1      21.800   4.803   8.439  1.00  0.00     0.177 HD
ENDBRANCH   9  16
BRANCH  12  19
HETATM   19  N11 UNL     1      19.006   1.846  11.166  1.00  0.00    -0.229 N 
HETATM   20  C13 UNL     1      17.683   1.545  11.614  1.00  0.00     0.165 C 
ATOM     21  H11 UNL     1      19.641   1.093  10.904  1.00  0.00     0.177 HD
ENDBRANCH  12  19
ENDBRANCH   1   7
BRANCH   4  22
HETATM   22  C6  UNL     1      15.277   6.623  14.726  1.00  0.00     0.085 C 
BRANCH  22  23
HETATM   23  C7  UNL     1      14.984   5.188  14.737  1.00  0.00     0.197 C 
BRANCH  23  24
HETATM   24  N5  UNL     1      15.129   4.436  15.946  1.00  0.00    -0.257 N 
HETATM   25  N6  UNL     1      14.411   4.598  17.075  1.00  0.00    -0.224 N 
HETATM   26  N7  UNL     1      14.816   3.716  17.943  1.00  0.00    -0.227 N 
ATOM     27  H6  UNL     1      13.678   5.291  17.224  1.00  0.00     0.210 HD
HETATM   28  N8  UNL     1      15.768   2.985  17.431  1.00  0.00    -0.271 N 
ATOM     29  H7  UNL     1      14.443   3.611  18.886  1.00  0.00     0.210 HD
HETATM   30  C8  UNL     1      15.975   3.433  16.170  1.00  0.00     0.141 A 
ATOM     31  H8  UNL     1      16.263   2.221  17.892  1.00  0.00     0.190 HD
BRANCH  30  32
HETATM   32  C9  UNL     1      17.014   2.905  15.213  1.00  0.00     0.308 C 
BRANCH  32  33
HETATM   33  N9  UNL     1      16.986   1.473  15.247  1.00  0.00    -0.073 N 
ATOM     34  H93 UNL     1      17.693   1.085  15.871  1.00  0.00     0.274 HD
ATOM     35  H92 UNL     1      16.161   1.111  15.726  1.00  0.00     0.274 HD
ATOM     36  H91 UNL     1      17.071   1.120  14.294  1.00  0.00     0.274 HD
ENDBRANCH  32  33
ENDBRANCH  30  32
ENDBRANCH  23  24
ENDBRANCH  22  23
ENDBRANCH   4  22
TORSDOF 8
ENDMDL
MODEL 2
REMARK VINA RESULT: -6.642961111      2.009      6.042
REMARK  8 active torsions:
REMARK  status: ('A' for Active; 'I' for Inactive)
REMARK    1  A    between atoms: N1_2  and  C2_4 
REMARK    2  A    between atoms: C3_7  and  N3_8 
REMARK    3  A    between atoms: N4_11  and  C6_12 
REMARK    4  A    between atoms: C6_12  and  C7_13 
REMARK    5  A    between atoms: C7_13  and  N5_14 
REMARK    6  A    between atoms: C8_21  and  C9_22 
REMARK    7  A    between atoms: C9_22  and  N9_23 
REMARK    8  A    between atoms: C12_31  and  N11_32 
ROOT
HETATM    1  N3  UNL     1      16.471   5.462  12.991  1.00  0.00    -0.210 N 
HETATM    2  C4  UNL     1      16.834   5.882  11.652  1.00  0.00     0.186 C 
HETATM    3  C5  UNL     1      17.278   7.303  11.548  1.00  0.00     0.083 C 
HETATM    4  N4  UNL     1      17.543   7.988  12.733  1.00  0.00    -0.369 N 
HETATM    5  C10 UNL     1      17.042   7.529  13.970  1.00  0.00     0.147 C 
HETATM    6  C11 UNL     1      15.941   6.505  13.840  1.00  0.00     0.161 C 
ENDROOT
BRANCH   1   7
HETATM    7  C3  UNL     1      16.649   4.109  13.384  1.00  0.00     0.709 A 
HETATM    8  N2  UNL     1      16.553   3.807  14.688  1.00  0.00    -0.021 N 
HETATM    9  C2  UNL     1      16.696   2.567  15.185  1.00  0.00     0.706 A 
ATOM     10  H2  UNL     1      16.360   4.566  15.343  1.00  0.00     0.203 HD
HETATM   11  N12 UNL     1      16.950   1.577  14.316  1.00  0.00    -0.022 N 
HETATM   12  C12 UNL     1      17.052   1.849  13.004  1.00  0.00     0.706 A 
ATOM     13  H12 UNL     1      17.066   0.621  14.651  1.00  0.00     0.203 HD
HETATM   14  N10 UNL     1      16.903   3.115  12.525  1.00  0.00    -0.021 N 
ATOM     15  H10 UNL     1      16.983   3.303  11.526  1.00  0.00     0.203 HD
BRANCH   9  16
HETATM   16  N1  UNL     1      16.596   2.318  16.469  1.00  0.00    -0.229 N 
HETATM   17  C1  UNL     1      15.257   2.335  17.018  1.00  0.00     0.165 C 
ATOM     18  H1  UNL     1      17.414   2.125  17.047  1.00  0.00     0.177 HD
ENDBRANCH   9  16
BRANCH  12  19
HETATM   19  N11 UNL     1      17.294   0.909  12.165  1.00  0.00    -0.229 N 
HETATM   20  C13 UNL     1      18.159   1.156  11.055  1.00  0.00     0.165 C 
ATOM     21  H11 UNL     1      16.871  -0.011  12.289  1.00  0.00     0.177 HD
ENDBRANCH  12  19
ENDBRANCH   1   7
BRANCH   4  22
HETATM   22  C6  UNL     1      18.778   8.628  12.859  1.00  0.00     0.085 C 
BRANCH  22  23
HETATM   23  C7  UNL     1      19.924   8.007  13.528  1.00  0.00     0.197 C 
BRANCH  23  24
HETATM   24  N5  UNL     1      20.610   6.915  12.907  1.00  0.00    -0.257 N 
HETATM   25  N6  UNL     1      20.255   5.617  12.963  1.00  0.00    -0.224 N 
HETATM   26  N7  UNL     1      21.108   4.932  12.257  1.00  0.00    -0.227 N 
ATOM     27  H6  UNL     1      19.456   5.236  13.471  1.00  0.00     0.210 HD
HETATM   28  N8  UNL     1      22.006   5.727  11.742  1.00  0.00    -0.271 N 
ATOM     29  H7  UNL     1      21.078   3.922  12.125  1.00  0.00     0.210 HD
HETATM   30  C8  UNL     1      21.701   6.982  12.149  1.00  0.00     0.141 A 
ATOM     31  H8  UNL     1      22.788   5.455  11.147  1.00  0.00     0.190 HD
BRANCH  30  32
HETATM   32  C9  UNL     1      22.495   8.222  11.824  1.00  0.00     0.308 C 
BRANCH  32  33
HETATM   33  N9  UNL     1      23.864   8.000  12.178  1.00  0.00    -0.073 N 
ATOM     34  H93 UNL     1      24.298   8.822  12.596  1.00  0.00     0.274 HD
ATOM     35  H92 UNL     1      23.964   7.368  12.973  1.00  0.00     0.274 HD
ATOM     36  H91 UNL     1      24.367   7.671  11.353  1.00  0.00     0.274 HD
ENDBRANCH  32  33
ENDBRANCH  30  32
ENDBRANCH  23  24
ENDBRANCH  22  23
ENDBRANCH   4  22
TORSDOF 8
ENDMDL
MODEL 3
REMARK VINA RESULT: -6.626132066      0.158      2.518
REMARK  8 active torsions:
REMARK  status: ('A' for Active; 'I' for Inactive)
REMARK    1  A    between atoms: N1_2  and  C2_4 
REMARK    2  A    between atoms: C3_7  and  N3_8 
REMARK    3  A    between atoms: N4_11  and  C6_12 
REMARK    4  A    between atoms: C6_12  and  C7_13 
REMARK    5  A    between atoms: C7_13  and  N5_14 
REMARK    6  A    between atoms: C8_21  and  C9_22 
REMARK    7  A    between atoms: C9_22  and  N9_23 
REMARK    8  A    between atoms: C12_31  and  N11_32 
ROOT
HETATM    1  N3  UNL     1      18.630   6.461  12.578  1.00  0.00    -0.210 N 
HETATM    2  C4  UNL     1      18.818   6.470  14.015  1.00  0.00     0.186 C 
HETATM    3  C5  UNL     1      17.649   6.979  14.790  1.00  0.00     0.083 C 
HETATM    4  N4  UNL     1      16.442   7.143  14.110  1.00  0.00    -0.369 N 
HETATM    5  C10 UNL     1      16.403   7.223  12.702  1.00  0.00     0.147 C 
HETATM    6  C11 UNL     1      17.746   7.485  12.067  1.00  0.00     0.161 C 
ENDROOT
BRANCH   1   7
HETATM    7  C3  UNL     1      19.289   5.489  11.780  1.00  0.00     0.709 A 
HETATM    8  N2  UNL     1      18.870   4.216  11.849  1.00  0.00    -0.021 N 
HETATM    9  C2  UNL     1      19.407   3.208  11.142  1.00  0.00     0.706 A 
ATOM     10  H2  UNL     1      18.095   4.001  12.477  1.00  0.00     0.203 HD
HETATM   11  N12 UNL     1      20.426   3.502  10.320  1.00  0.00    -0.022 N 
HETATM   12  C12 UNL     1      20.869   4.768  10.230  1.00  0.00     0.706 A 
ATOM     13  H12 UNL     1      20.863   2.767   9.765  1.00  0.00     0.203 HD
HETATM   14  N10 UNL     1      20.306   5.773  10.958  1.00  0.00    -0.021 N 
ATOM     15  H10 UNL     1      20.655   6.728  10.877  1.00  0.00     0.203 HD
BRANCH   9  16
HETATM   16  N1  UNL     1      18.965   1.978  11.242  1.00  0.00    -0.229 N 
HETATM   17  C1  UNL     1      17.571   1.830  11.600  1.00  0.00     0.165 C 
ATOM     18  H1  UNL     1      19.569   1.172  11.078  1.00  0.00     0.177 HD
ENDBRANCH   9  16
BRANCH  12  19
HETATM   19  N11 UNL     1      21.842   5.060   9.447  1.00  0.00    -0.229 N 
HETATM   20  C13 UNL     1      22.973   5.769   9.955  1.00  0.00     0.165 C 
ATOM     21  H11 UNL     1      21.808   4.787   8.464  1.00  0.00     0.177 HD
ENDBRANCH  12  19
ENDBRANCH   1   7
BRANCH   4  22
HETATM   22  C6  UNL     1      15.301   6.542  14.646  1.00  0.00     0.085 C 
BRANCH  22  23
HETATM   23  C7  UNL     1      15.120   5.089  14.688  1.00  0.00     0.197 C 
BRANCH  23  24
HETATM   24  N5  UNL     1      15.198   4.394  15.937  1.00  0.00    -0.257 N 
HETATM   25  N6  UNL     1      14.397   4.581  17.003  1.00  0.00    -0.224 N 
HETATM   26  N7  UNL     1      14.762   3.749  17.936  1.00  0.00    -0.227 N 
ATOM     27  H6  UNL     1      13.636   5.257  17.070  1.00  0.00     0.210 HD
HETATM   28  N8  UNL     1      15.768   3.026  17.525  1.00  0.00    -0.271 N 
ATOM     29  H7  UNL     1      14.325   3.673  18.854  1.00  0.00     0.210 HD
HETATM   30  C8  UNL     1      16.053   3.428  16.263  1.00  0.00     0.141 A 
ATOM     31  H8  UNL     1      16.249   2.298  18.054  1.00  0.00     0.190 HD
BRANCH  30  32
HETATM   32  C9  UNL     1      17.172   2.891  15.408  1.00  0.00     0.308 C 
BRANCH  32  33
HETATM   33  N9  UNL     1      16.968   1.488  15.208  1.00  0.00    -0.073 N 
ATOM     34  H93 UNL     1      16.240   1.110  15.813  1.00  0.00     0.274 HD
ATOM     35  H92 UNL     1      16.527   1.282  14.312  1.00  0.00     0.274 HD
ATOM     36  H91 UNL     1      17.860   1.007  15.323  1.00  0.00     0.274 HD
ENDBRANCH  32  33
ENDBRANCH  30  32
ENDBRANCH  23  24
ENDBRANCH  22  23
ENDBRANCH   4  22
TORSDOF 8
ENDMDL
MODEL 4
REMARK VINA RESULT: -6.604042798      0.924      1.583
REMARK  8 active torsions:
REMARK  status: ('A' for Active; 'I' for Inactive)
REMARK    1  A    between atoms: N1_2  and  C2_4 
REMARK    2  A    between atoms: C3_7  and  N3_8 
REMARK    3  A    between atoms: N4_11  and  C6_12 
REMARK    4  A    between atoms: C6_12  and  C7_13 
REMARK    5  A    between atoms: C7_13  and  N5_14 
REMARK    6  A    between atoms: C8_21  and  C9_22 
REMARK    7  A    between atoms: C9_22  and  N9_23 
REMARK    8  A    between atoms: C12_31  and  N11_32 
ROOT
HETATM    1  N3  UNL     1      18.618   6.600  12.379  1.00  0.00    -0.210 N 
HETATM    2  C4  UNL     1      18.967   6.806  13.771  1.00  0.00     0.186 C 
HETATM    3  C5  UNL     1      17.848   7.302  14.624  1.00  0.00     0.083 C 
HETATM    4  N4  UNL     1      16.561   7.271  14.088  1.00  0.00    -0.369 N 
HETATM    5  C10 UNL     1      16.353   7.170  12.697  1.00  0.00     0.147 C 
HETATM    6  C11 UNL     1      17.579   7.469  11.872  1.00  0.00     0.161 C 
ENDROOT
BRANCH   1   7
HETATM    7  C3  UNL     1      19.279   5.599  11.620  1.00  0.00     0.709 A 
HETATM    8  N2  UNL     1      20.198   5.983  10.721  1.00  0.00    -0.021 N 
HETATM    9  C2  UNL     1      20.893   5.134   9.947  1.00  0.00     0.706 A 
ATOM     10  H2  UNL     1      20.379   6.982  10.619  1.00  0.00     0.203 HD
HETATM   11  N12 UNL     1      20.646   3.823  10.088  1.00  0.00    -0.022 N 
HETATM   12  C12 UNL     1      19.730   3.407  10.980  1.00  0.00     0.706 A 
ATOM     13  H12 UNL     1      21.151   3.143   9.520  1.00  0.00     0.203 HD
HETATM   14  N10 UNL     1      19.039   4.289  11.754  1.00  0.00    -0.021 N 
ATOM     15  H10 UNL     1      18.347   3.956  12.426  1.00  0.00     0.203 HD
BRANCH   9  16
HETATM   16  N1  UNL     1      21.782   5.555   9.079  1.00  0.00    -0.229 N 
HETATM   17  C1  UNL     1      23.151   5.606   9.545  1.00  0.00     0.165 C 
ATOM     18  H1  UNL     1      21.523   5.831   8.132  1.00  0.00     0.177 HD
ENDBRANCH   9  16
BRANCH  12  19
HETATM   19  N11 UNL     1      19.487   2.156  11.123  1.00  0.00    -0.229 N 
HETATM   20  C13 UNL     1      18.145   1.714  11.333  1.00  0.00     0.165 C 
ATOM     21  H11 UNL     1      20.249   1.478  11.088  1.00  0.00     0.177 HD
ENDBRANCH  12  19
ENDBRANCH   1   7
BRANCH   4  22
HETATM   22  C6  UNL     1      15.557   6.642  14.828  1.00  0.00     0.085 C 
BRANCH  22  23
HETATM   23  C7  UNL     1      15.193   5.237  14.630  1.00  0.00     0.197 C 
BRANCH  23  24
HETATM   24  N5  UNL     1      16.042   4.200  15.133  1.00  0.00    -0.257 N 
HETATM   25  N6  UNL     1      17.161   3.733  14.547  1.00  0.00    -0.224 N 
HETATM   26  N7  UNL     1      17.668   2.812  15.316  1.00  0.00    -0.227 N 
ATOM     27  H6  UNL     1      17.546   4.046  13.656  1.00  0.00     0.210 HD
HETATM   28  N8  UNL     1      16.927   2.656  16.379  1.00  0.00    -0.271 N 
ATOM     29  H7  UNL     1      18.520   2.289  15.116  1.00  0.00     0.210 HD
HETATM   30  C8  UNL     1      15.896   3.527  16.272  1.00  0.00     0.141 A 
ATOM     31  H8  UNL     1      17.093   2.003  17.145  1.00  0.00     0.190 HD
BRANCH  30  32
HETATM   32  C9  UNL     1      14.765   3.669  17.260  1.00  0.00     0.308 C 
BRANCH  32  33
HETATM   33  N9  UNL     1      13.799   2.644  17.004  1.00  0.00    -0.073 N 
ATOM     34  H93 UNL     1      12.956   2.754  17.568  1.00  0.00     0.274 HD
ATOM     35  H92 UNL     1      13.366   2.736  16.085  1.00  0.00     0.274 HD
ATOM     36  H91 UNL     1      14.241   1.734  17.138  1.00  0.00     0.274 HD
ENDBRANCH  32  33
ENDBRANCH  30  32
ENDBRANCH  23  24
ENDBRANCH  22  23
ENDBRANCH   4  22
TORSDOF 8
ENDMDL
MODEL 5
REMARK VINA RESULT: -6.603724595      2.141      5.826
REMARK  8 active torsions:
REMARK  status: ('A' for Active; 'I' for Inactive)
REMARK    1  A    between atoms: N1_2  and  C2_4 
REMARK    2  A    between atoms: C3_7  and  N3_8 
REMARK    3  A    between atoms: N4_11  and  C6_12 
REMARK    4  A    between atoms: C6_12  and  C7_13 
REMARK    5  A    between atoms: C7_13  and  N5_14 
REMARK    6  A    between atoms: C8_21  and  C9_22 
REMARK    7  A    between atoms: C9_22  and  N9_23 
REMARK    8  A    between atoms: C12_31  and  N11_32 
ROOT
HETATM    1  N3  UNL     1      16.521   5.617  12.814  1.00  0.00    -0.210 N 
HETATM    2  C4  UNL     1      16.896   6.043  11.481  1.00  0.00     0.186 C 
HETATM    3  C5  UNL     1      17.371   7.455  11.392  1.00  0.00     0.083 C 
HETATM    4  N4  UNL     1      17.648   8.122  12.585  1.00  0.00    -0.369 N 
HETATM    5  C10 UNL     1      17.133   7.662  13.815  1.00  0.00     0.147 C 
HETATM    6  C11 UNL     1      16.011   6.664  13.673  1.00  0.00     0.161 C 
ENDROOT
BRANCH   1   7
HETATM    7  C3  UNL     1      16.668   4.257  13.195  1.00  0.00     0.709 A 
HETATM    8  N2  UNL     1      16.758   3.331  12.229  1.00  0.00    -0.021 N 
HETATM    9  C2  UNL     1      16.904   2.015  12.460  1.00  0.00     0.706 A 
ATOM     10  H2  UNL     1      16.713   3.644  11.259  1.00  0.00     0.203 HD
HETATM   11  N12 UNL     1      16.961   1.613  13.738  1.00  0.00    -0.022 N 
HETATM   12  C12 UNL     1      16.873   2.518  14.728  1.00  0.00     0.706 A 
ATOM     13  H12 UNL     1      17.071   0.624  13.958  1.00  0.00     0.203 HD
HETATM   14  N10 UNL     1      16.726   3.847  14.468  1.00  0.00    -0.021 N 
ATOM     15  H10 UNL     1      16.660   4.520  15.232  1.00  0.00     0.203 HD
BRANCH   9  16
HETATM   16  N1  UNL     1      16.987   1.144  11.482  1.00  0.00    -0.229 N 
HETATM   17  C1  UNL     1      18.161   0.298  11.482  1.00  0.00     0.165 C 
ATOM     18  H1  UNL     1      16.266   1.068  10.764  1.00  0.00     0.177 HD
ENDBRANCH   9  16
BRANCH  12  19
HETATM   19  N11 UNL     1      16.927   2.145  15.954  1.00  0.00    -0.229 N 
HETATM   20  C13 UNL     1      15.879   2.508  16.853  1.00  0.00     0.165 C 
ATOM     21  H11 UNL     1      17.717   1.590  16.286  1.00  0.00     0.177 HD
ENDBRANCH  12  19
ENDBRANCH   1   7
BRANCH   4  22
HETATM   22  C6  UNL     1      18.896   8.734  12.720  1.00  0.00     0.085 C 
BRANCH  22  23
HETATM   23  C7  UNL     1      20.013   8.100  13.425  1.00  0.00     0.197 C 
BRANCH  23  24
HETATM   24  N5  UNL     1      20.668   6.963  12.853  1.00  0.00    -0.257 N 
HETATM   25  N6  UNL     1      20.267   5.680  12.952  1.00  0.00    -0.224 N 
HETATM   26  N7  UNL     1      21.104   4.942  12.281  1.00  0.00    -0.227 N 
ATOM     27  H6  UNL     1      19.451   5.346  13.463  1.00  0.00     0.210 HD
HETATM   28  N8  UNL     1      22.035   5.686  11.749  1.00  0.00    -0.271 N 
ATOM     29  H7  UNL     1      21.041   3.928  12.186  1.00  0.00     0.210 HD
HETATM   30  C8  UNL     1      21.769   6.965  12.106  1.00  0.00     0.141 A 
ATOM     31  H8  UNL     1      22.814   5.365  11.173  1.00  0.00     0.190 HD
BRANCH  30  32
HETATM   32  C9  UNL     1      22.608   8.165  11.746  1.00  0.00     0.308 C 
BRANCH  32  33
HETATM   33  N9  UNL     1      23.959   7.923  12.156  1.00  0.00    -0.073 N 
ATOM     34  H93 UNL     1      24.205   6.934  12.122  1.00  0.00     0.274 HD
ATOM     35  H92 UNL     1      24.639   8.260  11.475  1.00  0.00     0.274 HD
ATOM     36  H91 UNL     1      24.099   8.328  13.081  1.00  0.00     0.274 HD
ENDBRANCH  32  33
ENDBRANCH  30  32
ENDBRANCH  23  24
ENDBRANCH  22  23
ENDBRANCH   4  22
TORSDOF 8
ENDMDL
