MODEL 1
REMARK VINA RESULT: -7.921099974      0.000      0.000
REMARK  7 active torsions:
REMARK  status: ('A' for Active; 'I' for Inactive)
REMARK    1  A    between atoms: O1_2  and  C2_3 
REMARK    2  A    between atoms: C3_6  and  N2_7 
REMARK    3  A    between atoms: N2_7  and  N3_9 
REMARK    4  A    between atoms: C4_14  and  N5_15 
REMARK       I    between atoms: N5_15  and  C5_17 
REMARK       I    between atoms: C5_17  and  N8_22 
REMARK    5  A    between atoms: N8_22  and  C7_24 
REMARK    6  A    between atoms: C7_24  and  C8_25 
REMARK    7  A    between atoms: C8_25  and  N9_26 
ROOT
HETATM    1  N5  UNL     1      17.133   2.591  11.345  1.00  0.00    -0.021 N 
ATOM      2  H5  UNL     1      16.454   2.103  10.760  1.00  0.00     0.203 HD
HETATM    3  C5  UNL     1      18.467   2.746  10.879  1.00  0.00     0.701 C 
HETATM    4  N6  UNL     1      19.238   1.717  10.906  1.00  0.00    -0.126 N 
ATOM      5  H6  UNL     1      20.201   1.801  10.578  1.00  0.00     0.197 HD
HETATM    6  C6  UNL     1      18.783   0.499  11.373  1.00  0.00     0.196 C 
HETATM    7  N7  UNL     1      18.387  -0.508  11.760  1.00  0.00    -0.171 NA
HETATM    8  N8  UNL     1      18.936   4.016  10.395  1.00  0.00    -0.223 N 
ATOM      9  H8  UNL     1      18.290   4.736  10.073  1.00  0.00     0.177 HD
ENDROOT
BRANCH   1  10
HETATM   10  C4  UNL     1      16.760   3.052  12.490  1.00  0.00     0.714 A 
HETATM   11  N4  UNL     1      16.870   2.308  13.605  1.00  0.00    -0.020 N 
HETATM   12  C3  UNL     1      16.475   2.801  14.816  1.00  0.00     0.719 A 
ATOM     13  H4  UNL     1      17.254   1.365  13.546  1.00  0.00     0.203 HD
HETATM   14  N1  UNL     1      15.971   4.035  14.914  1.00  0.00    -0.152 N 
HETATM   15  C2  UNL     1      15.857   4.782  13.811  1.00  0.00     0.252 A 
ATOM     16  H1  UNL     1      15.676   4.402  15.819  1.00  0.00     0.188 HD
HETATM   17  N12 UNL     1      16.250   4.290  12.613  1.00  0.00    -0.153 N 
ATOM     18  H12 UNL     1      16.156   4.874  11.782  1.00  0.00     0.188 HD
BRANCH  12  19
HETATM   19  N2  UNL     1      16.619   2.017  15.826  1.00  0.00    -0.071 N 
ATOM     20  H2  UNL     1      17.408   1.372  15.867  1.00  0.00     0.212 HD
BRANCH  19  21
HETATM   21  N3  UNL     1      15.690   2.053  16.864  1.00  0.00    -0.024 N 
HETATM   22  O2  UNL     1      16.110   2.231  18.020  1.00  0.00    -0.516 OA
HETATM   23  O3  UNL     1      14.343   1.900  16.648  1.00  0.00    -0.516 OA
ENDBRANCH  19  21
ENDBRANCH  12  19
BRANCH  15  24
HETATM   24  O1  UNL     1      15.329   6.068  13.926  1.00  0.00    -0.326 OA
HETATM   25  C1  UNL     1      15.051   6.649  15.162  1.00  0.00     0.213 C 
ENDBRANCH  15  24
ENDBRANCH   1  10
BRANCH   8  26
HETATM   26  C7  UNL     1      20.366   4.225  10.387  1.00  0.00     0.160 C 
BRANCH  26  27
HETATM   27  C8  UNL     1      20.760   5.628  10.775  1.00  0.00     0.170 C 
BRANCH  27  28
HETATM   28  N9  UNL     1      20.148   6.050  12.022  1.00  0.00    -0.286 N 
HETATM   29  C9  UNL     1      19.083   6.838  12.194  1.00  0.00     0.130 A 
HETATM   30  C10 UNL     1      18.845   6.981  13.550  1.00  0.00     0.127 A 
HETATM   31  N10 UNL     1      19.788   6.262  14.171  1.00  0.00    -0.296 N 
HETATM   32  N11 UNL     1      20.539   5.726  13.254  1.00  0.00    -0.241 N 
ATOM     33  H10 UNL     1      19.897   6.154  15.180  1.00  0.00     0.187 HD
ATOM     34  H11 UNL     1      21.339   5.124  13.455  1.00  0.00     0.208 HD
ENDBRANCH  27  28
ENDBRANCH  26  27
ENDBRANCH   8  26
TORSDOF 7
ENDMDL
MODEL 2
REMARK VINA RESULT: -7.873577401      1.586      3.932
REMARK  7 active torsions:
REMARK  status: ('A' for Active; 'I' for Inactive)
REMARK    1  A    between atoms: O1_2  and  C2_3 
REMARK    2  A    between atoms: C3_6  and  N2_7 
REMARK    3  A    between atoms: N2_7  and  N3_9 
REMARK    4  A    between atoms: C4_14  and  N5_15 
REMARK       I    between atoms: N5_15  and  C5_17 
REMARK       I    between atoms: C5_17  and  N8_22 
REMARK    5  A    between atoms: N8_22  and  C7_24 
REMARK    6  A    between atoms: C7_24  and  C8_25 
REMARK    7  A    between atoms: C8_25  and  N9_26 
ROOT
HETATM    1  N5  UNL     1      19.206   6.329  13.825  1.00  0.00    -0.021 N 
ATOM      2  H5  UNL     1      19.731   6.953  14.439  1.00  0.00     0.203 HD
HETATM    3  C5  UNL     1      19.714   6.041  12.529  1.00  0.00     0.701 C 
HETATM    4  N6  UNL     1      19.614   6.952  11.627  1.00  0.00    -0.126 N 
ATOM      5  H6  UNL     1      19.971   6.771  10.688  1.00  0.00     0.197 HD
HETATM    6  C6  UNL     1      19.033   8.173  11.910  1.00  0.00     0.196 C 
HETATM    7  N7  UNL     1      18.550   9.184  12.163  1.00  0.00    -0.171 NA
HETATM    8  N8  UNL     1      20.318   4.768  12.240  1.00  0.00    -0.223 N 
ATOM      9  H8  UNL     1      20.686   4.172  12.980  1.00  0.00     0.177 HD
ENDROOT
BRANCH   1  10
HETATM   10  C4  UNL     1      18.098   5.820  14.244  1.00  0.00     0.714 A 
HETATM   11  N4  UNL     1      18.089   4.721  15.019  1.00  0.00    -0.020 N 
HETATM   12  C3  UNL     1      16.913   4.185  15.460  1.00  0.00     0.719 A 
ATOM     13  H4  UNL     1      18.972   4.282  15.281  1.00  0.00     0.203 HD
HETATM   14  N1  UNL     1      15.745   4.746  15.129  1.00  0.00    -0.152 N 
HETATM   15  C2  UNL     1      15.743   5.838  14.358  1.00  0.00     0.252 A 
ATOM     16  H1  UNL     1      14.868   4.345  15.459  1.00  0.00     0.188 HD
HETATM   17  N12 UNL     1      16.911   6.366  13.923  1.00  0.00    -0.153 N 
ATOM     18  H12 UNL     1      16.891   7.200  13.337  1.00  0.00     0.188 HD
BRANCH  12  19
HETATM   19  N2  UNL     1      17.005   3.134  16.196  1.00  0.00    -0.071 N 
ATOM     20  H2  UNL     1      17.663   3.108  16.974  1.00  0.00     0.212 HD
BRANCH  19  21
HETATM   21  N3  UNL     1      16.200   2.029  15.924  1.00  0.00    -0.024 N 
HETATM   22  O2  UNL     1      16.597   1.206  15.084  1.00  0.00    -0.516 OA
HETATM   23  O3  UNL     1      14.995   1.829  16.553  1.00  0.00    -0.516 OA
ENDBRANCH  19  21
ENDBRANCH  12  19
BRANCH  15  24
HETATM   24  O1  UNL     1      14.520   6.415  14.018  1.00  0.00    -0.326 OA
HETATM   25  C1  UNL     1      14.435   7.634  13.347  1.00  0.00     0.213 C 
ENDBRANCH  15  24
ENDBRANCH   1  10
BRANCH   8  26
HETATM   26  C7  UNL     1      20.377   4.373  10.851  1.00  0.00     0.160 C 
BRANCH  26  27
HETATM   27  C8  UNL     1      19.688   3.060  10.580  1.00  0.00     0.170 C 
BRANCH  27  28
HETATM   28  N9  UNL     1      18.341   3.020  11.120  1.00  0.00    -0.286 N 
HETATM   29  C9  UNL     1      17.262   3.683  10.696  1.00  0.00     0.130 A 
HETATM   30  C10 UNL     1      16.186   3.350  11.500  1.00  0.00     0.127 A 
HETATM   31  N10 UNL     1      16.652   2.480  12.405  1.00  0.00    -0.296 N 
HETATM   32  N11 UNL     1      17.918   2.303  12.161  1.00  0.00    -0.241 N 
ATOM     33  H10 UNL     1      16.113   2.037  13.149  1.00  0.00     0.187 HD
ATOM     34  H11 UNL     1      18.519   1.683  12.705  1.00  0.00     0.208 HD
ENDBRANCH  27  28
ENDBRANCH  26  27
ENDBRANCH   8  26
TORSDOF 7
ENDMDL
MODEL 3
REMARK VINA RESULT: -7.659310030      2.569      4.966
REMARK  7 active torsions:
REMARK  status: ('A' for Active; 'I' for Inactive)
REMARK    1  A    between atoms: O1_2  and  C2_3 
REMARK    2  A    between atoms: C3_6  and  N2_7 
REMARK    3  A    between atoms: N2_7  and  N3_9 
REMARK    4  A    between atoms: C4_14  and  N5_15 
REMARK       I    between atoms: N5_15  and  C5_17 
REMARK       I    between atoms: C5_17  and  N8_22 
REMARK    5  A    between atoms: N8_22  and  C7_24 
REMARK    6  A    between atoms: C7_24  and  C8_25 
REMARK    7  A    between atoms: C8_25  and  N9_26 
ROOT
HETATM    1  N5  UNL     1      17.656   5.733  14.558  1.00  0.00    -0.021 N 
ATOM      2  H5  UNL     1      17.231   6.206  15.356  1.00  0.00     0.203 HD
HETATM    3  C5  UNL     1      18.541   6.456  13.712  1.00  0.00     0.701 C 
HETATM    4  N6  UNL     1      18.030   7.305  12.891  1.00  0.00    -0.126 N 
ATOM      5  H6  UNL     1      18.643   7.837  12.273  1.00  0.00     0.197 HD
HETATM    6  C6  UNL     1      16.665   7.507  12.835  1.00  0.00     0.196 C 
HETATM    7  N7  UNL     1      15.528   7.666  12.802  1.00  0.00    -0.171 NA
HETATM    8  N8  UNL     1      19.962   6.242  13.775  1.00  0.00    -0.223 N 
ATOM      9  H8  UNL     1      20.404   5.833  14.598  1.00  0.00     0.177 HD
ENDROOT
BRANCH   1  10
HETATM   10  C4  UNL     1      17.378   4.493  14.340  1.00  0.00     0.714 A 
HETATM   11  N4  UNL     1      17.547   3.950  13.121  1.00  0.00    -0.020 N 
HETATM   12  C3  UNL     1      17.252   2.636  12.893  1.00  0.00     0.719 A 
ATOM     13  H4  UNL     1      17.900   4.527  12.356  1.00  0.00     0.203 HD
HETATM   14  N1  UNL     1      16.789   1.864  13.882  1.00  0.00    -0.152 N 
HETATM   15  C2  UNL     1      16.618   2.394  15.097  1.00  0.00     0.252 A 
ATOM     16  H1  UNL     1      16.570   0.882  13.711  1.00  0.00     0.188 HD
HETATM   17  N12 UNL     1      16.912   3.697  15.318  1.00  0.00    -0.153 N 
ATOM     18  H12 UNL     1      16.775   4.085  16.251  1.00  0.00     0.188 HD
BRANCH  12  19
HETATM   19  N2  UNL     1      17.445   2.206  11.696  1.00  0.00    -0.071 N 
ATOM     20  H2  UNL     1      18.233   1.592  11.493  1.00  0.00     0.212 HD
BRANCH  19  21
HETATM   21  N3  UNL     1      16.572   2.585  10.678  1.00  0.00    -0.024 N 
HETATM   22  O2  UNL     1      15.475   3.071  10.997  1.00  0.00    -0.516 OA
HETATM   23  O3  UNL     1      16.887   2.437   9.349  1.00  0.00    -0.516 OA
ENDBRANCH  19  21
ENDBRANCH  12  19
BRANCH  15  24
HETATM   24  O1  UNL     1      16.134   1.580  16.121  1.00  0.00    -0.326 OA
HETATM   25  C1  UNL     1      15.387   2.087  17.183  1.00  0.00     0.213 C 
ENDBRANCH  15  24
ENDBRANCH   1  10
BRANCH   8  26
HETATM   26  C7  UNL     1      20.734   6.632  12.618  1.00  0.00     0.160 C 
BRANCH  26  27
HETATM   27  C8  UNL     1      21.129   5.464  11.750  1.00  0.00     0.170 C 
BRANCH  27  28
HETATM   28  N9  UNL     1      22.303   5.746  10.944  1.00  0.00    -0.286 N 
HETATM   29  C9  UNL     1      23.336   6.540  11.240  1.00  0.00     0.130 A 
HETATM   30  C10 UNL     1      24.233   6.520  10.186  1.00  0.00     0.127 A 
HETATM   31  N10 UNL     1      23.708   5.700   9.266  1.00  0.00    -0.296 N 
HETATM   32  N11 UNL     1      22.577   5.260   9.734  1.00  0.00    -0.241 N 
ATOM     33  H10 UNL     1      24.121   5.465   8.363  1.00  0.00     0.187 HD
ATOM     34  H11 UNL     1      21.968   4.614   9.231  1.00  0.00     0.208 HD
ENDBRANCH  27  28
ENDBRANCH  26  27
ENDBRANCH   8  26
TORSDOF 7
ENDMDL
MODEL 4
REMARK VINA RESULT: -7.648716431      2.349      4.767
REMARK  7 active torsions:
REMARK  status: ('A' for Active; 'I' for Inactive)
REMARK    1  A    between atoms: O1_2  and  C2_3 
REMARK    2  A    between atoms: C3_6  and  N2_7 
REMARK    3  A    between atoms: N2_7  and  N3_9 
REMARK    4  A    between atoms: C4_14  and  N5_15 
REMARK       I    between atoms: N5_15  and  C5_17 
REMARK       I    between atoms: C5_17  and  N8_22 
REMARK    5  A    between atoms: N8_22  and  C7_24 
REMARK    6  A    between atoms: C7_24  and  C8_25 
REMARK    7  A    between atoms: C8_25  and  N9_26 
ROOT
HETATM    1  N5  UNL     1      17.789   5.549  14.639  1.00  0.00    -0.021 N 
ATOM      2  H5  UNL     1      17.516   5.988  15.518  1.00  0.00     0.203 HD
HETATM    3  C5  UNL     1      18.533   6.301  13.689  1.00  0.00     0.701 C 
HETATM    4  N6  UNL     1      17.910   7.197  13.007  1.00  0.00    -0.126 N 
ATOM      5  H6  UNL     1      18.420   7.750  12.319  1.00  0.00     0.197 HD
HETATM    6  C6  UNL     1      16.559   7.421  13.194  1.00  0.00     0.196 C 
HETATM    7  N7  UNL     1      15.437   7.597  13.364  1.00  0.00    -0.171 NA
HETATM    8  N8  UNL     1      19.938   6.063  13.498  1.00  0.00    -0.223 N 
ATOM      9  H8  UNL     1      20.504   5.608  14.214  1.00  0.00     0.177 HD
ENDROOT
BRANCH   1  10
HETATM   10  C4  UNL     1      17.450   4.326  14.414  1.00  0.00     0.714 A 
HETATM   11  N4  UNL     1      17.578   3.786  13.188  1.00  0.00    -0.020 N 
HETATM   12  C3  UNL     1      17.218   2.490  12.954  1.00  0.00     0.719 A 
ATOM     13  H4  UNL     1      17.948   4.352  12.425  1.00  0.00     0.203 HD
HETATM   14  N1  UNL     1      16.731   1.732  13.942  1.00  0.00    -0.152 N 
HETATM   15  C2  UNL     1      16.599   2.259  15.163  1.00  0.00     0.252 A 
ATOM     16  H1  UNL     1      16.463   0.763  13.766  1.00  0.00     0.188 HD
HETATM   17  N12 UNL     1      16.957   3.545  15.391  1.00  0.00    -0.153 N 
ATOM     18  H12 UNL     1      16.850   3.931  16.329  1.00  0.00     0.188 HD
BRANCH  12  19
HETATM   19  N2  UNL     1      17.377   2.062  11.751  1.00  0.00    -0.071 N 
ATOM     20  H2  UNL     1      18.083   1.355  11.547  1.00  0.00     0.212 HD
BRANCH  19  21
HETATM   21  N3  UNL     1      16.577   2.567  10.728  1.00  0.00    -0.024 N 
HETATM   22  O2  UNL     1      15.532   3.162  11.040  1.00  0.00    -0.516 OA
HETATM   23  O3  UNL     1      16.909   2.430   9.402  1.00  0.00    -0.516 OA
ENDBRANCH  19  21
ENDBRANCH  12  19
BRANCH  15  24
HETATM   24  O1  UNL     1      16.090   1.460  16.186  1.00  0.00    -0.326 OA
HETATM   25  C1  UNL     1      15.339   1.986  17.236  1.00  0.00     0.213 C 
ENDBRANCH  15  24
ENDBRANCH   1  10
BRANCH   8  26
HETATM   26  C7  UNL     1      20.511   6.499  12.246  1.00  0.00     0.160 C 
BRANCH  26  27
HETATM   27  C8  UNL     1      20.274   5.528  11.117  1.00  0.00     0.170 C 
BRANCH  27  28
HETATM   28  N9  UNL     1      19.101   5.869  10.331  1.00  0.00    -0.286 N 
HETATM   29  C9  UNL     1      18.927   6.917   9.521  1.00  0.00     0.130 A 
HETATM   30  C10 UNL     1      17.659   6.854   8.973  1.00  0.00     0.127 A 
HETATM   31  N10 UNL     1      17.090   5.750   9.475  1.00  0.00    -0.296 N 
HETATM   32  N11 UNL     1      17.956   5.190  10.268  1.00  0.00    -0.241 N 
ATOM     33  H10 UNL     1      16.150   5.410   9.272  1.00  0.00     0.187 HD
ATOM     34  H11 UNL     1      17.779   4.328  10.784  1.00  0.00     0.208 HD
ENDBRANCH  27  28
ENDBRANCH  26  27
ENDBRANCH   8  26
TORSDOF 7
ENDMDL
MODEL 5
REMARK VINA RESULT: -7.560501734      2.179      4.329
REMARK  7 active torsions:
REMARK  status: ('A' for Active; 'I' for Inactive)
REMARK    1  A    between atoms: O1_2  and  C2_3 
REMARK    2  A    between atoms: C3_6  and  N2_7 
REMARK    3  A    between atoms: N2_7  and  N3_9 
REMARK    4  A    between atoms: C4_14  and  N5_15 
REMARK       I    between atoms: N5_15  and  C5_17 
REMARK       I    between atoms: C5_17  and  N8_22 
REMARK    5  A    between atoms: N8_22  and  C7_24 
REMARK    6  A    between atoms: C7_24  and  C8_25 
REMARK    7  A    between atoms: C8_25  and  N9_26 
ROOT
HETATM    1  N5  UNL     1      16.768   7.205  13.818  1.00  0.00    -0.021 N 
ATOM      2  H5  UNL     1      16.094   7.645  14.444  1.00  0.00     0.203 HD
HETATM    3  C5  UNL     1      17.698   8.018  13.114  1.00  0.00     0.701 C 
HETATM    4  N6  UNL     1      17.265   8.698  12.111  1.00  0.00    -0.126 N 
ATOM      5  H6  UNL     1      17.912   9.290  11.589  1.00  0.00     0.197 HD
HETATM    6  C6  UNL     1      15.939   8.639  11.731  1.00  0.00     0.196 C 
HETATM    7  N7  UNL     1      14.832   8.581  11.430  1.00  0.00    -0.171 NA
HETATM    8  N8  UNL     1      19.078   8.076  13.514  1.00  0.00    -0.223 N 
ATOM      9  H8  UNL     1      19.373   7.815  14.455  1.00  0.00     0.177 HD
ENDROOT
BRANCH   1  10
HETATM   10  C4  UNL     1      16.758   5.923  13.683  1.00  0.00     0.714 A 
HETATM   11  N4  UNL     1      17.163   5.118  14.682  1.00  0.00    -0.020 N 
HETATM   12  C3  UNL     1      17.150   3.760  14.535  1.00  0.00     0.719 A 
ATOM     13  H4  UNL     1      17.484   5.527  15.560  1.00  0.00     0.203 HD
HETATM   14  N1  UNL     1      16.732   3.205  13.393  1.00  0.00    -0.152 N 
HETATM   15  C2  UNL     1      16.328   3.997  12.394  1.00  0.00     0.252 A 
ATOM     16  H1  UNL     1      16.722   2.191  13.284  1.00  0.00     0.188 HD
HETATM   17  N12 UNL     1      16.342   5.342  12.543  1.00  0.00    -0.153 N 
ATOM     18  H12 UNL     1      16.030   5.930  11.771  1.00  0.00     0.188 HD
BRANCH  12  19
HETATM   19  N2  UNL     1      17.555   3.073  15.544  1.00  0.00    -0.071 N 
ATOM     20  H2  UNL     1      18.498   3.204  15.909  1.00  0.00     0.212 HD
BRANCH  19  21
HETATM   21  N3  UNL     1      16.698   2.148  16.137  1.00  0.00    -0.024 N 
HETATM   22  O2  UNL     1      16.328   1.174  15.462  1.00  0.00    -0.516 OA
HETATM   23  O3  UNL     1      16.258   2.282  17.431  1.00  0.00    -0.516 OA
ENDBRANCH  19  21
ENDBRANCH  12  19
BRANCH  15  24
HETATM   24  O1  UNL     1      15.894   3.407  11.206  1.00  0.00    -0.326 OA
HETATM   25  C1  UNL     1      16.474   2.245  10.700  1.00  0.00     0.213 C 
ENDBRANCH  15  24
ENDBRANCH   1  10
BRANCH   8  26
HETATM   26  C7  UNL     1      20.028   8.521  12.521  1.00  0.00     0.160 C 
BRANCH  26  27
HETATM   27  C8  UNL     1      21.083   7.489  12.209  1.00  0.00     0.170 C 
BRANCH  27  28
HETATM   28  N9  UNL     1      20.511   6.218  11.802  1.00  0.00    -0.286 N 
HETATM   29  C9  UNL     1      19.798   5.948  10.705  1.00  0.00     0.130 A 
HETATM   30  C10 UNL     1      19.450   4.608  10.715  1.00  0.00     0.127 A 
HETATM   31  N10 UNL     1      19.973   4.096  11.837  1.00  0.00    -0.296 N 
HETATM   32  N11 UNL     1      20.590   5.060  12.456  1.00  0.00    -0.241 N 
ATOM     33  H10 UNL     1      19.900   3.128  12.149  1.00  0.00     0.187 HD
ATOM     34  H11 UNL     1      21.079   4.942  13.344  1.00  0.00     0.208 HD
ENDBRANCH  27  28
ENDBRANCH  26  27
ENDBRANCH   8  26
TORSDOF 7
ENDMDL
