MODEL 1
REMARK VINA RESULT: -8.397284983      0.000      0.000
REMARK  20 active torsions:
REMARK  status: ('A' for Active; 'I' for Inactive)
REMARK    1  A    between atoms: C2_2  and  C3_3 
REMARK    2  A    between atoms: C3_3  and  C4_4 
REMARK    3  A    between atoms: C4_4  and  N1_5 
REMARK       I    between atoms: N1_5  and  C5_7 
REMARK    4  A    between atoms: C5_7  and  C6_9 
REMARK       I    between atoms: N2_12  and  C9_13 
REMARK    5  A    between atoms: C9_13  and  C10_15 
REMARK    6  A    between atoms: C10_15  and  C11_16 
REMARK    7  A    between atoms: C11_16  and  N3_17 
REMARK    8  A    between atoms: C11_16  and  C12_21 
REMARK    9  A    between atoms: C12_21  and  C13_22 
REMARK   10  A    between atoms: C13_22  and  C14_23 
REMARK   11  A    between atoms: C14_23  and  C15_24 
REMARK   12  A    between atoms: C15_24  and  N4_25 
REMARK   13  A    between atoms: N5_33  and  C18_34 
REMARK   14  A    between atoms: C18_34  and  C19_35 
REMARK   15  A    between atoms: C19_35  and  C20_36 
REMARK   16  A    between atoms: C20_36  and  C21_37 
REMARK   17  A    between atoms: C21_37  and  C22_38 
REMARK   18  A    between atoms: C22_38  and  C23_39 
REMARK   19  A    between atoms: C23_39  and  N6_40 
REMARK       I    between atoms: N6_40  and  C24_42 
REMARK   20  A    between atoms: C24_42  and  C25_44 
ROOT
HETATM    1  C6  UNL     1      14.363   6.984  18.994  1.00  0.00     0.248 C 
HETATM    2  C7  UNL     1      13.674   8.033  18.304  1.00  0.00    -0.128 C 
HETATM    3  C8  UNL     1      13.217   9.279  17.810  1.00  0.00     0.217 C 
HETATM    4  N2  UNL     1      13.846  10.336  18.655  1.00  0.00    -0.270 N 
HETATM    5  C9  UNL     1      13.228  11.610  18.629  1.00  0.00     0.229 C 
HETATM    6  O2  UNL     1      13.724  12.550  19.335  1.00  0.00    -0.273 OA
HETATM    7  C16 UNL     1      15.015  10.185  19.494  1.00  0.00     0.319 C 
HETATM    8  O3  UNL     1      15.657  11.252  19.662  1.00  0.00    -0.262 OA
HETATM    9  C17 UNL     1      15.539   8.973  20.161  1.00  0.00     0.313 C 
HETATM   10  O4  UNL     1      16.579   9.137  20.830  1.00  0.00    -0.262 OA
HETATM   11  N5  UNL     1      15.022   7.617  20.154  1.00  0.00    -0.321 N 
ENDROOT
BRANCH  11  12
HETATM   12  C18 UNL     1      15.135   6.888  21.368  1.00  0.00     0.128 C 
BRANCH  12  13
HETATM   13  C19 UNL     1      14.358   5.625  21.497  1.00  0.00     0.020 C 
BRANCH  13  14
HETATM   14  C20 UNL     1      15.410   4.512  21.660  1.00  0.00     0.002 C 
BRANCH  14  15
HETATM   15  C21 UNL     1      15.045   3.267  20.921  1.00  0.00     0.002 C 
BRANCH  15  16
HETATM   16  C22 UNL     1      13.546   3.059  21.193  1.00  0.00     0.020 C 
BRANCH  16  17
HETATM   17  C23 UNL     1      12.847   2.435  20.029  1.00  0.00     0.122 C 
BRANCH  17  18
HETATM   18  N6  UNL     1      13.841   1.981  19.081  1.00  0.00    -0.361 N 
HETATM   19  C24 UNL     1      14.195   0.648  18.830  1.00  0.00     0.223 C 
HETATM   20  O5  UNL     1      13.693  -0.360  19.408  1.00  0.00    -0.273 OA
ATOM     21  H6  UNL     1      14.331   2.698  18.545  1.00  0.00     0.162 HD
BRANCH  19  22
HETATM   22  C25 UNL     1      15.251   0.377  17.799  1.00  0.00     0.105 C 
HETATM   23  C26 UNL     1      16.590   0.529  18.483  1.00  0.00     0.043 C 
HETATM   24  C27 UNL     1      17.477   0.931  17.317  1.00  0.00     0.233 C 
HETATM   25  N7  UNL     1      16.655   1.621  16.370  1.00  0.00    -0.074 N 
HETATM   26  C28 UNL     1      15.285   1.449  16.751  1.00  0.00     0.246 C 
ATOM     27  H72 UNL     1      16.913   2.602  16.268  1.00  0.00     0.277 HD
ATOM     28  H71 UNL     1      16.834   1.329  15.409  1.00  0.00     0.277 HD
ENDBRANCH  19  22
ENDBRANCH  17  18
ENDBRANCH  16  17
ENDBRANCH  15  16
ENDBRANCH  14  15
ENDBRANCH  13  14
ENDBRANCH  12  13
ENDBRANCH  11  12
BRANCH   1  29
HETATM   29  C5  UNL     1      15.415   6.290  18.163  1.00  0.00     0.251 C 
HETATM   30  N1  UNL     1      15.141   5.895  16.854  1.00  0.00    -0.358 N 
ATOM     31  H1  UNL     1      14.210   6.096  16.492  1.00  0.00     0.162 HD
HETATM   32  O1  UNL     1      16.525   6.089  18.695  1.00  0.00    -0.270 OA
BRANCH  30  33
HETATM   33  C4  UNL     1      16.065   5.224  15.967  1.00  0.00     0.122 C 
BRANCH  33  34
HETATM   34  C3  UNL     1      15.799   5.556  14.526  1.00  0.00     0.019 C 
BRANCH  34  35
HETATM   35  C2  UNL     1      14.688   6.613  14.500  1.00  0.00    -0.003 C 
HETATM   36  C1  UNL     1      15.286   7.856  13.863  1.00  0.00     0.005 C 
ENDBRANCH  34  35
ENDBRANCH  33  34
ENDBRANCH  30  33
ENDBRANCH   1  29
BRANCH   5  37
HETATM   37  C10 UNL     1      12.044  11.917  17.836  1.00  0.00     0.136 C 
BRANCH  37  38
HETATM   38  C11 UNL     1      12.464  12.589  16.540  1.00  0.00     0.192 C 
BRANCH  38  39
HETATM   39  N3  UNL     1      13.743  13.216  16.642  1.00  0.00    -0.075 N 
ATOM     40  H33 UNL     1      14.036  13.297  17.616  1.00  0.00     0.274 HD
ATOM     41  H32 UNL     1      14.481  12.603  16.298  1.00  0.00     0.274 HD
ATOM     42  H31 UNL     1      13.770  14.122  16.174  1.00  0.00     0.274 HD
ENDBRANCH  38  39
BRANCH  38  43
HETATM   43  C12 UNL     1      12.264  11.680  15.380  1.00  0.00     0.033 C 
BRANCH  43  44
HETATM   44  C13 UNL     1      13.485  11.075  14.792  1.00  0.00     0.004 C 
BRANCH  44  45
HETATM   45  C14 UNL     1      13.862  11.530  13.428  1.00  0.00     0.027 C 
BRANCH  45  46
HETATM   46  C15 UNL     1      12.799  12.283  12.689  1.00  0.00     0.229 C 
BRANCH  46  47
HETATM   47  N4  UNL     1      13.464  13.080  11.667  1.00  0.00    -0.079 N 
ATOM     48  H43 UNL     1      14.290  12.624  11.279  1.00  0.00     0.274 HD
ATOM     49  H42 UNL     1      12.929  13.144  10.801  1.00  0.00     0.274 HD
ATOM     50  H41 UNL     1      13.667  13.992  12.078  1.00  0.00     0.274 HD
ENDBRANCH  46  47
ENDBRANCH  45  46
ENDBRANCH  44  45
ENDBRANCH  43  44
ENDBRANCH  38  43
ENDBRANCH  37  38
ENDBRANCH   5  37
TORSDOF 20
ENDMDL
MODEL 2
REMARK VINA RESULT: -8.283646756      4.014      9.639
REMARK  20 active torsions:
REMARK  status: ('A' for Active; 'I' for Inactive)
REMARK    1  A    between atoms: C2_2  and  C3_3 
REMARK    2  A    between atoms: C3_3  and  C4_4 
REMARK    3  A    between atoms: C4_4  and  N1_5 
REMARK       I    between atoms: N1_5  and  C5_7 
REMARK    4  A    between atoms: C5_7  and  C6_9 
REMARK       I    between atoms: N2_12  and  C9_13 
REMARK    5  A    between atoms: C9_13  and  C10_15 
REMARK    6  A    between atoms: C10_15  and  C11_16 
REMARK    7  A    between atoms: C11_16  and  N3_17 
REMARK    8  A    between atoms: C11_16  and  C12_21 
REMARK    9  A    between atoms: C12_21  and  C13_22 
REMARK   10  A    between atoms: C13_22  and  C14_23 
REMARK   11  A    between atoms: C14_23  and  C15_24 
REMARK   12  A    between atoms: C15_24  and  N4_25 
REMARK   13  A    between atoms: N5_33  and  C18_34 
REMARK   14  A    between atoms: C18_34  and  C19_35 
REMARK   15  A    between atoms: C19_35  and  C20_36 
REMARK   16  A    between atoms: C20_36  and  C21_37 
REMARK   17  A    between atoms: C21_37  and  C22_38 
REMARK   18  A    between atoms: C22_38  and  C23_39 
REMARK   19  A    between atoms: C23_39  and  N6_40 
REMARK       I    between atoms: N6_40  and  C24_42 
REMARK   20  A    between atoms: C24_42  and  C25_44 
ROOT
HETATM    1  C6  UNL     1      15.112   7.269  13.987  1.00  0.00     0.248 C 
HETATM    2  C7  UNL     1      14.696   7.163  15.354  1.00  0.00    -0.128 C 
HETATM    3  C8  UNL     1      14.627   6.956  16.753  1.00  0.00     0.217 C 
HETATM    4  N2  UNL     1      15.893   6.273  17.152  1.00  0.00    -0.270 N 
HETATM    5  C9  UNL     1      15.875   5.598  18.397  1.00  0.00     0.229 C 
HETATM    6  O2  UNL     1      16.931   4.996  18.786  1.00  0.00    -0.273 OA
HETATM    7  C16 UNL     1      17.125   6.233  16.395  1.00  0.00     0.319 C 
HETATM    8  O3  UNL     1      18.151   6.100  17.106  1.00  0.00    -0.262 OA
HETATM    9  C17 UNL     1      17.328   6.323  14.932  1.00  0.00     0.313 C 
HETATM   10  O4  UNL     1      18.514   6.259  14.552  1.00  0.00    -0.262 OA
HETATM   11  N5  UNL     1      16.351   6.474  13.870  1.00  0.00    -0.321 N 
ENDROOT
BRANCH  11  12
HETATM   12  C18 UNL     1      16.609   5.770  12.664  1.00  0.00     0.128 C 
BRANCH  12  13
HETATM   13  C19 UNL     1      15.624   4.741  12.234  1.00  0.00     0.020 C 
BRANCH  13  14
HETATM   14  C20 UNL     1      16.141   4.219  10.880  1.00  0.00     0.002 C 
BRANCH  14  15
HETATM   15  C21 UNL     1      16.431   5.321   9.915  1.00  0.00     0.002 C 
BRANCH  15  16
HETATM   16  C22 UNL     1      16.037   4.768   8.536  1.00  0.00     0.020 C 
BRANCH  16  17
HETATM   17  C23 UNL     1      16.530   5.635   7.423  1.00  0.00     0.122 C 
BRANCH  17  18
HETATM   18  N6  UNL     1      16.474   7.015   7.853  1.00  0.00    -0.361 N 
HETATM   19  C24 UNL     1      17.559   7.898   7.938  1.00  0.00     0.223 C 
HETATM   20  O5  UNL     1      18.758   7.608   7.654  1.00  0.00    -0.273 OA
ATOM     21  H6  UNL     1      15.559   7.380   8.118  1.00  0.00     0.162 HD
BRANCH  19  22
HETATM   22  C25 UNL     1      17.297   9.301   8.402  1.00  0.00     0.105 C 
HETATM   23  C26 UNL     1      18.422   9.676   9.339  1.00  0.00     0.043 C 
HETATM   24  C27 UNL     1      17.740  10.702  10.228  1.00  0.00     0.233 C 
HETATM   25  N7  UNL     1      16.349  10.371  10.277  1.00  0.00    -0.074 N 
HETATM   26  C28 UNL     1      16.087   9.372   9.284  1.00  0.00     0.246 C 
ATOM     27  H72 UNL     1      16.046  10.086  11.208  1.00  0.00     0.277 HD
ATOM     28  H71 UNL     1      15.747  11.188  10.179  1.00  0.00     0.277 HD
ENDBRANCH  19  22
ENDBRANCH  17  18
ENDBRANCH  16  17
ENDBRANCH  15  16
ENDBRANCH  14  15
ENDBRANCH  13  14
ENDBRANCH  12  13
ENDBRANCH  11  12
BRANCH   1  29
HETATM   29  C5  UNL     1      15.402   8.682  13.542  1.00  0.00     0.251 C 
HETATM   30  N1  UNL     1      14.452   9.689  13.707  1.00  0.00    -0.358 N 
ATOM     31  H1  UNL     1      13.566   9.428  14.138  1.00  0.00     0.162 HD
HETATM   32  O1  UNL     1      16.516   8.903  13.026  1.00  0.00    -0.270 OA
BRANCH  30  33
HETATM   33  C4  UNL     1      14.617  11.072  13.319  1.00  0.00     0.122 C 
BRANCH  33  34
HETATM   34  C3  UNL     1      13.530  11.944  13.881  1.00  0.00     0.019 C 
BRANCH  34  35
HETATM   35  C2  UNL     1      13.067  11.305  15.196  1.00  0.00    -0.003 C 
HETATM   36  C1  UNL     1      12.623  12.443  16.100  1.00  0.00     0.005 C 
ENDBRANCH  34  35
ENDBRANCH  33  34
ENDBRANCH  30  33
ENDBRANCH   1  29
BRANCH   5  37
HETATM   37  C10 UNL     1      14.711   5.548  19.272  1.00  0.00     0.136 C 
BRANCH  37  38
HETATM   38  C11 UNL     1      15.096   4.895  20.588  1.00  0.00     0.192 C 
BRANCH  38  39
HETATM   39  N3  UNL     1      15.498   5.849  21.571  1.00  0.00    -0.075 N 
ATOM     40  H33 UNL     1      15.716   6.749  21.143  1.00  0.00     0.274 HD
ATOM     41  H32 UNL     1      14.710   6.132  22.153  1.00  0.00     0.274 HD
ATOM     42  H31 UNL     1      16.275   5.515  22.142  1.00  0.00     0.274 HD
ENDBRANCH  38  39
BRANCH  38  43
HETATM   43  C12 UNL     1      14.071   3.902  21.009  1.00  0.00     0.033 C 
BRANCH  43  44
HETATM   44  C13 UNL     1      14.435   2.470  20.862  1.00  0.00     0.004 C 
BRANCH  44  45
HETATM   45  C14 UNL     1      15.812   2.089  21.275  1.00  0.00     0.027 C 
BRANCH  45  46
HETATM   46  C15 UNL     1      16.497   1.104  20.379  1.00  0.00     0.229 C 
BRANCH  46  47
HETATM   47  N4  UNL     1      17.296   0.230  21.226  1.00  0.00    -0.079 N 
ATOM     48  H43 UNL     1      18.285   0.224  20.973  1.00  0.00     0.274 HD
ATOM     49  H42 UNL     1      17.405   0.586  22.176  1.00  0.00     0.274 HD
ATOM     50  H41 UNL     1      16.871  -0.697  21.194  1.00  0.00     0.274 HD
ENDBRANCH  46  47
ENDBRANCH  45  46
ENDBRANCH  44  45
ENDBRANCH  43  44
ENDBRANCH  38  43
ENDBRANCH  37  38
ENDBRANCH   5  37
TORSDOF 20
ENDMDL
MODEL 3
REMARK VINA RESULT: -8.240365734      2.243      5.832
REMARK  20 active torsions:
REMARK  status: ('A' for Active; 'I' for Inactive)
REMARK    1  A    between atoms: C2_2  and  C3_3 
REMARK    2  A    between atoms: C3_3  and  C4_4 
REMARK    3  A    between atoms: C4_4  and  N1_5 
REMARK       I    between atoms: N1_5  and  C5_7 
REMARK    4  A    between atoms: C5_7  and  C6_9 
REMARK       I    between atoms: N2_12  and  C9_13 
REMARK    5  A    between atoms: C9_13  and  C10_15 
REMARK    6  A    between atoms: C10_15  and  C11_16 
REMARK    7  A    between atoms: C11_16  and  N3_17 
REMARK    8  A    between atoms: C11_16  and  C12_21 
REMARK    9  A    between atoms: C12_21  and  C13_22 
REMARK   10  A    between atoms: C13_22  and  C14_23 
REMARK   11  A    between atoms: C14_23  and  C15_24 
REMARK   12  A    between atoms: C15_24  and  N4_25 
REMARK   13  A    between atoms: N5_33  and  C18_34 
REMARK   14  A    between atoms: C18_34  and  C19_35 
REMARK   15  A    between atoms: C19_35  and  C20_36 
REMARK   16  A    between atoms: C20_36  and  C21_37 
REMARK   17  A    between atoms: C21_37  and  C22_38 
REMARK   18  A    between atoms: C22_38  and  C23_39 
REMARK   19  A    between atoms: C23_39  and  N6_40 
REMARK       I    between atoms: N6_40  and  C24_42 
REMARK   20  A    between atoms: C24_42  and  C25_44 
ROOT
HETATM    1  C6  UNL     1      15.204   6.853  13.682  1.00  0.00     0.248 C 
HETATM    2  C7  UNL     1      14.658   7.011  14.997  1.00  0.00    -0.128 C 
HETATM    3  C8  UNL     1      14.451   7.069  16.396  1.00  0.00     0.217 C 
HETATM    4  N2  UNL     1      15.649   6.449  17.036  1.00  0.00    -0.270 N 
HETATM    5  C9  UNL     1      15.491   6.019  18.376  1.00  0.00     0.229 C 
HETATM    6  O2  UNL     1      16.483   5.481  18.972  1.00  0.00    -0.273 OA
HETATM    7  C16 UNL     1      16.944   6.247  16.425  1.00  0.00     0.319 C 
HETATM    8  O3  UNL     1      17.894   6.230  17.246  1.00  0.00    -0.262 OA
HETATM    9  C17 UNL     1      17.287   6.059  14.997  1.00  0.00     0.313 C 
HETATM   10  O4  UNL     1      18.499   5.904  14.754  1.00  0.00    -0.262 OA
HETATM   11  N5  UNL     1      16.419   6.028  13.835  1.00  0.00    -0.321 N 
ENDROOT
BRANCH  11  12
HETATM   12  C18 UNL     1      16.762   5.107  12.810  1.00  0.00     0.128 C 
BRANCH  12  13
HETATM   13  C19 UNL     1      15.670   4.296  12.206  1.00  0.00     0.020 C 
BRANCH  13  14
HETATM   14  C20 UNL     1      14.972   3.601  13.391  1.00  0.00     0.002 C 
BRANCH  14  15
HETATM   15  C21 UNL     1      15.850   2.597  14.063  1.00  0.00     0.002 C 
BRANCH  15  16
HETATM   16  C22 UNL     1      15.679   2.851  15.569  1.00  0.00     0.020 C 
BRANCH  16  17
HETATM   17  C23 UNL     1      15.348   1.599  16.314  1.00  0.00     0.122 C 
BRANCH  17  18
HETATM   18  N6  UNL     1      15.213   1.918  17.718  1.00  0.00    -0.361 N 
HETATM   19  C24 UNL     1      15.086   0.996  18.767  1.00  0.00     0.223 C 
HETATM   20  O5  UNL     1      15.065  -0.262  18.631  1.00  0.00    -0.273 OA
ATOM     21  H6  UNL     1      15.210   2.907  17.969  1.00  0.00     0.162 HD
BRANCH  19  22
HETATM   22  C25 UNL     1      14.963   1.525  20.165  1.00  0.00     0.105 C 
HETATM   23  C26 UNL     1      13.778   2.463  20.183  1.00  0.00     0.043 C 
HETATM   24  C27 UNL     1      14.160   3.406  21.311  1.00  0.00     0.233 C 
HETATM   25  N7  UNL     1      15.590   3.459  21.361  1.00  0.00    -0.074 N 
HETATM   26  C28 UNL     1      16.109   2.426  20.515  1.00  0.00     0.246 C 
ATOM     27  H72 UNL     1      15.957   4.381  21.124  1.00  0.00     0.277 HD
ATOM     28  H71 UNL     1      15.952   3.405  22.313  1.00  0.00     0.277 HD
ENDBRANCH  19  22
ENDBRANCH  17  18
ENDBRANCH  16  17
ENDBRANCH  15  16
ENDBRANCH  14  15
ENDBRANCH  13  14
ENDBRANCH  12  13
ENDBRANCH  11  12
BRANCH   1  29
HETATM   29  C5  UNL     1      15.585   8.153  13.015  1.00  0.00     0.251 C 
HETATM   30  N1  UNL     1      14.887   9.327  13.294  1.00  0.00    -0.358 N 
ATOM     31  H1  UNL     1      14.119   9.265  13.961  1.00  0.00     0.162 HD
HETATM   32  O1  UNL     1      16.541   8.127  12.214  1.00  0.00    -0.270 OA
BRANCH  30  33
HETATM   33  C4  UNL     1      15.160  10.625  12.718  1.00  0.00     0.122 C 
BRANCH  33  34
HETATM   34  C3  UNL     1      14.054  11.604  12.994  1.00  0.00     0.019 C 
BRANCH  34  35
HETATM   35  C2  UNL     1      13.481  11.266  14.376  1.00  0.00    -0.003 C 
HETATM   36  C1  UNL     1      13.220  12.589  15.074  1.00  0.00     0.005 C 
ENDBRANCH  34  35
ENDBRANCH  33  34
ENDBRANCH  30  33
ENDBRANCH   1  29
BRANCH   5  37
HETATM   37  C10 UNL     1      14.248   6.154  19.126  1.00  0.00     0.136 C 
BRANCH  37  38
HETATM   38  C11 UNL     1      14.406   7.243  20.173  1.00  0.00     0.192 C 
BRANCH  38  39
HETATM   39  N3  UNL     1      15.523   7.015  21.032  1.00  0.00    -0.075 N 
ATOM     40  H33 UNL     1      15.418   6.141  21.548  1.00  0.00     0.274 HD
ATOM     41  H32 UNL     1      16.360   6.788  20.495  1.00  0.00     0.274 HD
ATOM     42  H31 UNL     1      15.694   7.798  21.664  1.00  0.00     0.274 HD
ENDBRANCH  38  39
BRANCH  38  43
HETATM   43  C12 UNL     1      14.310   8.593  19.555  1.00  0.00     0.033 C 
BRANCH  43  44
HETATM   44  C13 UNL     1      12.946   9.071  19.215  1.00  0.00     0.004 C 
BRANCH  44  45
HETATM   45  C14 UNL     1      12.835   9.990  18.051  1.00  0.00     0.027 C 
BRANCH  45  46
HETATM   46  C15 UNL     1      11.830  11.089  18.199  1.00  0.00     0.229 C 
BRANCH  46  47
HETATM   47  N4  UNL     1      12.500  12.204  18.855  1.00  0.00    -0.079 N 
ATOM     48  H43 UNL     1      13.418  12.407  18.458  1.00  0.00     0.274 HD
ATOM     49  H42 UNL     1      12.066  13.105  18.652  1.00  0.00     0.274 HD
ATOM     50  H41 UNL     1      12.535  11.993  19.852  1.00  0.00     0.274 HD
ENDBRANCH  46  47
ENDBRANCH  45  46
ENDBRANCH  44  45
ENDBRANCH  43  44
ENDBRANCH  38  43
ENDBRANCH  37  38
ENDBRANCH   5  37
TORSDOF 20
ENDMDL
MODEL 4
REMARK VINA RESULT: -8.239923188      2.456      5.586
REMARK  20 active torsions:
REMARK  status: ('A' for Active; 'I' for Inactive)
REMARK    1  A    between atoms: C2_2  and  C3_3 
REMARK    2  A    between atoms: C3_3  and  C4_4 
REMARK    3  A    between atoms: C4_4  and  N1_5 
REMARK       I    between atoms: N1_5  and  C5_7 
REMARK    4  A    between atoms: C5_7  and  C6_9 
REMARK       I    between atoms: N2_12  and  C9_13 
REMARK    5  A    between atoms: C9_13  and  C10_15 
REMARK    6  A    between atoms: C10_15  and  C11_16 
REMARK    7  A    between atoms: C11_16  and  N3_17 
REMARK    8  A    between atoms: C11_16  and  C12_21 
REMARK    9  A    between atoms: C12_21  and  C13_22 
REMARK   10  A    between atoms: C13_22  and  C14_23 
REMARK   11  A    between atoms: C14_23  and  C15_24 
REMARK   12  A    between atoms: C15_24  and  N4_25 
REMARK   13  A    between atoms: N5_33  and  C18_34 
REMARK   14  A    between atoms: C18_34  and  C19_35 
REMARK   15  A    between atoms: C19_35  and  C20_36 
REMARK   16  A    between atoms: C20_36  and  C21_37 
REMARK   17  A    between atoms: C21_37  and  C22_38 
REMARK   18  A    between atoms: C22_38  and  C23_39 
REMARK   19  A    between atoms: C23_39  and  N6_40 
REMARK       I    between atoms: N6_40  and  C24_42 
REMARK   20  A    between atoms: C24_42  and  C25_44 
ROOT
HETATM    1  C6  UNL     1      15.123   6.689  13.793  1.00  0.00     0.248 C 
HETATM    2  C7  UNL     1      14.623   7.108  15.068  1.00  0.00    -0.128 C 
HETATM    3  C8  UNL     1      14.437   7.381  16.445  1.00  0.00     0.217 C 
HETATM    4  N2  UNL     1      15.504   6.640  17.179  1.00  0.00    -0.270 N 
HETATM    5  C9  UNL     1      15.277   6.419  18.560  1.00  0.00     0.229 C 
HETATM    6  O2  UNL     1      16.157   5.788  19.236  1.00  0.00    -0.273 OA
HETATM    7  C16 UNL     1      16.737   6.129  16.622  1.00  0.00     0.319 C 
HETATM    8  O3  UNL     1      17.672   6.044  17.456  1.00  0.00    -0.262 OA
HETATM    9  C17 UNL     1      17.033   5.703  15.236  1.00  0.00     0.313 C 
HETATM   10  O4  UNL     1      18.196   5.300  15.036  1.00  0.00    -0.262 OA
HETATM   11  N5  UNL     1      16.168   5.683  14.071  1.00  0.00    -0.321 N 
ENDROOT
BRANCH  11  12
HETATM   12  C18 UNL     1      16.332   4.592  13.176  1.00  0.00     0.128 C 
BRANCH  12  13
HETATM   13  C19 UNL     1      15.345   3.481  13.243  1.00  0.00     0.020 C 
BRANCH  13  14
HETATM   14  C20 UNL     1      16.048   2.354  14.023  1.00  0.00     0.002 C 
BRANCH  14  15
HETATM   15  C21 UNL     1      15.652   2.323  15.463  1.00  0.00     0.002 C 
BRANCH  15  16
HETATM   16  C22 UNL     1      16.044   0.923  15.962  1.00  0.00     0.020 C 
BRANCH  16  17
HETATM   17  C23 UNL     1      14.935   0.266  16.717  1.00  0.00     0.122 C 
BRANCH  17  18
HETATM   18  N6  UNL     1      14.765   0.953  17.979  1.00  0.00    -0.361 N 
HETATM   19  C24 UNL     1      15.301   0.558  19.213  1.00  0.00     0.223 C 
HETATM   20  O5  UNL     1      16.015  -0.471  19.401  1.00  0.00    -0.273 OA
ATOM     21  H6  UNL     1      14.203   1.803  17.971  1.00  0.00     0.162 HD
BRANCH  19  22
HETATM   22  C25 UNL     1      15.017   1.410  20.415  1.00  0.00     0.105 C 
HETATM   23  C26 UNL     1      13.834   2.284  20.070  1.00  0.00     0.043 C 
HETATM   24  C27 UNL     1      14.080   3.488  20.964  1.00  0.00     0.233 C 
HETATM   25  N7  UNL     1      15.495   3.598  21.155  1.00  0.00    -0.074 N 
HETATM   26  C28 UNL     1      16.112   2.406  20.654  1.00  0.00     0.246 C 
ATOM     27  H72 UNL     1      15.882   4.445  20.738  1.00  0.00     0.277 HD
ATOM     28  H71 UNL     1      15.746   3.792  22.124  1.00  0.00     0.277 HD
ENDBRANCH  19  22
ENDBRANCH  17  18
ENDBRANCH  16  17
ENDBRANCH  15  16
ENDBRANCH  14  15
ENDBRANCH  13  14
ENDBRANCH  12  13
ENDBRANCH  11  12
BRANCH   1  29
HETATM   29  C5  UNL     1      15.732   7.802  12.976  1.00  0.00     0.251 C 
HETATM   30  N1  UNL     1      15.138   9.064  12.937  1.00  0.00    -0.358 N 
ATOM     31  H1  UNL     1      14.286   9.194  13.480  1.00  0.00     0.162 HD
HETATM   32  O1  UNL     1      16.778   7.545  12.345  1.00  0.00    -0.270 OA
BRANCH  30  33
HETATM   33  C4  UNL     1      15.628  10.201  12.191  1.00  0.00     0.122 C 
BRANCH  33  34
HETATM   34  C3  UNL     1      15.041  10.260  10.809  1.00  0.00     0.019 C 
BRANCH  34  35
HETATM   35  C2  UNL     1      16.169   9.942   9.820  1.00  0.00    -0.003 C 
HETATM   36  C1  UNL     1      17.446  10.503  10.423  1.00  0.00     0.005 C 
ENDBRANCH  34  35
ENDBRANCH  33  34
ENDBRANCH  30  33
ENDBRANCH   1  29
BRANCH   5  37
HETATM   37  C10 UNL     1      14.084   6.871  19.264  1.00  0.00     0.136 C 
BRANCH  37  38
HETATM   38  C11 UNL     1      14.464   7.958  20.254  1.00  0.00     0.192 C 
BRANCH  38  39
HETATM   39  N3  UNL     1      15.780   8.463  20.030  1.00  0.00    -0.075 N 
ATOM     40  H33 UNL     1      16.226   7.991  19.244  1.00  0.00     0.274 HD
ATOM     41  H32 UNL     1      15.751   9.411  19.656  1.00  0.00     0.274 HD
ATOM     42  H31 UNL     1      16.362   8.415  20.867  1.00  0.00     0.274 HD
ENDBRANCH  38  39
BRANCH  38  43
HETATM   43  C12 UNL     1      13.378   8.969  20.377  1.00  0.00     0.033 C 
BRANCH  43  44
HETATM   44  C13 UNL     1      12.468   9.108  19.213  1.00  0.00     0.004 C 
BRANCH  44  45
HETATM   45  C14 UNL     1      12.639  10.325  18.376  1.00  0.00     0.027 C 
BRANCH  45  46
HETATM   46  C15 UNL     1      11.546  11.341  18.495  1.00  0.00     0.229 C 
BRANCH  46  47
HETATM   47  N4  UNL     1      11.554  12.131  17.271  1.00  0.00    -0.079 N 
ATOM     48  H43 UNL     1      10.920  11.769  16.558  1.00  0.00     0.274 HD
ATOM     49  H42 UNL     1      11.116  13.046  17.384  1.00  0.00     0.274 HD
ATOM     50  H41 UNL     1      12.521  12.189  16.952  1.00  0.00     0.274 HD
ENDBRANCH  46  47
ENDBRANCH  45  46
ENDBRANCH  44  45
ENDBRANCH  43  44
ENDBRANCH  38  43
ENDBRANCH  37  38
ENDBRANCH   5  37
TORSDOF 20
ENDMDL
MODEL 5
REMARK VINA RESULT: -8.212106787      3.989      9.785
REMARK  20 active torsions:
REMARK  status: ('A' for Active; 'I' for Inactive)
REMARK    1  A    between atoms: C2_2  and  C3_3 
REMARK    2  A    between atoms: C3_3  and  C4_4 
REMARK    3  A    between atoms: C4_4  and  N1_5 
REMARK       I    between atoms: N1_5  and  C5_7 
REMARK    4  A    between atoms: C5_7  and  C6_9 
REMARK       I    between atoms: N2_12  and  C9_13 
REMARK    5  A    between atoms: C9_13  and  C10_15 
REMARK    6  A    between atoms: C10_15  and  C11_16 
REMARK    7  A    between atoms: C11_16  and  N3_17 
REMARK    8  A    between atoms: C11_16  and  C12_21 
REMARK    9  A    between atoms: C12_21  and  C13_22 
REMARK   10  A    between atoms: C13_22  and  C14_23 
REMARK   11  A    between atoms: C14_23  and  C15_24 
REMARK   12  A    between atoms: C15_24  and  N4_25 
REMARK   13  A    between atoms: N5_33  and  C18_34 
REMARK   14  A    between atoms: C18_34  and  C19_35 
REMARK   15  A    between atoms: C19_35  and  C20_36 
REMARK   16  A    between atoms: C20_36  and  C21_37 
REMARK   17  A    between atoms: C21_37  and  C22_38 
REMARK   18  A    between atoms: C22_38  and  C23_39 
REMARK   19  A    between atoms: C23_39  and  N6_40 
REMARK       I    between atoms: N6_40  and  C24_42 
REMARK   20  A    between atoms: C24_42  and  C25_44 
ROOT
HETATM    1  C6  UNL     1      16.390   5.317  16.030  1.00  0.00     0.248 C 
HETATM    2  C7  UNL     1      16.310   4.344  17.078  1.00  0.00    -0.128 C 
HETATM    3  C8  UNL     1      16.167   3.159  17.839  1.00  0.00     0.217 C 
HETATM    4  N2  UNL     1      15.636   2.113  16.915  1.00  0.00    -0.270 N 
HETATM    5  C9  UNL     1      15.026   0.990  17.524  1.00  0.00     0.229 C 
HETATM    6  O2  UNL     1      14.553   0.066  16.781  1.00  0.00    -0.273 OA
HETATM    7  C16 UNL     1      15.683   2.138  15.470  1.00  0.00     0.319 C 
HETATM    8  O3  UNL     1      15.691   0.997  14.945  1.00  0.00    -0.262 OA
HETATM    9  C17 UNL     1      15.721   3.299  14.553  1.00  0.00     0.313 C 
HETATM   10  O4  UNL     1      15.759   3.021  13.339  1.00  0.00    -0.262 OA
HETATM   11  N5  UNL     1      15.720   4.718  14.858  1.00  0.00    -0.321 N 
ENDROOT
BRANCH  11  12
HETATM   12  C18 UNL     1      14.986   5.556  13.978  1.00  0.00     0.128 C 
BRANCH  12  13
HETATM   13  C19 UNL     1      14.818   6.986  14.355  1.00  0.00     0.020 C 
BRANCH  13  14
HETATM   14  C20 UNL     1      15.549   7.787  13.261  1.00  0.00     0.002 C 
BRANCH  14  15
HETATM   15  C21 UNL     1      15.343   9.260  13.398  1.00  0.00     0.002 C 
BRANCH  15  16
HETATM   16  C22 UNL     1      16.394   9.904  12.479  1.00  0.00     0.020 C 
BRANCH  16  17
HETATM   17  C23 UNL     1      15.769  10.599  11.314  1.00  0.00     0.122 C 
BRANCH  17  18
HETATM   18  N6  UNL     1      15.800   9.710  10.173  1.00  0.00    -0.361 N 
HETATM   19  C24 UNL     1      16.858   9.569   9.265  1.00  0.00     0.223 C 
HETATM   20  O5  UNL     1      17.948  10.210   9.311  1.00  0.00    -0.273 OA
ATOM     21  H6  UNL     1      14.975   9.132  10.015  1.00  0.00     0.162 HD
BRANCH  19  22
HETATM   22  C25 UNL     1      16.704   8.583   8.143  1.00  0.00     0.105 C 
HETATM   23  C26 UNL     1      16.088   7.334   8.732  1.00  0.00     0.043 C 
HETATM   24  C27 UNL     1      16.614   6.268   7.785  1.00  0.00     0.233 C 
HETATM   25  N7  UNL     1      17.872   6.726   7.279  1.00  0.00    -0.074 N 
HETATM   26  C28 UNL     1      18.034   8.101   7.648  1.00  0.00     0.246 C 
ATOM     27  H72 UNL     1      18.653   6.145   7.584  1.00  0.00     0.277 HD
ATOM     28  H71 UNL     1      17.969   6.576   6.275  1.00  0.00     0.277 HD
ENDBRANCH  19  22
ENDBRANCH  17  18
ENDBRANCH  16  17
ENDBRANCH  15  16
ENDBRANCH  14  15
ENDBRANCH  13  14
ENDBRANCH  12  13
ENDBRANCH  11  12
BRANCH   1  29
HETATM   29  C5  UNL     1      17.801   5.686  15.641  1.00  0.00     0.251 C 
HETATM   30  N1  UNL     1      18.134   7.006  15.340  1.00  0.00    -0.358 N 
ATOM     31  H1  UNL     1      17.388   7.699  15.396  1.00  0.00     0.162 HD
HETATM   32  O1  UNL     1      18.643   4.767  15.601  1.00  0.00    -0.270 OA
BRANCH  30  33
HETATM   33  C4  UNL     1      19.446   7.476  14.956  1.00  0.00     0.122 C 
BRANCH  33  34
HETATM   34  C3  UNL     1      19.466   7.983  13.541  1.00  0.00     0.019 C 
BRANCH  34  35
HETATM   35  C2  UNL     1      19.523   6.759  12.619  1.00  0.00    -0.003 C 
HETATM   36  C1  UNL     1      18.685   7.094  11.397  1.00  0.00     0.005 C 
ENDBRANCH  34  35
ENDBRANCH  33  34
ENDBRANCH  30  33
ENDBRANCH   1  29
BRANCH   5  37
HETATM   37  C10 UNL     1      14.901   0.822  18.967  1.00  0.00     0.136 C 
BRANCH  37  38
HETATM   38  C11 UNL     1      13.450   0.545  19.319  1.00  0.00     0.192 C 
BRANCH  38  39
HETATM   39  N3  UNL     1      13.186  -0.849  19.482  1.00  0.00    -0.075 N 
ATOM     40  H33 UNL     1      13.313  -1.352  18.603  1.00  0.00     0.274 HD
ATOM     41  H32 UNL     1      13.914  -1.299  20.035  1.00  0.00     0.274 HD
ATOM     42  H31 UNL     1      12.262  -1.026  19.876  1.00  0.00     0.274 HD
ENDBRANCH  38  39
BRANCH  38  43
HETATM   43  C12 UNL     1      12.989   1.438  20.417  1.00  0.00     0.033 C 
BRANCH  43  44
HETATM   44  C13 UNL     1      13.043   2.897  20.150  1.00  0.00     0.004 C 
BRANCH  44  45
HETATM   45  C14 UNL     1      13.794   3.725  21.132  1.00  0.00     0.027 C 
BRANCH  45  46
HETATM   46  C15 UNL     1      14.340   5.012  20.596  1.00  0.00     0.229 C 
BRANCH  46  47
HETATM   47  N4  UNL     1      13.618   5.311  19.367  1.00  0.00    -0.079 N 
ATOM     48  H43 UNL     1      12.938   4.592  19.119  1.00  0.00     0.274 HD
ATOM     49  H42 UNL     1      12.961   6.085  19.469  1.00  0.00     0.274 HD
ATOM     50  H41 UNL     1      14.313   5.471  18.637  1.00  0.00     0.274 HD
ENDBRANCH  46  47
ENDBRANCH  45  46
ENDBRANCH  44  45
ENDBRANCH  43  44
ENDBRANCH  38  43
ENDBRANCH  37  38
ENDBRANCH   5  37
TORSDOF 20
ENDMDL
