MODEL 1
REMARK VINA RESULT: -9.433819534      0.000      0.000
REMARK  18 active torsions:
REMARK  status: ('A' for Active; 'I' for Inactive)
REMARK    1  A    between atoms: N3_4  and  C2_6 
REMARK    2  A    between atoms: C2_6  and  C3_7 
REMARK    3  A    between atoms: C3_7  and  C4_8 
REMARK    4  A    between atoms: C4_8  and  C5_9 
REMARK    5  A    between atoms: C5_9  and  C6_10 
REMARK    6  A    between atoms: C5_9  and  N5_20 
REMARK    7  A    between atoms: C6_10  and  C7_11 
REMARK    8  A    between atoms: C7_11  and  C8_12 
REMARK       I    between atoms: C8_12  and  N4_14 
REMARK    9  A    between atoms: N4_14  and  C9_16 
REMARK   10  A    between atoms: C9_16  and  C10_17 
REMARK       I    between atoms: N5_20  and  C11_22 
REMARK   11  A    between atoms: C11_22  and  C12_24 
REMARK   12  A    between atoms: C12_24  and  C13_25 
REMARK   13  A    between atoms: C13_25  and  C14_26 
REMARK   14  A    between atoms: C14_26  and  C15_27 
REMARK   15  A    between atoms: C15_27  and  C16_28 
REMARK   16  A    between atoms: C16_28  and  C17_29 
REMARK       I    between atoms: C17_29  and  N6_31 
REMARK   17  A    between atoms: C21_35  and  C22_36 
REMARK   18  A    between atoms: C22_36  and  N7_37 
ROOT
HETATM    1  N5  UNL     1      13.463   8.932  18.643  1.00  0.00    -0.356 N 
ATOM      2  H5  UNL     1      12.853   8.203  18.273  1.00  0.00     0.162 HD
HETATM    3  C11 UNL     1      14.372   8.542  19.640  1.00  0.00     0.217 C 
HETATM    4  O4  UNL     1      15.185   9.299  20.180  1.00  0.00    -0.274 OA
ENDROOT
BRANCH   1   5
HETATM    5  C5  UNL     1      13.298  10.251  18.085  1.00  0.00     0.084 C 
BRANCH   5   6
HETATM    6  C4  UNL     1      12.039  10.813  18.723  1.00  0.00     0.027 C 
BRANCH   6   7
HETATM    7  C3  UNL     1      12.361  11.749  19.856  1.00  0.00     0.022 C 
BRANCH   7   8
HETATM    8  C2  UNL     1      11.234  11.689  20.863  1.00  0.00     0.122 C 
BRANCH   8   9
HETATM    9  N3  UNL     1      11.210  12.878  21.689  1.00  0.00    -0.367 N 
HETATM   10  C1  UNL     1      10.176  13.144  22.415  1.00  0.00     0.196 C 
HETATM   11  N1  UNL     1      10.174  14.308  23.212  1.00  0.00    -0.067 NA
HETATM   12  N2  UNL     1       9.062  12.292  22.416  1.00  0.00    -0.067 NA
ATOM     13  H3  UNL     1      12.012  13.507  21.699  1.00  0.00     0.161 HD
ENDBRANCH   8   9
ENDBRANCH   7   8
ENDBRANCH   6   7
ENDBRANCH   5   6
BRANCH   5  14
HETATM   14  C6  UNL     1      13.244  10.317  16.592  1.00  0.00     0.034 C 
BRANCH  14  15
HETATM   15  C7  UNL     1      12.397  11.453  16.119  1.00  0.00     0.105 C 
BRANCH  15  16
HETATM   16  C8  UNL     1      12.848  12.076  14.852  1.00  0.00     0.218 C 
HETATM   17  O1  UNL     1      13.649  13.023  14.829  1.00  0.00    -0.274 OA
HETATM   18  N4  UNL     1      12.365  11.593  13.601  1.00  0.00    -0.351 N 
ATOM     19  H4  UNL     1      11.705  10.815  13.594  1.00  0.00     0.163 HD
BRANCH  18  20
HETATM   20  C9  UNL     1      12.776  12.164  12.352  1.00  0.00     0.235 C 
BRANCH  20  21
HETATM   21  C10 UNL     1      13.721  11.249  11.647  1.00  0.00     0.191 C 
HETATM   22  O2  UNL     1      13.905  11.332  10.419  1.00  0.00    -0.647 OA
HETATM   23  O3  UNL     1      14.411  10.287  12.352  1.00  0.00    -0.647 OA
ENDBRANCH  20  21
ENDBRANCH  18  20
ENDBRANCH  15  16
ENDBRANCH  14  15
ENDBRANCH   5  14
ENDBRANCH   1   5
BRANCH   3  24
HETATM   24  C12 UNL     1      14.402   7.114  20.124  1.00  0.00     0.103 C 
BRANCH  24  25
HETATM   25  C13 UNL     1      14.272   7.028  21.610  1.00  0.00     0.009 C 
BRANCH  25  26
HETATM   26  C14 UNL     1      14.269   5.590  22.085  1.00  0.00     0.001 C 
BRANCH  26  27
HETATM   27  C15 UNL     1      15.562   4.895  21.769  1.00  0.00     0.009 C 
BRANCH  27  28
HETATM   28  C16 UNL     1      15.420   3.514  21.244  1.00  0.00     0.103 C 
BRANCH  28  29
HETATM   29  C17 UNL     1      15.627   3.386  19.795  1.00  0.00     0.220 C 
HETATM   30  O5  UNL     1      16.168   4.304  19.143  1.00  0.00    -0.273 OA
HETATM   31  N6  UNL     1      15.202   2.189  19.117  1.00  0.00    -0.346 N 
HETATM   32  C18 UNL     1      14.561   1.058  19.759  1.00  0.00     0.126 C 
HETATM   33  C21 UNL     1      15.308   1.952  17.725  1.00  0.00     0.115 C 
HETATM   34  C19 UNL     1      14.524  -0.041  18.734  1.00  0.00     0.022 C 
HETATM   35  C20 UNL     1      14.545   0.673  17.400  1.00  0.00     0.029 C 
BRANCH  33  36
HETATM   36  C22 UNL     1      16.662   1.885  17.099  1.00  0.00     0.297 C 
BRANCH  36  37
HETATM   37  N7  UNL     1      17.124   2.957  16.324  1.00  0.00     0.094 N 
HETATM   38  C23 UNL     1      17.946   2.438  15.174  1.00  0.00     0.298 C 
HETATM   39  C24 UNL     1      17.109   1.520  14.358  1.00  0.00     0.198 C 
HETATM   40  O6  UNL     1      15.790   1.837  14.235  1.00  0.00    -0.388 OA
HETATM   41  C25 UNL     1      15.394   3.085  14.593  1.00  0.00     0.198 C 
HETATM   42  C26 UNL     1      16.154   3.772  15.675  1.00  0.00     0.298 C 
ENDBRANCH  36  37
ENDBRANCH  33  36
ENDBRANCH  28  29
ENDBRANCH  27  28
ENDBRANCH  26  27
ENDBRANCH  25  26
ENDBRANCH  24  25
ENDBRANCH   3  24
TORSDOF 18
ENDMDL
MODEL 2
REMARK VINA RESULT: -9.236779994      1.377      1.737
REMARK  18 active torsions:
REMARK  status: ('A' for Active; 'I' for Inactive)
REMARK    1  A    between atoms: N3_4  and  C2_6 
REMARK    2  A    between atoms: C2_6  and  C3_7 
REMARK    3  A    between atoms: C3_7  and  C4_8 
REMARK    4  A    between atoms: C4_8  and  C5_9 
REMARK    5  A    between atoms: C5_9  and  C6_10 
REMARK    6  A    between atoms: C5_9  and  N5_20 
REMARK    7  A    between atoms: C6_10  and  C7_11 
REMARK    8  A    between atoms: C7_11  and  C8_12 
REMARK       I    between atoms: C8_12  and  N4_14 
REMARK    9  A    between atoms: N4_14  and  C9_16 
REMARK   10  A    between atoms: C9_16  and  C10_17 
REMARK       I    between atoms: N5_20  and  C11_22 
REMARK   11  A    between atoms: C11_22  and  C12_24 
REMARK   12  A    between atoms: C12_24  and  C13_25 
REMARK   13  A    between atoms: C13_25  and  C14_26 
REMARK   14  A    between atoms: C14_26  and  C15_27 
REMARK   15  A    between atoms: C15_27  and  C16_28 
REMARK   16  A    between atoms: C16_28  and  C17_29 
REMARK       I    between atoms: C17_29  and  N6_31 
REMARK   17  A    between atoms: C21_35  and  C22_36 
REMARK   18  A    between atoms: C22_36  and  N7_37 
ROOT
HETATM    1  N5  UNL     1      13.846   9.031  19.025  1.00  0.00    -0.356 N 
ATOM      2  H5  UNL     1      13.257   8.204  18.929  1.00  0.00     0.162 HD
HETATM    3  C11 UNL     1      14.935   8.925  19.907  1.00  0.00     0.217 C 
HETATM    4  O4  UNL     1      15.748   9.829  20.126  1.00  0.00    -0.274 OA
ENDROOT
BRANCH   1   5
HETATM    5  C5  UNL     1      13.472  10.180  18.241  1.00  0.00     0.084 C 
BRANCH   5   6
HETATM    6  C4  UNL     1      12.147  10.655  18.814  1.00  0.00     0.027 C 
BRANCH   6   7
HETATM    7  C3  UNL     1      12.340  11.762  19.814  1.00  0.00     0.022 C 
BRANCH   7   8
HETATM    8  C2  UNL     1      11.239  11.672  20.848  1.00  0.00     0.122 C 
BRANCH   8   9
HETATM    9  N3  UNL     1      11.214  12.852  21.686  1.00  0.00    -0.367 N 
HETATM   10  C1  UNL     1      10.169  13.124  22.395  1.00  0.00     0.196 C 
HETATM   11  N1  UNL     1      10.166  14.280  23.203  1.00  0.00    -0.067 NA
HETATM   12  N2  UNL     1       9.045  12.286  22.366  1.00  0.00    -0.067 NA
ATOM     13  H3  UNL     1      12.024  13.471  21.718  1.00  0.00     0.161 HD
ENDBRANCH   8   9
ENDBRANCH   7   8
ENDBRANCH   6   7
ENDBRANCH   5   6
BRANCH   5  14
HETATM   14  C6  UNL     1      13.392   9.955  16.765  1.00  0.00     0.034 C 
BRANCH  14  15
HETATM   15  C7  UNL     1      12.694  11.079  16.070  1.00  0.00     0.105 C 
BRANCH  15  16
HETATM   16  C8  UNL     1      13.403  11.609  14.883  1.00  0.00     0.218 C 
HETATM   17  O1  UNL     1      13.601  12.823  14.717  1.00  0.00    -0.274 OA
HETATM   18  N4  UNL     1      13.888  10.721  13.878  1.00  0.00    -0.351 N 
ATOM     19  H4  UNL     1      13.737   9.719  13.992  1.00  0.00     0.163 HD
BRANCH  18  20
HETATM   20  C9  UNL     1      14.581  11.190  12.715  1.00  0.00     0.235 C 
BRANCH  20  21
HETATM   21  C10 UNL     1      13.667  11.207  11.536  1.00  0.00     0.191 C 
HETATM   22  O2  UNL     1      12.729  12.022  11.457  1.00  0.00    -0.647 OA
HETATM   23  O3  UNL     1      13.847  10.311  10.505  1.00  0.00    -0.647 OA
ENDBRANCH  20  21
ENDBRANCH  18  20
ENDBRANCH  15  16
ENDBRANCH  14  15
ENDBRANCH   5  14
ENDBRANCH   1   5
BRANCH   3  24
HETATM   24  C12 UNL     1      15.175   7.645  20.667  1.00  0.00     0.103 C 
BRANCH  24  25
HETATM   25  C13 UNL     1      13.959   7.207  21.417  1.00  0.00     0.009 C 
BRANCH  25  26
HETATM   26  C14 UNL     1      14.297   6.169  22.467  1.00  0.00     0.001 C 
BRANCH  26  27
HETATM   27  C15 UNL     1      15.057   5.013  21.883  1.00  0.00     0.009 C 
BRANCH  27  28
HETATM   28  C16 UNL     1      14.258   4.107  21.021  1.00  0.00     0.103 C 
BRANCH  28  29
HETATM   29  C17 UNL     1      14.934   3.681  19.787  1.00  0.00     0.220 C 
HETATM   30  O5  UNL     1      15.738   4.439  19.206  1.00  0.00    -0.273 OA
HETATM   31  N6  UNL     1      14.666   2.376  19.242  1.00  0.00    -0.346 N 
HETATM   32  C18 UNL     1      13.754   1.409  19.820  1.00  0.00     0.126 C 
HETATM   33  C21 UNL     1      15.219   1.857  18.046  1.00  0.00     0.115 C 
HETATM   34  C19 UNL     1      13.976   0.123  19.074  1.00  0.00     0.022 C 
HETATM   35  C20 UNL     1      14.509   0.548  17.721  1.00  0.00     0.029 C 
BRANCH  33  36
HETATM   36  C22 UNL     1      16.695   1.646  17.957  1.00  0.00     0.297 C 
BRANCH  36  37
HETATM   37  N7  UNL     1      17.337   1.735  16.715  1.00  0.00     0.094 N 
HETATM   38  C23 UNL     1      17.839   3.138  16.500  1.00  0.00     0.298 C 
HETATM   39  C24 UNL     1      18.772   3.491  17.602  1.00  0.00     0.198 C 
HETATM   40  O6  UNL     1      19.564   2.491  18.080  1.00  0.00    -0.388 OA
HETATM   41  C25 UNL     1      19.673   1.353  17.349  1.00  0.00     0.198 C 
HETATM   42  C26 UNL     1      18.506   0.948  16.516  1.00  0.00     0.298 C 
ENDBRANCH  36  37
ENDBRANCH  33  36
ENDBRANCH  28  29
ENDBRANCH  27  28
ENDBRANCH  26  27
ENDBRANCH  25  26
ENDBRANCH  24  25
ENDBRANCH   3  24
TORSDOF 18
ENDMDL
MODEL 3
REMARK VINA RESULT: -9.234029926      2.064      4.691
REMARK  18 active torsions:
REMARK  status: ('A' for Active; 'I' for Inactive)
REMARK    1  A    between atoms: N3_4  and  C2_6 
REMARK    2  A    between atoms: C2_6  and  C3_7 
REMARK    3  A    between atoms: C3_7  and  C4_8 
REMARK    4  A    between atoms: C4_8  and  C5_9 
REMARK    5  A    between atoms: C5_9  and  C6_10 
REMARK    6  A    between atoms: C5_9  and  N5_20 
REMARK    7  A    between atoms: C6_10  and  C7_11 
REMARK    8  A    between atoms: C7_11  and  C8_12 
REMARK       I    between atoms: C8_12  and  N4_14 
REMARK    9  A    between atoms: N4_14  and  C9_16 
REMARK   10  A    between atoms: C9_16  and  C10_17 
REMARK       I    between atoms: N5_20  and  C11_22 
REMARK   11  A    between atoms: C11_22  and  C12_24 
REMARK   12  A    between atoms: C12_24  and  C13_25 
REMARK   13  A    between atoms: C13_25  and  C14_26 
REMARK   14  A    between atoms: C14_26  and  C15_27 
REMARK   15  A    between atoms: C15_27  and  C16_28 
REMARK   16  A    between atoms: C16_28  and  C17_29 
REMARK       I    between atoms: C17_29  and  N6_31 
REMARK   17  A    between atoms: C21_35  and  C22_36 
REMARK   18  A    between atoms: C22_36  and  N7_37 
ROOT
HETATM    1  N5  UNL     1      13.361   9.769  15.417  1.00  0.00    -0.356 N 
ATOM      2  H5  UNL     1      12.805   9.383  16.179  1.00  0.00     0.162 HD
HETATM    3  C11 UNL     1      14.232   8.881  14.764  1.00  0.00     0.217 C 
HETATM    4  O4  UNL     1      14.962   9.187  13.816  1.00  0.00    -0.274 OA
ENDROOT
BRANCH   1   5
HETATM    5  C5  UNL     1      13.167  11.168  15.126  1.00  0.00     0.084 C 
BRANCH   5   6
HETATM    6  C4  UNL     1      12.494  11.754  16.355  1.00  0.00     0.027 C 
BRANCH   6   7
HETATM    7  C3  UNL     1      13.470  12.512  17.214  1.00  0.00     0.022 C 
BRANCH   7   8
HETATM    8  C2  UNL     1      13.538  11.842  18.568  1.00  0.00     0.122 C 
BRANCH   8   9
HETATM    9  N3  UNL     1      12.348  12.115  19.346  1.00  0.00    -0.367 N 
HETATM   10  C1  UNL     1      11.633  11.143  19.804  1.00  0.00     0.196 C 
HETATM   11  N1  UNL     1      10.476  11.434  20.558  1.00  0.00    -0.067 NA
HETATM   12  N2  UNL     1      11.993   9.810  19.558  1.00  0.00    -0.067 NA
ATOM     13  H3  UNL     1      12.074  13.080  19.533  1.00  0.00     0.161 HD
ENDBRANCH   8   9
ENDBRANCH   7   8
ENDBRANCH   6   7
ENDBRANCH   5   6
BRANCH   5  14
HETATM   14  C6  UNL     1      12.403  11.466  13.876  1.00  0.00     0.034 C 
BRANCH  14  15
HETATM   15  C7  UNL     1      13.128  12.439  13.003  1.00  0.00     0.105 C 
BRANCH  15  16
HETATM   16  C8  UNL     1      13.776  11.839  11.813  1.00  0.00     0.218 C 
HETATM   17  O1  UNL     1      13.232  11.826  10.699  1.00  0.00    -0.274 OA
HETATM   18  N4  UNL     1      15.069  11.249  11.919  1.00  0.00    -0.351 N 
ATOM     19  H4  UNL     1      15.537  11.246  12.826  1.00  0.00     0.163 HD
BRANCH  18  20
HETATM   20  C9  UNL     1      15.734  10.659  10.795  1.00  0.00     0.235 C 
BRANCH  20  21
HETATM   21  C10 UNL     1      17.195  10.526  11.065  1.00  0.00     0.191 C 
HETATM   22  O2  UNL     1      17.614   9.930  12.074  1.00  0.00    -0.647 OA
HETATM   23  O3  UNL     1      18.114  11.067  10.192  1.00  0.00    -0.647 OA
ENDBRANCH  20  21
ENDBRANCH  18  20
ENDBRANCH  15  16
ENDBRANCH  14  15
ENDBRANCH   5  14
ENDBRANCH   1   5
BRANCH   3  24
HETATM   24  C12 UNL     1      14.323   7.443  15.209  1.00  0.00     0.103 C 
BRANCH  24  25
HETATM   25  C13 UNL     1      15.100   6.610  14.242  1.00  0.00     0.009 C 
BRANCH  25  26
HETATM   26  C14 UNL     1      14.545   5.203  14.149  1.00  0.00     0.001 C 
BRANCH  26  27
HETATM   27  C15 UNL     1      15.634   4.170  14.205  1.00  0.00     0.009 C 
BRANCH  27  28
HETATM   28  C16 UNL     1      15.409   3.074  15.179  1.00  0.00     0.103 C 
BRANCH  28  29
HETATM   29  C17 UNL     1      15.994   3.306  16.508  1.00  0.00     0.220 C 
HETATM   30  O5  UNL     1      16.766   4.268  16.706  1.00  0.00    -0.273 OA
HETATM   31  N6  UNL     1      15.674   2.416  17.593  1.00  0.00    -0.346 N 
HETATM   32  C18 UNL     1      14.797   1.267  17.489  1.00  0.00     0.126 C 
HETATM   33  C21 UNL     1      16.194   2.504  18.908  1.00  0.00     0.115 C 
HETATM   34  C19 UNL     1      14.560   0.790  18.895  1.00  0.00     0.022 C 
HETATM   35  C20 UNL     1      15.777   1.252  19.670  1.00  0.00     0.029 C 
BRANCH  33  36
HETATM   36  C22 UNL     1      15.881   3.706  19.736  1.00  0.00     0.297 C 
BRANCH  36  37
HETATM   37  N7  UNL     1      14.601   4.273  19.684  1.00  0.00     0.094 N 
HETATM   38  C23 UNL     1      14.011   4.327  21.068  1.00  0.00     0.298 C 
HETATM   39  C24 UNL     1      14.907   5.127  21.943  1.00  0.00     0.198 C 
HETATM   40  O6  UNL     1      15.536   6.191  21.370  1.00  0.00    -0.388 OA
HETATM   41  C25 UNL     1      15.092   6.625  20.163  1.00  0.00     0.198 C 
HETATM   42  C26 UNL     1      14.490   5.621  19.242  1.00  0.00     0.298 C 
ENDBRANCH  36  37
ENDBRANCH  33  36
ENDBRANCH  28  29
ENDBRANCH  27  28
ENDBRANCH  26  27
ENDBRANCH  25  26
ENDBRANCH  24  25
ENDBRANCH   3  24
TORSDOF 18
ENDMDL
MODEL 4
REMARK VINA RESULT: -9.086922710      2.481      5.060
REMARK  18 active torsions:
REMARK  status: ('A' for Active; 'I' for Inactive)
REMARK    1  A    between atoms: N3_4  and  C2_6 
REMARK    2  A    between atoms: C2_6  and  C3_7 
REMARK    3  A    between atoms: C3_7  and  C4_8 
REMARK    4  A    between atoms: C4_8  and  C5_9 
REMARK    5  A    between atoms: C5_9  and  C6_10 
REMARK    6  A    between atoms: C5_9  and  N5_20 
REMARK    7  A    between atoms: C6_10  and  C7_11 
REMARK    8  A    between atoms: C7_11  and  C8_12 
REMARK       I    between atoms: C8_12  and  N4_14 
REMARK    9  A    between atoms: N4_14  and  C9_16 
REMARK   10  A    between atoms: C9_16  and  C10_17 
REMARK       I    between atoms: N5_20  and  C11_22 
REMARK   11  A    between atoms: C11_22  and  C12_24 
REMARK   12  A    between atoms: C12_24  and  C13_25 
REMARK   13  A    between atoms: C13_25  and  C14_26 
REMARK   14  A    between atoms: C14_26  and  C15_27 
REMARK   15  A    between atoms: C15_27  and  C16_28 
REMARK   16  A    between atoms: C16_28  and  C17_29 
REMARK       I    between atoms: C17_29  and  N6_31 
REMARK   17  A    between atoms: C21_35  and  C22_36 
REMARK   18  A    between atoms: C22_36  and  N7_37 
ROOT
HETATM    1  N5  UNL     1      13.971   8.653  14.981  1.00  0.00    -0.356 N 
ATOM      2  H5  UNL     1      13.144   8.296  15.459  1.00  0.00     0.162 HD
HETATM    3  C11 UNL     1      14.866   7.693  14.477  1.00  0.00     0.217 C 
HETATM    4  O4  UNL     1      15.904   7.960  13.864  1.00  0.00    -0.274 OA
ENDROOT
BRANCH   1   5
HETATM    5  C5  UNL     1      14.095  10.086  14.895  1.00  0.00     0.084 C 
BRANCH   5   6
HETATM    6  C4  UNL     1      13.295  10.639  16.063  1.00  0.00     0.027 C 
BRANCH   6   7
HETATM    7  C3  UNL     1      12.608  11.928  15.704  1.00  0.00     0.022 C 
BRANCH   7   8
HETATM    8  C2  UNL     1      12.260  12.658  16.983  1.00  0.00     0.122 C 
BRANCH   8   9
HETATM    9  N3  UNL     1      11.383  11.861  17.815  1.00  0.00    -0.367 N 
HETATM   10  C1  UNL     1      11.740  11.538  19.013  1.00  0.00     0.196 C 
HETATM   11  N1  UNL     1      10.870  10.759  19.805  1.00  0.00    -0.067 NA
HETATM   12  N2  UNL     1      12.978  11.950  19.528  1.00  0.00    -0.067 NA
ATOM     13  H3  UNL     1      10.480  11.554  17.455  1.00  0.00     0.161 HD
ENDBRANCH   8   9
ENDBRANCH   7   8
ENDBRANCH   6   7
ENDBRANCH   5   6
BRANCH   5  14
HETATM   14  C6  UNL     1      13.675  10.692  13.595  1.00  0.00     0.034 C 
BRANCH  14  15
HETATM   15  C7  UNL     1      14.847  10.983  12.715  1.00  0.00     0.105 C 
BRANCH  15  16
HETATM   16  C8  UNL     1      14.812  10.312  11.395  1.00  0.00     0.218 C 
HETATM   17  O1  UNL     1      13.852  10.431  10.618  1.00  0.00    -0.274 OA
HETATM   18  N4  UNL     1      15.901   9.496  10.972  1.00  0.00    -0.351 N 
ATOM     19  H4  UNL     1      16.702   9.382  11.594  1.00  0.00     0.163 HD
BRANCH  18  20
HETATM   20  C9  UNL     1      15.909   8.830   9.703  1.00  0.00     0.235 C 
BRANCH  20  21
HETATM   21  C10 UNL     1      16.947   9.424   8.810  1.00  0.00     0.191 C 
HETATM   22  O2  UNL     1      17.742  10.286   9.227  1.00  0.00    -0.647 OA
HETATM   23  O3  UNL     1      17.042   9.024   7.495  1.00  0.00    -0.647 OA
ENDBRANCH  20  21
ENDBRANCH  18  20
ENDBRANCH  15  16
ENDBRANCH  14  15
ENDBRANCH   5  14
ENDBRANCH   1   5
BRANCH   3  24
HETATM   24  C12 UNL     1      14.590   6.223  14.670  1.00  0.00     0.103 C 
BRANCH  24  25
HETATM   25  C13 UNL     1      14.956   5.426  13.460  1.00  0.00     0.009 C 
BRANCH  25  26
HETATM   26  C14 UNL     1      14.665   3.952  13.657  1.00  0.00     0.001 C 
BRANCH  26  27
HETATM   27  C15 UNL     1      15.831   3.231  14.270  1.00  0.00     0.009 C 
BRANCH  27  28
HETATM   28  C16 UNL     1      15.498   2.382  15.441  1.00  0.00     0.103 C 
BRANCH  28  29
HETATM   29  C17 UNL     1      16.062   2.847  16.716  1.00  0.00     0.220 C 
HETATM   30  O5  UNL     1      16.952   3.723  16.738  1.00  0.00    -0.273 OA
HETATM   31  N6  UNL     1      15.584   2.289  17.953  1.00  0.00    -0.346 N 
HETATM   32  C18 UNL     1      14.561   1.268  18.060  1.00  0.00     0.126 C 
HETATM   33  C21 UNL     1      16.065   2.620  19.244  1.00  0.00     0.115 C 
HETATM   34  C19 UNL     1      14.211   1.173  19.518  1.00  0.00     0.022 C 
HETATM   35  C20 UNL     1      15.452   1.648  20.245  1.00  0.00     0.029 C 
BRANCH  33  36
HETATM   36  C22 UNL     1      15.893   4.015  19.749  1.00  0.00     0.297 C 
BRANCH  36  37
HETATM   37  N7  UNL     1      14.648   4.647  19.636  1.00  0.00     0.094 N 
HETATM   38  C23 UNL     1      14.217   5.169  20.980  1.00  0.00     0.298 C 
HETATM   39  C24 UNL     1      15.246   6.117  21.482  1.00  0.00     0.198 C 
HETATM   40  O6  UNL     1      15.866   6.898  20.555  1.00  0.00    -0.388 OA
HETATM   41  C25 UNL     1      15.317   6.982  19.316  1.00  0.00     0.198 C 
HETATM   42  C26 UNL     1      14.564   5.801  18.808  1.00  0.00     0.298 C 
ENDBRANCH  36  37
ENDBRANCH  33  36
ENDBRANCH  28  29
ENDBRANCH  27  28
ENDBRANCH  26  27
ENDBRANCH  25  26
ENDBRANCH  24  25
ENDBRANCH   3  24
TORSDOF 18
ENDMDL
MODEL 5
REMARK VINA RESULT: -9.079773724      3.232      6.839
REMARK  18 active torsions:
REMARK  status: ('A' for Active; 'I' for Inactive)
REMARK    1  A    between atoms: N3_4  and  C2_6 
REMARK    2  A    between atoms: C2_6  and  C3_7 
REMARK    3  A    between atoms: C3_7  and  C4_8 
REMARK    4  A    between atoms: C4_8  and  C5_9 
REMARK    5  A    between atoms: C5_9  and  C6_10 
REMARK    6  A    between atoms: C5_9  and  N5_20 
REMARK    7  A    between atoms: C6_10  and  C7_11 
REMARK    8  A    between atoms: C7_11  and  C8_12 
REMARK       I    between atoms: C8_12  and  N4_14 
REMARK    9  A    between atoms: N4_14  and  C9_16 
REMARK   10  A    between atoms: C9_16  and  C10_17 
REMARK       I    between atoms: N5_20  and  C11_22 
REMARK   11  A    between atoms: C11_22  and  C12_24 
REMARK   12  A    between atoms: C12_24  and  C13_25 
REMARK   13  A    between atoms: C13_25  and  C14_26 
REMARK   14  A    between atoms: C14_26  and  C15_27 
REMARK   15  A    between atoms: C15_27  and  C16_28 
REMARK   16  A    between atoms: C16_28  and  C17_29 
REMARK       I    between atoms: C17_29  and  N6_31 
REMARK   17  A    between atoms: C21_35  and  C22_36 
REMARK   18  A    between atoms: C22_36  and  N7_37 
ROOT
HETATM    1  N5  UNL     1      14.301   9.971  14.550  1.00  0.00    -0.356 N 
ATOM      2  H5  UNL     1      14.722   9.581  15.393  1.00  0.00     0.162 HD
HETATM    3  C11 UNL     1      13.228  10.859  14.740  1.00  0.00     0.217 C 
HETATM    4  O4  UNL     1      12.620  11.426  13.826  1.00  0.00    -0.274 OA
ENDROOT
BRANCH   1   5
HETATM    5  C5  UNL     1      14.870   9.552  13.294  1.00  0.00     0.084 C 
BRANCH   5   6
HETATM    6  C4  UNL     1      15.628   8.270  13.594  1.00  0.00     0.027 C 
BRANCH   6   7
HETATM    7  C3  UNL     1      14.880   7.397  14.565  1.00  0.00     0.022 C 
BRANCH   7   8
HETATM    8  C2  UNL     1      15.865   6.450  15.215  1.00  0.00     0.122 C 
BRANCH   8   9
HETATM    9  N3  UNL     1      15.288   5.132  15.382  1.00  0.00    -0.367 N 
HETATM   10  C1  UNL     1      15.820   4.111  14.800  1.00  0.00     0.196 C 
HETATM   11  N1  UNL     1      15.240   2.837  14.976  1.00  0.00    -0.067 NA
HETATM   12  N2  UNL     1      16.962   4.257  13.998  1.00  0.00    -0.067 NA
ATOM     13  H3  UNL     1      14.458   5.011  15.962  1.00  0.00     0.161 HD
ENDBRANCH   8   9
ENDBRANCH   7   8
ENDBRANCH   6   7
ENDBRANCH   5   6
BRANCH   5  14
HETATM   14  C6  UNL     1      15.732  10.562  12.608  1.00  0.00     0.034 C 
BRANCH  14  15
HETATM   15  C7  UNL     1      15.165  10.968  11.287  1.00  0.00     0.105 C 
BRANCH  15  16
HETATM   16  C8  UNL     1      15.683  10.201  10.130  1.00  0.00     0.218 C 
HETATM   17  O1  UNL     1      15.110   9.189   9.697  1.00  0.00    -0.274 OA
HETATM   18  N4  UNL     1      16.877  10.613   9.469  1.00  0.00    -0.351 N 
ATOM     19  H4  UNL     1      17.367  11.441   9.808  1.00  0.00     0.163 HD
BRANCH  18  20
HETATM   20  C9  UNL     1      17.413   9.902   8.346  1.00  0.00     0.235 C 
BRANCH  20  21
HETATM   21  C10 UNL     1      18.312   8.803   8.805  1.00  0.00     0.191 C 
HETATM   22  O2  UNL     1      18.729   8.757   9.977  1.00  0.00    -0.647 OA
HETATM   23  O3  UNL     1      18.699   7.812   7.930  1.00  0.00    -0.647 OA
ENDBRANCH  20  21
ENDBRANCH  18  20
ENDBRANCH  15  16
ENDBRANCH  14  15
ENDBRANCH   5  14
ENDBRANCH   1   5
BRANCH   3  24
HETATM   24  C12 UNL     1      12.745  11.179  16.132  1.00  0.00     0.103 C 
BRANCH  24  25
HETATM   25  C13 UNL     1      13.207  10.165  17.127  1.00  0.00     0.009 C 
BRANCH  25  26
HETATM   26  C14 UNL     1      12.448  10.282  18.433  1.00  0.00     0.001 C 
BRANCH  26  27
HETATM   27  C15 UNL     1      12.715   9.115  19.340  1.00  0.00     0.009 C 
BRANCH  27  28
HETATM   28  C16 UNL     1      14.118   8.632  19.344  1.00  0.00     0.103 C 
BRANCH  28  29
HETATM   29  C17 UNL     1      14.267   7.182  19.153  1.00  0.00     0.220 C 
HETATM   30  O5  UNL     1      14.347   6.694  18.006  1.00  0.00    -0.273 OA
HETATM   31  N6  UNL     1      14.321   6.314  20.300  1.00  0.00    -0.346 N 
HETATM   32  C18 UNL     1      14.235   6.757  21.678  1.00  0.00     0.126 C 
HETATM   33  C21 UNL     1      14.425   4.902  20.258  1.00  0.00     0.115 C 
HETATM   34  C19 UNL     1      14.582   5.565  22.525  1.00  0.00     0.022 C 
HETATM   35  C20 UNL     1      14.227   4.367  21.670  1.00  0.00     0.029 C 
BRANCH  33  36
HETATM   36  C22 UNL     1      15.648   4.280  19.667  1.00  0.00     0.297 C 
BRANCH  36  37
HETATM   37  N7  UNL     1      15.523   3.365  18.613  1.00  0.00     0.094 N 
HETATM   38  C23 UNL     1      16.870   2.779  18.285  1.00  0.00     0.298 C 
HETATM   39  C24 UNL     1      17.418   2.116  19.497  1.00  0.00     0.198 C 
HETATM   40  O6  UNL     1      16.523   1.491  20.312  1.00  0.00    -0.388 OA
HETATM   41  C25 UNL     1      15.275   1.254  19.833  1.00  0.00     0.198 C 
HETATM   42  C26 UNL     1      14.722   2.209  18.831  1.00  0.00     0.298 C 
ENDBRANCH  36  37
ENDBRANCH  33  36
ENDBRANCH  28  29
ENDBRANCH  27  28
ENDBRANCH  26  27
ENDBRANCH  25  26
ENDBRANCH  24  25
ENDBRANCH   3  24
TORSDOF 18
ENDMDL
