MODEL 1
REMARK VINA RESULT: -9.602508149      0.000      0.000
REMARK  12 active torsions:
REMARK  status: ('A' for Active; 'I' for Inactive)
REMARK    1  A    between atoms: C3_7  and  O2_8 
REMARK    2  A    between atoms: O2_8  and  N2_9 
REMARK    3  A    between atoms: N2_9  and  C4_11 
REMARK    4  A    between atoms: C4_11  and  C5_16 
REMARK    5  A    between atoms: N3_12  and  O3_14 
REMARK    6  A    between atoms: C6_20  and  N6_21 
REMARK    7  A    between atoms: N8_27  and  C8_29 
REMARK    8  A    between atoms: C8_29  and  C9_30 
REMARK    9  A    between atoms: C9_30  and  C10_31 
REMARK   10  A    between atoms: C11_34  and  O6_35 
REMARK   11  A    between atoms: C13_41  and  N10_42 
REMARK   12  A    between atoms: N10_42  and  N11_43 
ROOT
HETATM    1  C5  UNL     1       8.126  -9.443 -17.340  1.00  0.00     0.213 A 
HETATM    2  N4  UNL     1       9.110  -8.734 -17.919  1.00  0.00    -0.253 N 
ATOM      3  H4  UNL     1       9.336  -7.757 -17.730  1.00  0.00     0.190 HD
HETATM    4  N5  UNL     1       9.738  -9.527 -18.781  1.00  0.00    -0.058 N 
HETATM    5  C6  UNL     1      10.779  -9.343 -19.619  1.00  0.00     0.701 A 
HETATM    6  N7  UNL     1      11.241 -10.329 -20.413  1.00  0.00    -0.172 N 
ATOM      7  H7  UNL     1      12.030 -10.138 -21.030  1.00  0.00     0.186 HD
HETATM    8  C7  UNL     1      10.684 -11.577 -20.418  1.00  0.00     0.155 A 
HETATM    9  N8  UNL     1      11.159 -12.475 -21.204  1.00  0.00    -0.373 N 
ATOM     10  H8  UNL     1      11.942 -12.193 -21.793  1.00  0.00     0.161 HD
HETATM   11  C11 UNL     1       9.626 -11.762 -19.564  1.00  0.00     0.165 A 
HETATM   12  C12 UNL     1       9.150 -10.733 -18.741  1.00  0.00     0.226 A 
HETATM   13  O7  UNL     1       8.180 -10.643 -17.859  1.00  0.00    -0.267 OA
ENDROOT
BRANCH   1  14
HETATM   14  C4  UNL     1       7.192  -8.981 -16.343  1.00  0.00     0.199 C 
HETATM   15  N3  UNL     1       6.467  -7.916 -16.497  1.00  0.00    -0.248 N 
ATOM     16  H3  UNL     1       5.818  -7.616 -15.770  1.00  0.00     0.196 HD
BRANCH  14  17
HETATM   17  N2  UNL     1       7.019  -9.691 -15.102  1.00  0.00    -0.238 N 
ATOM     18  H2  UNL     1       7.472  -9.381 -14.241  1.00  0.00     0.197 HD
BRANCH  17  19
HETATM   19  O2  UNL     1       6.221 -10.798 -15.133  1.00  0.00    -0.220 OA
BRANCH  19  20
HETATM   20  C3  UNL     1       4.951 -10.865 -15.637  1.00  0.00     0.169 C 
HETATM   21  C2  UNL     1       3.920 -10.015 -14.979  1.00  0.00     0.263 C 
HETATM   22  O1  UNL     1       2.749  -9.912 -15.751  1.00  0.00    -0.329 OA
HETATM   23  C1  UNL     1       2.546 -10.628 -16.920  1.00  0.00     0.153 C 
HETATM   24  N1  UNL     1       1.610 -10.320 -17.777  1.00  0.00    -0.381 N 
HETATM   25  C13 UNL     1       3.408 -11.776 -17.216  1.00  0.00     0.272 C 
ATOM     26  H12 UNL     1       1.011  -9.521 -17.571  1.00  0.00     0.158 HD
ATOM     27  H11 UNL     1       1.461 -10.847 -18.638  1.00  0.00     0.158 HD
HETATM   28  N9  UNL     1       4.713 -11.637 -16.622  1.00  0.00    -0.344 N 
ATOM     29  H9  UNL     1       5.484 -12.182 -17.009  1.00  0.00     0.163 HD
BRANCH  25  30
HETATM   30  N10 UNL     1       2.775 -13.002 -16.702  1.00  0.00    -0.114 NA
BRANCH  30  31
HETATM   31  N11 UNL     1       3.864 -13.883 -16.458  1.00  0.00    -0.346 N 
ATOM     32 2H11 UNL     1       4.404 -14.401 -17.151  1.00  0.00     0.172 HD
ATOM     33 1H11 UNL     1       3.973 -13.873 -15.444  1.00  0.00     0.172 HD
ENDBRANCH  30  31
ENDBRANCH  25  30
ENDBRANCH  19  20
ENDBRANCH  17  19
ENDBRANCH  14  17
BRANCH  15  34
HETATM   34  O3  UNL     1       6.593  -7.213 -17.647  1.00  0.00    -0.288 OA
ATOM     35  H3  UNL     1       7.362  -6.667 -17.760  1.00  0.00     0.244 HD
ENDBRANCH  15  34
ENDBRANCH   1  14
BRANCH   5  36
HETATM   36  N6  UNL     1      11.301  -8.166 -19.609  1.00  0.00    -0.233 N 
ATOM     37  H62 UNL     1      11.176  -7.521 -18.828  1.00  0.00     0.174 HD
ATOM     38  H61 UNL     1      11.849  -7.919 -20.434  1.00  0.00     0.174 HD
ENDBRANCH   5  36
BRANCH  11  39
HETATM   39  O6  UNL     1       9.002 -12.988 -19.502  1.00  0.00    -0.354 OA
ATOM     40  H6  UNL     1       9.253 -13.678 -20.106  1.00  0.00     0.218 HD
ENDBRANCH  11  39
BRANCH   9  41
HETATM   41  C8  UNL     1      10.713 -13.821 -21.344  1.00  0.00     0.132 C 
BRANCH  41  42
HETATM   42  C9  UNL     1      10.800 -14.293 -22.789  1.00  0.00     0.132 C 
BRANCH  42  43
HETATM   43  C10 UNL     1       9.736 -13.623 -23.566  1.00  0.00     0.174 C 
HETATM   44  O4  UNL     1       9.846 -12.446 -23.968  1.00  0.00    -0.648 OA
HETATM   45  O5  UNL     1       8.582 -14.336 -23.852  1.00  0.00    -0.648 OA
ENDBRANCH  42  43
ENDBRANCH  41  42
ENDBRANCH   9  41
TORSDOF 12
ENDMDL
MODEL 2
REMARK VINA RESULT: -9.590343109      2.327      7.404
REMARK  12 active torsions:
REMARK  status: ('A' for Active; 'I' for Inactive)
REMARK    1  A    between atoms: C3_7  and  O2_8 
REMARK    2  A    between atoms: O2_8  and  N2_9 
REMARK    3  A    between atoms: N2_9  and  C4_11 
REMARK    4  A    between atoms: C4_11  and  C5_16 
REMARK    5  A    between atoms: N3_12  and  O3_14 
REMARK    6  A    between atoms: C6_20  and  N6_21 
REMARK    7  A    between atoms: N8_27  and  C8_29 
REMARK    8  A    between atoms: C8_29  and  C9_30 
REMARK    9  A    between atoms: C9_30  and  C10_31 
REMARK   10  A    between atoms: C11_34  and  O6_35 
REMARK   11  A    between atoms: C13_41  and  N10_42 
REMARK   12  A    between atoms: N10_42  and  N11_43 
ROOT
HETATM    1  C5  UNL     1       9.327  -9.726 -18.711  1.00  0.00     0.213 A 
HETATM    2  N4  UNL     1       8.644  -8.689 -18.196  1.00  0.00    -0.253 N 
ATOM      3  H4  UNL     1       8.997  -7.739 -18.076  1.00  0.00     0.190 HD
HETATM    4  N5  UNL     1       7.428  -9.117 -17.871  1.00  0.00    -0.058 N 
HETATM    5  C6  UNL     1       6.351  -8.516 -17.327  1.00  0.00     0.701 A 
HETATM    6  N7  UNL     1       5.204  -9.183 -17.088  1.00  0.00    -0.172 N 
ATOM      7  H7  UNL     1       4.418  -8.682 -16.674  1.00  0.00     0.186 HD
HETATM    8  C7  UNL     1       5.062 -10.509 -17.384  1.00  0.00     0.155 A 
HETATM    9  N8  UNL     1       3.949 -11.096 -17.125  1.00  0.00    -0.373 N 
ATOM     10  H8  UNL     1       3.222 -10.520 -16.701  1.00  0.00     0.161 HD
HETATM   11  C11 UNL     1       6.159 -11.118 -17.939  1.00  0.00     0.165 A 
HETATM   12  C12 UNL     1       7.348 -10.420 -18.184  1.00  0.00     0.226 A 
HETATM   13  O7  UNL     1       8.515 -10.752 -18.689  1.00  0.00    -0.267 OA
ENDROOT
BRANCH   1  14
HETATM   14  C4  UNL     1      10.685  -9.717 -19.196  1.00  0.00     0.199 C 
HETATM   15  N3  UNL     1      11.371  -8.627 -19.350  1.00  0.00    -0.248 N 
ATOM     16  H3  UNL     1      12.330  -8.657 -19.697  1.00  0.00     0.196 HD
BRANCH  14  17
HETATM   17  N2  UNL     1      11.358 -10.943 -19.542  1.00  0.00    -0.238 N 
ATOM     18  H2  UNL     1      12.203 -11.244 -19.057  1.00  0.00     0.197 HD
BRANCH  17  19
HETATM   19  O2  UNL     1      10.809 -11.681 -20.551  1.00  0.00    -0.220 OA
BRANCH  19  20
HETATM   20  C3  UNL     1      10.628 -13.037 -20.554  1.00  0.00     0.169 C 
HETATM   21  C2  UNL     1       9.225 -13.528 -20.641  1.00  0.00     0.263 C 
HETATM   22  O1  UNL     1       9.163 -14.897 -20.954  1.00  0.00    -0.329 OA
HETATM   23  C1  UNL     1      10.285 -15.707 -21.040  1.00  0.00     0.153 C 
HETATM   24  N1  UNL     1      10.259 -16.882 -21.609  1.00  0.00    -0.381 N 
HETATM   25  C13 UNL     1      11.553 -15.238 -20.475  1.00  0.00     0.272 C 
ATOM     26  H12 UNL     1       9.377 -17.209 -22.003  1.00  0.00     0.158 HD
ATOM     27  H11 UNL     1      11.084 -17.478 -21.673  1.00  0.00     0.158 HD
HETATM   28  N9  UNL     1      11.646 -13.800 -20.482  1.00  0.00    -0.344 N 
ATOM     29  H9  UNL     1      12.570 -13.372 -20.427  1.00  0.00     0.163 HD
BRANCH  25  30
HETATM   30  N10 UNL     1      11.673 -15.720 -19.088  1.00  0.00    -0.114 NA
BRANCH  30  31
HETATM   31  N11 UNL     1      13.038 -15.500 -18.758  1.00  0.00    -0.346 N 
ATOM     32 2H11 UNL     1      13.735 -15.007 -19.317  1.00  0.00     0.172 HD
ATOM     33 1H11 UNL     1      13.151 -15.945 -17.847  1.00  0.00     0.172 HD
ENDBRANCH  30  31
ENDBRANCH  25  30
ENDBRANCH  19  20
ENDBRANCH  17  19
ENDBRANCH  14  17
BRANCH  15  34
HETATM   34  O3  UNL     1      10.784  -7.448 -19.038  1.00  0.00    -0.288 OA
ATOM     35  H3  UNL     1      11.324  -6.667 -19.008  1.00  0.00     0.244 HD
ENDBRANCH  15  34
ENDBRANCH   1  14
BRANCH   5  36
HETATM   36  N6  UNL     1       6.489  -7.265 -17.052  1.00  0.00    -0.233 N 
ATOM     37  H62 UNL     1       5.690  -6.638 -16.953  1.00  0.00     0.174 HD
ATOM     38  H61 UNL     1       7.450  -6.941 -16.941  1.00  0.00     0.174 HD
ENDBRANCH   5  36
BRANCH  11  39
HETATM   39  O6  UNL     1       6.107 -12.455 -18.269  1.00  0.00    -0.354 OA
ATOM     40  H6  UNL     1       6.514 -13.098 -17.700  1.00  0.00     0.218 HD
ENDBRANCH  11  39
BRANCH   9  41
HETATM   41  C8  UNL     1       3.618 -12.461 -17.363  1.00  0.00     0.132 C 
BRANCH  41  42
HETATM   42  C9  UNL     1       3.151 -13.156 -16.091  1.00  0.00     0.132 C 
BRANCH  42  43
HETATM   43  C10 UNL     1       4.341 -13.556 -15.311  1.00  0.00     0.174 C 
HETATM   44  O4  UNL     1       5.424 -13.857 -15.855  1.00  0.00    -0.648 OA
HETATM   45  O5  UNL     1       4.238 -13.596 -13.929  1.00  0.00    -0.648 OA
ENDBRANCH  42  43
ENDBRANCH  41  42
ENDBRANCH   9  41
TORSDOF 12
ENDMDL
MODEL 3
REMARK VINA RESULT: -9.538981603      2.436      7.115
REMARK  12 active torsions:
REMARK  status: ('A' for Active; 'I' for Inactive)
REMARK    1  A    between atoms: C3_7  and  O2_8 
REMARK    2  A    between atoms: O2_8  and  N2_9 
REMARK    3  A    between atoms: N2_9  and  C4_11 
REMARK    4  A    between atoms: C4_11  and  C5_16 
REMARK    5  A    between atoms: N3_12  and  O3_14 
REMARK    6  A    between atoms: C6_20  and  N6_21 
REMARK    7  A    between atoms: N8_27  and  C8_29 
REMARK    8  A    between atoms: C8_29  and  C9_30 
REMARK    9  A    between atoms: C9_30  and  C10_31 
REMARK   10  A    between atoms: C11_34  and  O6_35 
REMARK   11  A    between atoms: C13_41  and  N10_42 
REMARK   12  A    between atoms: N10_42  and  N11_43 
ROOT
HETATM    1  C5  UNL     1       9.292  -9.856 -18.738  1.00  0.00     0.213 A 
HETATM    2  N4  UNL     1       8.686  -8.875 -18.047  1.00  0.00    -0.253 N 
ATOM      3  H4  UNL     1       9.080  -7.958 -17.837  1.00  0.00     0.190 HD
HETATM    4  N5  UNL     1       7.482  -9.308 -17.686  1.00  0.00    -0.058 N 
HETATM    5  C6  UNL     1       6.469  -8.752 -16.990  1.00  0.00     0.701 A 
HETATM    6  N7  UNL     1       5.320  -9.413 -16.749  1.00  0.00    -0.172 N 
ATOM      7  H7  UNL     1       4.585  -8.948 -16.216  1.00  0.00     0.186 HD
HETATM    8  C7  UNL     1       5.109 -10.688 -17.195  1.00  0.00     0.155 A 
HETATM    9  N8  UNL     1       3.998 -11.272 -16.926  1.00  0.00    -0.373 N 
ATOM     10  H8  UNL     1       3.324 -10.736 -16.379  1.00  0.00     0.161 HD
HETATM   11  C11 UNL     1       6.141 -11.251 -17.904  1.00  0.00     0.165 A 
HETATM   12  C12 UNL     1       7.333 -10.558 -18.151  1.00  0.00     0.226 A 
HETATM   13  O7  UNL     1       8.448 -10.854 -18.781  1.00  0.00    -0.267 OA
ENDROOT
BRANCH   1  14
HETATM   14  C4  UNL     1      10.611  -9.822 -19.320  1.00  0.00     0.199 C 
HETATM   15  N3  UNL     1      11.281  -8.723 -19.483  1.00  0.00    -0.248 N 
ATOM     16  H3  UNL     1      12.211  -8.735 -19.901  1.00  0.00     0.196 HD
BRANCH  14  17
HETATM   17  N2  UNL     1      11.259 -11.030 -19.762  1.00  0.00    -0.238 N 
ATOM     18  H2  UNL     1      12.006 -11.464 -19.220  1.00  0.00     0.197 HD
BRANCH  17  19
HETATM   19  O2  UNL     1      10.824 -11.565 -20.940  1.00  0.00    -0.220 OA
BRANCH  19  20
HETATM   20  C3  UNL     1      10.317 -12.824 -21.117  1.00  0.00     0.169 C 
HETATM   21  C2  UNL     1      11.096 -13.747 -21.988  1.00  0.00     0.263 C 
HETATM   22  O1  UNL     1      10.674 -15.081 -21.855  1.00  0.00    -0.329 OA
HETATM   23  C1  UNL     1       9.578 -15.458 -21.095  1.00  0.00     0.153 C 
HETATM   24  N1  UNL     1       9.366 -16.695 -20.735  1.00  0.00    -0.381 N 
HETATM   25  C13 UNL     1       8.612 -14.438 -20.675  1.00  0.00     0.272 C 
ATOM     26  H12 UNL     1      10.038 -17.405 -21.026  1.00  0.00     0.158 HD
ATOM     27  H11 UNL     1       8.559 -16.972 -20.176  1.00  0.00     0.158 HD
HETATM   28  N9  UNL     1       9.224 -13.140 -20.544  1.00  0.00    -0.344 N 
ATOM     29  H9  UNL     1       8.760 -12.440 -19.964  1.00  0.00     0.163 HD
BRANCH  25  30
HETATM   30  N10 UNL     1       7.528 -14.359 -21.669  1.00  0.00    -0.114 NA
BRANCH  30  31
HETATM   31  N11 UNL     1       6.339 -14.361 -20.890  1.00  0.00    -0.346 N 
ATOM     32 2H11 UNL     1       6.085 -13.703 -20.153  1.00  0.00     0.172 HD
ATOM     33 1H11 UNL     1       5.811 -15.161 -21.238  1.00  0.00     0.172 HD
ENDBRANCH  30  31
ENDBRANCH  25  30
ENDBRANCH  19  20
ENDBRANCH  17  19
ENDBRANCH  14  17
BRANCH  15  34
HETATM   34  O3  UNL     1      10.715  -7.559 -19.084  1.00  0.00    -0.288 OA
ATOM     35  H3  UNL     1      11.178  -6.749 -19.260  1.00  0.00     0.244 HD
ENDBRANCH  15  34
ENDBRANCH   1  14
BRANCH   5  36
HETATM   36  N6  UNL     1       6.672  -7.551 -16.574  1.00  0.00    -0.233 N 
ATOM     37  H62 UNL     1       7.414  -7.321 -15.912  1.00  0.00     0.174 HD
ATOM     38  H61 UNL     1       6.042  -6.841 -16.948  1.00  0.00     0.174 HD
ENDBRANCH   5  36
BRANCH  11  39
HETATM   39  O6  UNL     1       6.017 -12.532 -18.392  1.00  0.00    -0.354 OA
ATOM     40  H6  UNL     1       6.503 -12.792 -19.167  1.00  0.00     0.218 HD
ENDBRANCH  11  39
BRANCH   9  41
HETATM   41  C8  UNL     1       3.602 -12.588 -17.306  1.00  0.00     0.132 C 
BRANCH  41  42
HETATM   42  C9  UNL     1       3.169 -13.413 -16.102  1.00  0.00     0.132 C 
BRANCH  42  43
HETATM   43  C10 UNL     1       4.363 -13.713 -15.284  1.00  0.00     0.174 C 
HETATM   44  O4  UNL     1       5.451 -14.051 -15.794  1.00  0.00    -0.648 OA
HETATM   45  O5  UNL     1       4.258 -13.611 -13.906  1.00  0.00    -0.648 OA
ENDBRANCH  42  43
ENDBRANCH  41  42
ENDBRANCH   9  41
TORSDOF 12
ENDMDL
MODEL 4
REMARK VINA RESULT: -9.473556202      2.277      7.368
REMARK  12 active torsions:
REMARK  status: ('A' for Active; 'I' for Inactive)
REMARK    1  A    between atoms: C3_7  and  O2_8 
REMARK    2  A    between atoms: O2_8  and  N2_9 
REMARK    3  A    between atoms: N2_9  and  C4_11 
REMARK    4  A    between atoms: C4_11  and  C5_16 
REMARK    5  A    between atoms: N3_12  and  O3_14 
REMARK    6  A    between atoms: C6_20  and  N6_21 
REMARK    7  A    between atoms: N8_27  and  C8_29 
REMARK    8  A    between atoms: C8_29  and  C9_30 
REMARK    9  A    between atoms: C9_30  and  C10_31 
REMARK   10  A    between atoms: C11_34  and  O6_35 
REMARK   11  A    between atoms: C13_41  and  N10_42 
REMARK   12  A    between atoms: N10_42  and  N11_43 
ROOT
HETATM    1  C5  UNL     1       9.353  -9.691 -18.690  1.00  0.00     0.213 A 
HETATM    2  N4  UNL     1       8.699  -8.697 -18.065  1.00  0.00    -0.253 N 
ATOM      3  H4  UNL     1       9.064  -7.763 -17.879  1.00  0.00     0.190 HD
HETATM    4  N5  UNL     1       7.493  -9.144 -17.730  1.00  0.00    -0.058 N 
HETATM    5  C6  UNL     1       6.442  -8.585 -17.095  1.00  0.00     0.701 A 
HETATM    6  N7  UNL     1       5.300  -9.263 -16.869  1.00  0.00    -0.172 N 
ATOM      7  H7  UNL     1       4.535  -8.794 -16.384  1.00  0.00     0.186 HD
HETATM    8  C7  UNL     1       5.136 -10.559 -17.268  1.00  0.00     0.155 A 
HETATM    9  N8  UNL     1       4.028 -11.160 -17.015  1.00  0.00    -0.373 N 
ATOM     10  H8  UNL     1       3.322 -10.618 -16.517  1.00  0.00     0.161 HD
HETATM   11  C11 UNL     1       6.206 -11.126 -17.914  1.00  0.00     0.165 A 
HETATM   12  C12 UNL     1       7.390 -10.416 -18.146  1.00  0.00     0.226 A 
HETATM   13  O7  UNL     1       8.534 -10.711 -18.722  1.00  0.00    -0.267 OA
ENDROOT
BRANCH   1  14
HETATM   14  C4  UNL     1      10.692  -9.649 -19.225  1.00  0.00     0.199 C 
HETATM   15  N3  UNL     1      11.361  -8.546 -19.363  1.00  0.00    -0.248 N 
ATOM     16  H3  UNL     1      12.306  -8.552 -19.748  1.00  0.00     0.196 HD
BRANCH  14  17
HETATM   17  N2  UNL     1      11.362 -10.853 -19.643  1.00  0.00    -0.238 N 
ATOM     18  H2  UNL     1      11.942 -11.393 -18.999  1.00  0.00     0.197 HD
BRANCH  17  19
HETATM   19  O2  UNL     1      11.185 -11.237 -20.940  1.00  0.00    -0.220 OA
BRANCH  19  20
HETATM   20  C3  UNL     1      10.566 -12.379 -21.369  1.00  0.00     0.169 C 
HETATM   21  C2  UNL     1      10.026 -13.286 -20.319  1.00  0.00     0.263 C 
HETATM   22  O1  UNL     1       9.148 -14.247 -20.850  1.00  0.00    -0.329 OA
HETATM   23  C1  UNL     1       8.923 -14.399 -22.210  1.00  0.00     0.153 C 
HETATM   24  N1  UNL     1       7.909 -15.073 -22.681  1.00  0.00    -0.381 N 
HETATM   25  C13 UNL     1       9.853 -13.786 -23.163  1.00  0.00     0.272 C 
ATOM     26  H12 UNL     1       7.262 -15.499 -22.018  1.00  0.00     0.158 HD
ATOM     27  H11 UNL     1       7.744 -15.184 -23.682  1.00  0.00     0.158 HD
HETATM   28  N9  UNL     1      10.483 -12.610 -22.619  1.00  0.00    -0.344 N 
ATOM     29  H9  UNL     1      10.882 -11.929 -23.265  1.00  0.00     0.163 HD
BRANCH  25  30
HETATM   30  N10 UNL     1      10.893 -14.765 -23.523  1.00  0.00    -0.114 NA
BRANCH  30  31
HETATM   31  N11 UNL     1      10.495 -15.244 -24.801  1.00  0.00    -0.346 N 
ATOM     32 2H11 UNL     1      10.887 -14.983 -25.705  1.00  0.00     0.172 HD
ATOM     33 1H11 UNL     1       9.739 -15.898 -24.600  1.00  0.00     0.172 HD
ENDBRANCH  30  31
ENDBRANCH  25  30
ENDBRANCH  19  20
ENDBRANCH  17  19
ENDBRANCH  14  17
BRANCH  15  34
HETATM   34  O3  UNL     1      10.774  -7.386 -18.985  1.00  0.00    -0.288 OA
ATOM     35  H3  UNL     1      10.673  -6.699 -19.633  1.00  0.00     0.244 HD
ENDBRANCH  15  34
ENDBRANCH   1  14
BRANCH   5  36
HETATM   36  N6  UNL     1       6.602  -7.362 -16.723  1.00  0.00    -0.233 N 
ATOM     37  H62 UNL     1       7.525  -6.943 -16.610  1.00  0.00     0.174 HD
ATOM     38  H61 UNL     1       5.744  -6.838 -16.548  1.00  0.00     0.174 HD
ENDBRANCH   5  36
BRANCH  11  39
HETATM   39  O6  UNL     1       6.129 -12.430 -18.352  1.00  0.00    -0.354 OA
ATOM     40  H6  UNL     1       6.389 -12.646 -19.241  1.00  0.00     0.218 HD
ENDBRANCH  11  39
BRANCH   9  41
HETATM   41  C8  UNL     1       3.677 -12.499 -17.353  1.00  0.00     0.132 C 
BRANCH  41  42
HETATM   42  C9  UNL     1       3.180 -13.272 -16.140  1.00  0.00     0.132 C 
BRANCH  42  43
HETATM   43  C10 UNL     1       4.347 -13.647 -15.313  1.00  0.00     0.174 C 
HETATM   44  O4  UNL     1       5.453 -13.935 -15.814  1.00  0.00    -0.648 OA
HETATM   45  O5  UNL     1       4.193 -13.677 -13.936  1.00  0.00    -0.648 OA
ENDBRANCH  42  43
ENDBRANCH  41  42
ENDBRANCH   9  41
TORSDOF 12
ENDMDL
MODEL 5
REMARK VINA RESULT: -9.470838290      1.337      1.899
REMARK  12 active torsions:
REMARK  status: ('A' for Active; 'I' for Inactive)
REMARK    1  A    between atoms: C3_7  and  O2_8 
REMARK    2  A    between atoms: O2_8  and  N2_9 
REMARK    3  A    between atoms: N2_9  and  C4_11 
REMARK    4  A    between atoms: C4_11  and  C5_16 
REMARK    5  A    between atoms: N3_12  and  O3_14 
REMARK    6  A    between atoms: C6_20  and  N6_21 
REMARK    7  A    between atoms: N8_27  and  C8_29 
REMARK    8  A    between atoms: C8_29  and  C9_30 
REMARK    9  A    between atoms: C9_30  and  C10_31 
REMARK   10  A    between atoms: C11_34  and  O6_35 
REMARK   11  A    between atoms: C13_41  and  N10_42 
REMARK   12  A    between atoms: N10_42  and  N11_43 
ROOT
HETATM    1  C5  UNL     1       7.680  -9.375 -17.309  1.00  0.00     0.213 A 
HETATM    2  N4  UNL     1       8.705  -8.653 -17.795  1.00  0.00    -0.253 N 
ATOM      3  H4  UNL     1       8.911  -7.680 -17.571  1.00  0.00     0.190 HD
HETATM    4  N5  UNL     1       9.402  -9.430 -18.618  1.00  0.00    -0.058 N 
HETATM    5  C6  UNL     1      10.506  -9.228 -19.367  1.00  0.00     0.701 A 
HETATM    6  N7  UNL     1      11.034 -10.198 -20.138  1.00  0.00    -0.172 N 
ATOM      7  H7  UNL     1      11.870  -9.994 -20.687  1.00  0.00     0.186 HD
HETATM    8  C7  UNL     1      10.484 -11.447 -20.210  1.00  0.00     0.155 A 
HETATM    9  N8  UNL     1      11.024 -12.329 -20.971  1.00  0.00    -0.373 N 
ATOM     10  H8  UNL     1      11.851 -12.035 -21.491  1.00  0.00     0.161 HD
HETATM   11  C11 UNL     1       9.362 -11.650 -19.447  1.00  0.00     0.165 A 
HETATM   12  C12 UNL     1       8.818 -10.637 -18.647  1.00  0.00     0.226 A 
HETATM   13  O7  UNL     1       7.780 -10.566 -17.843  1.00  0.00    -0.267 OA
ENDROOT
BRANCH   1  14
HETATM   14  C4  UNL     1       6.668  -8.934 -16.382  1.00  0.00     0.199 C 
HETATM   15  N3  UNL     1       6.903  -8.746 -15.120  1.00  0.00    -0.248 N 
ATOM     16  H3  UNL     1       6.162  -8.436 -14.491  1.00  0.00     0.196 HD
BRANCH  14  17
HETATM   17  N2  UNL     1       5.320  -8.679 -16.820  1.00  0.00    -0.238 N 
ATOM     18  H2  UNL     1       5.118  -8.019 -17.573  1.00  0.00     0.197 HD
BRANCH  17  19
HETATM   19  O2  UNL     1       4.326  -9.362 -16.181  1.00  0.00    -0.220 OA
BRANCH  19  20
HETATM   20  C3  UNL     1       4.149 -10.718 -16.180  1.00  0.00     0.169 C 
HETATM   21  C2  UNL     1       2.959 -11.243 -16.906  1.00  0.00     0.263 C 
HETATM   22  O1  UNL     1       3.037 -12.631 -17.115  1.00  0.00    -0.329 OA
HETATM   23  C1  UNL     1       4.046 -13.422 -16.588  1.00  0.00     0.153 C 
HETATM   24  N1  UNL     1       4.283 -14.633 -17.015  1.00  0.00    -0.381 N 
HETATM   25  C13 UNL     1       4.884 -12.890 -15.509  1.00  0.00     0.272 C 
ATOM     26  H12 UNL     1       3.700 -15.003 -17.766  1.00  0.00     0.158 HD
ATOM     27  H11 UNL     1       5.025 -15.214 -16.628  1.00  0.00     0.158 HD
HETATM   28  N9  UNL     1       4.990 -11.454 -15.569  1.00  0.00    -0.344 N 
ATOM     29  H9  UNL     1       5.777 -11.005 -15.099  1.00  0.00     0.163 HD
BRANCH  25  30
HETATM   30  N10 UNL     1       4.305 -13.276 -14.211  1.00  0.00    -0.114 NA
BRANCH  30  31
HETATM   31  N11 UNL     1       5.221 -14.228 -13.688  1.00  0.00    -0.346 N 
ATOM     32 2H11 UNL     1       6.231 -14.253 -13.830  1.00  0.00     0.172 HD
ATOM     33 1H11 UNL     1       4.638 -14.869 -13.149  1.00  0.00     0.172 HD
ENDBRANCH  30  31
ENDBRANCH  25  30
ENDBRANCH  19  20
ENDBRANCH  17  19
ENDBRANCH  14  17
BRANCH  15  34
HETATM   34  O3  UNL     1       8.155  -8.973 -14.658  1.00  0.00    -0.288 OA
ATOM     35  H3  UNL     1       8.546  -8.329 -14.079  1.00  0.00     0.244 HD
ENDBRANCH  15  34
ENDBRANCH   1  14
BRANCH   5  36
HETATM   36  N6  UNL     1      11.022  -8.050 -19.294  1.00  0.00    -0.233 N 
ATOM     37  H62 UNL     1      10.484  -7.207 -19.493  1.00  0.00     0.174 HD
ATOM     38  H61 UNL     1      12.006  -8.014 -19.025  1.00  0.00     0.174 HD
ENDBRANCH   5  36
BRANCH  11  39
HETATM   39  O6  UNL     1       8.740 -12.879 -19.457  1.00  0.00    -0.354 OA
ATOM     40  H6  UNL     1       7.942 -13.001 -19.959  1.00  0.00     0.218 HD
ENDBRANCH  11  39
BRANCH   9  41
HETATM   41  C8  UNL     1      10.596 -13.674 -21.171  1.00  0.00     0.132 C 
BRANCH  41  42
HETATM   42  C9  UNL     1      10.853 -14.139 -22.598  1.00  0.00     0.132 C 
BRANCH  42  43
HETATM   43  C10 UNL     1       9.828 -13.538 -23.478  1.00  0.00     0.174 C 
HETATM   44  O4  UNL     1       9.936 -12.379 -23.931  1.00  0.00    -0.648 OA
HETATM   45  O5  UNL     1       8.715 -14.297 -23.804  1.00  0.00    -0.648 OA
ENDBRANCH  42  43
ENDBRANCH  41  42
ENDBRANCH   9  41
TORSDOF 12
ENDMDL
