MODEL 1
REMARK VINA RESULT: -7.431291606      0.000      0.000
REMARK  11 active torsions:
REMARK  status: ('A' for Active; 'I' for Inactive)
REMARK    1  A    between atoms: N1_1  and  C1_4 
REMARK    2  A    between atoms: C2_10  and  N4_11 
REMARK    3  A    between atoms: N4_11  and  C3_13 
REMARK    4  A    between atoms: C4_14  and  N5_15 
REMARK    5  A    between atoms: N5_15  and  C5_17 
REMARK    6  A    between atoms: C5_17  and  C6_18 
REMARK    7  A    between atoms: C6_18  and  O2_19 
REMARK    8  A    between atoms: O2_19  and  C7_20 
REMARK    9  A    between atoms: C9_27  and  C10_28 
REMARK   10  A    between atoms: C11_32  and  C12_33 
REMARK   11  A    between atoms: N11_38  and  N12_39 
ROOT
HETATM    1  C3  UNL     1       9.542 -12.213 -19.475  1.00  0.00     0.173 A 
HETATM    2  C4  UNL     1      10.716 -11.644 -19.024  1.00  0.00     0.149 A 
HETATM    3  N7  UNL     1      10.675 -10.541 -18.227  1.00  0.00    -0.326 N 
ATOM      4  H7  UNL     1      11.550 -10.133 -17.900  1.00  0.00     0.168 HD
HETATM    5  C8  UNL     1       9.520  -9.981 -17.864  1.00  0.00     0.149 A 
HETATM    6  N8  UNL     1       9.533  -8.839 -17.038  1.00  0.00    -0.080 NA
HETATM    7  C9  UNL     1       8.319 -10.518 -18.296  1.00  0.00     0.129 A 
HETATM    8  N11 UNL     1       8.378 -11.594 -19.070  1.00  0.00    -0.237 N 
ENDROOT
BRANCH   1   9
HETATM    9  N4  UNL     1       9.434 -13.242 -20.223  1.00  0.00    -0.320 N 
ATOM     10  H4  UNL     1       9.099 -14.101 -19.787  1.00  0.00     0.169 HD
BRANCH   9  11
HETATM   11  C2  UNL     1       9.733 -13.294 -21.576  1.00  0.00     0.175 A 
HETATM   12  C1  UNL     1       9.475 -14.278 -22.517  1.00  0.00     0.167 A 
HETATM   13  N2  UNL     1       9.988 -13.863 -23.681  1.00  0.00    -0.222 N 
HETATM   14  O1  UNL     1      10.520 -12.715 -23.479  1.00  0.00    -0.153 OA
ATOM     15  H2  UNL     1       9.961 -14.368 -24.566  1.00  0.00     0.198 HD
HETATM   16  N3  UNL     1      10.407 -12.324 -22.270  1.00  0.00    -0.222 N 
ATOM     17  H3  UNL     1      10.757 -11.444 -21.889  1.00  0.00     0.198 HD
BRANCH  12  18
HETATM   18  N1  UNL     1       8.849 -15.388 -22.269  1.00  0.00    -0.381 N 
ATOM     19  H12 UNL     1       8.035 -15.720 -22.786  1.00  0.00     0.157 HD
ATOM     20  H11 UNL     1       9.056 -16.079 -21.548  1.00  0.00     0.157 HD
ENDBRANCH  12  18
ENDBRANCH   9  11
ENDBRANCH   1   9
BRANCH   2  21
HETATM   21  N5  UNL     1      11.812 -12.170 -19.374  1.00  0.00    -0.371 N 
ATOM     22  H5  UNL     1      12.204 -11.927 -20.284  1.00  0.00     0.161 HD
BRANCH  21  23
HETATM   23  C5  UNL     1      12.523 -13.093 -18.544  1.00  0.00     0.148 C 
BRANCH  23  24
HETATM   24  C6  UNL     1      12.869 -14.354 -19.286  1.00  0.00     0.199 C 
BRANCH  24  25
HETATM   25  O2  UNL     1      12.055 -15.445 -18.842  1.00  0.00    -0.305 OA
BRANCH  25  26
HETATM   26  C7  UNL     1      11.231 -16.116 -19.755  1.00  0.00     0.372 C 
HETATM   27  N6  UNL     1      11.702 -16.723 -20.943  1.00  0.00    -0.032 NA
HETATM   28  O3  UNL     1       9.999 -16.157 -19.461  1.00  0.00    -0.242 OA
ENDBRANCH  25  26
ENDBRANCH  24  25
ENDBRANCH  23  24
ENDBRANCH  21  23
ENDBRANCH   2  21
BRANCH   8  29
HETATM   29  N12 UNL     1       7.182 -12.177 -19.514  1.00  0.00    -0.336 N 
ATOM     30 2H12 UNL     1       7.107 -13.194 -19.537  1.00  0.00     0.177 HD
ATOM     31 1H12 UNL     1       6.448 -11.530 -19.802  1.00  0.00     0.177 HD
ENDBRANCH   8  29
BRANCH   7  32
HETATM   32  C10 UNL     1       7.048  -9.897 -17.891  1.00  0.00     0.114 A 
HETATM   33  N9  UNL     1       6.584  -8.671 -18.186  1.00  0.00    -0.256 N 
HETATM   34  O4  UNL     1       5.406  -8.507 -17.651  1.00  0.00    -0.228 OA
ATOM     35  H9  UNL     1       7.078  -7.974 -18.744  1.00  0.00     0.195 HD
HETATM   36  C11 UNL     1       5.020  -9.552 -16.997  1.00  0.00     0.201 A 
HETATM   37  C13 UNL     1       6.065 -10.480 -17.129  1.00  0.00     0.120 A 
HETATM   38  N10 UNL     1       6.037 -11.769 -16.566  1.00  0.00    -0.097 NA
BRANCH  36  39
HETATM   39  C12 UNL     1       3.785  -9.786 -16.259  1.00  0.00     0.238 C 
HETATM   40  O5  UNL     1       2.699  -9.981 -16.847  1.00  0.00    -0.642 OA
HETATM   41  O6  UNL     1       3.794  -9.796 -14.874  1.00  0.00    -0.642 OA
ENDBRANCH  36  39
ENDBRANCH   7  32
TORSDOF 11
ENDMDL
MODEL 2
REMARK VINA RESULT: -7.030288955      3.502      7.608
REMARK  11 active torsions:
REMARK  status: ('A' for Active; 'I' for Inactive)
REMARK    1  A    between atoms: N1_1  and  C1_4 
REMARK    2  A    between atoms: C2_10  and  N4_11 
REMARK    3  A    between atoms: N4_11  and  C3_13 
REMARK    4  A    between atoms: C4_14  and  N5_15 
REMARK    5  A    between atoms: N5_15  and  C5_17 
REMARK    6  A    between atoms: C5_17  and  C6_18 
REMARK    7  A    between atoms: C6_18  and  O2_19 
REMARK    8  A    between atoms: O2_19  and  C7_20 
REMARK    9  A    between atoms: C9_27  and  C10_28 
REMARK   10  A    between atoms: C11_32  and  C12_33 
REMARK   11  A    between atoms: N11_38  and  N12_39 
ROOT
HETATM    1  C3  UNL     1       6.117 -10.160 -17.789  1.00  0.00     0.173 A 
HETATM    2  C4  UNL     1       6.039 -11.514 -18.042  1.00  0.00     0.149 A 
HETATM    3  N7  UNL     1       7.108 -12.169 -18.572  1.00  0.00    -0.326 N 
ATOM      4  H7  UNL     1       7.037 -13.171 -18.752  1.00  0.00     0.168 HD
HETATM    5  C8  UNL     1       8.246 -11.536 -18.863  1.00  0.00     0.149 A 
HETATM    6  N8  UNL     1       9.323 -12.262 -19.411  1.00  0.00    -0.080 NA
HETATM    7  C9  UNL     1       8.366 -10.177 -18.627  1.00  0.00     0.129 A 
HETATM    8  N11 UNL     1       7.315  -9.556 -18.107  1.00  0.00    -0.237 N 
ENDROOT
BRANCH   1   9
HETATM    9  N4  UNL     1       5.197  -9.424 -17.297  1.00  0.00    -0.320 N 
ATOM     10  H4  UNL     1       4.646  -8.867 -17.951  1.00  0.00     0.169 HD
BRANCH   9  11
HETATM   11  C2  UNL     1       4.881  -9.316 -15.952  1.00  0.00     0.175 A 
HETATM   12  C1  UNL     1       3.741  -9.700 -15.261  1.00  0.00     0.167 A 
HETATM   13  N2  UNL     1       3.914  -9.354 -13.981  1.00  0.00    -0.222 N 
HETATM   14  O1  UNL     1       5.066  -8.802 -13.883  1.00  0.00    -0.153 OA
ATOM     15  H2  UNL     1       3.250  -9.503 -13.222  1.00  0.00     0.198 HD
HETATM   16  N3  UNL     1       5.683  -8.747 -14.998  1.00  0.00    -0.222 N 
ATOM     17  H3  UNL     1       6.610  -8.349 -15.152  1.00  0.00     0.198 HD
BRANCH  12  18
HETATM   18  N1  UNL     1       2.715 -10.283 -15.801  1.00  0.00    -0.381 N 
ATOM     19  H12 UNL     1       1.748  -9.984 -15.677  1.00  0.00     0.157 HD
ATOM     20  H11 UNL     1       2.705 -11.102 -16.410  1.00  0.00     0.157 HD
ENDBRANCH  12  18
ENDBRANCH   9  11
ENDBRANCH   1   9
BRANCH   2  21
HETATM   21  N5  UNL     1       4.958 -12.114 -17.774  1.00  0.00    -0.371 N 
ATOM     22  H5  UNL     1       4.084 -11.734 -18.136  1.00  0.00     0.161 HD
BRANCH  21  23
HETATM   23  C5  UNL     1       4.914 -13.305 -16.984  1.00  0.00     0.148 C 
BRANCH  23  24
HETATM   24  C6  UNL     1       5.051 -13.004 -15.517  1.00  0.00     0.199 C 
BRANCH  24  25
HETATM   25  O2  UNL     1       5.435 -14.176 -14.791  1.00  0.00    -0.305 OA
BRANCH  25  26
HETATM   26  C7  UNL     1       4.540 -14.758 -13.884  1.00  0.00     0.372 C 
HETATM   27  N6  UNL     1       4.725 -14.756 -12.481  1.00  0.00    -0.032 NA
HETATM   28  O3  UNL     1       3.518 -15.309 -14.392  1.00  0.00    -0.242 OA
ENDBRANCH  25  26
ENDBRANCH  24  25
ENDBRANCH  23  24
ENDBRANCH  21  23
ENDBRANCH   2  21
BRANCH   8  29
HETATM   29  N12 UNL     1       7.404  -8.182 -17.839  1.00  0.00    -0.336 N 
ATOM     30 2H12 UNL     1       7.504  -7.873 -16.872  1.00  0.00     0.177 HD
ATOM     31 1H12 UNL     1       7.352  -7.562 -18.648  1.00  0.00     0.177 HD
ENDBRANCH   8  29
BRANCH   7  32
HETATM   32  C10 UNL     1       9.624  -9.485 -18.947  1.00  0.00     0.114 A 
HETATM   33  N9  UNL     1      10.384  -9.596 -20.050  1.00  0.00    -0.256 N 
HETATM   34  O4  UNL     1      11.411  -8.798 -19.958  1.00  0.00    -0.228 OA
ATOM     35  H9  UNL     1      10.187 -10.212 -20.839  1.00  0.00     0.195 HD
HETATM   36  C11 UNL     1      11.411  -8.133 -18.850  1.00  0.00     0.201 A 
HETATM   37  C13 UNL     1      10.262  -8.554 -18.164  1.00  0.00     0.120 A 
HETATM   38  N10 UNL     1       9.882  -8.057 -16.903  1.00  0.00    -0.097 NA
BRANCH  36  39
HETATM   39  C12 UNL     1      12.364  -7.146 -18.355  1.00  0.00     0.238 C 
HETATM   40  O5  UNL     1      13.565  -7.168 -18.700  1.00  0.00    -0.642 OA
HETATM   41  O6  UNL     1      11.949  -6.156 -17.481  1.00  0.00    -0.642 OA
ENDBRANCH  36  39
ENDBRANCH   7  32
TORSDOF 11
ENDMDL
MODEL 3
REMARK VINA RESULT: -7.015539855      3.251      5.898
REMARK  11 active torsions:
REMARK  status: ('A' for Active; 'I' for Inactive)
REMARK    1  A    between atoms: N1_1  and  C1_4 
REMARK    2  A    between atoms: C2_10  and  N4_11 
REMARK    3  A    between atoms: N4_11  and  C3_13 
REMARK    4  A    between atoms: C4_14  and  N5_15 
REMARK    5  A    between atoms: N5_15  and  C5_17 
REMARK    6  A    between atoms: C5_17  and  C6_18 
REMARK    7  A    between atoms: C6_18  and  O2_19 
REMARK    8  A    between atoms: O2_19  and  C7_20 
REMARK    9  A    between atoms: C9_27  and  C10_28 
REMARK   10  A    between atoms: C11_32  and  C12_33 
REMARK   11  A    between atoms: N11_38  and  N12_39 
ROOT
HETATM    1  C3  UNL     1      12.178 -15.349 -19.401  1.00  0.00     0.173 A 
HETATM    2  C4  UNL     1      11.530 -16.028 -20.412  1.00  0.00     0.149 A 
HETATM    3  N7  UNL     1      10.769 -15.345 -21.311  1.00  0.00    -0.326 N 
ATOM      4  H7  UNL     1      10.297 -15.860 -22.055  1.00  0.00     0.168 HD
HETATM    5  C8  UNL     1      10.625 -14.020 -21.245  1.00  0.00     0.149 A 
HETATM    6  N8  UNL     1       9.826 -13.361 -22.201  1.00  0.00    -0.080 NA
HETATM    7  C9  UNL     1      11.256 -13.300 -20.245  1.00  0.00     0.129 A 
HETATM    8  N11 UNL     1      11.996 -13.982 -19.379  1.00  0.00    -0.237 N 
ENDROOT
BRANCH   1   9
HETATM    9  N4  UNL     1      12.919 -15.860 -18.495  1.00  0.00    -0.320 N 
ATOM     10  H4  UNL     1      13.920 -15.910 -18.686  1.00  0.00     0.169 HD
BRANCH   9  11
HETATM   11  C2  UNL     1      12.482 -16.352 -17.275  1.00  0.00     0.175 A 
HETATM   12  C1  UNL     1      11.959 -17.591 -16.940  1.00  0.00     0.167 A 
HETATM   13  N2  UNL     1      11.665 -17.561 -15.635  1.00  0.00    -0.222 N 
HETATM   14  O1  UNL     1      11.979 -16.400 -15.196  1.00  0.00    -0.153 OA
ATOM     15  H2  UNL     1      11.263 -18.324 -15.091  1.00  0.00     0.198 HD
HETATM   16  N3  UNL     1      12.462 -15.643 -16.102  1.00  0.00    -0.222 N 
ATOM     17  H3  UNL     1      12.777 -14.681 -15.976  1.00  0.00     0.198 HD
BRANCH  12  18
HETATM   18  N1  UNL     1      11.798 -18.572 -17.774  1.00  0.00    -0.381 N 
ATOM     19  H12 UNL     1      10.892 -18.914 -18.098  1.00  0.00     0.157 HD
ATOM     20  H11 UNL     1      12.516 -19.140 -18.223  1.00  0.00     0.157 HD
ENDBRANCH  12  18
ENDBRANCH   9  11
ENDBRANCH   1   9
BRANCH   2  21
HETATM   21  N5  UNL     1      11.660 -17.285 -20.471  1.00  0.00    -0.371 N 
ATOM     22  H5  UNL     1      12.229 -17.752 -19.765  1.00  0.00     0.161 HD
BRANCH  21  23
HETATM   23  C5  UNL     1      11.039 -18.076 -21.487  1.00  0.00     0.148 C 
BRANCH  23  24
HETATM   24  C6  UNL     1       9.791 -18.746 -20.985  1.00  0.00     0.199 C 
BRANCH  24  25
HETATM   25  O2  UNL     1       8.700 -17.820 -20.939  1.00  0.00    -0.305 OA
BRANCH  25  26
HETATM   26  C7  UNL     1       8.155 -17.447 -19.704  1.00  0.00     0.372 C 
HETATM   27  N6  UNL     1       6.771 -17.260 -19.477  1.00  0.00    -0.032 NA
HETATM   28  O3  UNL     1       8.985 -17.276 -18.762  1.00  0.00    -0.242 OA
ENDBRANCH  25  26
ENDBRANCH  24  25
ENDBRANCH  23  24
ENDBRANCH  21  23
ENDBRANCH   2  21
BRANCH   8  29
HETATM   29  N12 UNL     1      12.664 -13.286 -18.362  1.00  0.00    -0.336 N 
ATOM     30 2H12 UNL     1      13.602 -13.583 -18.094  1.00  0.00     0.177 HD
ATOM     31 1H12 UNL     1      12.152 -12.512 -17.936  1.00  0.00     0.177 HD
ENDBRANCH   8  29
BRANCH   7  32
HETATM   32  C10 UNL     1      11.096 -11.839 -20.179  1.00  0.00     0.114 A 
HETATM   33  N9  UNL     1      11.465 -10.915 -21.081  1.00  0.00    -0.256 N 
HETATM   34  O4  UNL     1      11.129  -9.728 -20.657  1.00  0.00    -0.228 OA
ATOM     35  H9  UNL     1      11.938 -11.110 -21.963  1.00  0.00     0.195 HD
HETATM   36  C11 UNL     1      10.543  -9.772 -19.506  1.00  0.00     0.201 A 
HETATM   37  C13 UNL     1      10.504 -11.131 -19.161  1.00  0.00     0.120 A 
HETATM   38  N10 UNL     1       9.930 -11.617 -17.971  1.00  0.00    -0.097 NA
BRANCH  36  39
HETATM   39  C12 UNL     1      10.014  -8.688 -18.687  1.00  0.00     0.238 C 
HETATM   40  O5  UNL     1      10.760  -7.806 -18.211  1.00  0.00    -0.642 OA
HETATM   41  O6  UNL     1       8.657  -8.618 -18.418  1.00  0.00    -0.642 OA
ENDBRANCH  36  39
ENDBRANCH   7  32
TORSDOF 11
ENDMDL
MODEL 4
REMARK VINA RESULT: -6.905096496      3.079      5.786
REMARK  11 active torsions:
REMARK  status: ('A' for Active; 'I' for Inactive)
REMARK    1  A    between atoms: N1_1  and  C1_4 
REMARK    2  A    between atoms: C2_10  and  N4_11 
REMARK    3  A    between atoms: N4_11  and  C3_13 
REMARK    4  A    between atoms: C4_14  and  N5_15 
REMARK    5  A    between atoms: N5_15  and  C5_17 
REMARK    6  A    between atoms: C5_17  and  C6_18 
REMARK    7  A    between atoms: C6_18  and  O2_19 
REMARK    8  A    between atoms: O2_19  and  C7_20 
REMARK    9  A    between atoms: C9_27  and  C10_28 
REMARK   10  A    between atoms: C11_32  and  C12_33 
REMARK   11  A    between atoms: N11_38  and  N12_39 
ROOT
HETATM    1  C3  UNL     1      11.697 -15.565 -20.504  1.00  0.00     0.173 A 
HETATM    2  C4  UNL     1      11.127 -15.963 -21.695  1.00  0.00     0.149 A 
HETATM    3  N7  UNL     1      10.490 -15.053 -22.482  1.00  0.00    -0.326 N 
ATOM      4  H7  UNL     1      10.075 -15.361 -23.361  1.00  0.00     0.168 HD
HETATM    5  C8  UNL     1      10.395 -13.768 -22.133  1.00  0.00     0.149 A 
HETATM    6  N8  UNL     1       9.725 -12.866 -22.985  1.00  0.00    -0.080 NA
HETATM    7  C9  UNL     1      10.952 -13.326 -20.945  1.00  0.00     0.129 A 
HETATM    8  N11 UNL     1      11.571 -14.227 -20.192  1.00  0.00    -0.237 N 
ENDROOT
BRANCH   1   9
HETATM    9  N4  UNL     1      12.321 -16.308 -19.674  1.00  0.00    -0.320 N 
ATOM     10  H4  UNL     1      13.331 -16.392 -19.792  1.00  0.00     0.169 HD
BRANCH   9  11
HETATM   11  C2  UNL     1      11.746 -17.009 -18.626  1.00  0.00     0.175 A 
HETATM   12  C1  UNL     1      12.068 -17.038 -17.277  1.00  0.00     0.167 A 
HETATM   13  N2  UNL     1      11.229 -17.893 -16.684  1.00  0.00    -0.222 N 
HETATM   14  O1  UNL     1      10.450 -18.358 -17.587  1.00  0.00    -0.153 OA
ATOM     15  H2  UNL     1      11.214 -18.132 -15.692  1.00  0.00     0.198 HD
HETATM   16  N3  UNL     1      10.698 -17.884 -18.746  1.00  0.00    -0.222 N 
ATOM     17  H3  UNL     1      10.204 -18.115 -19.607  1.00  0.00     0.198 HD
BRANCH  12  18
HETATM   18  N1  UNL     1      13.022 -16.345 -16.734  1.00  0.00    -0.381 N 
ATOM     19  H12 UNL     1      13.903 -16.737 -16.399  1.00  0.00     0.157 HD
ATOM     20  H11 UNL     1      13.048 -15.340 -16.558  1.00  0.00     0.157 HD
ENDBRANCH  12  18
ENDBRANCH   9  11
ENDBRANCH   1   9
BRANCH   2  21
HETATM   21  N5  UNL     1      11.210 -17.182 -22.023  1.00  0.00    -0.371 N 
ATOM     22  H5  UNL     1      12.027 -17.715 -21.726  1.00  0.00     0.161 HD
BRANCH  21  23
HETATM   23  C5  UNL     1      10.202 -17.842 -22.794  1.00  0.00     0.148 C 
BRANCH  23  24
HETATM   24  C6  UNL     1       9.042 -18.272 -21.940  1.00  0.00     0.199 C 
BRANCH  24  25
HETATM   25  O2  UNL     1       8.075 -17.221 -21.829  1.00  0.00    -0.305 OA
BRANCH  25  26
HETATM   26  C7  UNL     1       7.841 -16.618 -20.587  1.00  0.00     0.372 C 
HETATM   27  N6  UNL     1       7.614 -17.339 -19.391  1.00  0.00    -0.032 NA
HETATM   28  O3  UNL     1       7.841 -15.351 -20.579  1.00  0.00    -0.242 OA
ENDBRANCH  25  26
ENDBRANCH  24  25
ENDBRANCH  23  24
ENDBRANCH  21  23
ENDBRANCH   2  21
BRANCH   8  29
HETATM   29  N12 UNL     1      12.162 -13.815 -18.989  1.00  0.00    -0.336 N 
ATOM     30 2H12 UNL     1      12.210 -14.474 -18.212  1.00  0.00     0.177 HD
ATOM     31 1H12 UNL     1      12.507 -12.855 -18.964  1.00  0.00     0.177 HD
ENDBRANCH   8  29
BRANCH   7  32
HETATM   32  C10 UNL     1      10.847 -11.909 -20.567  1.00  0.00     0.114 A 
HETATM   33  N9  UNL     1      11.487 -10.852 -21.095  1.00  0.00    -0.256 N 
HETATM   34  O4  UNL     1      11.103  -9.760 -20.492  1.00  0.00    -0.228 OA
ATOM     35  H9  UNL     1      12.169 -10.896 -21.852  1.00  0.00     0.195 HD
HETATM   36  C11 UNL     1      10.229  -9.996 -19.571  1.00  0.00     0.201 A 
HETATM   37  C13 UNL     1      10.036 -11.386 -19.588  1.00  0.00     0.120 A 
HETATM   38  N10 UNL     1       9.143 -12.060 -18.734  1.00  0.00    -0.097 NA
BRANCH  36  39
HETATM   39  C12 UNL     1       9.550  -9.071 -18.671  1.00  0.00     0.238 C 
HETATM   40  O5  UNL     1      10.189  -8.272 -17.953  1.00  0.00    -0.642 OA
HETATM   41  O6  UNL     1       8.167  -9.064 -18.595  1.00  0.00    -0.642 OA
ENDBRANCH  36  39
ENDBRANCH   7  32
TORSDOF 11
ENDMDL
MODEL 5
REMARK VINA RESULT: -6.876890594      2.458      7.824
REMARK  11 active torsions:
REMARK  status: ('A' for Active; 'I' for Inactive)
REMARK    1  A    between atoms: N1_1  and  C1_4 
REMARK    2  A    between atoms: C2_10  and  N4_11 
REMARK    3  A    between atoms: N4_11  and  C3_13 
REMARK    4  A    between atoms: C4_14  and  N5_15 
REMARK    5  A    between atoms: N5_15  and  C5_17 
REMARK    6  A    between atoms: C5_17  and  C6_18 
REMARK    7  A    between atoms: C6_18  and  O2_19 
REMARK    8  A    between atoms: O2_19  and  C7_20 
REMARK    9  A    between atoms: C9_27  and  C10_28 
REMARK   10  A    between atoms: C11_32  and  C12_33 
REMARK   11  A    between atoms: N11_38  and  N12_39 
ROOT
HETATM    1  C3  UNL     1       7.940 -11.243 -18.379  1.00  0.00     0.173 A 
HETATM    2  C4  UNL     1       6.689 -11.813 -18.485  1.00  0.00     0.149 A 
HETATM    3  N7  UNL     1       6.467 -12.803 -19.393  1.00  0.00    -0.326 N 
ATOM      4  H7  UNL     1       5.537 -13.218 -19.459  1.00  0.00     0.168 HD
HETATM    5  C8  UNL     1       7.435 -13.246 -20.198  1.00  0.00     0.149 A 
HETATM    6  N8  UNL     1       7.153 -14.274 -21.120  1.00  0.00    -0.080 NA
HETATM    7  C9  UNL     1       8.705 -12.700 -20.126  1.00  0.00     0.129 A 
HETATM    8  N11 UNL     1       8.903 -11.738 -19.233  1.00  0.00    -0.237 N 
ENDROOT
BRANCH   1   9
HETATM    9  N4  UNL     1       8.286 -10.312 -17.576  1.00  0.00    -0.320 N 
ATOM     10  H4  UNL     1       9.194 -10.404 -17.119  1.00  0.00     0.169 HD
BRANCH   9  11
HETATM   11  C2  UNL     1       7.536  -9.187 -17.272  1.00  0.00     0.175 A 
HETATM   12  C1  UNL     1       7.150  -8.666 -16.046  1.00  0.00     0.167 A 
HETATM   13  N2  UNL     1       6.412  -7.578 -16.288  1.00  0.00    -0.222 N 
HETATM   14  O1  UNL     1       6.344  -7.433 -17.559  1.00  0.00    -0.153 OA
ATOM     15  H2  UNL     1       5.981  -6.974 -15.589  1.00  0.00     0.198 HD
HETATM   16  N3  UNL     1       6.979  -8.340 -18.194  1.00  0.00    -0.222 N 
ATOM     17  H3  UNL     1       7.058  -8.419 -19.208  1.00  0.00     0.198 HD
BRANCH  12  18
HETATM   18  N1  UNL     1       7.469  -9.178 -14.897  1.00  0.00    -0.381 N 
ATOM     19  H12 UNL     1       6.911  -9.083 -14.047  1.00  0.00     0.157 HD
ATOM     20  H11 UNL     1       8.292  -9.733 -14.661  1.00  0.00     0.157 HD
ENDBRANCH  12  18
ENDBRANCH   9  11
ENDBRANCH   1   9
BRANCH   2  21
HETATM   21  N5  UNL     1       5.768 -11.389 -17.727  1.00  0.00    -0.371 N 
ATOM     22  H5  UNL     1       5.719 -10.389 -17.530  1.00  0.00     0.161 HD
BRANCH  21  23
HETATM   23  C5  UNL     1       4.796 -12.255 -17.138  1.00  0.00     0.148 C 
BRANCH  23  24
HETATM   24  C6  UNL     1       4.618 -11.975 -15.672  1.00  0.00     0.199 C 
BRANCH  24  25
HETATM   25  O2  UNL     1       5.488 -12.798 -14.887  1.00  0.00    -0.305 OA
BRANCH  25  26
HETATM   26  C7  UNL     1       5.059 -14.063 -14.468  1.00  0.00     0.372 C 
HETATM   27  N6  UNL     1       4.230 -14.281 -13.342  1.00  0.00    -0.032 NA
HETATM   28  O3  UNL     1       5.459 -15.042 -15.166  1.00  0.00    -0.242 OA
ENDBRANCH  25  26
ENDBRANCH  24  25
ENDBRANCH  23  24
ENDBRANCH  21  23
ENDBRANCH   2  21
BRANCH   8  29
HETATM   29  N12 UNL     1      10.180 -11.171 -19.119  1.00  0.00    -0.336 N 
ATOM     30 2H12 UNL     1      10.348 -10.475 -18.393  1.00  0.00     0.177 HD
ATOM     31 1H12 UNL     1      10.876 -11.493 -19.792  1.00  0.00     0.177 HD
ENDBRANCH   8  29
BRANCH   7  32
HETATM   32  C10 UNL     1       9.768 -13.194 -21.014  1.00  0.00     0.114 A 
HETATM   33  N9  UNL     1      10.308 -12.593 -22.088  1.00  0.00    -0.256 N 
HETATM   34  O4  UNL     1      11.240 -13.353 -22.594  1.00  0.00    -0.228 OA
ATOM     35  H9  UNL     1      10.031 -11.682 -22.453  1.00  0.00     0.195 HD
HETATM   36  C11 UNL     1      11.382 -14.453 -21.932  1.00  0.00     0.201 A 
HETATM   37  C13 UNL     1      10.439 -14.387 -20.895  1.00  0.00     0.120 A 
HETATM   38  N10 UNL     1      10.274 -15.396 -19.927  1.00  0.00    -0.097 NA
BRANCH  36  39
HETATM   39  C12 UNL     1      12.299 -15.564 -22.157  1.00  0.00     0.238 C 
HETATM   40  O5  UNL     1      11.952 -16.576 -22.803  1.00  0.00    -0.642 OA
HETATM   41  O6  UNL     1      13.586 -15.517 -21.649  1.00  0.00    -0.642 OA
ENDBRANCH  36  39
ENDBRANCH   7  32
TORSDOF 11
ENDMDL
