MODEL 1
REMARK VINA RESULT: -7.897661283      0.000      0.000
REMARK  12 active torsions:
REMARK  status: ('A' for Active; 'I' for Inactive)
REMARK    1  A    between atoms: C2_2  and  O2_4 
REMARK    2  A    between atoms: O2_4  and  C3_5 
REMARK    3  A    between atoms: C3_5  and  C4_6 
REMARK    4  A    between atoms: C4_6  and  C5_7 
REMARK    5  A    between atoms: C5_7  and  O3_8 
REMARK    6  A    between atoms: O3_8  and  C6_9 
REMARK    7  A    between atoms: C6_9  and  C7_11 
REMARK    8  A    between atoms: C11_17  and  N2_18 
REMARK    9  A    between atoms: N3_20  and  N4_22 
REMARK   10  A    between atoms: N5_25  and  O6_26 
REMARK   11  A    between atoms: C12_31  and  N7_32 
REMARK   12  A    between atoms: C13_39  and  N9_41 
ROOT
HETATM    1  N9  UNL     1       7.131  -9.030 -15.316  1.00  0.00    -0.292 N 
ATOM      2  H9  UNL     1       6.943  -9.138 -14.319  1.00  0.00     0.174 HD
HETATM    3  C15 UNL     1       8.401  -8.667 -15.708  1.00  0.00     0.179 C 
HETATM    4  N10 UNL     1       9.497  -8.359 -16.014  1.00  0.00    -0.172 NA
ENDROOT
BRANCH   1   5
HETATM    5  C13 UNL     1       6.080  -9.259 -16.229  1.00  0.00     0.244 C 
HETATM    6  C4  UNL     1       5.993 -10.473 -17.012  1.00  0.00     0.224 C 
HETATM    7  N6  UNL     1       4.580 -10.347 -17.541  1.00  0.00    -0.004 N 
HETATM    8  C12 UNL     1       3.891  -9.526 -16.609  1.00  0.00     0.581 C 
ATOM      9  H62 UNL     1       4.532 -10.006 -18.500  1.00  0.00     0.283 HD
ATOM     10  H61 UNL     1       4.126 -11.245 -17.708  1.00  0.00     0.283 HD
HETATM   11  N8  UNL     1       4.777  -9.308 -15.491  1.00  0.00     0.008 N 
ATOM     12  H82 UNL     1       4.565  -8.506 -14.897  1.00  0.00     0.284 HD
ATOM     13  H81 UNL     1       4.716  -9.984 -14.729  1.00  0.00     0.284 HD
HETATM   14  C14 UNL     1       5.868  -8.059 -17.170  1.00  0.00     0.075 C 
BRANCH   6  15
HETATM   15  C3  UNL     1       5.926 -11.770 -16.229  1.00  0.00     0.224 C 
BRANCH  15  16
HETATM   16  O2  UNL     1       5.331 -12.830 -16.887  1.00  0.00    -0.319 OA
BRANCH  16  17
HETATM   17  C2  UNL     1       4.165 -13.417 -16.485  1.00  0.00     0.254 C 
HETATM   18  C1  UNL     1       4.103 -14.453 -15.428  1.00  0.00     0.126 C 
HETATM   19  O1  UNL     1       3.087 -13.056 -17.041  1.00  0.00    -0.266 OA
ENDBRANCH  16  17
ENDBRANCH  15  16
ENDBRANCH   6  15
BRANCH   6  20
HETATM   20  C5  UNL     1       6.773 -10.685 -18.260  1.00  0.00     0.225 C 
BRANCH  20  21
HETATM   21  O3  UNL     1       7.992 -11.253 -18.305  1.00  0.00    -0.314 OA
BRANCH  21  22
HETATM   22  C6  UNL     1       9.060 -11.352 -19.091  1.00  0.00     0.314 C 
HETATM   23  O4  UNL     1       9.761 -10.349 -19.320  1.00  0.00    -0.257 OA
BRANCH  22  24
HETATM   24  C7  UNL     1       9.507 -12.607 -19.745  1.00  0.00     0.168 A 
HETATM   25  C8  UNL     1       8.545 -13.425 -20.282  1.00  0.00     0.131 A 
HETATM   26  N1  UNL     1       7.150 -13.101 -20.226  1.00  0.00    -0.095 NA
HETATM   27  C9  UNL     1       8.929 -14.594 -20.894  1.00  0.00     0.202 A 
HETATM   28  O5  UNL     1       8.064 -15.385 -21.408  1.00  0.00    -0.286 OA
HETATM   29  C10 UNL     1      10.271 -14.898 -20.945  1.00  0.00     0.109 A 
HETATM   30  C11 UNL     1      11.222 -14.077 -20.408  1.00  0.00     0.153 A 
HETATM   31  N5  UNL     1      10.798 -12.940 -19.816  1.00  0.00    -0.199 N 
BRANCH  30  32
HETATM   32  N2  UNL     1      12.612 -14.407 -20.467  1.00  0.00    -0.269 N 
HETATM   33  N3  UNL     1      13.323 -14.658 -19.473  1.00  0.00    -0.248 N 
ATOM     34  H3  UNL     1      14.303 -14.877 -19.652  1.00  0.00     0.207 HD
ATOM     35  H2  UNL     1      13.053 -14.439 -21.387  1.00  0.00     0.190 HD
BRANCH  33  36
HETATM   36  N4  UNL     1      12.911 -14.668 -18.150  1.00  0.00    -0.331 N 
ATOM     37  H42 UNL     1      13.440 -15.280 -17.527  1.00  0.00     0.178 HD
ATOM     38  H41 UNL     1      12.142 -14.130 -17.752  1.00  0.00     0.178 HD
ENDBRANCH  33  36
ENDBRANCH  30  32
BRANCH  31  39
HETATM   39  O6  UNL     1      11.747 -12.092 -19.263  1.00  0.00    -0.281 OA
ATOM     40  H6  UNL     1      12.083 -12.277 -18.393  1.00  0.00     0.245 HD
ENDBRANCH  31  39
ENDBRANCH  22  24
ENDBRANCH  21  22
ENDBRANCH  20  21
ENDBRANCH   6  20
BRANCH   8  41
HETATM   41  N7  UNL     1       2.697 -10.186 -16.141  1.00  0.00    -0.025 N 
ATOM     42  H73 UNL     1       1.883  -9.572 -16.182  1.00  0.00     0.278 HD
ATOM     43  H72 UNL     1       2.379 -10.902 -16.794  1.00  0.00     0.278 HD
ATOM     44  H71 UNL     1       2.840 -10.562 -15.204  1.00  0.00     0.278 HD
ENDBRANCH   8  41
ENDBRANCH   1   5
TORSDOF 12
ENDMDL
MODEL 2
REMARK VINA RESULT: -7.877064877      3.129      8.661
REMARK  12 active torsions:
REMARK  status: ('A' for Active; 'I' for Inactive)
REMARK    1  A    between atoms: C2_2  and  O2_4 
REMARK    2  A    between atoms: O2_4  and  C3_5 
REMARK    3  A    between atoms: C3_5  and  C4_6 
REMARK    4  A    between atoms: C4_6  and  C5_7 
REMARK    5  A    between atoms: C5_7  and  O3_8 
REMARK    6  A    between atoms: O3_8  and  C6_9 
REMARK    7  A    between atoms: C6_9  and  C7_11 
REMARK    8  A    between atoms: C11_17  and  N2_18 
REMARK    9  A    between atoms: N3_20  and  N4_22 
REMARK   10  A    between atoms: N5_25  and  O6_26 
REMARK   11  A    between atoms: C12_31  and  N7_32 
REMARK   12  A    between atoms: C13_39  and  N9_41 
ROOT
HETATM    1  N9  UNL     1      10.627 -15.966 -20.848  1.00  0.00    -0.292 N 
ATOM      2  H9  UNL     1      11.588 -15.738 -20.592  1.00  0.00     0.174 HD
HETATM    3  C15 UNL     1       9.824 -16.572 -19.907  1.00  0.00     0.179 C 
HETATM    4  N10 UNL     1       9.160 -17.087 -19.080  1.00  0.00    -0.172 NA
ENDROOT
BRANCH   1   5
HETATM    5  C13 UNL     1      10.182 -15.647 -22.148  1.00  0.00     0.244 C 
HETATM    6  C4  UNL     1      10.708 -14.516 -22.884  1.00  0.00     0.224 C 
HETATM    7  N6  UNL     1      10.160 -14.819 -24.262  1.00  0.00    -0.004 N 
HETATM    8  C12 UNL     1       9.962 -16.225 -24.298  1.00  0.00     0.581 C 
ATOM      9  H62 UNL     1       9.325 -14.282 -24.498  1.00  0.00     0.283 HD
ATOM     10  H61 UNL     1      10.746 -14.470 -25.020  1.00  0.00     0.283 HD
HETATM   11  N8  UNL     1      10.517 -16.769 -23.083  1.00  0.00     0.008 N 
ATOM     12  H82 UNL     1      10.187 -17.695 -22.811  1.00  0.00     0.284 HD
ATOM     13  H81 UNL     1      11.498 -17.047 -23.120  1.00  0.00     0.284 HD
HETATM   14  C14 UNL     1       8.645 -15.608 -22.234  1.00  0.00     0.075 C 
BRANCH   6  15
HETATM   15  C3  UNL     1      12.204 -14.515 -23.129  1.00  0.00     0.224 C 
BRANCH  15  16
HETATM   16  O2  UNL     1      12.926 -15.438 -22.395  1.00  0.00    -0.319 OA
BRANCH  16  17
HETATM   17  C2  UNL     1      14.010 -16.114 -22.878  1.00  0.00     0.254 C 
HETATM   18  C1  UNL     1      14.223 -16.378 -24.320  1.00  0.00     0.126 C 
HETATM   19  O1  UNL     1      14.874 -16.532 -22.053  1.00  0.00    -0.266 OA
ENDBRANCH  16  17
ENDBRANCH  15  16
ENDBRANCH   6  15
BRANCH   6  20
HETATM   20  C5  UNL     1      10.239 -13.123 -22.664  1.00  0.00     0.225 C 
BRANCH  20  21
HETATM   21  O3  UNL     1      10.577 -12.367 -21.603  1.00  0.00    -0.314 OA
BRANCH  21  22
HETATM   22  C6  UNL     1      10.508 -12.356 -20.275  1.00  0.00     0.314 C 
HETATM   23  O4  UNL     1      11.137 -13.202 -19.610  1.00  0.00    -0.257 OA
BRANCH  22  24
HETATM   24  C7  UNL     1       9.715 -11.383 -19.483  1.00  0.00     0.168 A 
HETATM   25  C8  UNL     1      10.317 -10.198 -19.142  1.00  0.00     0.131 A 
HETATM   26  N1  UNL     1      11.662  -9.886 -19.524  1.00  0.00    -0.095 NA
HETATM   27  C9  UNL     1       9.608  -9.277 -18.408  1.00  0.00     0.202 A 
HETATM   28  O5  UNL     1      10.130  -8.159 -18.069  1.00  0.00    -0.286 OA
HETATM   29  C10 UNL     1       8.315  -9.583 -18.044  1.00  0.00     0.109 A 
HETATM   30  C11 UNL     1       7.724 -10.766 -18.390  1.00  0.00     0.153 A 
HETATM   31  N5  UNL     1       8.460 -11.639 -19.110  1.00  0.00    -0.199 N 
BRANCH  30  32
HETATM   32  N2  UNL     1       6.381 -11.069 -18.004  1.00  0.00    -0.269 N 
HETATM   33  N3  UNL     1       5.525 -10.217 -17.693  1.00  0.00    -0.248 N 
ATOM     34  H3  UNL     1       4.602 -10.565 -17.435  1.00  0.00     0.207 HD
ATOM     35  H2  UNL     1       6.104 -12.051 -17.982  1.00  0.00     0.190 HD
BRANCH  33  36
HETATM   36  N4  UNL     1       5.705  -8.843 -17.664  1.00  0.00    -0.331 N 
ATOM     37  H42 UNL     1       6.352  -8.467 -18.358  1.00  0.00     0.178 HD
ATOM     38  H41 UNL     1       5.258  -8.188 -17.023  1.00  0.00     0.178 HD
ENDBRANCH  33  36
ENDBRANCH  30  32
BRANCH  31  39
HETATM   39  O6  UNL     1       7.880 -12.848 -19.471  1.00  0.00    -0.281 OA
ATOM     40  H6  UNL     1       6.933 -12.931 -19.454  1.00  0.00     0.245 HD
ENDBRANCH  31  39
ENDBRANCH  22  24
ENDBRANCH  21  22
ENDBRANCH  20  21
ENDBRANCH   6  20
BRANCH   8  41
HETATM   41  N7  UNL     1      10.647 -16.803 -25.429  1.00  0.00    -0.025 N 
ATOM     42  H73 UNL     1      11.634 -16.547 -25.446  1.00  0.00     0.278 HD
ATOM     43  H72 UNL     1      10.754 -17.813 -25.331  1.00  0.00     0.278 HD
ATOM     44  H71 UNL     1      10.175 -16.552 -26.298  1.00  0.00     0.278 HD
ENDBRANCH   8  41
ENDBRANCH   1   5
TORSDOF 12
ENDMDL
MODEL 3
REMARK VINA RESULT: -7.771138300      2.760      8.191
REMARK  12 active torsions:
REMARK  status: ('A' for Active; 'I' for Inactive)
REMARK    1  A    between atoms: C2_2  and  O2_4 
REMARK    2  A    between atoms: O2_4  and  C3_5 
REMARK    3  A    between atoms: C3_5  and  C4_6 
REMARK    4  A    between atoms: C4_6  and  C5_7 
REMARK    5  A    between atoms: C5_7  and  O3_8 
REMARK    6  A    between atoms: O3_8  and  C6_9 
REMARK    7  A    between atoms: C6_9  and  C7_11 
REMARK    8  A    between atoms: C11_17  and  N2_18 
REMARK    9  A    between atoms: N3_20  and  N4_22 
REMARK   10  A    between atoms: N5_25  and  O6_26 
REMARK   11  A    between atoms: C12_31  and  N7_32 
REMARK   12  A    between atoms: C13_39  and  N9_41 
ROOT
HETATM    1  N9  UNL     1      10.312 -16.603 -19.933  1.00  0.00    -0.292 N 
ATOM      2  H9  UNL     1      10.419 -17.297 -19.193  1.00  0.00     0.174 HD
HETATM    3  C15 UNL     1       9.039 -16.212 -20.287  1.00  0.00     0.179 C 
HETATM    4  N10 UNL     1       7.939 -15.895 -20.565  1.00  0.00    -0.172 NA
ENDROOT
BRANCH   1   5
HETATM    5  C13 UNL     1      11.473 -16.089 -20.548  1.00  0.00     0.244 C 
HETATM    6  C4  UNL     1      12.359 -15.168 -19.868  1.00  0.00     0.224 C 
HETATM    7  N6  UNL     1      13.547 -15.200 -20.806  1.00  0.00    -0.004 N 
HETATM    8  C12 UNL     1      13.479 -16.453 -21.472  1.00  0.00     0.581 C 
ATOM      9  H62 UNL     1      13.589 -14.402 -21.439  1.00  0.00     0.283 HD
ATOM     10  H61 UNL     1      14.439 -15.033 -20.340  1.00  0.00     0.283 HD
HETATM   11  N8  UNL     1      12.418 -17.210 -20.854  1.00  0.00     0.008 N 
ATOM     12  H82 UNL     1      12.038 -17.983 -21.401  1.00  0.00     0.284 HD
ATOM     13  H81 UNL     1      12.686 -17.801 -20.066  1.00  0.00     0.284 HD
HETATM   14  C14 UNL     1      11.178 -15.529 -21.952  1.00  0.00     0.075 C 
BRANCH   6  15
HETATM   15  C3  UNL     1      12.966 -15.660 -18.568  1.00  0.00     0.224 C 
BRANCH  15  16
HETATM   16  O2  UNL     1      12.125 -16.412 -17.769  1.00  0.00    -0.319 OA
BRANCH  16  17
HETATM   17  C2  UNL     1      12.251 -16.508 -16.411  1.00  0.00     0.254 C 
HETATM   18  C1  UNL     1      12.492 -17.789 -15.709  1.00  0.00     0.126 C 
HETATM   19  O1  UNL     1      12.159 -15.449 -15.723  1.00  0.00    -0.266 OA
ENDBRANCH  16  17
ENDBRANCH  15  16
ENDBRANCH   6  15
BRANCH   6  20
HETATM   20  C5  UNL     1      12.084 -13.710 -19.766  1.00  0.00     0.225 C 
BRANCH  20  21
HETATM   21  O3  UNL     1      10.891 -13.185 -19.431  1.00  0.00    -0.314 OA
BRANCH  21  22
HETATM   22  C6  UNL     1       9.898 -12.462 -19.939  1.00  0.00     0.314 C 
HETATM   23  O4  UNL     1       9.404 -12.767 -21.042  1.00  0.00    -0.257 OA
BRANCH  22  24
HETATM   24  C7  UNL     1       9.300 -11.274 -19.280  1.00  0.00     0.168 A 
HETATM   25  C8  UNL     1      10.110 -10.185 -19.073  1.00  0.00     0.131 A 
HETATM   26  N1  UNL     1      11.486 -10.170 -19.471  1.00  0.00    -0.095 NA
HETATM   27  C9  UNL     1       9.585  -9.070 -18.464  1.00  0.00     0.202 A 
HETATM   28  O5  UNL     1      10.304  -8.033 -18.252  1.00  0.00    -0.286 OA
HETATM   29  C10 UNL     1       8.261  -9.091 -18.084  1.00  0.00     0.109 A 
HETATM   30  C11 UNL     1       7.463 -10.181 -18.295  1.00  0.00     0.153 A 
HETATM   31  N5  UNL     1       8.022 -11.253 -18.896  1.00  0.00    -0.199 N 
BRANCH  30  32
HETATM   32  N2  UNL     1       6.091 -10.188 -17.895  1.00  0.00    -0.269 N 
HETATM   33  N3  UNL     1       5.681 -10.565 -16.778  1.00  0.00    -0.248 N 
ATOM     34  H3  UNL     1       4.674 -10.522 -16.619  1.00  0.00     0.207 HD
ATOM     35  H2  UNL     1       5.398  -9.863 -18.570  1.00  0.00     0.190 HD
BRANCH  33  36
HETATM   36  N4  UNL     1       6.460 -11.036 -15.733  1.00  0.00    -0.331 N 
ATOM     37  H42 UNL     1       6.621 -10.378 -14.970  1.00  0.00     0.178 HD
ATOM     38  H41 UNL     1       6.879 -11.963 -15.662  1.00  0.00     0.178 HD
ENDBRANCH  33  36
ENDBRANCH  30  32
BRANCH  31  39
HETATM   39  O6  UNL     1       7.230 -12.371 -19.118  1.00  0.00    -0.281 OA
ATOM     40  H6  UNL     1       7.234 -12.778 -19.976  1.00  0.00     0.245 HD
ENDBRANCH  31  39
ENDBRANCH  22  24
ENDBRANCH  21  22
ENDBRANCH  20  21
ENDBRANCH   6  20
BRANCH   8  41
HETATM   41  N7  UNL     1      14.720 -17.172 -21.323  1.00  0.00    -0.025 N 
ATOM     42  H73 UNL     1      15.505 -16.543 -21.150  1.00  0.00     0.278 HD
ATOM     43  H72 UNL     1      14.751 -17.697 -20.449  1.00  0.00     0.278 HD
ATOM     44  H71 UNL     1      14.885 -17.770 -22.132  1.00  0.00     0.278 HD
ENDBRANCH   8  41
ENDBRANCH   1   5
TORSDOF 12
ENDMDL
MODEL 4
REMARK VINA RESULT: -7.763975115      2.987      7.706
REMARK  12 active torsions:
REMARK  status: ('A' for Active; 'I' for Inactive)
REMARK    1  A    between atoms: C2_2  and  O2_4 
REMARK    2  A    between atoms: O2_4  and  C3_5 
REMARK    3  A    between atoms: C3_5  and  C4_6 
REMARK    4  A    between atoms: C4_6  and  C5_7 
REMARK    5  A    between atoms: C5_7  and  O3_8 
REMARK    6  A    between atoms: O3_8  and  C6_9 
REMARK    7  A    between atoms: C6_9  and  C7_11 
REMARK    8  A    between atoms: C11_17  and  N2_18 
REMARK    9  A    between atoms: N3_20  and  N4_22 
REMARK   10  A    between atoms: N5_25  and  O6_26 
REMARK   11  A    between atoms: C12_31  and  N7_32 
REMARK   12  A    between atoms: C13_39  and  N9_41 
ROOT
HETATM    1  N9  UNL     1       7.387 -16.266 -21.247  1.00  0.00    -0.292 N 
ATOM      2  H9  UNL     1       7.200 -17.206 -20.898  1.00  0.00     0.174 HD
HETATM    3  C15 UNL     1       6.570 -15.238 -20.832  1.00  0.00     0.179 C 
HETATM    4  N10 UNL     1       5.856 -14.378 -20.457  1.00  0.00    -0.172 NA
ENDROOT
BRANCH   1   5
HETATM    5  C13 UNL     1       8.469 -16.078 -22.133  1.00  0.00     0.244 C 
HETATM    6  C4  UNL     1       9.669 -15.370 -21.741  1.00  0.00     0.224 C 
HETATM    7  N6  UNL     1      10.581 -15.734 -22.894  1.00  0.00    -0.004 N 
HETATM    8  C12 UNL     1      10.084 -16.962 -23.406  1.00  0.00     0.581 C 
ATOM      9  H62 UNL     1      10.662 -15.000 -23.598  1.00  0.00     0.283 HD
ATOM     10  H61 UNL     1      11.567 -15.767 -22.639  1.00  0.00     0.283 HD
HETATM   11  N8  UNL     1       9.042 -17.409 -22.513  1.00  0.00     0.008 N 
ATOM     12  H82 UNL     1       8.385 -18.091 -22.893  1.00  0.00     0.284 HD
ATOM     13  H81 UNL     1       9.337 -18.010 -21.743  1.00  0.00     0.284 HD
HETATM   14  C14 UNL     1       8.006 -15.530 -23.496  1.00  0.00     0.075 C 
BRANCH   6  15
HETATM   15  C3  UNL     1      10.420 -15.934 -20.551  1.00  0.00     0.224 C 
BRANCH  15  16
HETATM   16  O2  UNL     1       9.631 -16.350 -19.495  1.00  0.00    -0.319 OA
BRANCH  16  17
HETATM   17  C2  UNL     1       9.629 -17.625 -19.003  1.00  0.00     0.254 C 
HETATM   18  C1  UNL     1      10.657 -18.132 -18.065  1.00  0.00     0.126 C 
HETATM   19  O1  UNL     1       8.702 -18.408 -19.365  1.00  0.00    -0.266 OA
ENDBRANCH  16  17
ENDBRANCH  15  16
ENDBRANCH   6  15
BRANCH   6  20
HETATM   20  C5  UNL     1       9.761 -13.886 -21.729  1.00  0.00     0.225 C 
BRANCH  20  21
HETATM   21  O3  UNL     1       9.393 -13.112 -20.693  1.00  0.00    -0.314 OA
BRANCH  21  22
HETATM   22  C6  UNL     1       9.911 -12.409 -19.689  1.00  0.00     0.314 C 
HETATM   23  O4  UNL     1      10.963 -12.788 -19.140  1.00  0.00    -0.257 OA
BRANCH  22  24
HETATM   24  C7  UNL     1       9.319 -11.162 -19.144  1.00  0.00     0.168 A 
HETATM   25  C8  UNL     1      10.132 -10.060 -19.048  1.00  0.00     0.131 A 
HETATM   26  N1  UNL     1      11.506 -10.086 -19.454  1.00  0.00    -0.095 NA
HETATM   27  C9  UNL     1       9.613  -8.890 -18.547  1.00  0.00     0.202 A 
HETATM   28  O5  UNL     1      10.335  -7.839 -18.440  1.00  0.00    -0.286 OA
HETATM   29  C10 UNL     1       8.291  -8.872 -18.159  1.00  0.00     0.109 A 
HETATM   30  C11 UNL     1       7.490  -9.974 -18.259  1.00  0.00     0.153 A 
HETATM   31  N5  UNL     1       8.044 -11.100 -18.757  1.00  0.00    -0.199 N 
BRANCH  30  32
HETATM   32  N2  UNL     1       6.120  -9.940 -17.852  1.00  0.00    -0.269 N 
HETATM   33  N3  UNL     1       5.678 -10.464 -16.810  1.00  0.00    -0.248 N 
ATOM     34  H3  UNL     1       4.677 -10.369 -16.635  1.00  0.00     0.207 HD
ATOM     35  H2  UNL     1       5.457  -9.453 -18.457  1.00  0.00     0.190 HD
BRANCH  33  36
HETATM   36  N4  UNL     1       6.413 -11.162 -15.865  1.00  0.00    -0.331 N 
ATOM     37  H42 UNL     1       5.945 -11.966 -15.446  1.00  0.00     0.178 HD
ATOM     38  H41 UNL     1       7.362 -10.948 -15.559  1.00  0.00     0.178 HD
ENDBRANCH  33  36
ENDBRANCH  30  32
BRANCH  31  39
HETATM   39  O6  UNL     1       7.248 -12.233 -18.866  1.00  0.00    -0.281 OA
ATOM     40  H6  UNL     1       6.329 -12.134 -19.086  1.00  0.00     0.245 HD
ENDBRANCH  31  39
ENDBRANCH  22  24
ENDBRANCH  21  22
ENDBRANCH  20  21
ENDBRANCH   6  20
BRANCH   8  41
HETATM   41  N7  UNL     1      11.131 -17.954 -23.443  1.00  0.00    -0.025 N 
ATOM     42  H73 UNL     1      11.607 -17.969 -24.345  1.00  0.00     0.278 HD
ATOM     43  H72 UNL     1      11.923 -17.690 -22.857  1.00  0.00     0.278 HD
ATOM     44  H71 UNL     1      10.762 -18.872 -23.193  1.00  0.00     0.278 HD
ENDBRANCH   8  41
ENDBRANCH   1   5
TORSDOF 12
ENDMDL
MODEL 5
REMARK VINA RESULT: -7.728326033      2.830      8.273
REMARK  12 active torsions:
REMARK  status: ('A' for Active; 'I' for Inactive)
REMARK    1  A    between atoms: C2_2  and  O2_4 
REMARK    2  A    between atoms: O2_4  and  C3_5 
REMARK    3  A    between atoms: C3_5  and  C4_6 
REMARK    4  A    between atoms: C4_6  and  C5_7 
REMARK    5  A    between atoms: C5_7  and  O3_8 
REMARK    6  A    between atoms: O3_8  and  C6_9 
REMARK    7  A    between atoms: C6_9  and  C7_11 
REMARK    8  A    between atoms: C11_17  and  N2_18 
REMARK    9  A    between atoms: N3_20  and  N4_22 
REMARK   10  A    between atoms: N5_25  and  O6_26 
REMARK   11  A    between atoms: C12_31  and  N7_32 
REMARK   12  A    between atoms: C13_39  and  N9_41 
ROOT
HETATM    1  N9  UNL     1      10.307 -16.011 -24.090  1.00  0.00    -0.292 N 
ATOM      2  H9  UNL     1       9.648 -15.346 -24.492  1.00  0.00     0.174 HD
HETATM    3  C15 UNL     1      10.254 -17.323 -24.507  1.00  0.00     0.179 C 
HETATM    4  N10 UNL     1      10.186 -18.437 -24.886  1.00  0.00    -0.172 NA
ENDROOT
BRANCH   1   5
HETATM    5  C13 UNL     1      11.233 -15.547 -23.131  1.00  0.00     0.244 C 
HETATM    6  C4  UNL     1      10.817 -14.810 -21.956  1.00  0.00     0.224 C 
HETATM    7  N6  UNL     1      12.099 -14.848 -21.152  1.00  0.00    -0.004 N 
HETATM    8  C12 UNL     1      12.803 -15.997 -21.602  1.00  0.00     0.581 C 
ATOM      9  H62 UNL     1      12.643 -13.987 -21.209  1.00  0.00     0.283 HD
ATOM     10  H61 UNL     1      11.949 -14.831 -20.143  1.00  0.00     0.283 HD
HETATM   11  N8  UNL     1      11.928 -16.713 -22.498  1.00  0.00     0.008 N 
ATOM     12  H82 UNL     1      12.376 -17.370 -23.137  1.00  0.00     0.284 HD
ATOM     13  H81 UNL     1      11.328 -17.420 -22.073  1.00  0.00     0.284 HD
HETATM   14  C14 UNL     1      12.406 -14.793 -23.785  1.00  0.00     0.075 C 
BRANCH   6  15
HETATM   15  C3  UNL     1       9.842 -15.517 -21.035  1.00  0.00     0.224 C 
BRANCH  15  16
HETATM   16  O2  UNL     1       8.682 -15.971 -21.634  1.00  0.00    -0.319 OA
BRANCH  16  17
HETATM   17  C2  UNL     1       7.509 -15.271 -21.648  1.00  0.00     0.254 C 
HETATM   18  C1  UNL     1       6.555 -15.312 -22.781  1.00  0.00     0.126 C 
HETATM   19  O1  UNL     1       7.224 -14.555 -20.644  1.00  0.00    -0.266 OA
ENDBRANCH  16  17
ENDBRANCH  15  16
ENDBRANCH   6  15
BRANCH   6  20
HETATM   20  C5  UNL     1      10.512 -13.356 -21.982  1.00  0.00     0.225 C 
BRANCH  20  21
HETATM   21  O3  UNL     1       9.928 -12.685 -20.972  1.00  0.00    -0.314 OA
BRANCH  21  22
HETATM   22  C6  UNL     1      10.192 -12.198 -19.763  1.00  0.00     0.314 C 
HETATM   23  O4  UNL     1      11.023 -12.766 -19.029  1.00  0.00    -0.257 OA
BRANCH  22  24
HETATM   24  C7  UNL     1       9.556 -10.986 -19.189  1.00  0.00     0.168 A 
HETATM   25  C8  UNL     1      10.333  -9.864 -19.048  1.00  0.00     0.131 A 
HETATM   26  N1  UNL     1      11.713  -9.837 -19.434  1.00  0.00    -0.095 NA
HETATM   27  C9  UNL     1       9.772  -8.726 -18.518  1.00  0.00     0.202 A 
HETATM   28  O5  UNL     1      10.461  -7.658 -18.369  1.00  0.00    -0.286 OA
HETATM   29  C10 UNL     1       8.445  -8.760 -18.149  1.00  0.00     0.109 A 
HETATM   30  C11 UNL     1       7.680  -9.882 -18.294  1.00  0.00     0.153 A 
HETATM   31  N5  UNL     1       8.274 -10.975 -18.818  1.00  0.00    -0.199 N 
BRANCH  30  32
HETATM   32  N2  UNL     1       6.304  -9.901 -17.906  1.00  0.00    -0.269 N 
HETATM   33  N3  UNL     1       5.872 -10.417 -16.855  1.00  0.00    -0.248 N 
ATOM     34  H3  UNL     1       4.866 -10.365 -16.696  1.00  0.00     0.207 HD
ATOM     35  H2  UNL     1       5.628  -9.463 -18.532  1.00  0.00     0.190 HD
BRANCH  33  36
HETATM   36  N4  UNL     1       6.626 -11.054 -15.882  1.00  0.00    -0.331 N 
ATOM     37  H42 UNL     1       7.558 -10.671 -15.724  1.00  0.00     0.178 HD
ATOM     38  H41 UNL     1       6.337 -11.856 -15.322  1.00  0.00     0.178 HD
ENDBRANCH  33  36
ENDBRANCH  30  32
BRANCH  31  39
HETATM   39  O6  UNL     1       7.514 -12.127 -18.973  1.00  0.00    -0.281 OA
ATOM     40  H6  UNL     1       7.670 -12.866 -18.396  1.00  0.00     0.245 HD
ENDBRANCH  31  39
ENDBRANCH  22  24
ENDBRANCH  21  22
ENDBRANCH  20  21
ENDBRANCH   6  20
BRANCH   8  41
HETATM   41  N7  UNL     1      13.139 -16.852 -20.490  1.00  0.00    -0.025 N 
ATOM     42  H73 UNL     1      13.766 -16.389 -19.831  1.00  0.00     0.278 HD
ATOM     43  H72 UNL     1      12.344 -16.994 -19.867  1.00  0.00     0.278 HD
ATOM     44  H71 UNL     1      13.524 -17.736 -20.822  1.00  0.00     0.278 HD
ENDBRANCH   8  41
ENDBRANCH   1   5
TORSDOF 12
ENDMDL
