MODEL 1
REMARK VINA RESULT: -7.509329014      0.000      0.000
REMARK  8 active torsions:
REMARK  status: ('A' for Active; 'I' for Inactive)
REMARK    1  A    between atoms: O1_2  and  C2_3 
REMARK    2  A    between atoms: N1_5  and  C4_6 
REMARK    3  A    between atoms: C5_9  and  C6_10 
REMARK    4  A    between atoms: N4_12  and  O2_14 
REMARK    5  A    between atoms: C7_16  and  N5_17 
REMARK    6  A    between atoms: N5_17  and  C8_19 
REMARK    7  A    between atoms: N9_25  and  O3_26 
REMARK    8  A    between atoms: N10_30  and  N11_31 
ROOT
HETATM    1  C4  UNL     1       7.702 -10.620 -18.133  1.00  0.00     0.706 A 
HETATM    2  N2  UNL     1       9.010 -10.682 -18.317  1.00  0.00    -0.184 N 
ATOM      3  H2  UNL     1       9.589  -9.963 -17.885  1.00  0.00     0.184 HD
HETATM    4  C5  UNL     1       9.632 -11.650 -19.053  1.00  0.00     0.125 A 
HETATM    5  C7  UNL     1       8.848 -12.618 -19.637  1.00  0.00     0.150 A 
HETATM    6  C10 UNL     1       7.481 -12.530 -19.427  1.00  0.00     0.312 A 
HETATM    7  O4  UNL     1       6.750 -13.428 -19.968  1.00  0.00    -0.263 OA
HETATM    8  N10 UNL     1       6.902 -11.564 -18.698  1.00  0.00    -0.043 N 
ENDROOT
BRANCH   5   9
HETATM    9  N5  UNL     1       9.381 -13.649 -20.431  1.00  0.00    -0.181 N 
ATOM     10  H5  UNL     1       9.649 -14.524 -19.981  1.00  0.00     0.184 HD
BRANCH   9  11
HETATM   11  C8  UNL     1       9.562 -13.519 -21.849  1.00  0.00     0.719 C 
HETATM   12  N6  UNL     1      10.459 -12.748 -22.353  1.00  0.00    -0.208 N 
HETATM   13  C9  UNL     1      10.553 -12.693 -23.797  1.00  0.00     0.271 C 
ATOM     14  H6  UNL     1      11.080 -12.198 -21.760  1.00  0.00     0.179 HD
HETATM   15  N7  UNL     1      10.437 -14.039 -24.298  1.00  0.00    -0.103 NA
HETATM   16  N8  UNL     1       9.252 -14.651 -23.966  1.00  0.00     0.015 NA
HETATM   17  N9  UNL     1       8.734 -14.251 -22.737  1.00  0.00     0.028 N 
BRANCH  17  18
HETATM   18  O3  UNL     1       7.439 -14.563 -22.389  1.00  0.00    -0.256 OA
ATOM     19  H3  UNL     1       7.084 -15.426 -22.570  1.00  0.00     0.247 HD
ENDBRANCH  17  18
ENDBRANCH   9  11
ENDBRANCH   5   9
BRANCH   4  20
HETATM   20  C6  UNL     1      11.071 -11.608 -19.167  1.00  0.00     0.165 C 
HETATM   21  N3  UNL     1      11.876 -12.591 -18.558  1.00  0.00    -0.078 NA
HETATM   22  N4  UNL     1      11.633 -10.662 -19.821  1.00  0.00    -0.253 N 
ATOM     23  H4  UNL     1      12.652 -10.679 -19.872  1.00  0.00     0.195 HD
BRANCH  22  24
HETATM   24  O2  UNL     1      11.004  -9.633 -20.457  1.00  0.00    -0.288 OA
ATOM     25  H2  UNL     1      11.152  -8.706 -20.313  1.00  0.00     0.244 HD
ENDBRANCH  22  24
ENDBRANCH   4  20
BRANCH   8  26
HETATM   26  N11 UNL     1       5.546 -11.470 -18.485  1.00  0.00    -0.252 N 
HETATM   27  C11 UNL     1       4.887 -12.054 -17.559  1.00  0.00     0.216 C 
HETATM   28  N12 UNL     1       5.453 -12.910 -16.583  1.00  0.00    -0.065 NA
HETATM   29  N13 UNL     1       3.484 -11.831 -17.504  1.00  0.00    -0.065 NA
ATOM     30  H11 UNL     1       5.017 -10.879 -19.126  1.00  0.00     0.190 HD
ENDBRANCH   8  26
BRANCH   1  31
HETATM   31  N1  UNL     1       7.161  -9.567 -17.347  1.00  0.00    -0.208 N 
HETATM   32  C3  UNL     1       6.870  -9.681 -15.935  1.00  0.00     0.179 C 
HETATM   33  C2  UNL     1       5.708  -8.725 -15.766  1.00  0.00     0.185 C 
HETATM   34  C13 UNL     1       6.078  -7.620 -16.676  1.00  0.00     0.029 C 
HETATM   35  C12 UNL     1       6.814  -8.237 -17.805  1.00  0.00     0.196 C 
HETATM   36  N14 UNL     1       5.810  -6.396 -16.504  1.00  0.00    -0.402 N 
ATOM     37 2H14 UNL     1       5.303  -5.971 -15.727  1.00  0.00     0.155 HD
ATOM     38 1H14 UNL     1       6.066  -5.634 -17.132  1.00  0.00     0.155 HD
BRANCH  33  39
HETATM   39  O1  UNL     1       5.628  -8.316 -14.437  1.00  0.00    -0.383 OA
HETATM   40  C1  UNL     1       4.610  -9.051 -13.835  1.00  0.00     0.202 C 
ENDBRANCH  33  39
ENDBRANCH   1  31
TORSDOF 8
ENDMDL
MODEL 2
REMARK VINA RESULT: -7.111037353      2.376      7.696
REMARK  8 active torsions:
REMARK  status: ('A' for Active; 'I' for Inactive)
REMARK    1  A    between atoms: O1_2  and  C2_3 
REMARK    2  A    between atoms: N1_5  and  C4_6 
REMARK    3  A    between atoms: C5_9  and  C6_10 
REMARK    4  A    between atoms: N4_12  and  O2_14 
REMARK    5  A    between atoms: C7_16  and  N5_17 
REMARK    6  A    between atoms: N5_17  and  C8_19 
REMARK    7  A    between atoms: N9_25  and  O3_26 
REMARK    8  A    between atoms: N10_30  and  N11_31 
ROOT
HETATM    1  C4  UNL     1      10.081 -13.452 -20.388  1.00  0.00     0.706 A 
HETATM    2  N2  UNL     1      10.332 -12.278 -19.834  1.00  0.00    -0.184 N 
ATOM      3  H2  UNL     1      11.303 -11.971 -19.782  1.00  0.00     0.184 HD
HETATM    4  C5  UNL     1       9.370 -11.452 -19.327  1.00  0.00     0.125 A 
HETATM    5  C7  UNL     1       8.061 -11.870 -19.398  1.00  0.00     0.150 A 
HETATM    6  C10 UNL     1       7.826 -13.104 -19.983  1.00  0.00     0.312 A 
HETATM    7  O4  UNL     1       6.611 -13.495 -20.051  1.00  0.00    -0.263 OA
HETATM    8  N10 UNL     1       8.797 -13.891 -20.472  1.00  0.00    -0.043 N 
ENDROOT
BRANCH   5   9
HETATM    9  N5  UNL     1       6.994 -11.109 -18.889  1.00  0.00    -0.181 N 
ATOM     10  H5  UNL     1       6.815 -10.188 -19.289  1.00  0.00     0.184 HD
BRANCH   9  11
HETATM   11  C8  UNL     1       6.145 -11.576 -17.829  1.00  0.00     0.719 C 
HETATM   12  N6  UNL     1       5.213 -12.439 -18.033  1.00  0.00    -0.208 N 
HETATM   13  C9  UNL     1       4.416 -12.838 -16.893  1.00  0.00     0.271 C 
ATOM     14  H6  UNL     1       5.041 -12.825 -18.962  1.00  0.00     0.179 HD
HETATM   15  N7  UNL     1       5.308 -13.036 -15.779  1.00  0.00    -0.103 NA
HETATM   16  N8  UNL     1       6.019 -11.911 -15.436  1.00  0.00     0.015 NA
HETATM   17  N9  UNL     1       6.322 -11.082 -16.512  1.00  0.00     0.028 N 
BRANCH  17  18
HETATM   18  O3  UNL     1       6.786  -9.803 -16.302  1.00  0.00    -0.256 OA
ATOM     19  H3  UNL     1       6.412  -9.260 -15.618  1.00  0.00     0.247 HD
ENDBRANCH  17  18
ENDBRANCH   9  11
ENDBRANCH   5   9
BRANCH   4  20
HETATM   20  C6  UNL     1       9.779 -10.189 -18.758  1.00  0.00     0.165 C 
HETATM   21  N3  UNL     1       9.324  -9.786 -17.487  1.00  0.00    -0.078 NA
HETATM   22  N4  UNL     1      10.558  -9.414 -19.415  1.00  0.00    -0.253 N 
ATOM     23  H4  UNL     1      10.817  -8.535 -18.967  1.00  0.00     0.195 HD
BRANCH  22  24
HETATM   24  O2  UNL     1      11.077  -9.649 -20.653  1.00  0.00    -0.288 OA
ATOM     25  H2  UNL     1      11.990  -9.808 -20.861  1.00  0.00     0.244 HD
ENDBRANCH  22  24
ENDBRANCH   4  20
BRANCH   8  26
HETATM   26  N11 UNL     1       8.571 -15.117 -21.055  1.00  0.00    -0.252 N 
HETATM   27  C11 UNL     1       8.295 -15.326 -22.285  1.00  0.00     0.216 C 
HETATM   28  N12 UNL     1       8.172 -14.314 -23.268  1.00  0.00    -0.065 NA
HETATM   29  N13 UNL     1       8.095 -16.672 -22.698  1.00  0.00    -0.065 NA
ATOM     30  H11 UNL     1       8.630 -15.935 -20.449  1.00  0.00     0.190 HD
ENDBRANCH   8  26
BRANCH   1  31
HETATM   31  N1  UNL     1      11.162 -14.231 -20.884  1.00  0.00    -0.208 N 
HETATM   32  C3  UNL     1      11.655 -14.155 -22.242  1.00  0.00     0.179 C 
HETATM   33  C2  UNL     1      12.172 -15.558 -22.477  1.00  0.00     0.185 C 
HETATM   34  C13 UNL     1      12.761 -15.898 -21.163  1.00  0.00     0.029 C 
HETATM   35  C12 UNL     1      11.935 -15.208 -20.144  1.00  0.00     0.196 C 
HETATM   36  N14 UNL     1      13.771 -16.634 -20.972  1.00  0.00    -0.402 N 
ATOM     37 2H14 UNL     1      14.339 -17.110 -21.673  1.00  0.00     0.155 HD
ATOM     38 1H14 UNL     1      14.177 -16.868 -20.066  1.00  0.00     0.155 HD
BRANCH  33  39
HETATM   39  O1  UNL     1      13.121 -15.542 -23.497  1.00  0.00    -0.383 OA
HETATM   40  C1  UNL     1      12.673 -16.402 -24.497  1.00  0.00     0.202 C 
ENDBRANCH  33  39
ENDBRANCH   1  31
TORSDOF 8
ENDMDL
MODEL 3
REMARK VINA RESULT: -6.909403583      1.609      2.178
REMARK  8 active torsions:
REMARK  status: ('A' for Active; 'I' for Inactive)
REMARK    1  A    between atoms: O1_2  and  C2_3 
REMARK    2  A    between atoms: N1_5  and  C4_6 
REMARK    3  A    between atoms: C5_9  and  C6_10 
REMARK    4  A    between atoms: N4_12  and  O2_14 
REMARK    5  A    between atoms: C7_16  and  N5_17 
REMARK    6  A    between atoms: N5_17  and  C8_19 
REMARK    7  A    between atoms: N9_25  and  O3_26 
REMARK    8  A    between atoms: N10_30  and  N11_31 
ROOT
HETATM    1  C4  UNL     1       7.645 -10.952 -18.349  1.00  0.00     0.706 A 
HETATM    2  N2  UNL     1       8.926 -11.088 -18.648  1.00  0.00    -0.184 N 
ATOM      3  H2  UNL     1       9.586 -10.426 -18.239  1.00  0.00     0.184 HD
HETATM    4  C5  UNL     1       9.420 -12.059 -19.471  1.00  0.00     0.125 A 
HETATM    5  C7  UNL     1       8.527 -12.950 -20.022  1.00  0.00     0.150 A 
HETATM    6  C10 UNL     1       7.191 -12.785 -19.692  1.00  0.00     0.312 A 
HETATM    7  O4  UNL     1       6.359 -13.611 -20.202  1.00  0.00    -0.263 OA
HETATM    8  N10 UNL     1       6.740 -11.818 -18.879  1.00  0.00    -0.043 N 
ENDROOT
BRANCH   5   9
HETATM    9  N5  UNL     1       8.922 -13.976 -20.899  1.00  0.00    -0.181 N 
ATOM     10  H5  UNL     1       9.061 -13.750 -21.884  1.00  0.00     0.184 HD
BRANCH   9  11
HETATM   11  C8  UNL     1       9.138 -15.326 -20.464  1.00  0.00     0.719 C 
HETATM   12  N6  UNL     1      10.298 -15.748 -20.102  1.00  0.00    -0.208 N 
HETATM   13  C9  UNL     1      10.402 -17.130 -19.683  1.00  0.00     0.271 C 
ATOM     14  H6  UNL     1      11.112 -15.134 -20.111  1.00  0.00     0.179 HD
HETATM   15  N7  UNL     1       9.268 -17.423 -18.844  1.00  0.00    -0.103 NA
HETATM   16  N8  UNL     1       8.058 -17.252 -19.473  1.00  0.00     0.015 NA
HETATM   17  N9  UNL     1       8.054 -16.240 -20.428  1.00  0.00     0.028 N 
BRANCH  17  18
HETATM   18  O3  UNL     1       7.014 -16.125 -21.323  1.00  0.00    -0.256 OA
ATOM     19  H3  UNL     1       6.170 -16.519 -21.135  1.00  0.00     0.247 HD
ENDBRANCH  17  18
ENDBRANCH   9  11
ENDBRANCH   5   9
BRANCH   4  20
HETATM   20  C6  UNL     1      10.844 -12.103 -19.706  1.00  0.00     0.165 C 
HETATM   21  N3  UNL     1      11.599 -13.246 -19.376  1.00  0.00    -0.078 NA
HETATM   22  N4  UNL     1      11.439 -11.090 -20.215  1.00  0.00    -0.253 N 
ATOM     23  H4  UNL     1      12.445 -11.172 -20.361  1.00  0.00     0.195 HD
BRANCH  22  24
HETATM   24  O2  UNL     1      10.860  -9.911 -20.580  1.00  0.00    -0.288 OA
ATOM     25  H2  UNL     1      10.599  -9.207 -19.998  1.00  0.00     0.244 HD
ENDBRANCH  22  24
ENDBRANCH   4  20
BRANCH   8  26
HETATM   26  N11 UNL     1       5.415 -11.648 -18.547  1.00  0.00    -0.252 N 
HETATM   27  C11 UNL     1       4.818 -12.169 -17.545  1.00  0.00     0.216 C 
HETATM   28  N12 UNL     1       5.431 -13.022 -16.594  1.00  0.00    -0.065 NA
HETATM   29  N13 UNL     1       3.438 -11.873 -17.370  1.00  0.00    -0.065 NA
ATOM     30  H11 UNL     1       4.858 -11.051 -19.158  1.00  0.00     0.190 HD
ENDBRANCH   8  26
BRANCH   1  31
HETATM   31  N1  UNL     1       7.242  -9.902 -17.480  1.00  0.00    -0.208 N 
HETATM   32  C3  UNL     1       7.196 -10.021 -16.039  1.00  0.00     0.179 C 
HETATM   33  C2  UNL     1       6.076  -9.069 -15.673  1.00  0.00     0.185 C 
HETATM   34  C13 UNL     1       6.285  -7.960 -16.629  1.00  0.00     0.029 C 
HETATM   35  C12 UNL     1       6.821  -8.572 -17.868  1.00  0.00     0.196 C 
HETATM   36  N14 UNL     1       6.047  -6.738 -16.410  1.00  0.00    -0.402 N 
ATOM     37 2H14 UNL     1       5.678  -6.317 -15.557  1.00  0.00     0.155 HD
ATOM     38 1H14 UNL     1       6.191  -5.973 -17.069  1.00  0.00     0.155 HD
BRANCH  33  39
HETATM   39  O1  UNL     1       6.222  -8.664 -14.348  1.00  0.00    -0.383 OA
HETATM   40  C1  UNL     1       4.965  -8.727 -13.752  1.00  0.00     0.202 C 
ENDBRANCH  33  39
ENDBRANCH   1  31
TORSDOF 8
ENDMDL
MODEL 4
REMARK VINA RESULT: -6.807614014      2.382      7.541
REMARK  8 active torsions:
REMARK  status: ('A' for Active; 'I' for Inactive)
REMARK    1  A    between atoms: O1_2  and  C2_3 
REMARK    2  A    between atoms: N1_5  and  C4_6 
REMARK    3  A    between atoms: C5_9  and  C6_10 
REMARK    4  A    between atoms: N4_12  and  O2_14 
REMARK    5  A    between atoms: C7_16  and  N5_17 
REMARK    6  A    between atoms: N5_17  and  C8_19 
REMARK    7  A    between atoms: N9_25  and  O3_26 
REMARK    8  A    between atoms: N10_30  and  N11_31 
ROOT
HETATM    1  C4  UNL     1       9.821 -13.644 -20.575  1.00  0.00     0.706 A 
HETATM    2  N2  UNL     1      10.152 -12.498 -20.005  1.00  0.00    -0.184 N 
ATOM      3  H2  UNL     1      11.137 -12.237 -19.991  1.00  0.00     0.184 HD
HETATM    4  C5  UNL     1       9.253 -11.641 -19.436  1.00  0.00     0.125 A 
HETATM    5  C7  UNL     1       7.924 -11.996 -19.457  1.00  0.00     0.150 A 
HETATM    6  C10 UNL     1       7.606 -13.203 -20.059  1.00  0.00     0.312 A 
HETATM    7  O4  UNL     1       6.371 -13.536 -20.081  1.00  0.00    -0.263 OA
HETATM    8  N10 UNL     1       8.515 -14.021 -20.610  1.00  0.00    -0.043 N 
ENDROOT
BRANCH   5   9
HETATM    9  N5  UNL     1       6.917 -11.201 -18.882  1.00  0.00    -0.181 N 
ATOM     10  H5  UNL     1       6.762 -10.263 -19.255  1.00  0.00     0.184 HD
BRANCH   9  11
HETATM   11  C8  UNL     1       6.099 -11.653 -17.793  1.00  0.00     0.719 C 
HETATM   12  N6  UNL     1       5.144 -12.498 -17.964  1.00  0.00    -0.208 N 
HETATM   13  C9  UNL     1       4.381 -12.885 -16.796  1.00  0.00     0.271 C 
ATOM     14  H6  UNL     1       4.933 -12.881 -18.886  1.00  0.00     0.179 HD
HETATM   15  N7  UNL     1       5.309 -13.099 -15.714  1.00  0.00    -0.103 NA
HETATM   16  N8  UNL     1       6.052 -11.987 -15.397  1.00  0.00     0.015 NA
HETATM   17  N9  UNL     1       6.331 -11.163 -16.483  1.00  0.00     0.028 N 
BRANCH  17  18
HETATM   18  O3  UNL     1       6.825  -9.893 -16.290  1.00  0.00    -0.256 OA
ATOM     19  H3  UNL     1       7.034  -9.584 -15.415  1.00  0.00     0.247 HD
ENDBRANCH  17  18
ENDBRANCH   9  11
ENDBRANCH   5   9
BRANCH   4  20
HETATM   20  C6  UNL     1       9.746 -10.413 -18.857  1.00  0.00     0.165 C 
HETATM   21  N3  UNL     1       9.308  -9.983 -17.589  1.00  0.00    -0.078 NA
HETATM   22  N4  UNL     1      10.586  -9.694 -19.501  1.00  0.00    -0.253 N 
ATOM     23  H4  UNL     1      10.903  -8.837 -19.047  1.00  0.00     0.195 HD
BRANCH  22  24
HETATM   24  O2  UNL     1      11.100  -9.962 -20.735  1.00  0.00    -0.288 OA
ATOM     25  H2  UNL     1      11.927  -9.648 -21.082  1.00  0.00     0.244 HD
ENDBRANCH  22  24
ENDBRANCH   4  20
BRANCH   8  26
HETATM   26  N11 UNL     1       8.206 -15.220 -21.211  1.00  0.00    -0.252 N 
HETATM   27  C11 UNL     1       7.976 -15.401 -22.454  1.00  0.00     0.216 C 
HETATM   28  N12 UNL     1       7.999 -14.381 -23.437  1.00  0.00    -0.065 NA
HETATM   29  N13 UNL     1       7.672 -16.723 -22.885  1.00  0.00    -0.065 NA
ATOM     30  H11 UNL     1       8.157 -16.041 -20.607  1.00  0.00     0.190 HD
ENDBRANCH   8  26
BRANCH   1  31
HETATM   31  N1  UNL     1      10.841 -14.459 -21.138  1.00  0.00    -0.208 N 
HETATM   32  C3  UNL     1      11.398 -15.622 -20.482  1.00  0.00     0.179 C 
HETATM   33  C2  UNL     1      12.813 -15.650 -21.021  1.00  0.00     0.185 C 
HETATM   34  C13 UNL     1      12.620 -15.228 -22.426  1.00  0.00     0.029 C 
HETATM   35  C12 UNL     1      11.483 -14.276 -22.423  1.00  0.00     0.196 C 
HETATM   36  N14 UNL     1      13.302 -15.616 -23.417  1.00  0.00    -0.402 N 
ATOM     37 2H14 UNL     1      14.084 -16.271 -23.418  1.00  0.00     0.155 HD
ATOM     38 1H14 UNL     1      13.168 -15.326 -24.385  1.00  0.00     0.155 HD
BRANCH  33  39
HETATM   39  O1  UNL     1      13.326 -16.940 -20.919  1.00  0.00    -0.383 OA
HETATM   40  C1  UNL     1      12.249 -17.805 -20.745  1.00  0.00     0.202 C 
ENDBRANCH  33  39
ENDBRANCH   1  31
TORSDOF 8
ENDMDL
MODEL 5
REMARK VINA RESULT: -6.575781437      4.294      7.890
REMARK  8 active torsions:
REMARK  status: ('A' for Active; 'I' for Inactive)
REMARK    1  A    between atoms: O1_2  and  C2_3 
REMARK    2  A    between atoms: N1_5  and  C4_6 
REMARK    3  A    between atoms: C5_9  and  C6_10 
REMARK    4  A    between atoms: N4_12  and  O2_14 
REMARK    5  A    between atoms: C7_16  and  N5_17 
REMARK    6  A    between atoms: N5_17  and  C8_19 
REMARK    7  A    between atoms: N9_25  and  O3_26 
REMARK    8  A    between atoms: N10_30  and  N11_31 
ROOT
HETATM    1  C4  UNL     1       8.829 -16.900 -21.310  1.00  0.00     0.706 A 
HETATM    2  N2  UNL     1      10.069 -17.025 -20.868  1.00  0.00    -0.184 N 
ATOM      3  H2  UNL     1      10.362 -17.935 -20.513  1.00  0.00     0.184 HD
HETATM    4  C5  UNL     1      10.982 -16.009 -20.858  1.00  0.00     0.125 A 
HETATM    5  C7  UNL     1      10.583 -14.782 -21.337  1.00  0.00     0.150 A 
HETATM    6  C10 UNL     1       9.279 -14.679 -21.793  1.00  0.00     0.312 A 
HETATM    7  O4  UNL     1       8.905 -13.540 -22.239  1.00  0.00    -0.263 OA
HETATM    8  N10 UNL     1       8.407 -15.700 -21.788  1.00  0.00    -0.043 N 
ENDROOT
BRANCH   5   9
HETATM    9  N5  UNL     1      11.433 -13.662 -21.354  1.00  0.00    -0.181 N 
ATOM     10  H5  UNL     1      12.197 -13.638 -22.030  1.00  0.00     0.184 HD
BRANCH   9  11
HETATM   11  C8  UNL     1      11.269 -12.551 -20.460  1.00  0.00     0.719 C 
HETATM   12  N6  UNL     1      10.828 -11.412 -20.863  1.00  0.00    -0.208 N 
HETATM   13  C9  UNL     1      10.704 -10.360 -19.876  1.00  0.00     0.271 C 
ATOM     14  H6  UNL     1      10.576 -11.256 -21.839  1.00  0.00     0.179 HD
HETATM   15  N7  UNL     1      10.137 -10.938 -18.685  1.00  0.00    -0.103 NA
HETATM   16  N8  UNL     1      10.899 -11.948 -18.146  1.00  0.00     0.015 NA
HETATM   17  N9  UNL     1      11.602 -12.691 -19.089  1.00  0.00     0.028 N 
BRANCH  17  18
HETATM   18  O3  UNL     1      12.605 -13.550 -18.698  1.00  0.00    -0.256 OA
ATOM     19  H3  UNL     1      12.438 -14.220 -18.045  1.00  0.00     0.247 HD
ENDBRANCH  17  18
ENDBRANCH   9  11
ENDBRANCH   5   9
BRANCH   4  20
HETATM   20  C6  UNL     1      12.309 -16.281 -20.358  1.00  0.00     0.165 C 
HETATM   21  N3  UNL     1      13.414 -16.345 -21.230  1.00  0.00    -0.078 NA
HETATM   22  N4  UNL     1      12.492 -16.479 -19.107  1.00  0.00    -0.253 N 
ATOM     23  H4  UNL     1      13.448 -16.667 -18.805  1.00  0.00     0.195 HD
BRANCH  22  24
HETATM   24  O2  UNL     1      11.535 -16.462 -18.137  1.00  0.00    -0.288 OA
ATOM     25  H2  UNL     1      11.604 -16.053 -17.282  1.00  0.00     0.244 HD
ENDBRANCH  22  24
ENDBRANCH   4  20
BRANCH   8  26
HETATM   26  N11 UNL     1       7.111 -15.605 -22.240  1.00  0.00    -0.252 N 
HETATM   27  C11 UNL     1       6.106 -15.199 -21.563  1.00  0.00     0.216 C 
HETATM   28  N12 UNL     1       6.161 -14.773 -20.214  1.00  0.00    -0.065 NA
HETATM   29  N13 UNL     1       4.840 -15.173 -22.211  1.00  0.00    -0.065 NA
ATOM     30  H11 UNL     1       6.935 -15.885 -23.205  1.00  0.00     0.190 HD
ENDBRANCH   8  26
BRANCH   1  31
HETATM   31  N1  UNL     1       7.962 -18.027 -21.273  1.00  0.00    -0.208 N 
HETATM   32  C3  UNL     1       7.793 -18.950 -22.373  1.00  0.00     0.179 C 
HETATM   33  C2  UNL     1       6.364 -19.415 -22.187  1.00  0.00     0.185 C 
HETATM   34  C13 UNL     1       6.254 -19.504 -20.714  1.00  0.00     0.029 C 
HETATM   35  C12 UNL     1       7.123 -18.436 -20.166  1.00  0.00     0.196 C 
HETATM   36  N14 UNL     1       5.552 -20.337 -20.072  1.00  0.00    -0.402 N 
ATOM     37 2H14 UNL     1       4.954 -21.072 -20.450  1.00  0.00     0.155 HD
ATOM     38 1H14 UNL     1       5.477 -20.398 -19.057  1.00  0.00     0.155 HD
BRANCH  33  39
HETATM   39  O1  UNL     1       6.189 -20.649 -22.809  1.00  0.00    -0.383 OA
HETATM   40  C1  UNL     1       7.455 -21.153 -23.098  1.00  0.00     0.202 C 
ENDBRANCH  33  39
ENDBRANCH   1  31
TORSDOF 8
ENDMDL
