MODEL 1
REMARK VINA RESULT: -4.668449403      0.000      0.000
REMARK  4 active torsions:
REMARK  status: ('A' for Active; 'I' for Inactive)
REMARK    1  A    between atoms: N1_1  and  C1_4 
REMARK    2  A    between atoms: C3_8  and  N3_9 
REMARK    3  A    between atoms: N3_9  and  N4_11 
REMARK    4  A    between atoms: N4_11  and  N5_12 
ROOT
HETATM    1  C1  UNL     1     -28.757  12.961  13.882  1.00  0.00     0.692 A 
HETATM    2  N2  UNL     1     -28.591  11.852  14.655  1.00  0.00    -0.170 N 
ATOM      3  H2  UNL     1     -27.750  11.610  15.179  1.00  0.00     0.186 HD
HETATM    4  C2  UNL     1     -29.730  11.127  14.607  1.00  0.00     0.188 A 
HETATM    5  C3  UNL     1     -30.058   9.911  15.222  1.00  0.00     0.165 A 
HETATM    6  N6  UNL     1     -31.297   9.424  14.974  1.00  0.00    -0.347 N 
ATOM      7  H6  UNL     1     -31.569   8.540  15.405  1.00  0.00     0.167 HD
HETATM    8  C4  UNL     1     -32.182  10.055  14.186  1.00  0.00     0.109 A 
HETATM    9  C5  UNL     1     -31.784  11.251  13.614  1.00  0.00     0.136 A 
HETATM   10  N7  UNL     1     -30.567  11.800  13.814  1.00  0.00    -0.232 N 
HETATM   11  N8  UNL     1     -29.984  12.921  13.367  1.00  0.00    -0.124 N 
ATOM     12  H8  UNL     1     -30.403  13.614  12.747  1.00  0.00     0.206 HD
ENDROOT
BRANCH   5  13
HETATM   13  N3  UNL     1     -29.121   9.265  16.056  1.00  0.00    -0.267 N 
ATOM     14  H3  UNL     1     -29.443   8.946  16.970  1.00  0.00     0.186 HD
BRANCH  13  15
HETATM   15  N4  UNL     1     -27.802   9.033  15.728  1.00  0.00    -0.028 NA
BRANCH  15  16
HETATM   16  N5  UNL     1     -27.625   7.628  15.593  1.00  0.00    -0.329 N 
ATOM     17  H52 UNL     1     -28.313   6.983  15.205  1.00  0.00     0.174 HD
ATOM     18  H51 UNL     1     -26.699   7.393  15.950  1.00  0.00     0.174 HD
ENDBRANCH  15  16
ENDBRANCH  13  15
ENDBRANCH   5  13
BRANCH   1  19
HETATM   19  N1  UNL     1     -27.860  13.872  13.693  1.00  0.00    -0.233 N 
ATOM     20  H12 UNL     1     -27.411  14.452  14.401  1.00  0.00     0.174 HD
ATOM     21  H11 UNL     1     -27.482  14.139  12.784  1.00  0.00     0.174 HD
ENDBRANCH   1  19
TORSDOF 4
ENDMDL
MODEL 2
REMARK VINA RESULT: -4.549584465      2.148      4.016
REMARK  4 active torsions:
REMARK  status: ('A' for Active; 'I' for Inactive)
REMARK    1  A    between atoms: N1_1  and  C1_4 
REMARK    2  A    between atoms: C3_8  and  N3_9 
REMARK    3  A    between atoms: N3_9  and  N4_11 
REMARK    4  A    between atoms: N4_11  and  N5_12 
ROOT
HETATM    1  C1  UNL     1     -29.790   9.824  15.956  1.00  0.00     0.692 A 
HETATM    2  N2  UNL     1     -28.894   9.026  15.311  1.00  0.00    -0.170 N 
ATOM      3  H2  UNL     1     -28.925   8.008  15.268  1.00  0.00     0.186 HD
HETATM    4  C2  UNL     1     -27.958   9.815  14.739  1.00  0.00     0.188 A 
HETATM    5  C3  UNL     1     -26.831   9.479  13.977  1.00  0.00     0.165 A 
HETATM    6  N6  UNL     1     -26.068  10.509  13.540  1.00  0.00    -0.347 N 
ATOM      7  H6  UNL     1     -25.239  10.301  12.983  1.00  0.00     0.167 HD
HETATM    8  C4  UNL     1     -26.356  11.792  13.811  1.00  0.00     0.109 A 
HETATM    9  C5  UNL     1     -27.485  12.044  14.571  1.00  0.00     0.136 A 
HETATM   10  N7  UNL     1     -28.295  11.071  15.040  1.00  0.00    -0.232 N 
HETATM   11  N8  UNL     1     -29.411  11.089  15.781  1.00  0.00    -0.124 N 
ATOM     12  H8  UNL     1     -29.883  11.917  16.143  1.00  0.00     0.206 HD
ENDROOT
BRANCH   5  13
HETATM   13  N3  UNL     1     -26.548   8.126  13.692  1.00  0.00    -0.267 N 
ATOM     14  H3  UNL     1     -25.976   7.925  12.872  1.00  0.00     0.186 HD
BRANCH  13  15
HETATM   15  N4  UNL     1     -26.987   7.054  14.441  1.00  0.00    -0.028 NA
BRANCH  15  16
HETATM   16  N5  UNL     1     -26.436   5.871  13.876  1.00  0.00    -0.329 N 
ATOM     17  H52 UNL     1     -26.005   5.804  12.954  1.00  0.00     0.174 HD
ATOM     18  H51 UNL     1     -26.551   5.117  14.554  1.00  0.00     0.174 HD
ENDBRANCH  15  16
ENDBRANCH  13  15
ENDBRANCH   5  13
BRANCH   1  19
HETATM   19  N1  UNL     1     -30.814   9.400  16.620  1.00  0.00    -0.233 N 
ATOM     20  H12 UNL     1     -30.816   8.731  17.390  1.00  0.00     0.174 HD
ATOM     21  H11 UNL     1     -31.779   9.684  16.450  1.00  0.00     0.174 HD
ENDBRANCH   1  19
TORSDOF 4
ENDMDL
MODEL 3
REMARK VINA RESULT: -4.429447449      6.127      7.977
REMARK  4 active torsions:
REMARK  status: ('A' for Active; 'I' for Inactive)
REMARK    1  A    between atoms: N1_1  and  C1_4 
REMARK    2  A    between atoms: C3_8  and  N3_9 
REMARK    3  A    between atoms: N3_9  and  N4_11 
REMARK    4  A    between atoms: N4_11  and  N5_12 
ROOT
HETATM    1  C1  UNL     1     -22.091  12.469  17.045  1.00  0.00     0.692 A 
HETATM    2  N2  UNL     1     -22.802  12.244  15.905  1.00  0.00    -0.170 N 
ATOM      3  H2  UNL     1     -23.156  11.340  15.592  1.00  0.00     0.186 HD
HETATM    4  C2  UNL     1     -22.956  13.421  15.261  1.00  0.00     0.188 A 
HETATM    5  C3  UNL     1     -23.603  13.717  14.053  1.00  0.00     0.165 A 
HETATM    6  N6  UNL     1     -23.583  15.012  13.658  1.00  0.00    -0.347 N 
ATOM      7  H6  UNL     1     -24.043  15.263  12.783  1.00  0.00     0.167 HD
HETATM    8  C4  UNL     1     -22.982  15.980  14.370  1.00  0.00     0.109 A 
HETATM    9  C5  UNL     1     -22.365  15.609  15.553  1.00  0.00     0.136 A 
HETATM   10  N7  UNL     1     -22.343  14.340  16.012  1.00  0.00    -0.232 N 
HETATM   11  N8  UNL     1     -21.813  13.770  17.103  1.00  0.00    -0.124 N 
ATOM     12  H8  UNL     1     -21.293  14.246  17.840  1.00  0.00     0.206 HD
ENDROOT
BRANCH   5  13
HETATM   13  N3  UNL     1     -24.237  12.691  13.321  1.00  0.00    -0.267 N 
ATOM     14  H3  UNL     1     -24.127  12.695  12.307  1.00  0.00     0.186 HD
BRANCH  13  15
HETATM   15  N4  UNL     1     -24.997  11.681  13.875  1.00  0.00    -0.028 NA
BRANCH  15  16
HETATM   16  N5  UNL     1     -24.719  10.483  13.162  1.00  0.00    -0.329 N 
ATOM     17  H52 UNL     1     -23.787  10.130  12.946  1.00  0.00     0.174 HD
ATOM     18  H51 UNL     1     -25.610  10.052  12.914  1.00  0.00     0.174 HD
ENDBRANCH  15  16
ENDBRANCH  13  15
ENDBRANCH   5  13
BRANCH   1  19
HETATM   19  N1  UNL     1     -21.752  11.560  17.898  1.00  0.00    -0.233 N 
ATOM     20  H12 UNL     1     -22.103  10.603  17.952  1.00  0.00     0.174 HD
ATOM     21  H11 UNL     1     -21.077  11.688  18.651  1.00  0.00     0.174 HD
ENDBRANCH   1  19
TORSDOF 4
ENDMDL
MODEL 4
REMARK VINA RESULT: -4.363538124      5.116      6.861
REMARK  4 active torsions:
REMARK  status: ('A' for Active; 'I' for Inactive)
REMARK    1  A    between atoms: N1_1  and  C1_4 
REMARK    2  A    between atoms: C3_8  and  N3_9 
REMARK    3  A    between atoms: N3_9  and  N4_11 
REMARK    4  A    between atoms: N4_11  and  N5_12 
ROOT
HETATM    1  C1  UNL     1     -23.054   6.357  11.968  1.00  0.00     0.692 A 
HETATM    2  N2  UNL     1     -24.265   6.251  12.582  1.00  0.00    -0.170 N 
ATOM      3  H2  UNL     1     -24.736   5.380  12.827  1.00  0.00     0.186 HD
HETATM    4  C2  UNL     1     -24.737   7.496  12.809  1.00  0.00     0.188 A 
HETATM    5  C3  UNL     1     -25.933   7.919  13.405  1.00  0.00     0.165 A 
HETATM    6  N6  UNL     1     -26.128   9.257  13.486  1.00  0.00    -0.347 N 
ATOM      7  H6  UNL     1     -26.988   9.600  13.913  1.00  0.00     0.167 HD
HETATM    8  C4  UNL     1     -25.236  10.150  13.028  1.00  0.00     0.109 A 
HETATM    9  C5  UNL     1     -24.078   9.655  12.452  1.00  0.00     0.136 A 
HETATM   10  N7  UNL     1     -23.813   8.337  12.336  1.00  0.00    -0.232 N 
HETATM   11  N8  UNL     1     -22.782   7.653  11.822  1.00  0.00    -0.124 N 
ATOM     12  H8  UNL     1     -21.945   8.051  11.397  1.00  0.00     0.206 HD
ENDROOT
BRANCH   5  13
HETATM   13  N3  UNL     1     -26.856   6.968  13.891  1.00  0.00    -0.267 N 
ATOM     14  H3  UNL     1     -27.312   6.362  13.209  1.00  0.00     0.186 HD
BRANCH  13  15
HETATM   15  N4  UNL     1     -27.187   6.798  15.219  1.00  0.00    -0.028 NA
BRANCH  15  16
HETATM   16  N5  UNL     1     -27.874   7.965  15.651  1.00  0.00    -0.329 N 
ATOM     17  H52 UNL     1     -27.603   8.549  16.443  1.00  0.00     0.174 HD
ATOM     18  H51 UNL     1     -28.674   8.105  15.033  1.00  0.00     0.174 HD
ENDBRANCH  15  16
ENDBRANCH  13  15
ENDBRANCH   5  13
BRANCH   1  19
HETATM   19  N1  UNL     1     -22.323   5.359  11.596  1.00  0.00    -0.233 N 
ATOM     20  H12 UNL     1     -21.452   5.040  12.020  1.00  0.00     0.174 HD
ATOM     21  H11 UNL     1     -22.527   4.749  10.805  1.00  0.00     0.174 HD
ENDBRANCH   1  19
TORSDOF 4
ENDMDL
MODEL 5
REMARK VINA RESULT: -4.349090389     11.249     11.709
REMARK  4 active torsions:
REMARK  status: ('A' for Active; 'I' for Inactive)
REMARK    1  A    between atoms: N1_1  and  C1_4 
REMARK    2  A    between atoms: C3_8  and  N3_9 
REMARK    3  A    between atoms: N3_9  and  N4_11 
REMARK    4  A    between atoms: N4_11  and  N5_12 
ROOT
HETATM    1  C1  UNL     1     -20.622  15.209   8.106  1.00  0.00     0.692 A 
HETATM    2  N2  UNL     1     -20.556  13.912   7.693  1.00  0.00    -0.170 N 
ATOM      3  H2  UNL     1     -19.808  13.254   7.910  1.00  0.00     0.186 HD
HETATM    4  C2  UNL     1     -21.650  13.649   6.945  1.00  0.00     0.188 A 
HETATM    5  C3  UNL     1     -22.041  12.471   6.293  1.00  0.00     0.165 A 
HETATM    6  N6  UNL     1     -23.207  12.520   5.606  1.00  0.00    -0.347 N 
ATOM      7  H6  UNL     1     -23.523  11.682   5.119  1.00  0.00     0.167 HD
HETATM    8  C4  UNL     1     -23.965  13.627   5.539  1.00  0.00     0.109 A 
HETATM    9  C5  UNL     1     -23.511  14.750   6.209  1.00  0.00     0.136 A 
HETATM   10  N7  UNL     1     -22.361  14.778   6.914  1.00  0.00    -0.232 N 
HETATM   11  N8  UNL     1     -21.744  15.736   7.620  1.00  0.00    -0.124 N 
ATOM     12  H8  UNL     1     -22.073  16.691   7.759  1.00  0.00     0.206 HD
ENDROOT
BRANCH   5  13
HETATM   13  N3  UNL     1     -21.239  11.314   6.382  1.00  0.00    -0.267 N 
ATOM     14  H3  UNL     1     -21.694  10.412   6.237  1.00  0.00     0.186 HD
BRANCH  13  15
HETATM   15  N4  UNL     1     -19.886  11.311   6.649  1.00  0.00    -0.028 NA
BRANCH  15  16
HETATM   16  N5  UNL     1     -19.204  11.688   5.461  1.00  0.00    -0.329 N 
ATOM     17  H52 UNL     1     -19.174  11.141   4.600  1.00  0.00     0.174 HD
ATOM     18  H51 UNL     1     -18.760  12.591   5.627  1.00  0.00     0.174 HD
ENDBRANCH  15  16
ENDBRANCH  13  15
ENDBRANCH   5  13
BRANCH   1  19
HETATM   19  N1  UNL     1     -19.732  15.799   8.833  1.00  0.00    -0.233 N 
ATOM     20  H12 UNL     1     -18.922  15.374   9.284  1.00  0.00     0.174 HD
ATOM     21  H11 UNL     1     -19.730  16.793   9.061  1.00  0.00     0.174 HD
ENDBRANCH   1  19
TORSDOF 4
ENDMDL
