MODEL 1
REMARK VINA RESULT: -5.236733101      0.000      0.000
REMARK  3 active torsions:
REMARK  status: ('A' for Active; 'I' for Inactive)
REMARK       I    between atoms: N1_1  and  C1_5 
REMARK       I    between atoms: C1_5  and  N2_6 
REMARK       I    between atoms: C1_5  and  N3_10 
REMARK    1  A    between atoms: N3_10  and  N4_12 
REMARK    2  A    between atoms: C2_14  and  C3_15 
REMARK    3  A    between atoms: N6_20  and  N7_21 
ROOT
HETATM    1  N4  UNL     1     -25.370   8.059  12.579  1.00  0.00    -0.311 N 
ATOM      2  H4  UNL     1     -25.834   7.227  12.946  1.00  0.00     0.185 HD
HETATM    3  C2  UNL     1     -25.772   9.174  13.034  1.00  0.00     0.139 C 
ENDROOT
BRANCH   1   4
HETATM    4  N3  UNL     1     -24.383   7.845  11.652  1.00  0.00    -0.284 N 
HETATM    5  C1  UNL     1     -23.048   7.509  12.110  1.00  0.00     0.494 C 
HETATM    6  N1  UNL     1     -23.154   6.278  12.871  1.00  0.00    -0.032 N 
HETATM    7  N2  UNL     1     -22.158   7.288  10.990  1.00  0.00    -0.032 N 
ATOM      8  H13 UNL     1     -23.440   5.487  12.295  1.00  0.00     0.279 HD
ATOM      9  H12 UNL     1     -22.244   5.919  13.161  1.00  0.00     0.279 HD
ATOM     10  H11 UNL     1     -23.780   6.435  13.661  1.00  0.00     0.279 HD
ATOM     11  H23 UNL     1     -21.249   6.928  11.279  1.00  0.00     0.279 HD
ATOM     12  H22 UNL     1     -22.445   6.496  10.414  1.00  0.00     0.279 HD
ATOM     13  H21 UNL     1     -22.084   8.153  10.455  1.00  0.00     0.279 HD
ATOM     14  H3  UNL     1     -24.584   7.921  10.655  1.00  0.00     0.184 HD
ENDBRANCH   1   4
BRANCH   3  15
HETATM   15  C3  UNL     1     -26.844   9.155  14.024  1.00  0.00     0.089 A 
HETATM   16  C4  UNL     1     -27.223   8.083  14.823  1.00  0.00     0.122 A 
HETATM   17  N5  UNL     1     -28.247   8.486  15.591  1.00  0.00    -0.358 N 
HETATM   18  C5  UNL     1     -28.544   9.771  15.325  1.00  0.00     0.206 A 
ATOM     19  H5  UNL     1     -28.729   7.905  16.277  1.00  0.00     0.166 HD
HETATM   20  N6  UNL     1     -27.681  10.162  14.370  1.00  0.00    -0.256 N 
BRANCH  20  21
HETATM   21  N7  UNL     1     -27.606  11.427  13.770  1.00  0.00    -0.337 N 
ATOM     22  H72 UNL     1     -26.768  11.996  13.643  1.00  0.00     0.177 HD
ATOM     23  H71 UNL     1     -28.430  11.896  13.397  1.00  0.00     0.177 HD
ENDBRANCH  20  21
ENDBRANCH   3  15
TORSDOF 3
ENDMDL
MODEL 2
REMARK VINA RESULT: -4.783744803      1.127      1.828
REMARK  3 active torsions:
REMARK  status: ('A' for Active; 'I' for Inactive)
REMARK       I    between atoms: N1_1  and  C1_5 
REMARK       I    between atoms: C1_5  and  N2_6 
REMARK       I    between atoms: C1_5  and  N3_10 
REMARK    1  A    between atoms: N3_10  and  N4_12 
REMARK    2  A    between atoms: C2_14  and  C3_15 
REMARK    3  A    between atoms: N6_20  and  N7_21 
ROOT
HETATM    1  N4  UNL     1     -25.893   8.824  12.388  1.00  0.00    -0.311 N 
ATOM      2  H4  UNL     1     -26.781   8.485  12.015  1.00  0.00     0.185 HD
HETATM    3  C2  UNL     1     -25.961   9.560  13.420  1.00  0.00     0.139 C 
ENDROOT
BRANCH   1   4
HETATM    4  N3  UNL     1     -24.764   8.432  11.717  1.00  0.00    -0.284 N 
HETATM    5  C1  UNL     1     -23.775   7.630  12.412  1.00  0.00     0.494 C 
HETATM    6  N1  UNL     1     -24.435   6.407  12.830  1.00  0.00    -0.032 N 
HETATM    7  N2  UNL     1     -22.677   7.288  11.533  1.00  0.00    -0.032 N 
ATOM      8  H13 UNL     1     -24.730   5.833  12.040  1.00  0.00     0.279 HD
ATOM      9  H12 UNL     1     -23.789   5.740  13.253  1.00  0.00     0.279 HD
ATOM     10  H11 UNL     1     -25.209   6.647  13.450  1.00  0.00     0.279 HD
ATOM     11  H23 UNL     1     -22.031   6.621  11.956  1.00  0.00     0.279 HD
ATOM     12  H22 UNL     1     -22.972   6.715  10.743  1.00  0.00     0.279 HD
ATOM     13  H21 UNL     1     -22.213   8.148  11.239  1.00  0.00     0.279 HD
ATOM     14  H3  UNL     1     -24.621   8.702  10.744  1.00  0.00     0.184 HD
ENDBRANCH   1   4
BRANCH   3  15
HETATM   15  C3  UNL     1     -27.285   9.844  13.965  1.00  0.00     0.089 A 
HETATM   16  C4  UNL     1     -28.099  10.927  13.655  1.00  0.00     0.122 A 
HETATM   17  N5  UNL     1     -29.227  10.810  14.373  1.00  0.00    -0.358 N 
HETATM   18  C5  UNL     1     -29.177   9.700  15.131  1.00  0.00     0.206 A 
ATOM     19  H5  UNL     1     -30.008  11.466  14.347  1.00  0.00     0.166 HD
HETATM   20  N6  UNL     1     -27.989   9.124  14.871  1.00  0.00    -0.256 N 
BRANCH  20  21
HETATM   21  N7  UNL     1     -27.487   7.940  15.427  1.00  0.00    -0.337 N 
ATOM     22  H72 UNL     1     -27.484   7.680  16.414  1.00  0.00     0.177 HD
ATOM     23  H71 UNL     1     -27.066   7.210  14.853  1.00  0.00     0.177 HD
ENDBRANCH  20  21
ENDBRANCH   3  15
TORSDOF 3
ENDMDL
MODEL 3
REMARK VINA RESULT: -4.661004382      1.271      2.099
REMARK  3 active torsions:
REMARK  status: ('A' for Active; 'I' for Inactive)
REMARK       I    between atoms: N1_1  and  C1_5 
REMARK       I    between atoms: C1_5  and  N2_6 
REMARK       I    between atoms: C1_5  and  N3_10 
REMARK    1  A    between atoms: N3_10  and  N4_12 
REMARK    2  A    between atoms: C2_14  and  C3_15 
REMARK    3  A    between atoms: N6_20  and  N7_21 
ROOT
HETATM    1  N4  UNL     1     -24.593   7.416  12.625  1.00  0.00    -0.311 N 
ATOM      2  H4  UNL     1     -24.351   8.366  12.340  1.00  0.00     0.185 HD
HETATM    3  C2  UNL     1     -25.643   7.291  13.328  1.00  0.00     0.139 C 
ENDROOT
BRANCH   1   4
HETATM    4  N3  UNL     1     -23.749   6.421  12.206  1.00  0.00    -0.284 N 
HETATM    5  C1  UNL     1     -22.334   6.710  12.070  1.00  0.00     0.494 C 
HETATM    6  N1  UNL     1     -21.853   7.118  13.378  1.00  0.00    -0.032 N 
HETATM    7  N2  UNL     1     -21.603   5.532  11.653  1.00  0.00    -0.032 N 
ATOM      8  H13 UNL     1     -21.902   6.365  14.064  1.00  0.00     0.279 HD
ATOM      9  H12 UNL     1     -20.843   7.258  13.396  1.00  0.00     0.279 HD
ATOM     10  H11 UNL     1     -22.367   7.948  13.671  1.00  0.00     0.279 HD
ATOM     11  H23 UNL     1     -20.593   5.672  11.672  1.00  0.00     0.279 HD
ATOM     12  H22 UNL     1     -21.653   4.779  12.339  1.00  0.00     0.279 HD
ATOM     13  H21 UNL     1     -21.941   5.245  10.734  1.00  0.00     0.279 HD
ATOM     14  H3  UNL     1     -24.110   5.491  11.993  1.00  0.00     0.184 HD
ENDBRANCH   1   4
BRANCH   3  15
HETATM   15  C3  UNL     1     -26.390   8.503  13.653  1.00  0.00     0.089 A 
HETATM   16  C4  UNL     1     -26.292   9.737  13.022  1.00  0.00     0.122 A 
HETATM   17  N5  UNL     1     -27.148  10.575  13.626  1.00  0.00    -0.358 N 
HETATM   18  C5  UNL     1     -27.794   9.936  14.619  1.00  0.00     0.206 A 
ATOM     19  H5  UNL     1     -27.289  11.553  13.371  1.00  0.00     0.166 HD
HETATM   20  N6  UNL     1     -27.321   8.677  14.621  1.00  0.00    -0.256 N 
BRANCH  20  21
HETATM   21  N7  UNL     1     -27.699   7.637  15.482  1.00  0.00    -0.337 N 
ATOM     22  H72 UNL     1     -27.968   6.690  15.217  1.00  0.00     0.177 HD
ATOM     23  H71 UNL     1     -27.733   7.761  16.493  1.00  0.00     0.177 HD
ENDBRANCH  20  21
ENDBRANCH   3  15
TORSDOF 3
ENDMDL
MODEL 4
REMARK VINA RESULT: -4.603823523      1.453      5.784
REMARK  3 active torsions:
REMARK  status: ('A' for Active; 'I' for Inactive)
REMARK       I    between atoms: N1_1  and  C1_5 
REMARK       I    between atoms: C1_5  and  N2_6 
REMARK       I    between atoms: C1_5  and  N3_10 
REMARK    1  A    between atoms: N3_10  and  N4_12 
REMARK    2  A    between atoms: C2_14  and  C3_15 
REMARK    3  A    between atoms: N6_20  and  N7_21 
ROOT
HETATM    1  N4  UNL     1     -24.863   8.824  12.769  1.00  0.00    -0.311 N 
ATOM      2  H4  UNL     1     -25.447   8.029  12.508  1.00  0.00     0.185 HD
HETATM    3  C2  UNL     1     -23.612   8.682  12.602  1.00  0.00     0.139 C 
ENDROOT
BRANCH   1   4
HETATM    4  N3  UNL     1     -25.517   9.924  13.259  1.00  0.00    -0.284 N 
HETATM    5  C1  UNL     1     -26.946   9.845  13.495  1.00  0.00     0.494 C 
HETATM    6  N1  UNL     1     -27.162   8.787  14.465  1.00  0.00    -0.032 N 
HETATM    7  N2  UNL     1     -27.449  11.087  14.043  1.00  0.00    -0.032 N 
ATOM      8  H13 UNL     1     -26.757   9.005  15.375  1.00  0.00     0.279 HD
ATOM      9  H12 UNL     1     -28.136   8.719  14.758  1.00  0.00     0.279 HD
ATOM     10  H11 UNL     1     -26.808   7.912  14.079  1.00  0.00     0.279 HD
ATOM     11  H23 UNL     1     -28.423  11.018  14.336  1.00  0.00     0.279 HD
ATOM     12  H22 UNL     1     -27.044  11.305  14.953  1.00  0.00     0.279 HD
ATOM     13  H21 UNL     1     -27.297  11.831  13.361  1.00  0.00     0.279 HD
ATOM     14  H3  UNL     1     -25.007  10.785  13.455  1.00  0.00     0.184 HD
ENDBRANCH   1   4
BRANCH   3  15
HETATM   15  C3  UNL     1     -23.140   7.411  12.060  1.00  0.00     0.089 A 
HETATM   16  C4  UNL     1     -23.547   6.807  10.877  1.00  0.00     0.122 A 
HETATM   17  N5  UNL     1     -22.870   5.655  10.751  1.00  0.00    -0.358 N 
HETATM   18  C5  UNL     1     -22.044   5.490  11.800  1.00  0.00     0.206 A 
ATOM     19  H5  UNL     1     -22.966   5.001   9.974  1.00  0.00     0.166 HD
HETATM   20  N6  UNL     1     -22.221   6.567  12.586  1.00  0.00    -0.256 N 
BRANCH  20  21
HETATM   21  N7  UNL     1     -21.573   6.840  13.799  1.00  0.00    -0.337 N 
ATOM     22  H72 UNL     1     -21.102   7.705  14.061  1.00  0.00     0.177 HD
ATOM     23  H71 UNL     1     -21.524   6.152  14.550  1.00  0.00     0.177 HD
ENDBRANCH  20  21
ENDBRANCH   3  15
TORSDOF 3
ENDMDL
MODEL 5
REMARK VINA RESULT: -4.601269010      1.896      2.578
REMARK  3 active torsions:
REMARK  status: ('A' for Active; 'I' for Inactive)
REMARK       I    between atoms: N1_1  and  C1_5 
REMARK       I    between atoms: C1_5  and  N2_6 
REMARK       I    between atoms: C1_5  and  N3_10 
REMARK    1  A    between atoms: N3_10  and  N4_12 
REMARK    2  A    between atoms: C2_14  and  C3_15 
REMARK    3  A    between atoms: N6_20  and  N7_21 
ROOT
HETATM    1  N4  UNL     1     -24.148   7.963  12.607  1.00  0.00    -0.311 N 
ATOM      2  H4  UNL     1     -23.373   8.509  12.984  1.00  0.00     0.185 HD
HETATM    3  C2  UNL     1     -25.283   8.533  12.594  1.00  0.00     0.139 C 
ENDROOT
BRANCH   1   4
HETATM    4  N3  UNL     1     -23.847   6.698  12.173  1.00  0.00    -0.284 N 
HETATM    5  C1  UNL     1     -22.460   6.275  12.146  1.00  0.00     0.494 C 
HETATM    6  N1  UNL     1     -21.961   6.360  13.507  1.00  0.00    -0.032 N 
HETATM    7  N2  UNL     1     -22.345   4.905  11.694  1.00  0.00    -0.032 N 
ATOM      8  H13 UNL     1     -22.424   5.702  14.133  1.00  0.00     0.279 HD
ATOM      9  H12 UNL     1     -21.012   5.997  13.598  1.00  0.00     0.279 HD
ATOM     10  H11 UNL     1     -22.041   7.325  13.825  1.00  0.00     0.279 HD
ATOM     11  H23 UNL     1     -21.397   4.542  11.786  1.00  0.00     0.279 HD
ATOM     12  H22 UNL     1     -22.808   4.247  12.321  1.00  0.00     0.279 HD
ATOM     13  H21 UNL     1     -22.696   4.846  10.738  1.00  0.00     0.279 HD
ATOM     14  H3  UNL     1     -24.587   6.064  11.873  1.00  0.00     0.184 HD
ENDBRANCH   1   4
BRANCH   3  15
HETATM   15  C3  UNL     1     -25.364   9.895  13.112  1.00  0.00     0.089 A 
HETATM   16  C4  UNL     1     -24.337  10.830  13.162  1.00  0.00     0.122 A 
HETATM   17  N5  UNL     1     -24.831  11.952  13.708  1.00  0.00    -0.358 N 
HETATM   18  C5  UNL     1     -26.131  11.782  14.013  1.00  0.00     0.206 A 
ATOM     19  H5  UNL     1     -24.300  12.808  13.869  1.00  0.00     0.166 HD
HETATM   20  N6  UNL     1     -26.438  10.526  13.643  1.00  0.00    -0.256 N 
BRANCH  20  21
HETATM   21  N7  UNL     1     -27.683   9.894  13.764  1.00  0.00    -0.337 N 
ATOM     22  H72 UNL     1     -27.960   9.001  13.354  1.00  0.00     0.177 HD
ATOM     23  H71 UNL     1     -28.446  10.305  14.301  1.00  0.00     0.177 HD
ENDBRANCH  20  21
ENDBRANCH   3  15
TORSDOF 3
ENDMDL
