MODEL 1
REMARK VINA RESULT: -4.369832667      0.000      0.000
REMARK  5 active torsions:
REMARK  status: ('A' for Active; 'I' for Inactive)
REMARK    1  A    between atoms: N1_1  and  C1_4 
REMARK    2  A    between atoms: C2_9  and  S1_10 
REMARK    3  A    between atoms: S1_10  and  C3_11 
REMARK    4  A    between atoms: C3_11  and  N4_12 
REMARK    5  A    between atoms: C3_11  and  N5_16 
ROOT
HETATM    1  C1  UNL     1     -25.610   9.103  13.036  1.00  0.00     0.692 A 
HETATM    2  N2  UNL     1     -25.888   7.797  13.165  1.00  0.00    -0.130 N 
ATOM      3  H2  UNL     1     -26.738   7.409  13.574  1.00  0.00     0.205 HD
HETATM    4  N3  UNL     1     -24.884   7.097  12.675  1.00  0.00    -0.265 N 
ATOM      5  H3  UNL     1     -24.833   6.079  12.646  1.00  0.00     0.189 HD
HETATM    6  C2  UNL     1     -23.938   7.936  12.221  1.00  0.00     0.178 A 
HETATM    7  N6  UNL     1     -24.405   9.174  12.452  1.00  0.00    -0.168 N 
ATOM      8  H6  UNL     1     -23.916  10.038  12.218  1.00  0.00     0.186 HD
ENDROOT
BRANCH   6   9
HETATM    9  S1  UNL     1     -22.374   7.542  11.460  1.00  0.00    -0.031 SA
BRANCH   9  10
HETATM   10  C3  UNL     1     -21.723   6.045  12.211  1.00  0.00     0.447 C 
BRANCH  10  11
HETATM   11  N4  UNL     1     -22.391   4.856  11.726  1.00  0.00    -0.041 N 
ATOM     12  H43 UNL     1     -23.395   4.898  11.902  1.00  0.00     0.277 HD
ATOM     13  H42 UNL     1     -22.407   4.832  10.706  1.00  0.00     0.277 HD
ATOM     14  H41 UNL     1     -21.984   4.003  12.109  1.00  0.00     0.277 HD
ENDBRANCH  10  11
BRANCH  10  15
HETATM   15  N5  UNL     1     -21.814   6.147  13.669  1.00  0.00    -0.041 N 
ATOM     16  H53 UNL     1     -22.455   6.885  13.964  1.00  0.00     0.277 HD
ATOM     17  H52 UNL     1     -22.304   5.353  14.081  1.00  0.00     0.277 HD
ATOM     18  H51 UNL     1     -20.881   6.270  14.062  1.00  0.00     0.277 HD
ENDBRANCH  10  15
ENDBRANCH   9  10
ENDBRANCH   6   9
BRANCH   1  19
HETATM   19  N1  UNL     1     -26.365  10.103  13.405  1.00  0.00    -0.233 N 
ATOM     20  H12 UNL     1     -27.087  10.565  12.851  1.00  0.00     0.174 HD
ATOM     21  H11 UNL     1     -26.351  10.579  14.308  1.00  0.00     0.174 HD
ENDBRANCH   1  19
TORSDOF 5
ENDMDL
MODEL 2
REMARK VINA RESULT: -4.028489869      1.026      1.920
REMARK  5 active torsions:
REMARK  status: ('A' for Active; 'I' for Inactive)
REMARK    1  A    between atoms: N1_1  and  C1_4 
REMARK    2  A    between atoms: C2_9  and  S1_10 
REMARK    3  A    between atoms: S1_10  and  C3_11 
REMARK    4  A    between atoms: C3_11  and  N4_12 
REMARK    5  A    between atoms: C3_11  and  N5_16 
ROOT
HETATM    1  C1  UNL     1     -26.377   9.192  13.673  1.00  0.00     0.692 A 
HETATM    2  N2  UNL     1     -25.577  10.220  13.360  1.00  0.00    -0.130 N 
ATOM      3  H2  UNL     1     -25.712  11.188  13.654  1.00  0.00     0.205 HD
HETATM    4  N3  UNL     1     -24.587   9.778  12.611  1.00  0.00    -0.265 N 
ATOM      5  H3  UNL     1     -23.832  10.350  12.231  1.00  0.00     0.189 HD
HETATM    6  C2  UNL     1     -24.727   8.455  12.425  1.00  0.00     0.178 A 
HETATM    7  N6  UNL     1     -25.842   8.109  13.090  1.00  0.00    -0.168 N 
ATOM      8  H6  UNL     1     -26.223   7.164  13.144  1.00  0.00     0.186 HD
ENDROOT
BRANCH   6   9
HETATM    9  S1  UNL     1     -23.684   7.344  11.499  1.00  0.00    -0.031 SA
BRANCH   9  10
HETATM   10  C3  UNL     1     -22.695   6.381  12.649  1.00  0.00     0.447 C 
BRANCH  10  11
HETATM   11  N4  UNL     1     -21.619   7.157  13.227  1.00  0.00    -0.041 N 
ATOM     12  H43 UNL     1     -21.759   8.155  13.072  1.00  0.00     0.277 HD
ATOM     13  H42 UNL     1     -21.660   7.144  14.246  1.00  0.00     0.277 HD
ATOM     14  H41 UNL     1     -20.704   6.856  12.891  1.00  0.00     0.277 HD
ENDBRANCH  10  11
BRANCH  10  15
HETATM   15  N5  UNL     1     -22.184   5.185  11.974  1.00  0.00    -0.041 N 
ATOM     16  H53 UNL     1     -22.154   5.298  10.961  1.00  0.00     0.277 HD
ATOM     17  H52 UNL     1     -21.187   5.048  12.137  1.00  0.00     0.277 HD
ATOM     18  H51 UNL     1     -22.735   4.373  12.254  1.00  0.00     0.277 HD
ENDBRANCH  10  15
ENDBRANCH   9  10
ENDBRANCH   6   9
BRANCH   1  19
HETATM   19  N1  UNL     1     -27.461   9.237  14.401  1.00  0.00    -0.233 N 
ATOM     20  H12 UNL     1     -28.055  10.049  14.568  1.00  0.00     0.174 HD
ATOM     21  H11 UNL     1     -27.883   8.465  14.917  1.00  0.00     0.174 HD
ENDBRANCH   1  19
TORSDOF 5
ENDMDL
MODEL 3
REMARK VINA RESULT: -3.859187416      2.679      5.114
REMARK  5 active torsions:
REMARK  status: ('A' for Active; 'I' for Inactive)
REMARK    1  A    between atoms: N1_1  and  C1_4 
REMARK    2  A    between atoms: C2_9  and  S1_10 
REMARK    3  A    between atoms: S1_10  and  C3_11 
REMARK    4  A    between atoms: C3_11  and  N4_12 
REMARK    5  A    between atoms: C3_11  and  N5_16 
ROOT
HETATM    1  C1  UNL     1     -24.492   7.667  12.569  1.00  0.00     0.692 A 
HETATM    2  N2  UNL     1     -23.879   8.859  12.540  1.00  0.00    -0.130 N 
ATOM      3  H2  UNL     1     -22.907   9.019  12.273  1.00  0.00     0.205 HD
HETATM    4  N3  UNL     1     -24.735   9.789  12.912  1.00  0.00    -0.265 N 
ATOM      5  H3  UNL     1     -24.532  10.786  12.979  1.00  0.00     0.189 HD
HETATM    6  C2  UNL     1     -25.919   9.217  13.188  1.00  0.00     0.178 A 
HETATM    7  N6  UNL     1     -25.750   7.902  12.970  1.00  0.00    -0.168 N 
ATOM      8  H6  UNL     1     -26.471   7.190  13.091  1.00  0.00     0.186 HD
ENDROOT
BRANCH   6   9
HETATM    9  S1  UNL     1     -27.430   9.993  13.733  1.00  0.00    -0.031 SA
BRANCH   9  10
HETATM   10  C3  UNL     1     -27.969   9.211  15.258  1.00  0.00     0.447 C 
BRANCH  10  11
HETATM   11  N4  UNL     1     -27.590   7.815  15.319  1.00  0.00    -0.041 N 
ATOM     12  H43 UNL     1     -26.575   7.708  15.339  1.00  0.00     0.277 HD
ATOM     13  H42 UNL     1     -27.813   7.411  16.229  1.00  0.00     0.277 HD
ATOM     14  H41 UNL     1     -28.003   7.271  14.562  1.00  0.00     0.277 HD
ENDBRANCH  10  11
BRANCH  10  15
HETATM   15  N5  UNL     1     -29.417   9.374  15.408  1.00  0.00    -0.041 N 
ATOM     16  H53 UNL     1     -29.708  10.345  15.293  1.00  0.00     0.277 HD
ATOM     17  H52 UNL     1     -29.932   8.973  14.625  1.00  0.00     0.277 HD
ATOM     18  H51 UNL     1     -29.713   8.987  16.304  1.00  0.00     0.277 HD
ENDBRANCH  10  15
ENDBRANCH   9  10
ENDBRANCH   6   9
BRANCH   1  19
HETATM   19  N1  UNL     1     -23.968   6.509  12.266  1.00  0.00    -0.233 N 
ATOM     20  H12 UNL     1     -23.069   6.141  12.579  1.00  0.00     0.174 HD
ATOM     21  H11 UNL     1     -24.377   5.791  11.668  1.00  0.00     0.174 HD
ENDBRANCH   1  19
TORSDOF 5
ENDMDL
MODEL 4
REMARK VINA RESULT: -3.839145800      8.356      9.268
REMARK  5 active torsions:
REMARK  status: ('A' for Active; 'I' for Inactive)
REMARK    1  A    between atoms: N1_1  and  C1_4 
REMARK    2  A    between atoms: C2_9  and  S1_10 
REMARK    3  A    between atoms: S1_10  and  C3_11 
REMARK    4  A    between atoms: C3_11  and  N4_12 
REMARK    5  A    between atoms: C3_11  and  N5_16 
ROOT
HETATM    1  C1  UNL     1     -21.920  11.738   5.788  1.00  0.00     0.692 A 
HETATM    2  N2  UNL     1     -23.205  12.114   5.840  1.00  0.00    -0.130 N 
ATOM      3  H2  UNL     1     -24.006  11.518   5.627  1.00  0.00     0.205 HD
HETATM    4  N3  UNL     1     -23.266  13.377   6.211  1.00  0.00    -0.265 N 
ATOM      5  H3  UNL     1     -24.123  13.916   6.331  1.00  0.00     0.189 HD
HETATM    6  C2  UNL     1     -22.021  13.842   6.406  1.00  0.00     0.178 A 
HETATM    7  N6  UNL     1     -21.200  12.814   6.140  1.00  0.00    -0.168 N 
ATOM      8  H6  UNL     1     -20.182  12.846   6.197  1.00  0.00     0.186 HD
ENDROOT
BRANCH   6   9
HETATM    9  S1  UNL     1     -21.510  15.474   6.913  1.00  0.00    -0.031 SA
BRANCH   9  10
HETATM   10  C3  UNL     1     -20.981  15.412   8.629  1.00  0.00     0.447 C 
BRANCH  10  11
HETATM   11  N4  UNL     1     -19.540  15.461   8.757  1.00  0.00    -0.041 N 
ATOM     12  H43 UNL     1     -19.092  15.593   7.850  1.00  0.00     0.277 HD
ATOM     13  H42 UNL     1     -19.239  16.322   9.213  1.00  0.00     0.277 HD
ATOM     14  H41 UNL     1     -19.169  14.640   9.236  1.00  0.00     0.277 HD
ENDBRANCH  10  11
BRANCH  10  15
HETATM   15  N5  UNL     1     -21.531  14.214   9.268  1.00  0.00    -0.041 N 
ATOM     16  H53 UNL     1     -21.339  14.190  10.270  1.00  0.00     0.277 HD
ATOM     17  H52 UNL     1     -22.550  14.236   9.314  1.00  0.00     0.277 HD
ATOM     18  H51 UNL     1     -21.184  13.382   8.790  1.00  0.00     0.277 HD
ENDBRANCH  10  15
ENDBRANCH   9  10
ENDBRANCH   6   9
BRANCH   1  19
HETATM   19  N1  UNL     1     -21.462  10.559   5.461  1.00  0.00    -0.233 N 
ATOM     20  H12 UNL     1     -21.056   9.862   6.086  1.00  0.00     0.174 HD
ATOM     21  H11 UNL     1     -21.440  10.148   4.527  1.00  0.00     0.174 HD
ENDBRANCH   1  19
TORSDOF 5
ENDMDL
MODEL 5
REMARK VINA RESULT: -3.825834446      1.656      2.583
REMARK  5 active torsions:
REMARK  status: ('A' for Active; 'I' for Inactive)
REMARK    1  A    between atoms: N1_1  and  C1_4 
REMARK    2  A    between atoms: C2_9  and  S1_10 
REMARK    3  A    between atoms: S1_10  and  C3_11 
REMARK    4  A    between atoms: C3_11  and  N4_12 
REMARK    5  A    between atoms: C3_11  and  N5_16 
ROOT
HETATM    1  C1  UNL     1     -27.215   8.679  14.533  1.00  0.00     0.692 A 
HETATM    2  N2  UNL     1     -27.033   9.938  14.108  1.00  0.00    -0.130 N 
ATOM      3  H2  UNL     1     -27.519  10.760  14.466  1.00  0.00     0.205 HD
HETATM    4  N3  UNL     1     -26.124   9.939  13.153  1.00  0.00    -0.265 N 
ATOM      5  H3  UNL     1     -25.795  10.765  12.653  1.00  0.00     0.189 HD
HETATM    6  C2  UNL     1     -25.700   8.682  12.943  1.00  0.00     0.178 A 
HETATM    7  N6  UNL     1     -26.386   7.915  13.806  1.00  0.00    -0.168 N 
ATOM      8  H6  UNL     1     -26.290   6.903  13.896  1.00  0.00     0.186 HD
ENDROOT
BRANCH   6   9
HETATM    9  S1  UNL     1     -24.485   8.099  11.775  1.00  0.00    -0.031 SA
BRANCH   9  10
HETATM   10  C3  UNL     1     -23.391   6.940  12.604  1.00  0.00     0.447 C 
BRANCH  10  11
HETATM   11  N4  UNL     1     -22.135   7.551  12.986  1.00  0.00    -0.041 N 
ATOM     12  H43 UNL     1     -21.588   7.813  12.166  1.00  0.00     0.277 HD
ATOM     13  H42 UNL     1     -22.283   8.478  13.385  1.00  0.00     0.277 HD
ATOM     14  H41 UNL     1     -21.595   6.959  13.616  1.00  0.00     0.277 HD
ENDBRANCH  10  11
BRANCH  10  15
HETATM   15  N5  UNL     1     -23.174   5.772  11.747  1.00  0.00    -0.041 N 
ATOM     16  H53 UNL     1     -22.783   4.983  12.263  1.00  0.00     0.277 HD
ATOM     17  H52 UNL     1     -24.051   5.339  11.458  1.00  0.00     0.277 HD
ATOM     18  H51 UNL     1     -22.593   6.036  10.951  1.00  0.00     0.277 HD
ENDBRANCH  10  15
ENDBRANCH   9  10
ENDBRANCH   6   9
BRANCH   1  19
HETATM   19  N1  UNL     1     -28.034   8.280  15.469  1.00  0.00    -0.233 N 
ATOM     20  H12 UNL     1     -28.046   8.581  16.444  1.00  0.00     0.174 HD
ATOM     21  H11 UNL     1     -28.792   7.604  15.371  1.00  0.00     0.174 HD
ENDBRANCH   1  19
TORSDOF 5
ENDMDL
