MODEL 1
REMARK VINA RESULT: -5.002865113      0.000      0.000
REMARK  6 active torsions:
REMARK  status: ('A' for Active; 'I' for Inactive)
REMARK    1  A    between atoms: N1_1  and  C1_4 
REMARK    2  A    between atoms: C2_10  and  N4_11 
REMARK    3  A    between atoms: N4_11  and  N5_13 
REMARK    4  A    between atoms: C3_15  and  C4_16 
REMARK    5  A    between atoms: C4_16  and  C5_17 
REMARK    6  A    between atoms: C5_17  and  N6_18 
ROOT
HETATM    1  N4  UNL     1     -25.117   8.974  12.318  1.00  0.00    -0.282 N 
ATOM      2  H4  UNL     1     -24.916   9.961  12.159  1.00  0.00     0.188 HD
ENDROOT
BRANCH   1   3
HETATM    3  C2  UNL     1     -25.986   8.576  13.213  1.00  0.00     0.188 A 
HETATM    4  C1  UNL     1     -26.838   9.411  13.901  1.00  0.00     0.169 A 
HETATM    5  N2  UNL     1     -27.559   8.624  14.716  1.00  0.00    -0.222 N 
HETATM    6  O1  UNL     1     -27.170   7.418  14.532  1.00  0.00    -0.153 OA
ATOM      7  H2  UNL     1     -28.285   8.930  15.364  1.00  0.00     0.198 HD
HETATM    8  N3  UNL     1     -26.238   7.334  13.651  1.00  0.00    -0.221 N 
ATOM      9  H3  UNL     1     -25.775   6.479  13.341  1.00  0.00     0.198 HD
BRANCH   4  10
HETATM   10  N1  UNL     1     -26.949  10.699  13.805  1.00  0.00    -0.381 N 
ATOM     11  H12 UNL     1     -27.651  11.306  14.230  1.00  0.00     0.157 HD
ATOM     12  H11 UNL     1     -26.329  11.310  13.273  1.00  0.00     0.157 HD
ENDBRANCH   4  10
ENDBRANCH   1   3
BRANCH   1  13
HETATM   13  N5  UNL     1     -24.480   7.964  11.592  1.00  0.00    -0.314 N 
HETATM   14  C3  UNL     1     -23.270   7.682  11.883  1.00  0.00     0.081 C 
ATOM     15  H5  UNL     1     -24.969   7.465  10.849  1.00  0.00     0.185 HD
BRANCH  14  16
HETATM   16  C4  UNL     1     -22.577   6.612  11.122  1.00  0.00     0.073 C 
BRANCH  16  17
HETATM   17  C5  UNL     1     -21.717   5.766  12.057  1.00  0.00     0.235 C 
BRANCH  17  18
HETATM   18  N6  UNL     1     -21.936   6.158  13.433  1.00  0.00    -0.079 N 
ATOM     19  H63 UNL     1     -21.838   7.165  13.560  1.00  0.00     0.274 HD
ATOM     20  H62 UNL     1     -22.915   6.067  13.703  1.00  0.00     0.274 HD
ATOM     21  H61 UNL     1     -21.319   5.634  14.053  1.00  0.00     0.274 HD
ENDBRANCH  17  18
ENDBRANCH  16  17
ENDBRANCH  14  16
ENDBRANCH   1  13
TORSDOF 6
ENDMDL
MODEL 2
REMARK VINA RESULT: -4.824659681      2.135      5.227
REMARK  6 active torsions:
REMARK  status: ('A' for Active; 'I' for Inactive)
REMARK    1  A    between atoms: N1_1  and  C1_4 
REMARK    2  A    between atoms: C2_10  and  N4_11 
REMARK    3  A    between atoms: N4_11  and  N5_13 
REMARK    4  A    between atoms: C3_15  and  C4_16 
REMARK    5  A    between atoms: C4_16  and  C5_17 
REMARK    6  A    between atoms: C5_17  and  N6_18 
ROOT
HETATM    1  N4  UNL     1     -23.799   8.591  12.460  1.00  0.00    -0.282 N 
ATOM      2  H4  UNL     1     -23.195   9.412  12.504  1.00  0.00     0.188 HD
ENDROOT
BRANCH   1   3
HETATM    3  C2  UNL     1     -23.364   7.432  12.032  1.00  0.00     0.188 A 
HETATM    4  C1  UNL     1     -22.369   6.697  12.636  1.00  0.00     0.169 A 
HETATM    5  N2  UNL     1     -22.220   5.585  11.898  1.00  0.00    -0.222 N 
HETATM    6  O1  UNL     1     -23.057   5.650  10.931  1.00  0.00    -0.153 OA
ATOM      7  H2  UNL     1     -21.561   4.827  12.075  1.00  0.00     0.198 HD
HETATM    8  N3  UNL     1     -23.760   6.725  10.963  1.00  0.00    -0.221 N 
ATOM      9  H3  UNL     1     -24.487   6.992  10.298  1.00  0.00     0.198 HD
BRANCH   4  10
HETATM   10  N1  UNL     1     -21.692   6.989  13.704  1.00  0.00    -0.381 N 
ATOM     11  H12 UNL     1     -21.036   7.758  13.844  1.00  0.00     0.157 HD
ATOM     12  H11 UNL     1     -21.721   6.475  14.584  1.00  0.00     0.157 HD
ENDBRANCH   4  10
ENDBRANCH   1   3
BRANCH   1  13
HETATM   13  N5  UNL     1     -25.139   8.636  12.854  1.00  0.00    -0.314 N 
HETATM   14  C3  UNL     1     -25.609   9.746  13.270  1.00  0.00     0.081 C 
ATOM     15  H5  UNL     1     -25.724   7.802  12.810  1.00  0.00     0.185 HD
BRANCH  14  16
HETATM   16  C4  UNL     1     -27.031   9.813  13.693  1.00  0.00     0.073 C 
BRANCH  16  17
HETATM   17  C5  UNL     1     -27.349   8.684  14.670  1.00  0.00     0.235 C 
BRANCH  17  18
HETATM   18  N6  UNL     1     -28.569   8.972  15.391  1.00  0.00    -0.079 N 
ATOM     19  H63 UNL     1     -28.633   9.956  15.653  1.00  0.00     0.274 HD
ATOM     20  H62 UNL     1     -29.388   8.924  14.785  1.00  0.00     0.274 HD
ATOM     21  H61 UNL     1     -28.657   8.357  16.200  1.00  0.00     0.274 HD
ENDBRANCH  17  18
ENDBRANCH  16  17
ENDBRANCH  14  16
ENDBRANCH   1  13
TORSDOF 6
ENDMDL
MODEL 3
REMARK VINA RESULT: -4.715961402      2.178      5.331
REMARK  6 active torsions:
REMARK  status: ('A' for Active; 'I' for Inactive)
REMARK    1  A    between atoms: N1_1  and  C1_4 
REMARK    2  A    between atoms: C2_10  and  N4_11 
REMARK    3  A    between atoms: N4_11  and  N5_13 
REMARK    4  A    between atoms: C3_15  and  C4_16 
REMARK    5  A    between atoms: C4_16  and  C5_17 
REMARK    6  A    between atoms: C5_17  and  N6_18 
ROOT
HETATM    1  N4  UNL     1     -24.042   7.470  11.673  1.00  0.00    -0.282 N 
ATOM      2  H4  UNL     1     -24.178   7.488  10.662  1.00  0.00     0.188 HD
ENDROOT
BRANCH   1   3
HETATM    3  C2  UNL     1     -22.891   7.154  12.212  1.00  0.00     0.188 A 
HETATM    4  C1  UNL     1     -22.262   5.938  12.061  1.00  0.00     0.169 A 
HETATM    5  N2  UNL     1     -21.120   6.013  12.764  1.00  0.00    -0.222 N 
HETATM    6  O1  UNL     1     -21.070   7.178  13.293  1.00  0.00    -0.153 OA
ATOM      7  H2  UNL     1     -20.421   5.278  12.859  1.00  0.00     0.198 HD
HETATM    8  N3  UNL     1     -22.096   7.895  12.998  1.00  0.00    -0.221 N 
ATOM      9  H3  UNL     1     -22.273   8.852  13.305  1.00  0.00     0.198 HD
BRANCH   4  10
HETATM   10  N1  UNL     1     -22.663   4.907  11.383  1.00  0.00    -0.381 N 
ATOM     11  H12 UNL     1     -23.590   4.480  11.373  1.00  0.00     0.157 HD
ATOM     12  H11 UNL     1     -22.090   4.359  10.742  1.00  0.00     0.157 HD
ENDBRANCH   4  10
ENDBRANCH   1   3
BRANCH   1  13
HETATM   13  N5  UNL     1     -25.072   7.780  12.564  1.00  0.00    -0.314 N 
HETATM   14  C3  UNL     1     -25.443   8.996  12.657  1.00  0.00     0.081 C 
ATOM     15  H5  UNL     1     -25.515   7.053  13.125  1.00  0.00     0.185 HD
BRANCH  14  16
HETATM   16  C4  UNL     1     -26.537   9.346  13.599  1.00  0.00     0.073 C 
BRANCH  16  17
HETATM   17  C5  UNL     1     -26.935   8.127  14.428  1.00  0.00     0.235 C 
BRANCH  17  18
HETATM   18  N6  UNL     1     -27.958   8.483  15.386  1.00  0.00    -0.079 N 
ATOM     19  H63 UNL     1     -27.681   8.256  16.341  1.00  0.00     0.274 HD
ATOM     20  H62 UNL     1     -28.046   9.494  15.491  1.00  0.00     0.274 HD
ATOM     21  H61 UNL     1     -28.846   8.048  15.134  1.00  0.00     0.274 HD
ENDBRANCH  17  18
ENDBRANCH  16  17
ENDBRANCH  14  16
ENDBRANCH   1  13
TORSDOF 6
ENDMDL
MODEL 4
REMARK VINA RESULT: -4.714546151      1.758      2.181
REMARK  6 active torsions:
REMARK  status: ('A' for Active; 'I' for Inactive)
REMARK    1  A    between atoms: N1_1  and  C1_4 
REMARK    2  A    between atoms: C2_10  and  N4_11 
REMARK    3  A    between atoms: N4_11  and  N5_13 
REMARK    4  A    between atoms: C3_15  and  C4_16 
REMARK    5  A    between atoms: C4_16  and  C5_17 
REMARK    6  A    between atoms: C5_17  and  N6_18 
ROOT
HETATM    1  N4  UNL     1     -25.723   8.628  12.817  1.00  0.00    -0.282 N 
ATOM      2  H4  UNL     1     -26.449   7.982  13.127  1.00  0.00     0.188 HD
ENDROOT
BRANCH   1   3
HETATM    3  C2  UNL     1     -25.665   9.864  13.246  1.00  0.00     0.188 A 
HETATM    4  C1  UNL     1     -26.745  10.585  13.704  1.00  0.00     0.169 A 
HETATM    5  N2  UNL     1     -26.273  11.795  14.045  1.00  0.00    -0.222 N 
HETATM    6  O1  UNL     1     -25.014  11.798  13.810  1.00  0.00    -0.153 OA
ATOM      7  H2  UNL     1     -26.817  12.571  14.423  1.00  0.00     0.198 HD
HETATM    8  N3  UNL     1     -24.602  10.677  13.335  1.00  0.00    -0.221 N 
ATOM      9  H3  UNL     1     -23.643  10.448  13.073  1.00  0.00     0.198 HD
BRANCH   4  10
HETATM   10  N1  UNL     1     -27.981  10.204  13.801  1.00  0.00    -0.381 N 
ATOM     11  H12 UNL     1     -28.661  10.072  13.051  1.00  0.00     0.157 HD
ATOM     12  H11 UNL     1     -28.465   9.974  14.669  1.00  0.00     0.157 HD
ENDBRANCH   4  10
ENDBRANCH   1   3
BRANCH   1  13
HETATM   13  N5  UNL     1     -24.731   8.246  11.910  1.00  0.00    -0.314 N 
HETATM   14  C3  UNL     1     -24.004   7.239  12.199  1.00  0.00     0.081 C 
ATOM     15  H5  UNL     1     -24.592   8.760  11.040  1.00  0.00     0.185 HD
BRANCH  14  16
HETATM   16  C4  UNL     1     -22.944   6.819  11.247  1.00  0.00     0.073 C 
BRANCH  16  17
HETATM   17  C5  UNL     1     -21.928   5.919  11.946  1.00  0.00     0.235 C 
BRANCH  17  18
HETATM   18  N6  UNL     1     -21.962   6.140  13.376  1.00  0.00    -0.079 N 
ATOM     19  H63 UNL     1     -21.037   6.052  13.796  1.00  0.00     0.274 HD
ATOM     20  H62 UNL     1     -22.139   7.117  13.605  1.00  0.00     0.274 HD
ATOM     21  H61 UNL     1     -22.640   5.517  13.815  1.00  0.00     0.274 HD
ENDBRANCH  17  18
ENDBRANCH  16  17
ENDBRANCH  14  16
ENDBRANCH   1  13
TORSDOF 6
ENDMDL
MODEL 5
REMARK VINA RESULT: -4.687111944      1.425      1.777
REMARK  6 active torsions:
REMARK  status: ('A' for Active; 'I' for Inactive)
REMARK    1  A    between atoms: N1_1  and  C1_4 
REMARK    2  A    between atoms: C2_10  and  N4_11 
REMARK    3  A    between atoms: N4_11  and  N5_13 
REMARK    4  A    between atoms: C3_15  and  C4_16 
REMARK    5  A    between atoms: C4_16  and  C5_17 
REMARK    6  A    between atoms: C5_17  and  N6_18 
ROOT
HETATM    1  N4  UNL     1     -26.338   9.558  13.071  1.00  0.00    -0.282 N 
ATOM      2  H4  UNL     1     -26.349  10.300  12.371  1.00  0.00     0.188 HD
ENDROOT
BRANCH   1   3
HETATM    3  C2  UNL     1     -27.125   9.579  14.117  1.00  0.00     0.188 A 
HETATM    4  C1  UNL     1     -27.913  10.647  14.483  1.00  0.00     0.169 A 
HETATM    5  N2  UNL     1     -28.560  10.274  15.599  1.00  0.00    -0.222 N 
HETATM    6  O1  UNL     1     -28.190   9.080  15.878  1.00  0.00    -0.153 OA
ATOM      7  H2  UNL     1     -29.225  10.837  16.128  1.00  0.00     0.198 HD
HETATM    8  N3  UNL     1     -27.339   8.621  15.031  1.00  0.00    -0.221 N 
ATOM      9  H3  UNL     1     -26.905   7.697  15.050  1.00  0.00     0.198 HD
BRANCH   4  10
HETATM   10  N1  UNL     1     -28.031  11.796  13.893  1.00  0.00    -0.381 N 
ATOM     11  H12 UNL     1     -28.175  12.712  14.318  1.00  0.00     0.157 HD
ATOM     12  H11 UNL     1     -27.995  11.951  12.885  1.00  0.00     0.157 HD
ENDBRANCH   4  10
ENDBRANCH   1   3
BRANCH   1  13
HETATM   13  N5  UNL     1     -25.482   8.459  12.969  1.00  0.00    -0.314 N 
HETATM   14  C3  UNL     1     -24.756   8.354  11.927  1.00  0.00     0.081 C 
ATOM     15  H5  UNL     1     -25.439   7.760  13.711  1.00  0.00     0.185 HD
BRANCH  14  16
HETATM   16  C4  UNL     1     -23.839   7.191  11.801  1.00  0.00     0.073 C 
BRANCH  16  17
HETATM   17  C5  UNL     1     -22.561   7.434  12.600  1.00  0.00     0.235 C 
BRANCH  17  18
HETATM   18  N6  UNL     1     -22.176   6.232  13.308  1.00  0.00    -0.079 N 
ATOM     19  H63 UNL     1     -22.772   5.441  13.066  1.00  0.00     0.274 HD
ATOM     20  H62 UNL     1     -21.289   5.860  12.970  1.00  0.00     0.274 HD
ATOM     21  H61 UNL     1     -22.160   6.403  14.314  1.00  0.00     0.274 HD
ENDBRANCH  17  18
ENDBRANCH  16  17
ENDBRANCH  14  16
ENDBRANCH   1  13
TORSDOF 6
ENDMDL
