MODEL 1
REMARK VINA RESULT: -5.240834102      0.000      0.000
REMARK  8 active torsions:
REMARK  status: ('A' for Active; 'I' for Inactive)
REMARK    1  A    between atoms: N1_1  and  C1_5 
REMARK    2  A    between atoms: C1_5  and  C2_6 
REMARK    3  A    between atoms: C2_6  and  C3_7 
REMARK    4  A    between atoms: C3_7  and  C4_8 
REMARK    5  A    between atoms: C4_8  and  C5_9 
REMARK    6  A    between atoms: C5_9  and  N2_10 
REMARK    7  A    between atoms: C5_9  and  C12_31 
REMARK    8  A    between atoms: N2_10  and  C6_12 
ROOT
HETATM    1  C6  UNL     1     -30.354  42.019  24.463  1.00  0.00     0.377 C 
HETATM    2  N3  UNL     1     -31.072  41.012  23.673  1.00  0.00    -0.001 N 
ATOM      3  H31 UNL     1     -32.079  41.169  23.661  1.00  0.00     0.284 HD
ATOM      4  H32 UNL     1     -31.079  40.095  24.122  1.00  0.00     0.284 HD
HETATM    5  C7  UNL     1     -30.509  40.975  22.365  1.00  0.00     0.364 C 
HETATM    6  N4  UNL     1     -29.262  41.714  22.421  1.00  0.00    -0.309 N 
ATOM      7  H4  UNL     1     -28.468  41.617  21.787  1.00  0.00     0.166 HD
HETATM    8  C8  UNL     1     -29.360  42.610  23.543  1.00  0.00     0.270 C 
HETATM    9  O1  UNL     1     -28.673  43.654  23.589  1.00  0.00    -0.269 OA
HETATM   10  C9  UNL     1     -30.234  39.632  21.844  1.00  0.00     0.291 C 
HETATM   11  O2  UNL     1     -29.064  39.148  21.807  1.00  0.00    -0.268 OA
HETATM   12  N5  UNL     1     -31.344  38.869  21.365  1.00  0.00    -0.297 N 
ATOM     13  H5  UNL     1     -31.294  37.851  21.345  1.00  0.00     0.171 HD
HETATM   14  C10 UNL     1     -32.410  39.468  20.959  1.00  0.00     0.197 C 
HETATM   15  N6  UNL     1     -33.485  38.671  20.494  1.00  0.00    -0.063 NA
HETATM   16  N7  UNL     1     -32.556  40.869  20.956  1.00  0.00    -0.297 N 
ATOM     17  H7  UNL     1     -33.416  41.308  20.627  1.00  0.00     0.171 HD
HETATM   18  C11 UNL     1     -31.467  41.650  21.427  1.00  0.00     0.291 C 
HETATM   19  O3  UNL     1     -31.312  42.867  21.068  1.00  0.00    -0.268 OA
ENDROOT
BRANCH   1  20
HETATM   20  N2  UNL     1     -31.283  42.966  24.870  1.00  0.00    -0.376 N 
ATOM     21  H2  UNL     1     -31.638  43.615  24.169  1.00  0.00     0.156 HD
BRANCH  20  22
HETATM   22  C5  UNL     1     -31.764  43.090  26.177  1.00  0.00     0.168 C 
BRANCH  22  23
HETATM   23  C4  UNL     1     -30.862  42.575  27.252  1.00  0.00     0.034 C 
BRANCH  23  24
HETATM   24  C3  UNL     1     -29.745  43.478  27.667  1.00  0.00     0.004 C 
BRANCH  24  25
HETATM   25  C2  UNL     1     -30.179  44.865  28.075  1.00  0.00     0.027 C 
BRANCH  25  26
HETATM   26  C1  UNL     1     -29.442  45.892  27.198  1.00  0.00     0.229 C 
BRANCH  26  27
HETATM   27  N1  UNL     1     -28.714  45.076  26.221  1.00  0.00    -0.079 N 
ATOM     28  H13 UNL     1     -29.228  44.259  25.894  1.00  0.00     0.274 HD
ATOM     29  H12 UNL     1     -28.608  45.515  25.307  1.00  0.00     0.274 HD
ATOM     30  H11 UNL     1     -27.832  44.857  26.684  1.00  0.00     0.274 HD
ENDBRANCH  26  27
ENDBRANCH  25  26
ENDBRANCH  24  25
ENDBRANCH  23  24
ENDBRANCH  22  23
BRANCH  22  31
HETATM   31  C12 UNL     1     -33.085  42.359  26.220  1.00  0.00     0.253 C 
HETATM   32  N8  UNL     1     -33.806  41.948  25.085  1.00  0.00    -0.060 NA
HETATM   33  O4  UNL     1     -33.574  42.097  27.352  1.00  0.00    -0.275 OA
ENDBRANCH  22  31
ENDBRANCH  20  22
ENDBRANCH   1  20
TORSDOF 8
ENDMDL
MODEL 2
REMARK VINA RESULT: -5.219716469      1.957      6.569
REMARK  8 active torsions:
REMARK  status: ('A' for Active; 'I' for Inactive)
REMARK    1  A    between atoms: N1_1  and  C1_5 
REMARK    2  A    between atoms: C1_5  and  C2_6 
REMARK    3  A    between atoms: C2_6  and  C3_7 
REMARK    4  A    between atoms: C3_7  and  C4_8 
REMARK    5  A    between atoms: C4_8  and  C5_9 
REMARK    6  A    between atoms: C5_9  and  N2_10 
REMARK    7  A    between atoms: C5_9  and  C12_31 
REMARK    8  A    between atoms: N2_10  and  C6_12 
ROOT
HETATM    1  C6  UNL     1     -30.716  42.284  23.220  1.00  0.00     0.377 C 
HETATM    2  N3  UNL     1     -30.602  42.064  24.667  1.00  0.00    -0.001 N 
ATOM      3  H31 UNL     1     -29.752  41.562  24.920  1.00  0.00     0.284 HD
ATOM      4  H32 UNL     1     -31.276  41.381  25.013  1.00  0.00     0.284 HD
HETATM    5  C7  UNL     1     -30.710  43.322  25.327  1.00  0.00     0.364 C 
HETATM    6  N4  UNL     1     -31.197  44.274  24.346  1.00  0.00    -0.309 N 
ATOM      7  H4  UNL     1     -31.686  45.148  24.537  1.00  0.00     0.166 HD
HETATM    8  C8  UNL     1     -30.856  43.745  23.051  1.00  0.00     0.270 C 
HETATM    9  O1  UNL     1     -30.735  44.503  22.063  1.00  0.00    -0.269 OA
HETATM   10  C9  UNL     1     -31.611  43.341  26.485  1.00  0.00     0.291 C 
HETATM   11  O2  UNL     1     -32.771  43.846  26.429  1.00  0.00    -0.268 OA
HETATM   12  N5  UNL     1     -31.133  42.766  27.703  1.00  0.00    -0.297 N 
ATOM     13  H5  UNL     1     -31.794  42.418  28.397  1.00  0.00     0.171 HD
HETATM   14  C10 UNL     1     -29.866  42.687  27.924  1.00  0.00     0.197 C 
HETATM   15  N6  UNL     1     -29.440  42.109  29.145  1.00  0.00    -0.063 NA
HETATM   16  N7  UNL     1     -28.893  43.145  27.016  1.00  0.00    -0.297 N 
ATOM     17  H7  UNL     1     -27.898  43.065  27.226  1.00  0.00     0.171 HD
HETATM   18  C11 UNL     1     -29.341  43.720  25.797  1.00  0.00     0.291 C 
HETATM   19  O3  UNL     1     -28.614  44.537  25.136  1.00  0.00    -0.268 OA
ENDROOT
BRANCH   1  20
HETATM   20  N2  UNL     1     -29.544  41.825  22.637  1.00  0.00    -0.376 N 
ATOM     21  H2  UNL     1     -28.677  42.311  22.865  1.00  0.00     0.156 HD
BRANCH  20  22
HETATM   22  C5  UNL     1     -29.471  40.739  21.759  1.00  0.00     0.168 C 
BRANCH  22  23
HETATM   23  C4  UNL     1     -30.044  39.454  22.265  1.00  0.00     0.034 C 
BRANCH  23  24
HETATM   24  C3  UNL     1     -31.342  39.026  21.659  1.00  0.00     0.004 C 
BRANCH  24  25
HETATM   25  C2  UNL     1     -32.536  39.165  22.572  1.00  0.00     0.027 C 
BRANCH  25  26
HETATM   26  C1  UNL     1     -33.609  40.006  21.858  1.00  0.00     0.229 C 
BRANCH  26  27
HETATM   27  N1  UNL     1     -34.519  39.013  21.279  1.00  0.00    -0.079 N 
ATOM     28  H13 UNL     1     -34.929  39.293  20.388  1.00  0.00     0.274 HD
ATOM     29  H12 UNL     1     -34.056  38.175  20.931  1.00  0.00     0.274 HD
ATOM     30  H11 UNL     1     -35.201  38.838  22.017  1.00  0.00     0.274 HD
ENDBRANCH  26  27
ENDBRANCH  25  26
ENDBRANCH  24  25
ENDBRANCH  23  24
ENDBRANCH  22  23
BRANCH  22  31
HETATM   31  C12 UNL     1     -28.009  40.553  21.425  1.00  0.00     0.253 C 
HETATM   32  N8  UNL     1     -27.530  39.942  20.253  1.00  0.00    -0.060 NA
HETATM   33  O4  UNL     1     -27.160  40.978  22.255  1.00  0.00    -0.275 OA
ENDBRANCH  22  31
ENDBRANCH  20  22
ENDBRANCH   1  20
TORSDOF 8
ENDMDL
MODEL 3
REMARK VINA RESULT: -5.218699925      1.722      3.071
REMARK  8 active torsions:
REMARK  status: ('A' for Active; 'I' for Inactive)
REMARK    1  A    between atoms: N1_1  and  C1_5 
REMARK    2  A    between atoms: C1_5  and  C2_6 
REMARK    3  A    between atoms: C2_6  and  C3_7 
REMARK    4  A    between atoms: C3_7  and  C4_8 
REMARK    5  A    between atoms: C4_8  and  C5_9 
REMARK    6  A    between atoms: C5_9  and  N2_10 
REMARK    7  A    between atoms: C5_9  and  C12_31 
REMARK    8  A    between atoms: N2_10  and  C6_12 
ROOT
HETATM    1  C6  UNL     1     -29.635  42.694  24.891  1.00  0.00     0.377 C 
HETATM    2  N3  UNL     1     -30.310  41.508  24.350  1.00  0.00    -0.001 N 
ATOM      3  H31 UNL     1     -31.252  41.390  24.721  1.00  0.00     0.284 HD
ATOM      4  H32 UNL     1     -29.912  40.637  24.702  1.00  0.00     0.284 HD
HETATM    5  C7  UNL     1     -30.288  41.583  22.928  1.00  0.00     0.364 C 
HETATM    6  N4  UNL     1     -29.347  42.629  22.574  1.00  0.00    -0.309 N 
ATOM      7  H4  UNL     1     -28.852  42.728  21.688  1.00  0.00     0.166 HD
HETATM    8  C8  UNL     1     -29.247  43.500  23.715  1.00  0.00     0.270 C 
HETATM    9  O1  UNL     1     -28.887  44.691  23.581  1.00  0.00    -0.269 OA
HETATM   10  C9  UNL     1     -29.891  40.346  22.246  1.00  0.00     0.291 C 
HETATM   11  O2  UNL     1     -28.738  40.191  21.746  1.00  0.00    -0.268 OA
HETATM   12  N5  UNL     1     -30.862  39.301  22.155  1.00  0.00    -0.297 N 
ATOM     13  H5  UNL     1     -30.561  38.333  22.044  1.00  0.00     0.171 HD
HETATM   14  C10 UNL     1     -32.119  39.582  22.214  1.00  0.00     0.197 C 
HETATM   15  N6  UNL     1     -33.043  38.513  22.121  1.00  0.00    -0.063 NA
HETATM   16  N7  UNL     1     -32.611  40.892  22.367  1.00  0.00    -0.297 N 
ATOM     17  H7  UNL     1     -33.613  41.076  22.410  1.00  0.00     0.171 HD
HETATM   18  C11 UNL     1     -31.667  41.949  22.461  1.00  0.00     0.291 C 
HETATM   19  O3  UNL     1     -31.978  43.152  22.159  1.00  0.00    -0.268 OA
ENDROOT
BRANCH   1  20
HETATM   20  N2  UNL     1     -30.555  43.371  25.679  1.00  0.00    -0.376 N 
ATOM     21  H2  UNL     1     -30.757  44.342  25.446  1.00  0.00     0.156 HD
BRANCH  20  22
HETATM   22  C5  UNL     1     -31.223  42.810  26.772  1.00  0.00     0.168 C 
BRANCH  22  23
HETATM   23  C4  UNL     1     -32.539  43.431  27.116  1.00  0.00     0.034 C 
BRANCH  23  24
HETATM   24  C3  UNL     1     -33.747  42.574  26.909  1.00  0.00     0.004 C 
BRANCH  24  25
HETATM   25  C2  UNL     1     -33.923  42.070  25.498  1.00  0.00     0.027 C 
BRANCH  25  26
HETATM   26  C1  UNL     1     -34.526  43.197  24.641  1.00  0.00     0.229 C 
BRANCH  26  27
HETATM   27  N1  UNL     1     -35.457  42.509  23.742  1.00  0.00    -0.079 N 
ATOM     28  H13 UNL     1     -35.360  42.768  22.761  1.00  0.00     0.274 HD
ATOM     29  H12 UNL     1     -35.259  41.516  23.616  1.00  0.00     0.274 HD
ATOM     30  H11 UNL     1     -36.377  42.704  24.137  1.00  0.00     0.274 HD
ENDBRANCH  26  27
ENDBRANCH  25  26
ENDBRANCH  24  25
ENDBRANCH  23  24
ENDBRANCH  22  23
BRANCH  22  31
HETATM   31  C12 UNL     1     -30.283  42.914  27.950  1.00  0.00     0.253 C 
HETATM   32  N8  UNL     1     -29.812  41.816  28.693  1.00  0.00    -0.060 NA
HETATM   33  O4  UNL     1     -29.891  44.063  28.289  1.00  0.00    -0.275 OA
ENDBRANCH  22  31
ENDBRANCH  20  22
ENDBRANCH   1  20
TORSDOF 8
ENDMDL
MODEL 4
REMARK VINA RESULT: -5.204911350      2.327      6.019
REMARK  8 active torsions:
REMARK  status: ('A' for Active; 'I' for Inactive)
REMARK    1  A    between atoms: N1_1  and  C1_5 
REMARK    2  A    between atoms: C1_5  and  C2_6 
REMARK    3  A    between atoms: C2_6  and  C3_7 
REMARK    4  A    between atoms: C3_7  and  C4_8 
REMARK    5  A    between atoms: C4_8  and  C5_9 
REMARK    6  A    between atoms: C5_9  and  N2_10 
REMARK    7  A    between atoms: C5_9  and  C12_31 
REMARK    8  A    between atoms: N2_10  and  C6_12 
ROOT
HETATM    1  C6  UNL     1     -31.885  42.079  22.761  1.00  0.00     0.377 C 
HETATM    2  N3  UNL     1     -31.645  41.910  24.199  1.00  0.00    -0.001 N 
ATOM      3  H31 UNL     1     -30.962  41.179  24.398  1.00  0.00     0.284 HD
ATOM      4  H32 UNL     1     -32.440  41.494  24.682  1.00  0.00     0.284 HD
HETATM    5  C7  UNL     1     -31.271  43.171  24.747  1.00  0.00     0.364 C 
HETATM    6  N4  UNL     1     -31.575  44.175  23.745  1.00  0.00    -0.309 N 
ATOM      7  H4  UNL     1     -31.742  45.168  23.909  1.00  0.00     0.166 HD
HETATM    8  C8  UNL     1     -31.594  43.499  22.474  1.00  0.00     0.270 C 
HETATM    9  O1  UNL     1     -31.385  44.127  21.413  1.00  0.00    -0.269 OA
HETATM   10  C9  UNL     1     -31.953  43.533  25.994  1.00  0.00     0.291 C 
HETATM   11  O2  UNL     1     -32.900  44.374  26.026  1.00  0.00    -0.268 OA
HETATM   12  N5  UNL     1     -31.510  42.902  27.197  1.00  0.00    -0.297 N 
ATOM     13  H5  UNL     1     -32.144  42.817  27.992  1.00  0.00     0.171 HD
HETATM   14  C10 UNL     1     -30.310  42.439  27.278  1.00  0.00     0.197 C 
HETATM   15  N6  UNL     1     -29.916  41.821  28.490  1.00  0.00    -0.063 NA
HETATM   16  N7  UNL     1     -29.379  42.519  26.225  1.00  0.00    -0.297 N 
ATOM     17  H7  UNL     1     -28.437  42.141  26.326  1.00  0.00     0.171 HD
HETATM   18  C11 UNL     1     -29.795  43.141  25.017  1.00  0.00     0.291 C 
HETATM   19  O3  UNL     1     -28.951  43.652  24.204  1.00  0.00    -0.268 OA
ENDROOT
BRANCH   1  20
HETATM   20  N2  UNL     1     -31.002  41.244  22.092  1.00  0.00    -0.376 N 
ATOM     21  H2  UNL     1     -30.652  41.550  21.184  1.00  0.00     0.156 HD
BRANCH  20  22
HETATM   22  C5  UNL     1     -30.559  40.010  22.578  1.00  0.00     0.168 C 
BRANCH  22  23
HETATM   23  C4  UNL     1     -29.154  39.639  22.225  1.00  0.00     0.034 C 
BRANCH  23  24
HETATM   24  C3  UNL     1     -28.262  40.761  21.799  1.00  0.00     0.004 C 
BRANCH  24  25
HETATM   25  C2  UNL     1     -26.814  40.376  21.618  1.00  0.00     0.027 C 
BRANCH  25  26
HETATM   26  C1  UNL     1     -26.430  40.576  20.142  1.00  0.00     0.229 C 
BRANCH  26  27
HETATM   27  N1  UNL     1     -24.997  40.271  20.097  1.00  0.00    -0.079 N 
ATOM     28  H13 UNL     1     -24.475  40.815  19.410  1.00  0.00     0.274 HD
ATOM     29  H12 UNL     1     -24.476  40.591  20.913  1.00  0.00     0.274 HD
ATOM     30  H11 UNL     1     -24.960  39.262  19.947  1.00  0.00     0.274 HD
ENDBRANCH  26  27
ENDBRANCH  25  26
ENDBRANCH  24  25
ENDBRANCH  23  24
ENDBRANCH  22  23
BRANCH  22  31
HETATM   31  C12 UNL     1     -31.515  38.969  22.044  1.00  0.00     0.253 C 
HETATM   32  N8  UNL     1     -32.792  38.714  22.574  1.00  0.00    -0.060 NA
HETATM   33  O4  UNL     1     -31.142  38.283  21.054  1.00  0.00    -0.275 OA
ENDBRANCH  22  31
ENDBRANCH  20  22
ENDBRANCH   1  20
TORSDOF 8
ENDMDL
MODEL 5
REMARK VINA RESULT: -5.171709569      1.998      2.633
REMARK  8 active torsions:
REMARK  status: ('A' for Active; 'I' for Inactive)
REMARK    1  A    between atoms: N1_1  and  C1_5 
REMARK    2  A    between atoms: C1_5  and  C2_6 
REMARK    3  A    between atoms: C2_6  and  C3_7 
REMARK    4  A    between atoms: C3_7  and  C4_8 
REMARK    5  A    between atoms: C4_8  and  C5_9 
REMARK    6  A    between atoms: C5_9  and  N2_10 
REMARK    7  A    between atoms: C5_9  and  C12_31 
REMARK    8  A    between atoms: N2_10  and  C6_12 
ROOT
HETATM    1  C6  UNL     1     -29.602  42.710  24.691  1.00  0.00     0.377 C 
HETATM    2  N3  UNL     1     -30.313  41.519  24.211  1.00  0.00    -0.001 N 
ATOM      3  H31 UNL     1     -31.267  41.464  24.565  1.00  0.00     0.284 HD
ATOM      4  H32 UNL     1     -29.960  40.657  24.629  1.00  0.00     0.284 HD
HETATM    5  C7  UNL     1     -30.255  41.499  22.787  1.00  0.00     0.364 C 
HETATM    6  N4  UNL     1     -29.264  42.481  22.391  1.00  0.00    -0.309 N 
ATOM      7  H4  UNL     1     -28.745  42.502  21.513  1.00  0.00     0.166 HD
HETATM    8  C8  UNL     1     -29.154  43.421  23.476  1.00  0.00     0.270 C 
HETATM    9  O1  UNL     1     -28.742  44.584  23.274  1.00  0.00    -0.269 OA
HETATM   10  C9  UNL     1     -29.895  40.206  22.197  1.00  0.00     0.291 C 
HETATM   11  O2  UNL     1     -28.738  39.972  21.738  1.00  0.00    -0.268 OA
HETATM   12  N5  UNL     1     -30.906  39.196  22.150  1.00  0.00    -0.297 N 
ATOM     13  H5  UNL     1     -30.644  38.212  22.109  1.00  0.00     0.171 HD
HETATM   14  C10 UNL     1     -32.151  39.531  22.159  1.00  0.00     0.197 C 
HETATM   15  N6  UNL     1     -33.117  38.496  22.111  1.00  0.00    -0.063 NA
HETATM   16  N7  UNL     1     -32.591  40.867  22.214  1.00  0.00    -0.297 N 
ATOM     17  H7  UNL     1     -33.586  41.093  22.219  1.00  0.00     0.171 HD
HETATM   18  C11 UNL     1     -31.607  41.889  22.262  1.00  0.00     0.291 C 
HETATM   19  O3  UNL     1     -31.860  43.080  21.875  1.00  0.00    -0.268 OA
ENDROOT
BRANCH   1  20
HETATM   20  N2  UNL     1     -30.510  43.473  25.410  1.00  0.00    -0.376 N 
ATOM     21  H2  UNL     1     -30.537  44.477  25.229  1.00  0.00     0.156 HD
BRANCH  20  22
HETATM   22  C5  UNL     1     -31.393  42.960  26.365  1.00  0.00     0.168 C 
BRANCH  22  23
HETATM   23  C4  UNL     1     -32.696  43.680  26.498  1.00  0.00     0.034 C 
BRANCH  23  24
HETATM   24  C3  UNL     1     -33.870  42.849  26.908  1.00  0.00     0.004 C 
BRANCH  24  25
HETATM   25  C2  UNL     1     -34.450  43.205  28.255  1.00  0.00     0.027 C 
BRANCH  25  26
HETATM   26  C1  UNL     1     -34.019  44.637  28.616  1.00  0.00     0.229 C 
BRANCH  26  27
HETATM   27  N1  UNL     1     -33.302  44.489  29.887  1.00  0.00    -0.079 N 
ATOM     28  H13 UNL     1     -33.762  43.872  30.556  1.00  0.00     0.274 HD
ATOM     29  H12 UNL     1     -32.437  43.954  29.817  1.00  0.00     0.274 HD
ATOM     30  H11 UNL     1     -33.176  45.446  30.217  1.00  0.00     0.274 HD
ENDBRANCH  26  27
ENDBRANCH  25  26
ENDBRANCH  24  25
ENDBRANCH  23  24
ENDBRANCH  22  23
BRANCH  22  31
HETATM   31  C12 UNL     1     -30.658  42.982  27.685  1.00  0.00     0.253 C 
HETATM   32  N8  UNL     1     -30.057  41.859  28.281  1.00  0.00    -0.060 NA
HETATM   33  O4  UNL     1     -30.575  44.084  28.292  1.00  0.00    -0.275 OA
ENDBRANCH  22  31
ENDBRANCH  20  22
ENDBRANCH   1  20
TORSDOF 8
ENDMDL
