MODEL 1
REMARK VINA RESULT: -5.570671800      0.000      0.000
REMARK  11 active torsions:
REMARK  status: ('A' for Active; 'I' for Inactive)
REMARK    1  A    between atoms: N1_1  and  C1_5 
REMARK    2  A    between atoms: C1_5  and  C2_6 
REMARK    3  A    between atoms: C2_6  and  N2_7 
REMARK    4  A    between atoms: N2_7  and  C3_9 
REMARK    5  A    between atoms: C3_9  and  C4_10 
REMARK    6  A    between atoms: C4_10  and  C5_11 
REMARK    7  A    between atoms: C5_11  and  N3_12 
REMARK    8  A    between atoms: C9_21  and  N6_22 
REMARK    9  A    between atoms: N6_22  and  C10_24 
REMARK   10  A    between atoms: C11_28  and  C12_29 
REMARK   11  A    between atoms: C12_29  and  O2_30 
ROOT
HETATM    1  N3  UNL     1     -31.729  42.564  23.737  1.00  0.00    -0.327 N 
HETATM    2  C6  UNL     1     -32.969  42.229  24.100  1.00  0.00     0.185 A 
HETATM    3  N4  UNL     1     -33.273  40.991  23.683  1.00  0.00    -0.345 N 
ATOM      4  H4  UNL     1     -34.161  40.512  23.837  1.00  0.00     0.167 HD
HETATM    5  C7  UNL     1     -32.207  40.481  23.023  1.00  0.00     0.147 A 
HETATM    6  C8  UNL     1     -31.951  39.283  22.398  1.00  0.00     0.290 A 
HETATM    7  O1  UNL     1     -32.808  38.388  22.358  1.00  0.00    -0.265 OA
HETATM    8  N5  UNL     1     -30.735  39.120  21.831  1.00  0.00    -0.154 N 
ATOM      9  H5  UNL     1     -30.525  38.240  21.361  1.00  0.00     0.187 HD
HETATM   10  C9  UNL     1     -29.794  40.078  21.863  1.00  0.00     0.686 A 
HETATM   11  N8  UNL     1     -30.062  41.275  22.492  1.00  0.00    -0.174 N 
ATOM     12  H8  UNL     1     -29.349  42.005  22.518  1.00  0.00     0.186 HD
HETATM   13  C13 UNL     1     -31.241  41.481  23.063  1.00  0.00     0.156 A 
ENDROOT
BRANCH   1  14
HETATM   14  C5  UNL     1     -31.004  43.799  23.981  1.00  0.00     0.133 C 
BRANCH  14  15
HETATM   15  C4  UNL     1     -30.617  43.844  25.426  1.00  0.00     0.040 C 
BRANCH  15  16
HETATM   16  C3  UNL     1     -29.180  43.308  25.552  1.00  0.00     0.120 C 
BRANCH  16  17
HETATM   17  N2  UNL     1     -28.766  43.382  26.896  1.00  0.00    -0.401 N 
ATOM     18  H2  UNL     1     -27.777  43.507  27.114  1.00  0.00     0.158 HD
BRANCH  17  19
HETATM   19  C2  UNL     1     -29.698  43.286  27.937  1.00  0.00     0.082 C 
BRANCH  19  20
HETATM   20  C1  UNL     1     -29.917  41.967  28.587  1.00  0.00     0.273 C 
BRANCH  20  21
HETATM   21  N1  UNL     1     -29.147  41.850  29.799  1.00  0.00    -0.075 N 
ATOM     22  H13 UNL     1     -29.740  41.907  30.627  1.00  0.00     0.274 HD
ATOM     23  H12 UNL     1     -28.791  40.903  29.927  1.00  0.00     0.274 HD
ATOM     24  H11 UNL     1     -28.397  42.541  29.826  1.00  0.00     0.274 HD
ENDBRANCH  20  21
ENDBRANCH  19  20
ENDBRANCH  17  19
ENDBRANCH  16  17
ENDBRANCH  15  16
ENDBRANCH  14  15
ENDBRANCH   1  14
BRANCH  10  25
HETATM   25  N6  UNL     1     -28.652  39.995  21.364  1.00  0.00    -0.174 N 
ATOM     26  H6  UNL     1     -27.950  39.619  22.002  1.00  0.00     0.182 HD
BRANCH  25  27
HETATM   27  C10 UNL     1     -28.148  40.320  20.099  1.00  0.00     0.448 C 
HETATM   28  N7  UNL     1     -27.258  41.484  20.085  1.00  0.00    -0.002 N 
HETATM   29  C11 UNL     1     -26.613  40.801  18.976  1.00  0.00     0.353 C 
ATOM     30  H72 UNL     1     -27.608  42.439  20.010  1.00  0.00     0.285 HD
ATOM     31  H71 UNL     1     -26.745  41.791  20.911  1.00  0.00     0.285 HD
HETATM   32  O3  UNL     1     -27.135  39.608  19.515  1.00  0.00    -0.308 OA
BRANCH  29  33
HETATM   33  C12 UNL     1     -25.118  40.779  19.036  1.00  0.00     0.225 C 
BRANCH  33  34
HETATM   34  O2  UNL     1     -24.647  40.395  20.295  1.00  0.00    -0.397 OA
ATOM     35  H2  UNL     1     -25.225  39.772  20.718  1.00  0.00     0.209 HD
ENDBRANCH  33  34
ENDBRANCH  29  33
ENDBRANCH  25  27
ENDBRANCH  10  25
TORSDOF 11
ENDMDL
MODEL 2
REMARK VINA RESULT: -5.348617682      1.352      1.610
REMARK  11 active torsions:
REMARK  status: ('A' for Active; 'I' for Inactive)
REMARK    1  A    between atoms: N1_1  and  C1_5 
REMARK    2  A    between atoms: C1_5  and  C2_6 
REMARK    3  A    between atoms: C2_6  and  N2_7 
REMARK    4  A    between atoms: N2_7  and  C3_9 
REMARK    5  A    between atoms: C3_9  and  C4_10 
REMARK    6  A    between atoms: C4_10  and  C5_11 
REMARK    7  A    between atoms: C5_11  and  N3_12 
REMARK    8  A    between atoms: C9_21  and  N6_22 
REMARK    9  A    between atoms: N6_22  and  C10_24 
REMARK   10  A    between atoms: C11_28  and  C12_29 
REMARK   11  A    between atoms: C12_29  and  O2_30 
ROOT
HETATM    1  N3  UNL     1     -30.571  42.737  23.711  1.00  0.00    -0.327 N 
HETATM    2  C6  UNL     1     -31.780  42.218  23.931  1.00  0.00     0.185 A 
HETATM    3  N4  UNL     1     -31.872  40.981  23.417  1.00  0.00    -0.345 N 
ATOM      4  H4  UNL     1     -32.696  40.381  23.457  1.00  0.00     0.167 HD
HETATM    5  C7  UNL     1     -30.691  40.662  22.839  1.00  0.00     0.147 A 
HETATM    6  C8  UNL     1     -30.218  39.553  22.177  1.00  0.00     0.290 A 
HETATM    7  O1  UNL     1     -30.937  38.558  22.004  1.00  0.00    -0.265 OA
HETATM    8  N5  UNL     1     -28.945  39.591  21.724  1.00  0.00    -0.154 N 
ATOM      9  H5  UNL     1     -28.574  38.779  21.230  1.00  0.00     0.187 HD
HETATM   10  C9  UNL     1     -28.151  40.659  21.901  1.00  0.00     0.686 A 
HETATM   11  N8  UNL     1     -28.636  41.765  22.566  1.00  0.00    -0.174 N 
ATOM     12  H8  UNL     1     -28.036  42.579  22.702  1.00  0.00     0.186 HD
HETATM   13  C13 UNL     1     -29.880  41.776  23.029  1.00  0.00     0.156 A 
ENDROOT
BRANCH   1  14
HETATM   14  C5  UNL     1     -30.047  44.037  24.092  1.00  0.00     0.133 C 
BRANCH  14  15
HETATM   15  C4  UNL     1     -29.156  43.858  25.281  1.00  0.00     0.040 C 
BRANCH  15  16
HETATM   16  C3  UNL     1     -29.423  45.019  26.255  1.00  0.00     0.120 C 
BRANCH  16  17
HETATM   17  N2  UNL     1     -29.672  44.506  27.543  1.00  0.00    -0.401 N 
ATOM     18  H2  UNL     1     -29.155  44.873  28.342  1.00  0.00     0.158 HD
BRANCH  17  19
HETATM   19  C2  UNL     1     -30.622  43.496  27.737  1.00  0.00     0.082 C 
BRANCH  19  20
HETATM   20  C1  UNL     1     -30.158  42.130  28.098  1.00  0.00     0.273 C 
BRANCH  20  21
HETATM   21  N1  UNL     1     -29.399  42.146  29.323  1.00  0.00    -0.075 N 
ATOM     22  H13 UNL     1     -28.418  41.918  29.159  1.00  0.00     0.274 HD
ATOM     23  H12 UNL     1     -29.281  43.094  29.679  1.00  0.00     0.274 HD
ATOM     24  H11 UNL     1     -29.816  41.531  30.021  1.00  0.00     0.274 HD
ENDBRANCH  20  21
ENDBRANCH  19  20
ENDBRANCH  17  19
ENDBRANCH  16  17
ENDBRANCH  15  16
ENDBRANCH  14  15
ENDBRANCH   1  14
BRANCH  10  25
HETATM   25  N6  UNL     1     -26.968  40.762  21.514  1.00  0.00    -0.174 N 
ATOM     26  H6  UNL     1     -26.378  41.314  22.135  1.00  0.00     0.182 HD
BRANCH  25  27
HETATM   27  C10 UNL     1     -26.296  40.265  20.391  1.00  0.00     0.448 C 
HETATM   28  N7  UNL     1     -26.591  40.980  19.146  1.00  0.00    -0.002 N 
HETATM   29  C11 UNL     1     -25.233  40.615  18.780  1.00  0.00     0.353 C 
ATOM     30  H72 UNL     1     -27.396  40.752  18.562  1.00  0.00     0.285 HD
ATOM     31  H71 UNL     1     -26.921  41.944  19.134  1.00  0.00     0.285 HD
HETATM   32  O3  UNL     1     -24.972  40.527  20.161  1.00  0.00    -0.308 OA
BRANCH  29  33
HETATM   33  C12 UNL     1     -24.427  41.723  18.175  1.00  0.00     0.225 C 
BRANCH  33  34
HETATM   34  O2  UNL     1     -24.506  42.900  18.924  1.00  0.00    -0.397 OA
ATOM     35  H2  UNL     1     -24.399  42.740  19.854  1.00  0.00     0.209 HD
ENDBRANCH  33  34
ENDBRANCH  29  33
ENDBRANCH  25  27
ENDBRANCH  10  25
TORSDOF 11
ENDMDL
MODEL 3
REMARK VINA RESULT: -5.289010600      2.256      3.031
REMARK  11 active torsions:
REMARK  status: ('A' for Active; 'I' for Inactive)
REMARK    1  A    between atoms: N1_1  and  C1_5 
REMARK    2  A    between atoms: C1_5  and  C2_6 
REMARK    3  A    between atoms: C2_6  and  N2_7 
REMARK    4  A    between atoms: N2_7  and  C3_9 
REMARK    5  A    between atoms: C3_9  and  C4_10 
REMARK    6  A    between atoms: C4_10  and  C5_11 
REMARK    7  A    between atoms: C5_11  and  N3_12 
REMARK    8  A    between atoms: C9_21  and  N6_22 
REMARK    9  A    between atoms: N6_22  and  C10_24 
REMARK   10  A    between atoms: C11_28  and  C12_29 
REMARK   11  A    between atoms: C12_29  and  O2_30 
ROOT
HETATM    1  N3  UNL     1     -33.943  42.319  25.216  1.00  0.00    -0.327 N 
HETATM    2  C6  UNL     1     -35.084  42.956  24.949  1.00  0.00     0.185 A 
HETATM    3  N4  UNL     1     -35.514  42.672  23.710  1.00  0.00    -0.345 N 
ATOM      4  H4  UNL     1     -36.362  43.038  23.276  1.00  0.00     0.167 HD
HETATM    5  C7  UNL     1     -34.637  41.819  23.131  1.00  0.00     0.147 A 
HETATM    6  C8  UNL     1     -34.570  41.203  21.903  1.00  0.00     0.290 A 
HETATM    7  O1  UNL     1     -35.445  41.391  21.046  1.00  0.00    -0.265 OA
HETATM    8  N5  UNL     1     -33.516  40.389  21.669  1.00  0.00    -0.154 N 
ATOM      9  H5  UNL     1     -33.446  39.922  20.765  1.00  0.00     0.187 HD
HETATM   10  C9  UNL     1     -32.558  40.173  22.585  1.00  0.00     0.686 A 
HETATM   11  N8  UNL     1     -32.636  40.796  23.812  1.00  0.00    -0.174 N 
ATOM     12  H8  UNL     1     -31.910  40.635  24.510  1.00  0.00     0.186 HD
HETATM   13  C13 UNL     1     -33.651  41.605  24.088  1.00  0.00     0.156 A 
ENDROOT
BRANCH   1  14
HETATM   14  C5  UNL     1     -33.141  42.341  26.426  1.00  0.00     0.133 C 
BRANCH  14  15
HETATM   15  C4  UNL     1     -33.818  43.225  27.427  1.00  0.00     0.040 C 
BRANCH  15  16
HETATM   16  C3  UNL     1     -32.907  44.439  27.684  1.00  0.00     0.120 C 
BRANCH  16  17
HETATM   17  N2  UNL     1     -31.836  44.057  28.514  1.00  0.00    -0.401 N 
ATOM     18  H2  UNL     1     -32.028  43.669  29.439  1.00  0.00     0.158 HD
BRANCH  17  19
HETATM   19  C2  UNL     1     -30.511  44.203  28.085  1.00  0.00     0.082 C 
BRANCH  19  20
HETATM   20  C1  UNL     1     -29.689  42.984  27.858  1.00  0.00     0.273 C 
BRANCH  20  21
HETATM   21  N1  UNL     1     -29.481  42.262  29.086  1.00  0.00    -0.075 N 
ATOM     22  H13 UNL     1     -28.776  42.711  29.671  1.00  0.00     0.274 HD
ATOM     23  H12 UNL     1     -30.281  42.349  29.713  1.00  0.00     0.274 HD
ATOM     24  H11 UNL     1     -29.251  41.285  28.904  1.00  0.00     0.274 HD
ENDBRANCH  20  21
ENDBRANCH  19  20
ENDBRANCH  17  19
ENDBRANCH  16  17
ENDBRANCH  15  16
ENDBRANCH  14  15
ENDBRANCH   1  14
BRANCH  10  25
HETATM   25  N6  UNL     1     -31.562  39.434  22.438  1.00  0.00    -0.174 N 
ATOM     26  H6  UNL     1     -31.553  38.626  23.061  1.00  0.00     0.182 HD
BRANCH  25  27
HETATM   27  C10 UNL     1     -30.454  39.500  21.585  1.00  0.00     0.448 C 
HETATM   28  N7  UNL     1     -29.909  40.849  21.408  1.00  0.00    -0.002 N 
HETATM   29  C11 UNL     1     -28.641  40.162  21.237  1.00  0.00     0.353 C 
ATOM     30  H72 UNL     1     -30.277  41.500  20.714  1.00  0.00     0.285 HD
ATOM     31  H71 UNL     1     -30.043  41.588  22.097  1.00  0.00     0.285 HD
HETATM   32  O3  UNL     1     -29.204  39.109  21.985  1.00  0.00    -0.308 OA
BRANCH  29  33
HETATM   33  C12 UNL     1     -27.494  40.766  21.987  1.00  0.00     0.225 C 
BRANCH  33  34
HETATM   34  O2  UNL     1     -26.315  40.034  21.824  1.00  0.00    -0.397 OA
ATOM     35  H2  UNL     1     -26.374  39.170  22.213  1.00  0.00     0.209 HD
ENDBRANCH  33  34
ENDBRANCH  29  33
ENDBRANCH  25  27
ENDBRANCH  10  25
TORSDOF 11
ENDMDL
MODEL 4
REMARK VINA RESULT: -5.283608741      3.042      5.547
REMARK  11 active torsions:
REMARK  status: ('A' for Active; 'I' for Inactive)
REMARK    1  A    between atoms: N1_1  and  C1_5 
REMARK    2  A    between atoms: C1_5  and  C2_6 
REMARK    3  A    between atoms: C2_6  and  N2_7 
REMARK    4  A    between atoms: N2_7  and  C3_9 
REMARK    5  A    between atoms: C3_9  and  C4_10 
REMARK    6  A    between atoms: C4_10  and  C5_11 
REMARK    7  A    between atoms: C5_11  and  N3_12 
REMARK    8  A    between atoms: C9_21  and  N6_22 
REMARK    9  A    between atoms: N6_22  and  C10_24 
REMARK   10  A    between atoms: C11_28  and  C12_29 
REMARK   11  A    between atoms: C12_29  and  O2_30 
ROOT
HETATM    1  N3  UNL     1     -29.484  40.521  21.248  1.00  0.00    -0.327 N 
HETATM    2  C6  UNL     1     -28.804  41.047  22.269  1.00  0.00     0.185 A 
HETATM    3  N4  UNL     1     -27.487  41.063  22.010  1.00  0.00    -0.345 N 
ATOM      4  H4  UNL     1     -26.763  41.415  22.636  1.00  0.00     0.167 HD
HETATM    5  C7  UNL     1     -27.279  40.535  20.782  1.00  0.00     0.147 A 
HETATM    6  C8  UNL     1     -26.160  40.307  20.014  1.00  0.00     0.290 A 
HETATM    7  O1  UNL     1     -25.031  40.606  20.428  1.00  0.00    -0.265 OA
HETATM    8  N5  UNL     1     -26.341  39.747  18.798  1.00  0.00    -0.154 N 
ATOM      9  H5  UNL     1     -25.525  39.569  18.212  1.00  0.00     0.187 HD
HETATM   10  C9  UNL     1     -27.556  39.416  18.332  1.00  0.00     0.686 A 
HETATM   11  N8  UNL     1     -28.670  39.648  19.110  1.00  0.00    -0.174 N 
ATOM     12  H8  UNL     1     -29.595  39.398  18.760  1.00  0.00     0.186 HD
HETATM   13  C13 UNL     1     -28.544  40.196  20.312  1.00  0.00     0.156 A 
ENDROOT
BRANCH   1  14
HETATM   14  C5  UNL     1     -30.915  40.315  21.108  1.00  0.00     0.133 C 
BRANCH  14  15
HETATM   15  C4  UNL     1     -31.289  39.067  21.845  1.00  0.00     0.040 C 
BRANCH  15  16
HETATM   16  C3  UNL     1     -32.593  39.341  22.615  1.00  0.00     0.120 C 
BRANCH  16  17
HETATM   17  N2  UNL     1     -32.447  40.507  23.389  1.00  0.00    -0.401 N 
ATOM     18  H2  UNL     1     -31.541  40.727  23.805  1.00  0.00     0.158 HD
BRANCH  17  19
HETATM   19  C2  UNL     1     -33.531  41.369  23.596  1.00  0.00     0.082 C 
BRANCH  19  20
HETATM   20  C1  UNL     1     -33.476  42.339  24.722  1.00  0.00     0.273 C 
BRANCH  20  21
HETATM   21  N1  UNL     1     -33.462  41.660  25.992  1.00  0.00    -0.075 N 
ATOM     22  H13 UNL     1     -33.553  40.651  25.879  1.00  0.00     0.274 HD
ATOM     23  H12 UNL     1     -32.537  41.685  26.421  1.00  0.00     0.274 HD
ATOM     24  H11 UNL     1     -34.176  42.035  26.617  1.00  0.00     0.274 HD
ENDBRANCH  20  21
ENDBRANCH  19  20
ENDBRANCH  17  19
ENDBRANCH  16  17
ENDBRANCH  15  16
ENDBRANCH  14  15
ENDBRANCH   1  14
BRANCH  10  25
HETATM   25  N6  UNL     1     -27.796  38.900  17.220  1.00  0.00    -0.174 N 
ATOM     26  H6  UNL     1     -27.221  39.269  16.462  1.00  0.00     0.182 HD
BRANCH  25  27
HETATM   27  C10 UNL     1     -28.702  37.914  16.812  1.00  0.00     0.448 C 
HETATM   28  N7  UNL     1     -28.090  36.792  16.095  1.00  0.00    -0.002 N 
HETATM   29  C11 UNL     1     -29.167  36.013  16.681  1.00  0.00     0.353 C 
ATOM     30  H72 UNL     1     -27.915  36.816  15.090  1.00  0.00     0.285 HD
ATOM     31  H71 UNL     1     -27.108  36.541  16.208  1.00  0.00     0.285 HD
HETATM   32  O3  UNL     1     -29.222  36.998  17.687  1.00  0.00    -0.308 OA
BRANCH  29  33
HETATM   33  C12 UNL     1     -28.746  34.703  17.270  1.00  0.00     0.225 C 
BRANCH  33  34
HETATM   34  O2  UNL     1     -27.584  34.820  18.038  1.00  0.00    -0.397 OA
ATOM     35  H2  UNL     1     -27.776  34.942  18.960  1.00  0.00     0.209 HD
ENDBRANCH  33  34
ENDBRANCH  29  33
ENDBRANCH  25  27
ENDBRANCH  10  25
TORSDOF 11
ENDMDL
MODEL 5
REMARK VINA RESULT: -5.197601854      2.783      5.710
REMARK  11 active torsions:
REMARK  status: ('A' for Active; 'I' for Inactive)
REMARK    1  A    between atoms: N1_1  and  C1_5 
REMARK    2  A    between atoms: C1_5  and  C2_6 
REMARK    3  A    between atoms: C2_6  and  N2_7 
REMARK    4  A    between atoms: N2_7  and  C3_9 
REMARK    5  A    between atoms: C3_9  and  C4_10 
REMARK    6  A    between atoms: C4_10  and  C5_11 
REMARK    7  A    between atoms: C5_11  and  N3_12 
REMARK    8  A    between atoms: C9_21  and  N6_22 
REMARK    9  A    between atoms: N6_22  and  C10_24 
REMARK   10  A    between atoms: C11_28  and  C12_29 
REMARK   11  A    between atoms: C12_29  and  O2_30 
ROOT
HETATM    1  N3  UNL     1     -31.950  42.007  23.815  1.00  0.00    -0.327 N 
HETATM    2  C6  UNL     1     -30.692  42.305  24.150  1.00  0.00     0.185 A 
HETATM    3  N4  UNL     1     -29.824  41.506  23.510  1.00  0.00    -0.345 N 
ATOM      4  H4  UNL     1     -28.808  41.539  23.602  1.00  0.00     0.167 HD
HETATM    5  C7  UNL     1     -30.518  40.651  22.724  1.00  0.00     0.147 A 
HETATM    6  C8  UNL     1     -30.161  39.639  21.863  1.00  0.00     0.290 A 
HETATM    7  O1  UNL     1     -28.971  39.346  21.681  1.00  0.00    -0.265 OA
HETATM    8  N5  UNL     1     -31.156  38.981  21.227  1.00  0.00    -0.154 N 
ATOM      9  H5  UNL     1     -30.914  38.227  20.584  1.00  0.00     0.187 HD
HETATM   10  C9  UNL     1     -32.451  39.284  21.411  1.00  0.00     0.686 A 
HETATM   11  N8  UNL     1     -32.796  40.300  22.277  1.00  0.00    -0.174 N 
ATOM     12  H8  UNL     1     -33.779  40.533  22.419  1.00  0.00     0.186 HD
HETATM   13  C13 UNL     1     -31.855  40.975  22.925  1.00  0.00     0.156 A 
ENDROOT
BRANCH   1  14
HETATM   14  C5  UNL     1     -33.188  42.616  24.266  1.00  0.00     0.133 C 
BRANCH  14  15
HETATM   15  C4  UNL     1     -33.433  42.197  25.682  1.00  0.00     0.040 C 
BRANCH  15  16
HETATM   16  C3  UNL     1     -33.342  43.449  26.573  1.00  0.00     0.120 C 
BRANCH  16  17
HETATM   17  N2  UNL     1     -32.573  43.159  27.716  1.00  0.00    -0.401 N 
ATOM     18  H2  UNL     1     -33.024  42.761  28.540  1.00  0.00     0.158 HD
BRANCH  17  19
HETATM   19  C2  UNL     1     -31.195  43.410  27.733  1.00  0.00     0.082 C 
BRANCH  19  20
HETATM   20  C1  UNL     1     -30.255  42.260  27.804  1.00  0.00     0.273 C 
BRANCH  20  21
HETATM   21  N1  UNL     1     -29.528  42.259  29.047  1.00  0.00    -0.075 N 
ATOM     22  H13 UNL     1     -29.622  43.149  29.538  1.00  0.00     0.274 HD
ATOM     23  H12 UNL     1     -29.968  41.653  29.739  1.00  0.00     0.274 HD
ATOM     24  H11 UNL     1     -28.549  42.013  28.901  1.00  0.00     0.274 HD
ENDBRANCH  20  21
ENDBRANCH  19  20
ENDBRANCH  17  19
ENDBRANCH  16  17
ENDBRANCH  15  16
ENDBRANCH  14  15
ENDBRANCH   1  14
BRANCH  10  25
HETATM   25  N6  UNL     1     -33.418  38.722  20.856  1.00  0.00    -0.174 N 
ATOM     26  H6  UNL     1     -33.242  37.749  20.607  1.00  0.00     0.182 HD
BRANCH  25  27
HETATM   27  C10 UNL     1     -34.699  39.170  20.509  1.00  0.00     0.448 C 
HETATM   28  N7  UNL     1     -35.559  38.140  19.921  1.00  0.00    -0.002 N 
HETATM   29  C11 UNL     1     -36.640  38.890  20.537  1.00  0.00     0.353 C 
ATOM     30  H72 UNL     1     -35.545  37.918  18.926  1.00  0.00     0.285 HD
ATOM     31  H71 UNL     1     -35.417  37.145  20.092  1.00  0.00     0.285 HD
HETATM   32  O3  UNL     1     -35.676  39.373  21.445  1.00  0.00    -0.308 OA
BRANCH  29  33
HETATM   33  C12 UNL     1     -37.651  38.056  21.260  1.00  0.00     0.225 C 
BRANCH  33  34
HETATM   34  O2  UNL     1     -37.053  37.072  22.051  1.00  0.00    -0.397 OA
ATOM     35  H2  UNL     1     -37.617  36.793  22.763  1.00  0.00     0.209 HD
ENDBRANCH  33  34
ENDBRANCH  29  33
ENDBRANCH  25  27
ENDBRANCH  10  25
TORSDOF 11
ENDMDL
