MODEL 1
REMARK VINA RESULT: -5.426220012      0.000      0.000
REMARK  12 active torsions:
REMARK  status: ('A' for Active; 'I' for Inactive)
REMARK    1  A    between atoms: N1_1  and  C1_5 
REMARK    2  A    between atoms: C1_5  and  C2_6 
REMARK    3  A    between atoms: C2_6  and  C3_7 
REMARK    4  A    between atoms: C3_7  and  N2_8 
REMARK    5  A    between atoms: N2_8  and  N3_9 
REMARK    6  A    between atoms: N2_8  and  C9_26 
REMARK    7  A    between atoms: N3_9  and  C4_11 
REMARK    8  A    between atoms: C4_11  and  C5_12 
REMARK    9  A    between atoms: C7_16  and  N5_17 
REMARK   10  A    between atoms: N5_17  and  N6_19 
REMARK       I    between atoms: N6_19  and  C8_21 
REMARK   11  A    between atoms: C9_26  and  O2_27 
REMARK   12  A    between atoms: C9_26  and  C10_29 
ROOT
HETATM    1  N2  UNL     1     -31.387  42.687  25.779  1.00  0.00    -0.269 N 
ENDROOT
BRANCH   1   2
HETATM    2  C3  UNL     1     -32.630  43.033  25.178  1.00  0.00     0.153 C 
BRANCH   2   3
HETATM    3  C2  UNL     1     -33.582  41.869  25.032  1.00  0.00     0.049 C 
BRANCH   3   4
HETATM    4  C1  UNL     1     -33.620  41.455  23.566  1.00  0.00     0.231 C 
BRANCH   4   5
HETATM    5  N1  UNL     1     -32.787  40.321  23.298  1.00  0.00    -0.079 N 
ATOM      6  H13 UNL     1     -32.278  40.437  22.422  1.00  0.00     0.274 HD
ATOM      7  H12 UNL     1     -31.997  40.283  23.942  1.00  0.00     0.274 HD
ATOM      8  H11 UNL     1     -33.310  39.445  23.306  1.00  0.00     0.274 HD
ENDBRANCH   4   5
ENDBRANCH   3   4
ENDBRANCH   2   3
ENDBRANCH   1   2
BRANCH   1   9
HETATM    9  N3  UNL     1     -30.391  42.166  24.941  1.00  0.00    -0.309 N 
ATOM     10  H3  UNL     1     -30.391  41.187  24.655  1.00  0.00     0.186 HD
BRANCH   9  11
HETATM   11  C4  UNL     1     -29.391  43.061  24.513  1.00  0.00     0.107 C 
BRANCH  11  12
HETATM   12  C5  UNL     1     -29.141  42.978  23.013  1.00  0.00     0.142 C 
HETATM   13  C6  UNL     1     -30.438  42.956  22.244  1.00  0.00     0.153 C 
HETATM   14  N4  UNL     1     -30.129  42.159  21.088  1.00  0.00    -0.359 N 
HETATM   15  C7  UNL     1     -29.070  41.466  21.305  1.00  0.00     0.191 C 
ATOM     16  H4  UNL     1     -30.671  42.146  20.224  1.00  0.00     0.162 HD
HETATM   17  N8  UNL     1     -28.559  41.728  22.603  1.00  0.00    -0.350 N 
ATOM     18  H8  UNL     1     -27.910  41.148  23.137  1.00  0.00     0.163 HD
BRANCH  15  19
HETATM   19  N5  UNL     1     -28.542  40.582  20.310  1.00  0.00    -0.268 N 
ATOM     20  H5  UNL     1     -29.158  39.858  19.941  1.00  0.00     0.190 HD
BRANCH  19  21
HETATM   21  N6  UNL     1     -27.244  40.645  19.815  1.00  0.00    -0.251 N 
HETATM   22  C8  UNL     1     -26.073  40.360  20.568  1.00  0.00     0.347 C 
HETATM   23  N7  UNL     1     -24.795  40.456  19.958  1.00  0.00    -0.038 NA
HETATM   24  O1  UNL     1     -26.094  40.015  21.775  1.00  0.00    -0.249 OA
ATOM     25  H6  UNL     1     -27.123  40.915  18.839  1.00  0.00     0.191 HD
ENDBRANCH  19  21
ENDBRANCH  15  19
ENDBRANCH  11  12
ENDBRANCH   9  11
ENDBRANCH   1   9
BRANCH   1  26
HETATM   26  C9  UNL     1     -31.053  42.828  27.134  1.00  0.00     0.202 C 
BRANCH  26  27
HETATM   27  O2  UNL     1     -30.637  41.725  27.688  1.00  0.00    -0.342 OA
ATOM     28  H2  UNL     1     -31.023  40.941  27.314  1.00  0.00     0.219 HD
ENDBRANCH  26  27
BRANCH  26  29
HETATM   29  C10 UNL     1     -31.110  44.011  27.960  1.00  0.00     0.150 C 
HETATM   30  N9  UNL     1     -30.134  44.915  27.887  1.00  0.00    -0.371 N 
HETATM   31  C11 UNL     1     -30.384  45.998  28.781  1.00  0.00     0.141 C 
ATOM     32  H9  UNL     1     -29.320  44.843  27.277  1.00  0.00     0.161 HD
HETATM   33  C12 UNL     1     -31.906  45.952  28.939  1.00  0.00     0.141 C 
HETATM   34  N10 UNL     1     -32.059  44.476  28.892  1.00  0.00    -0.371 N 
ATOM     35  H10 UNL     1     -32.719  43.912  29.426  1.00  0.00     0.161 HD
ENDBRANCH  26  29
ENDBRANCH   1  26
TORSDOF 12
ENDMDL
MODEL 2
REMARK VINA RESULT: -5.417578175      2.365      3.754
REMARK  12 active torsions:
REMARK  status: ('A' for Active; 'I' for Inactive)
REMARK    1  A    between atoms: N1_1  and  C1_5 
REMARK    2  A    between atoms: C1_5  and  C2_6 
REMARK    3  A    between atoms: C2_6  and  C3_7 
REMARK    4  A    between atoms: C3_7  and  N2_8 
REMARK    5  A    between atoms: N2_8  and  N3_9 
REMARK    6  A    between atoms: N2_8  and  C9_26 
REMARK    7  A    between atoms: N3_9  and  C4_11 
REMARK    8  A    between atoms: C4_11  and  C5_12 
REMARK    9  A    between atoms: C7_16  and  N5_17 
REMARK   10  A    between atoms: N5_17  and  N6_19 
REMARK       I    between atoms: N6_19  and  C8_21 
REMARK   11  A    between atoms: C9_26  and  O2_27 
REMARK   12  A    between atoms: C9_26  and  C10_29 
ROOT
HETATM    1  N2  UNL     1     -29.847  42.123  22.847  1.00  0.00    -0.269 N 
ENDROOT
BRANCH   1   2
HETATM    2  C3  UNL     1     -31.018  42.275  22.051  1.00  0.00     0.153 C 
BRANCH   2   3
HETATM    3  C2  UNL     1     -32.297  41.936  22.778  1.00  0.00     0.049 C 
BRANCH   3   4
HETATM    4  C1  UNL     1     -32.764  40.560  22.321  1.00  0.00     0.231 C 
BRANCH   4   5
HETATM    5  N1  UNL     1     -32.239  39.506  23.138  1.00  0.00    -0.079 N 
ATOM      6  H13 UNL     1     -31.288  39.715  23.440  1.00  0.00     0.274 HD
ATOM      7  H12 UNL     1     -32.698  39.483  24.048  1.00  0.00     0.274 HD
ATOM      8  H11 UNL     1     -32.288  38.597  22.678  1.00  0.00     0.274 HD
ENDBRANCH   4   5
ENDBRANCH   3   4
ENDBRANCH   2   3
ENDBRANCH   1   2
BRANCH   1   9
HETATM    9  N3  UNL     1     -28.998  41.050  22.541  1.00  0.00    -0.309 N 
ATOM     10  H3  UNL     1     -28.351  40.667  23.230  1.00  0.00     0.186 HD
BRANCH   9  11
HETATM   11  C4  UNL     1     -29.082  40.526  21.236  1.00  0.00     0.107 C 
BRANCH  11  12
HETATM   12  C5  UNL     1     -27.890  40.923  20.374  1.00  0.00     0.142 C 
HETATM   13  C6  UNL     1     -27.797  40.060  19.142  1.00  0.00     0.153 C 
HETATM   14  N4  UNL     1     -26.384  39.993  18.886  1.00  0.00    -0.359 N 
HETATM   15  C7  UNL     1     -25.732  40.321  19.942  1.00  0.00     0.191 C 
ATOM     16  H4  UNL     1     -25.962  39.724  17.997  1.00  0.00     0.162 HD
HETATM   17  N8  UNL     1     -26.623  40.648  20.998  1.00  0.00    -0.350 N 
ATOM     18  H8  UNL     1     -26.409  40.682  21.995  1.00  0.00     0.163 HD
BRANCH  15  19
HETATM   19  N5  UNL     1     -24.300  40.337  19.960  1.00  0.00    -0.268 N 
ATOM     20  H5  UNL     1     -23.839  40.955  20.628  1.00  0.00     0.190 HD
BRANCH  19  21
HETATM   21  N6  UNL     1     -23.497  39.567  19.126  1.00  0.00    -0.251 N 
HETATM   22  C8  UNL     1     -22.788  40.062  17.999  1.00  0.00     0.347 C 
HETATM   23  N7  UNL     1     -21.995  39.182  17.216  1.00  0.00    -0.038 NA
HETATM   24  O1  UNL     1     -22.814  41.264  17.638  1.00  0.00    -0.249 OA
ATOM     25  H6  UNL     1     -23.410  38.573  19.340  1.00  0.00     0.191 HD
ENDBRANCH  19  21
ENDBRANCH  15  19
ENDBRANCH  11  12
ENDBRANCH   9  11
ENDBRANCH   1   9
BRANCH   1  26
HETATM   26  C9  UNL     1     -29.450  42.953  23.905  1.00  0.00     0.202 C 
BRANCH  26  27
HETATM   27  O2  UNL     1     -28.761  43.992  23.525  1.00  0.00    -0.342 OA
ATOM     28  H2  UNL     1     -28.146  43.806  22.825  1.00  0.00     0.219 HD
ENDBRANCH  26  27
BRANCH  26  29
HETATM   29  C10 UNL     1     -29.708  42.803  25.318  1.00  0.00     0.150 C 
HETATM   30  N9  UNL     1     -29.017  43.529  26.196  1.00  0.00    -0.371 N 
HETATM   31  C11 UNL     1     -29.427  43.228  27.528  1.00  0.00     0.141 C 
ATOM     32  H9  UNL     1     -28.296  44.206  25.950  1.00  0.00     0.161 HD
HETATM   33  C12 UNL     1     -30.852  42.707  27.328  1.00  0.00     0.141 C 
HETATM   34  N10 UNL     1     -30.621  42.009  26.039  1.00  0.00    -0.371 N 
ATOM     35  H10 UNL     1     -31.040  41.130  25.736  1.00  0.00     0.161 HD
ENDBRANCH  26  29
ENDBRANCH   1  26
TORSDOF 12
ENDMDL
MODEL 3
REMARK VINA RESULT: -5.266962973      3.374      5.341
REMARK  12 active torsions:
REMARK  status: ('A' for Active; 'I' for Inactive)
REMARK    1  A    between atoms: N1_1  and  C1_5 
REMARK    2  A    between atoms: C1_5  and  C2_6 
REMARK    3  A    between atoms: C2_6  and  C3_7 
REMARK    4  A    between atoms: C3_7  and  N2_8 
REMARK    5  A    between atoms: N2_8  and  N3_9 
REMARK    6  A    between atoms: N2_8  and  C9_26 
REMARK    7  A    between atoms: N3_9  and  C4_11 
REMARK    8  A    between atoms: C4_11  and  C5_12 
REMARK    9  A    between atoms: C7_16  and  N5_17 
REMARK   10  A    between atoms: N5_17  and  N6_19 
REMARK       I    between atoms: N6_19  and  C8_21 
REMARK   11  A    between atoms: C9_26  and  O2_27 
REMARK   12  A    between atoms: C9_26  and  C10_29 
ROOT
HETATM    1  N2  UNL     1     -30.347  40.044  20.426  1.00  0.00    -0.269 N 
ENDROOT
BRANCH   1   2
HETATM    2  C3  UNL     1     -31.559  40.252  19.707  1.00  0.00     0.153 C 
BRANCH   2   3
HETATM    3  C2  UNL     1     -32.428  39.021  19.608  1.00  0.00     0.049 C 
BRANCH   3   4
HETATM    4  C1  UNL     1     -33.662  39.230  20.478  1.00  0.00     0.231 C 
BRANCH   4   5
HETATM    5  N1  UNL     1     -33.445  38.834  21.837  1.00  0.00    -0.079 N 
ATOM      6  H13 UNL     1     -33.101  37.876  21.891  1.00  0.00     0.274 HD
ATOM      7  H12 UNL     1     -32.641  39.318  22.237  1.00  0.00     0.274 HD
ATOM      8  H11 UNL     1     -34.275  38.961  22.416  1.00  0.00     0.274 HD
ENDBRANCH   4   5
ENDBRANCH   3   4
ENDBRANCH   2   3
ENDBRANCH   1   2
BRANCH   1   9
HETATM    9  N3  UNL     1     -29.158  40.013  19.684  1.00  0.00    -0.309 N 
ATOM     10  H3  UNL     1     -28.681  39.136  19.474  1.00  0.00     0.186 HD
BRANCH   9  11
HETATM   11  C4  UNL     1     -28.653  41.252  19.244  1.00  0.00     0.107 C 
BRANCH  11  12
HETATM   12  C5  UNL     1     -27.232  41.506  19.731  1.00  0.00     0.142 C 
HETATM   13  C6  UNL     1     -26.455  42.333  18.739  1.00  0.00     0.153 C 
HETATM   14  N4  UNL     1     -25.105  41.867  18.900  1.00  0.00    -0.359 N 
HETATM   15  C7  UNL     1     -25.103  40.723  19.484  1.00  0.00     0.191 C 
ATOM     16  H4  UNL     1     -24.271  42.369  18.594  1.00  0.00     0.162 HD
HETATM   17  N8  UNL     1     -26.429  40.313  19.783  1.00  0.00    -0.350 N 
ATOM     18  H8  UNL     1     -26.747  39.367  19.992  1.00  0.00     0.163 HD
BRANCH  15  19
HETATM   19  N5  UNL     1     -23.881  40.031  19.766  1.00  0.00    -0.268 N 
ATOM     20  H5  UNL     1     -23.519  40.074  20.718  1.00  0.00     0.190 HD
BRANCH  19  21
HETATM   21  N6  UNL     1     -23.157  39.306  18.827  1.00  0.00    -0.251 N 
HETATM   22  C8  UNL     1     -22.379  39.877  17.784  1.00  0.00     0.347 C 
HETATM   23  N7  UNL     1     -21.678  39.038  16.879  1.00  0.00    -0.038 NA
HETATM   24  O1  UNL     1     -22.265  41.114  17.604  1.00  0.00    -0.249 OA
ATOM     25  H6  UNL     1     -23.185  38.288  18.891  1.00  0.00     0.191 HD
ENDBRANCH  19  21
ENDBRANCH  15  19
ENDBRANCH  11  12
ENDBRANCH   9  11
ENDBRANCH   1   9
BRANCH   1  26
HETATM   26  C9  UNL     1     -30.224  39.879  21.813  1.00  0.00     0.202 C 
BRANCH  26  27
HETATM   27  O2  UNL     1     -30.192  38.631  22.191  1.00  0.00    -0.342 OA
ATOM     28  H2  UNL     1     -30.904  38.109  21.841  1.00  0.00     0.219 HD
ENDBRANCH  26  27
BRANCH  26  29
HETATM   29  C10 UNL     1     -30.128  40.889  22.840  1.00  0.00     0.150 C 
HETATM   30  N9  UNL     1     -29.097  41.733  22.842  1.00  0.00    -0.371 N 
HETATM   31  C11 UNL     1     -29.196  42.645  23.934  1.00  0.00     0.141 C 
ATOM     32  H9  UNL     1     -28.341  41.727  22.158  1.00  0.00     0.161 HD
HETATM   33  C12 UNL     1     -30.701  42.659  24.217  1.00  0.00     0.141 C 
HETATM   34  N10 UNL     1     -30.965  41.230  23.920  1.00  0.00    -0.371 N 
ATOM     35  H10 UNL     1     -31.622  40.616  24.402  1.00  0.00     0.161 HD
ENDBRANCH  26  29
ENDBRANCH   1  26
TORSDOF 12
ENDMDL
MODEL 4
REMARK VINA RESULT: -5.161528431      3.119      5.128
REMARK  12 active torsions:
REMARK  status: ('A' for Active; 'I' for Inactive)
REMARK    1  A    between atoms: N1_1  and  C1_5 
REMARK    2  A    between atoms: C1_5  and  C2_6 
REMARK    3  A    between atoms: C2_6  and  C3_7 
REMARK    4  A    between atoms: C3_7  and  N2_8 
REMARK    5  A    between atoms: N2_8  and  N3_9 
REMARK    6  A    between atoms: N2_8  and  C9_26 
REMARK    7  A    between atoms: N3_9  and  C4_11 
REMARK    8  A    between atoms: C4_11  and  C5_12 
REMARK    9  A    between atoms: C7_16  and  N5_17 
REMARK   10  A    between atoms: N5_17  and  N6_19 
REMARK       I    between atoms: N6_19  and  C8_21 
REMARK   11  A    between atoms: C9_26  and  O2_27 
REMARK   12  A    between atoms: C9_26  and  C10_29 
ROOT
HETATM    1  N2  UNL     1     -32.477  43.771  27.866  1.00  0.00    -0.269 N 
ENDROOT
BRANCH   1   2
HETATM    2  C3  UNL     1     -32.601  45.182  28.006  1.00  0.00     0.153 C 
BRANCH   2   3
HETATM    3  C2  UNL     1     -32.679  45.648  29.440  1.00  0.00     0.049 C 
BRANCH   3   4
HETATM    4  C1  UNL     1     -34.135  45.953  29.771  1.00  0.00     0.231 C 
BRANCH   4   5
HETATM    5  N1  UNL     1     -34.533  45.409  31.035  1.00  0.00    -0.079 N 
ATOM      6  H13 UNL     1     -34.599  44.392  30.994  1.00  0.00     0.274 HD
ATOM      7  H12 UNL     1     -33.786  45.496  31.724  1.00  0.00     0.274 HD
ATOM      8  H11 UNL     1     -35.400  45.820  31.380  1.00  0.00     0.274 HD
ENDBRANCH   4   5
ENDBRANCH   3   4
ENDBRANCH   2   3
ENDBRANCH   1   2
BRANCH   1   9
HETATM    9  N3  UNL     1     -31.211  43.213  28.093  1.00  0.00    -0.309 N 
ATOM     10  H3  UNL     1     -31.097  42.328  28.587  1.00  0.00     0.186 HD
BRANCH   9  11
HETATM   11  C4  UNL     1     -30.103  43.933  27.604  1.00  0.00     0.107 C 
BRANCH  11  12
HETATM   12  C5  UNL     1     -29.629  43.422  26.250  1.00  0.00     0.142 C 
HETATM   13  C6  UNL     1     -30.178  44.264  25.127  1.00  0.00     0.153 C 
HETATM   14  N4  UNL     1     -30.318  43.328  24.044  1.00  0.00    -0.359 N 
HETATM   15  C7  UNL     1     -30.317  42.128  24.501  1.00  0.00     0.191 C 
ATOM     16  H4  UNL     1     -30.407  43.581  23.060  1.00  0.00     0.162 HD
HETATM   17  N8  UNL     1     -30.167  42.130  25.912  1.00  0.00    -0.350 N 
ATOM     18  H8  UNL     1     -30.393  41.372  26.556  1.00  0.00     0.163 HD
BRANCH  15  19
HETATM   19  N5  UNL     1     -30.445  40.999  23.629  1.00  0.00    -0.268 N 
ATOM     20  H5  UNL     1     -29.594  40.621  23.213  1.00  0.00     0.190 HD
BRANCH  19  21
HETATM   21  N6  UNL     1     -31.652  40.385  23.313  1.00  0.00    -0.251 N 
HETATM   22  C8  UNL     1     -31.787  39.241  22.482  1.00  0.00     0.347 C 
HETATM   23  N7  UNL     1     -33.073  38.696  22.227  1.00  0.00    -0.038 NA
HETATM   24  O1  UNL     1     -30.814  38.659  21.943  1.00  0.00    -0.249 OA
ATOM     25  H6  UNL     1     -32.503  40.785  23.708  1.00  0.00     0.191 HD
ENDBRANCH  19  21
ENDBRANCH  15  19
ENDBRANCH  11  12
ENDBRANCH   9  11
ENDBRANCH   1   9
BRANCH   1  26
HETATM   26  C9  UNL     1     -33.504  42.877  27.533  1.00  0.00     0.202 C 
BRANCH  26  27
HETATM   27  O2  UNL     1     -33.118  41.896  26.766  1.00  0.00    -0.342 OA
ATOM     28  H2  UNL     1     -33.787  41.598  26.161  1.00  0.00     0.219 HD
ENDBRANCH  26  27
BRANCH  26  29
HETATM   29  C10 UNL     1     -34.893  42.907  27.928  1.00  0.00     0.150 C 
HETATM   30  N9  UNL     1     -35.240  42.520  29.155  1.00  0.00    -0.371 N 
HETATM   31  C11 UNL     1     -36.650  42.629  29.336  1.00  0.00     0.141 C 
ATOM     32  H9  UNL     1     -34.587  42.191  29.866  1.00  0.00     0.161 HD
HETATM   33  C12 UNL     1     -37.034  43.699  28.311  1.00  0.00     0.141 C 
HETATM   34  N10 UNL     1     -36.064  43.312  27.257  1.00  0.00    -0.371 N 
ATOM     35  H10 UNL     1     -36.214  43.335  26.249  1.00  0.00     0.161 HD
ENDBRANCH  26  29
ENDBRANCH   1  26
TORSDOF 12
ENDMDL
MODEL 5
REMARK VINA RESULT: -5.147506585      1.759      3.248
REMARK  12 active torsions:
REMARK  status: ('A' for Active; 'I' for Inactive)
REMARK    1  A    between atoms: N1_1  and  C1_5 
REMARK    2  A    between atoms: C1_5  and  C2_6 
REMARK    3  A    between atoms: C2_6  and  C3_7 
REMARK    4  A    between atoms: C3_7  and  N2_8 
REMARK    5  A    between atoms: N2_8  and  N3_9 
REMARK    6  A    between atoms: N2_8  and  C9_26 
REMARK    7  A    between atoms: N3_9  and  C4_11 
REMARK    8  A    between atoms: C4_11  and  C5_12 
REMARK    9  A    between atoms: C7_16  and  N5_17 
REMARK   10  A    between atoms: N5_17  and  N6_19 
REMARK       I    between atoms: N6_19  and  C8_21 
REMARK   11  A    between atoms: C9_26  and  O2_27 
REMARK   12  A    between atoms: C9_26  and  C10_29 
ROOT
HETATM    1  N2  UNL     1     -32.885  42.744  26.565  1.00  0.00    -0.269 N 
ENDROOT
BRANCH   1   2
HETATM    2  C3  UNL     1     -34.082  43.459  26.854  1.00  0.00     0.153 C 
BRANCH   2   3
HETATM    3  C2  UNL     1     -34.592  43.249  28.260  1.00  0.00     0.049 C 
BRANCH   3   4
HETATM    4  C1  UNL     1     -34.509  44.575  29.007  1.00  0.00     0.231 C 
BRANCH   4   5
HETATM    5  N1  UNL     1     -33.536  44.549  30.059  1.00  0.00    -0.079 N 
ATOM      6  H13 UNL     1     -33.814  45.153  30.832  1.00  0.00     0.274 HD
ATOM      7  H12 UNL     1     -33.541  43.651  30.543  1.00  0.00     0.274 HD
ATOM      8  H11 UNL     1     -32.600  44.782  29.727  1.00  0.00     0.274 HD
ENDBRANCH   4   5
ENDBRANCH   3   4
ENDBRANCH   2   3
ENDBRANCH   1   2
BRANCH   1   9
HETATM    9  N3  UNL     1     -32.966  41.711  25.621  1.00  0.00    -0.309 N 
ATOM     10  H3  UNL     1     -32.469  40.830  25.748  1.00  0.00     0.186 HD
BRANCH   9  11
HETATM   11  C4  UNL     1     -33.768  41.950  24.487  1.00  0.00     0.107 C 
BRANCH  11  12
HETATM   12  C5  UNL     1     -32.988  41.813  23.186  1.00  0.00     0.142 C 
HETATM   13  C6  UNL     1     -32.531  40.393  22.971  1.00  0.00     0.153 C 
HETATM   14  N4  UNL     1     -31.295  40.544  22.252  1.00  0.00    -0.359 N 
HETATM   15  C7  UNL     1     -30.848  41.740  22.397  1.00  0.00     0.191 C 
ATOM     16  H4  UNL     1     -30.839  39.810  21.709  1.00  0.00     0.162 HD
HETATM   17  N8  UNL     1     -31.728  42.507  23.204  1.00  0.00    -0.350 N 
ATOM     18  H8  UNL     1     -31.511  43.374  23.697  1.00  0.00     0.163 HD
BRANCH  15  19
HETATM   19  N5  UNL     1     -29.625  42.158  21.782  1.00  0.00    -0.268 N 
ATOM     20  H5  UNL     1     -29.679  42.857  21.040  1.00  0.00     0.190 HD
BRANCH  19  21
HETATM   21  N6  UNL     1     -28.368  41.674  22.128  1.00  0.00    -0.251 N 
HETATM   22  C8  UNL     1     -27.826  40.435  21.691  1.00  0.00     0.347 C 
HETATM   23  N7  UNL     1     -26.528  40.041  22.108  1.00  0.00    -0.038 NA
HETATM   24  O1  UNL     1     -28.437  39.642  20.934  1.00  0.00    -0.249 OA
ATOM     25  H6  UNL     1     -27.792  42.252  22.741  1.00  0.00     0.191 HD
ENDBRANCH  19  21
ENDBRANCH  15  19
ENDBRANCH  11  12
ENDBRANCH   9  11
ENDBRANCH   1   9
BRANCH   1  26
HETATM   26  C9  UNL     1     -31.621  42.981  27.125  1.00  0.00     0.202 C 
BRANCH  26  27
HETATM   27  O2  UNL     1     -30.985  41.894  27.462  1.00  0.00    -0.342 OA
ATOM     28  H2  UNL     1     -30.111  42.052  27.797  1.00  0.00     0.219 HD
ENDBRANCH  26  27
BRANCH  26  29
HETATM   29  C10 UNL     1     -30.960  44.242  27.363  1.00  0.00     0.150 C 
HETATM   30  N9  UNL     1     -30.504  44.530  28.582  1.00  0.00    -0.371 N 
HETATM   31  C11 UNL     1     -29.888  45.816  28.598  1.00  0.00     0.141 C 
ATOM     32  H9  UNL     1     -30.584  43.915  29.392  1.00  0.00     0.161 HD
HETATM   33  C12 UNL     1     -29.474  46.003  27.136  1.00  0.00     0.141 C 
HETATM   34  N10 UNL     1     -30.639  45.323  26.518  1.00  0.00    -0.371 N 
ATOM     35  H10 UNL     1     -31.113  45.585  25.654  1.00  0.00     0.161 HD
ENDBRANCH  26  29
ENDBRANCH   1  26
TORSDOF 12
ENDMDL
