MODEL 1
REMARK VINA RESULT: -4.091347447      0.000      0.000
REMARK  6 active torsions:
REMARK  status: ('A' for Active; 'I' for Inactive)
REMARK    1  A    between atoms: C2_2  and  C3_3 
REMARK    2  A    between atoms: C3_3  and  C4_4 
REMARK    3  A    between atoms: N1_5  and  C5_7 
REMARK    4  A    between atoms: C6_8  and  N2_9 
REMARK    5  A    between atoms: N3_14  and  C8_15 
REMARK    6  A    between atoms: C8_15  and  C9_16 
ROOT
HETATM    1  C5  UNL     1      21.752   4.190  29.765  1.00  0.00     0.354 C 
HETATM    2  C6  UNL     1      23.094   3.509  29.968  1.00  0.00     0.264 C 
HETATM    3  C7  UNL     1      23.627   4.749  29.266  1.00  0.00     0.312 C 
HETATM    4  N3  UNL     1      22.455   5.445  29.693  1.00  0.00     0.120 N 
ENDROOT
BRANCH   1   5
HETATM    5  N1  UNL     1      21.137   3.735  28.570  1.00  0.00    -0.371 N 
HETATM    6  C4  UNL     1      19.938   3.324  28.481  1.00  0.00     0.061 C 
ATOM      7  H1  UNL     1      21.700   3.738  27.719  1.00  0.00     0.160 HD
BRANCH   6   8
HETATM    8  C3  UNL     1      19.380   2.868  27.190  1.00  0.00     0.070 C 
BRANCH   8   9
HETATM    9  C2  UNL     1      18.775   3.964  26.397  1.00  0.00    -0.032 C 
HETATM   10  C1  UNL     1      18.213   3.692  25.239  1.00  0.00     0.007 C 
ENDBRANCH   8   9
ENDBRANCH   6   8
ENDBRANCH   1   5
BRANCH   2  11
HETATM   11  N2  UNL     1      23.273   2.362  29.113  1.00  0.00    -0.070 N 
ATOM     12  H23 UNL     1      24.009   1.752  29.468  1.00  0.00     0.274 HD
ATOM     13  H22 UNL     1      22.480   1.725  29.187  1.00  0.00     0.274 HD
ATOM     14  H21 UNL     1      23.447   2.618  28.141  1.00  0.00     0.274 HD
ENDBRANCH   2  11
BRANCH   4  15
HETATM   15  C8  UNL     1      22.565   6.082  30.997  1.00  0.00     0.319 C 
BRANCH  15  16
HETATM   16  C9  UNL     1      22.501   7.552  30.903  1.00  0.00     0.083 C 
HETATM   17  N4  UNL     1      21.749   8.272  31.658  1.00  0.00    -0.410 N 
ATOM     18  H42 UNL     1      21.176   7.788  32.349  1.00  0.00     0.155 HD
ATOM     19  H41 UNL     1      21.706   9.289  31.594  1.00  0.00     0.155 HD
ENDBRANCH  15  16
ENDBRANCH   4  15
TORSDOF 6
ENDMDL
MODEL 2
REMARK VINA RESULT: -4.042939102      2.620      5.406
REMARK  6 active torsions:
REMARK  status: ('A' for Active; 'I' for Inactive)
REMARK    1  A    between atoms: C2_2  and  C3_3 
REMARK    2  A    between atoms: C3_3  and  C4_4 
REMARK    3  A    between atoms: N1_5  and  C5_7 
REMARK    4  A    between atoms: C6_8  and  N2_9 
REMARK    5  A    between atoms: N3_14  and  C8_15 
REMARK    6  A    between atoms: C8_15  and  C9_16 
ROOT
HETATM    1  C5  UNL     1      19.969   3.847  27.961  1.00  0.00     0.354 C 
HETATM    2  C6  UNL     1      18.901   3.437  26.963  1.00  0.00     0.264 C 
HETATM    3  C7  UNL     1      19.884   2.322  26.640  1.00  0.00     0.312 C 
HETATM    4  N3  UNL     1      20.435   2.484  27.948  1.00  0.00     0.120 N 
ENDROOT
BRANCH   1   5
HETATM    5  N1  UNL     1      20.833   4.820  27.396  1.00  0.00    -0.371 N 
HETATM    6  C4  UNL     1      21.764   5.417  28.022  1.00  0.00     0.061 C 
ATOM      7  H1  UNL     1      20.697   5.060  26.413  1.00  0.00     0.160 HD
BRANCH   6   8
HETATM    8  C3  UNL     1      22.618   6.420  27.350  1.00  0.00     0.070 C 
BRANCH   8   9
HETATM    9  C2  UNL     1      23.754   6.873  28.188  1.00  0.00    -0.032 C 
HETATM   10  C1  UNL     1      24.947   6.354  27.997  1.00  0.00     0.007 C 
ENDBRANCH   8   9
ENDBRANCH   6   8
ENDBRANCH   1   5
BRANCH   2  11
HETATM   11  N2  UNL     1      18.812   4.337  25.839  1.00  0.00    -0.070 N 
ATOM     12  H23 UNL     1      18.601   5.286  26.147  1.00  0.00     0.274 HD
ATOM     13  H22 UNL     1      19.731   4.496  25.426  1.00  0.00     0.274 HD
ATOM     14  H21 UNL     1      18.144   4.023  25.135  1.00  0.00     0.274 HD
ENDBRANCH   2  11
BRANCH   4  15
HETATM   15  C8  UNL     1      19.797   1.683  28.982  1.00  0.00     0.319 C 
BRANCH  15  16
HETATM   16  C9  UNL     1      20.756   0.796  29.666  1.00  0.00     0.083 C 
HETATM   17  N4  UNL     1      22.032   0.945  29.585  1.00  0.00    -0.410 N 
ATOM     18  H42 UNL     1      22.379   1.717  29.017  1.00  0.00     0.155 HD
ATOM     19  H41 UNL     1      22.695   0.331  30.059  1.00  0.00     0.155 HD
ENDBRANCH  15  16
ENDBRANCH   4  15
TORSDOF 6
ENDMDL
MODEL 3
REMARK VINA RESULT: -4.035653179      2.239      2.480
REMARK  6 active torsions:
REMARK  status: ('A' for Active; 'I' for Inactive)
REMARK    1  A    between atoms: C2_2  and  C3_3 
REMARK    2  A    between atoms: C3_3  and  C4_4 
REMARK    3  A    between atoms: N1_5  and  C5_7 
REMARK    4  A    between atoms: C6_8  and  N2_9 
REMARK    5  A    between atoms: N3_14  and  C8_15 
REMARK    6  A    between atoms: C8_15  and  C9_16 
ROOT
HETATM    1  C5  UNL     1      20.644   2.989  30.391  1.00  0.00     0.354 C 
HETATM    2  C6  UNL     1      22.111   3.375  30.437  1.00  0.00     0.264 C 
HETATM    3  C7  UNL     1      21.552   4.769  30.681  1.00  0.00     0.312 C 
HETATM    4  N3  UNL     1      20.360   4.160  31.181  1.00  0.00     0.120 N 
ENDROOT
BRANCH   1   5
HETATM    5  N1  UNL     1      20.168   2.993  29.054  1.00  0.00    -0.371 N 
HETATM    6  C4  UNL     1      19.447   2.084  28.536  1.00  0.00     0.061 C 
ATOM      7  H1  UNL     1      20.424   3.785  28.464  1.00  0.00     0.160 HD
BRANCH   6   8
HETATM    8  C3  UNL     1      18.997   2.172  27.131  1.00  0.00     0.070 C 
BRANCH   8   9
HETATM    9  C2  UNL     1      18.853   3.567  26.651  1.00  0.00    -0.032 C 
HETATM   10  C1  UNL     1      18.271   3.798  25.495  1.00  0.00     0.007 C 
ENDBRANCH   8   9
ENDBRANCH   6   8
ENDBRANCH   1   5
BRANCH   2  11
HETATM   11  N2  UNL     1      22.741   3.332  29.141  1.00  0.00    -0.070 N 
ATOM     12  H23 UNL     1      23.259   2.463  29.015  1.00  0.00     0.274 HD
ATOM     13  H22 UNL     1      22.047   3.219  28.402  1.00  0.00     0.274 HD
ATOM     14  H21 UNL     1      23.336   4.142  28.964  1.00  0.00     0.274 HD
ENDBRANCH   2  11
BRANCH   4  15
HETATM   15  C8  UNL     1      20.377   3.869  32.606  1.00  0.00     0.319 C 
BRANCH  15  16
HETATM   16  C9  UNL     1      19.260   4.518  33.317  1.00  0.00     0.083 C 
HETATM   17  N4  UNL     1      18.746   5.638  32.945  1.00  0.00    -0.410 N 
ATOM     18  H42 UNL     1      19.142   6.084  32.119  1.00  0.00     0.155 HD
ATOM     19  H41 UNL     1      17.973   6.086  33.437  1.00  0.00     0.155 HD
ENDBRANCH  15  16
ENDBRANCH   4  15
TORSDOF 6
ENDMDL
MODEL 4
REMARK VINA RESULT: -3.970519992      1.775      2.054
REMARK  6 active torsions:
REMARK  status: ('A' for Active; 'I' for Inactive)
REMARK    1  A    between atoms: C2_2  and  C3_3 
REMARK    2  A    between atoms: C3_3  and  C4_4 
REMARK    3  A    between atoms: N1_5  and  C5_7 
REMARK    4  A    between atoms: C6_8  and  N2_9 
REMARK    5  A    between atoms: N3_14  and  C8_15 
REMARK    6  A    between atoms: C8_15  and  C9_16 
ROOT
HETATM    1  C5  UNL     1      21.116   4.309  29.740  1.00  0.00     0.354 C 
HETATM    2  C6  UNL     1      21.818   3.613  30.892  1.00  0.00     0.264 C 
HETATM    3  C7  UNL     1      22.897   3.365  29.849  1.00  0.00     0.312 C 
HETATM    4  N3  UNL     1      22.407   4.499  29.131  1.00  0.00     0.120 N 
ENDROOT
BRANCH   1   5
HETATM    5  N1  UNL     1      20.228   3.418  29.084  1.00  0.00    -0.371 N 
HETATM    6  C4  UNL     1      19.846   3.530  27.878  1.00  0.00     0.061 C 
ATOM      7  H1  UNL     1      19.869   2.628  29.622  1.00  0.00     0.160 HD
BRANCH   6   8
HETATM    8  C3  UNL     1      18.916   2.551  27.276  1.00  0.00     0.070 C 
BRANCH   8   9
HETATM    9  C2  UNL     1      18.801   2.685  25.804  1.00  0.00    -0.032 C 
HETATM   10  C1  UNL     1      18.203   3.740  25.294  1.00  0.00     0.007 C 
ENDBRANCH   8   9
ENDBRANCH   6   8
ENDBRANCH   1   5
BRANCH   2  11
HETATM   11  N2  UNL     1      21.200   2.360  31.247  1.00  0.00    -0.070 N 
ATOM     12  H23 UNL     1      20.629   2.459  32.087  1.00  0.00     0.274 HD
ATOM     13  H22 UNL     1      20.470   2.111  30.580  1.00  0.00     0.274 HD
ATOM     14  H21 UNL     1      21.875   1.602  31.350  1.00  0.00     0.274 HD
ENDBRANCH   2  11
BRANCH   4  15
HETATM   15  C8  UNL     1      23.007   5.768  29.514  1.00  0.00     0.319 C 
BRANCH  15  16
HETATM   16  C9  UNL     1      23.234   6.647  28.352  1.00  0.00     0.083 C 
HETATM   17  N4  UNL     1      22.798   6.378  27.172  1.00  0.00    -0.410 N 
ATOM     18  H42 UNL     1      22.273   5.512  27.051  1.00  0.00     0.155 HD
ATOM     19  H41 UNL     1      22.955   6.986  26.368  1.00  0.00     0.155 HD
ENDBRANCH  15  16
ENDBRANCH   4  15
TORSDOF 6
ENDMDL
MODEL 5
REMARK VINA RESULT: -3.955682185      2.011      3.254
REMARK  6 active torsions:
REMARK  status: ('A' for Active; 'I' for Inactive)
REMARK    1  A    between atoms: C2_2  and  C3_3 
REMARK    2  A    between atoms: C3_3  and  C4_4 
REMARK    3  A    between atoms: N1_5  and  C5_7 
REMARK    4  A    between atoms: C6_8  and  N2_9 
REMARK    5  A    between atoms: N3_14  and  C8_15 
REMARK    6  A    between atoms: C8_15  and  C9_16 
ROOT
HETATM    1  C5  UNL     1      21.738   2.949  29.376  1.00  0.00     0.354 C 
HETATM    2  C6  UNL     1      22.385   4.313  29.530  1.00  0.00     0.264 C 
HETATM    3  C7  UNL     1      21.302   4.510  30.580  1.00  0.00     0.312 C 
HETATM    4  N3  UNL     1      21.235   3.089  30.719  1.00  0.00     0.120 N 
ENDROOT
BRANCH   1   5
HETATM    5  N1  UNL     1      20.777   2.966  28.332  1.00  0.00    -0.371 N 
HETATM    6  C4  UNL     1      19.814   2.145  28.217  1.00  0.00     0.061 C 
ATOM      7  H1  UNL     1      20.866   3.691  27.620  1.00  0.00     0.160 HD
BRANCH   6   8
HETATM    8  C3  UNL     1      18.859   2.238  27.093  1.00  0.00     0.070 C 
BRANCH   8   9
HETATM    9  C2  UNL     1      18.868   3.564  26.429  1.00  0.00    -0.032 C 
HETATM   10  C1  UNL     1      18.240   3.719  25.285  1.00  0.00     0.007 C 
ENDBRANCH   8   9
ENDBRANCH   6   8
ENDBRANCH   1   5
BRANCH   2  11
HETATM   11  N2  UNL     1      22.127   5.182  28.409  1.00  0.00    -0.070 N 
ATOM     12  H23 UNL     1      22.675   4.903  27.596  1.00  0.00     0.274 HD
ATOM     13  H22 UNL     1      21.189   5.030  28.037  1.00  0.00     0.274 HD
ATOM     14  H21 UNL     1      22.277   6.167  28.630  1.00  0.00     0.274 HD
ENDBRANCH   2  11
BRANCH   4  15
HETATM   15  C8  UNL     1      22.149   2.530  31.703  1.00  0.00     0.319 C 
BRANCH  15  16
HETATM   16  C9  UNL     1      21.485   1.551  32.583  1.00  0.00     0.083 C 
HETATM   17  N4  UNL     1      20.270   1.164  32.412  1.00  0.00    -0.410 N 
ATOM     18  H42 UNL     1      19.756   1.562  31.627  1.00  0.00     0.155 HD
ATOM     19  H41 UNL     1      19.810   0.487  33.021  1.00  0.00     0.155 HD
ENDBRANCH  15  16
ENDBRANCH   4  15
TORSDOF 6
ENDMDL
