MODEL 1
REMARK VINA RESULT: -5.543874843      0.000      0.000
REMARK  5 active torsions:
REMARK  status: ('A' for Active; 'I' for Inactive)
REMARK    1  A    between atoms: N2_4  and  N3_6 
REMARK    2  A    between atoms: C1_8  and  N4_9 
REMARK    3  A    between atoms: N4_9  and  C2_11 
REMARK    4  A    between atoms: C2_11  and  C3_12 
REMARK    5  A    between atoms: C3_12  and  N5_13 
ROOT
HETATM    1  N4  UNL     1      20.451   1.172  27.969  1.00  0.00    -0.384 N 
ATOM      2  H4  UNL     1      20.414   0.156  28.054  1.00  0.00     0.160 HD
ENDROOT
BRANCH   1   3
HETATM    3  C1  UNL     1      19.600   1.801  27.038  1.00  0.00     0.194 C 
HETATM    4  N3  UNL     1      20.035   2.212  25.899  1.00  0.00    -0.283 N 
ATOM      5  H3  UNL     1      21.021   2.073  25.680  1.00  0.00     0.189 HD
BRANCH   4   6
HETATM    6  N2  UNL     1      19.233   2.835  24.950  1.00  0.00    -0.248 N 
HETATM    7  N1  UNL     1      18.404   3.719  25.290  1.00  0.00    -0.331 N 
ATOM      8  H12 UNL     1      18.333   3.969  26.276  1.00  0.00     0.178 HD
ATOM      9  H11 UNL     1      17.816   4.177  24.594  1.00  0.00     0.178 HD
ATOM     10  H2  UNL     1      19.318   2.574  23.968  1.00  0.00     0.207 HD
ENDBRANCH   4   6
ENDBRANCH   1   3
BRANCH   1  11
HETATM   11  C2  UNL     1      21.380   1.906  28.818  1.00  0.00     0.140 C 
BRANCH  11  12
HETATM   12  C3  UNL     1      20.658   3.081  29.396  1.00  0.00     0.147 C 
BRANCH  12  13
HETATM   13  N5  UNL     1      21.275   4.339  29.177  1.00  0.00    -0.333 N 
HETATM   14  C4  UNL     1      21.980   4.944  30.301  1.00  0.00     0.129 C 
HETATM   15  C5  UNL     1      22.710   6.195  29.906  1.00  0.00     0.040 C 
HETATM   16  C6  UNL     1      23.324   6.115  28.533  1.00  0.00     0.126 C 
HETATM   17  N6  UNL     1      22.277   5.889  27.555  1.00  0.00    -0.343 N 
HETATM   18  C7  UNL     1      21.229   5.011  27.934  1.00  0.00     0.318 C 
ATOM     19  H6  UNL     1      22.293   6.338  26.639  1.00  0.00     0.164 HD
HETATM   20  O1  UNL     1      20.272   4.831  27.180  1.00  0.00    -0.247 OA
ENDBRANCH  12  13
ENDBRANCH  11  12
ENDBRANCH   1  11
TORSDOF 5
ENDMDL
MODEL 2
REMARK VINA RESULT: -5.287151865      1.048      1.131
REMARK  5 active torsions:
REMARK  status: ('A' for Active; 'I' for Inactive)
REMARK    1  A    between atoms: N2_4  and  N3_6 
REMARK    2  A    between atoms: C1_8  and  N4_9 
REMARK    3  A    between atoms: N4_9  and  C2_11 
REMARK    4  A    between atoms: C2_11  and  C3_12 
REMARK    5  A    between atoms: C3_12  and  N5_13 
ROOT
HETATM    1  N4  UNL     1      19.557   1.573  29.112  1.00  0.00    -0.384 N 
ATOM      2  H4  UNL     1      18.973   0.859  29.546  1.00  0.00     0.160 HD
ENDROOT
BRANCH   1   3
HETATM    3  C1  UNL     1      19.314   1.915  27.766  1.00  0.00     0.194 C 
HETATM    4  N3  UNL     1      20.276   2.059  26.923  1.00  0.00    -0.283 N 
ATOM      5  H3  UNL     1      21.232   1.919  27.253  1.00  0.00     0.189 HD
BRANCH   4   6
HETATM    6  N2  UNL     1      20.084   2.393  25.588  1.00  0.00    -0.248 N 
HETATM    7  N1  UNL     1      19.015   2.938  25.210  1.00  0.00    -0.331 N 
ATOM      8  H12 UNL     1      18.291   3.129  25.903  1.00  0.00     0.178 HD
ATOM      9  H11 UNL     1      18.874   3.185  24.230  1.00  0.00     0.178 HD
ATOM     10  H2  UNL     1      20.818   2.196  24.908  1.00  0.00     0.207 HD
ENDBRANCH   4   6
ENDBRANCH   1   3
BRANCH   1  11
HETATM   11  C2  UNL     1      20.605   2.194  29.912  1.00  0.00     0.140 C 
BRANCH  11  12
HETATM   12  C3  UNL     1      20.250   3.633  30.111  1.00  0.00     0.147 C 
BRANCH  12  13
HETATM   13  N5  UNL     1      21.318   4.550  29.931  1.00  0.00    -0.333 N 
HETATM   14  C4  UNL     1      21.887   5.158  31.128  1.00  0.00     0.129 C 
HETATM   15  C5  UNL     1      23.097   5.991  30.820  1.00  0.00     0.040 C 
HETATM   16  C6  UNL     1      23.964   5.402  29.739  1.00  0.00     0.126 C 
HETATM   17  N6  UNL     1      23.190   5.282  28.518  1.00  0.00    -0.343 N 
HETATM   18  C7  UNL     1      21.834   4.887  28.659  1.00  0.00     0.318 C 
ATOM     19  H6  UNL     1      23.599   5.472  27.603  1.00  0.00     0.164 HD
HETATM   20  O1  UNL     1      21.100   4.836  27.671  1.00  0.00    -0.247 OA
ENDBRANCH  12  13
ENDBRANCH  11  12
ENDBRANCH   1  11
TORSDOF 5
ENDMDL
MODEL 3
REMARK VINA RESULT: -5.215532158      1.118      1.515
REMARK  5 active torsions:
REMARK  status: ('A' for Active; 'I' for Inactive)
REMARK    1  A    between atoms: N2_4  and  N3_6 
REMARK    2  A    between atoms: C1_8  and  N4_9 
REMARK    3  A    between atoms: N4_9  and  C2_11 
REMARK    4  A    between atoms: C2_11  and  C3_12 
REMARK    5  A    between atoms: C3_12  and  N5_13 
ROOT
HETATM    1  N4  UNL     1      21.469   1.628  29.801  1.00  0.00    -0.384 N 
ATOM      2  H4  UNL     1      21.565   0.848  30.451  1.00  0.00     0.160 HD
ENDROOT
BRANCH   1   3
HETATM    3  C1  UNL     1      20.476   1.553  28.803  1.00  0.00     0.194 C 
HETATM    4  N3  UNL     1      20.726   1.865  27.580  1.00  0.00    -0.283 N 
ATOM      5  H3  UNL     1      21.670   2.171  27.343  1.00  0.00     0.189 HD
BRANCH   4   6
HETATM    6  N2  UNL     1      19.780   1.806  26.564  1.00  0.00    -0.248 N 
HETATM    7  N1  UNL     1      19.988   2.369  25.458  1.00  0.00    -0.331 N 
ATOM      8  H12 UNL     1      20.866   2.870  25.322  1.00  0.00     0.178 HD
ATOM      9  H11 UNL     1      19.295   2.326  24.712  1.00  0.00     0.178 HD
ATOM     10  H2  UNL     1      18.907   1.300  26.715  1.00  0.00     0.207 HD
ENDBRANCH   4   6
ENDBRANCH   1   3
BRANCH   1  11
HETATM   11  C2  UNL     1      22.364   2.768  29.947  1.00  0.00     0.140 C 
BRANCH  11  12
HETATM   12  C3  UNL     1      21.532   3.991  30.163  1.00  0.00     0.147 C 
BRANCH  12  13
HETATM   13  N5  UNL     1      21.935   5.135  29.427  1.00  0.00    -0.333 N 
HETATM   14  C4  UNL     1      22.603   6.203  30.162  1.00  0.00     0.129 C 
HETATM   15  C5  UNL     1      23.108   7.287  29.254  1.00  0.00     0.040 C 
HETATM   16  C6  UNL     1      23.645   6.764  27.948  1.00  0.00     0.126 C 
HETATM   17  N6  UNL     1      22.590   6.057  27.246  1.00  0.00    -0.343 N 
HETATM   18  C7  UNL     1      21.713   5.272  28.038  1.00  0.00     0.318 C 
ATOM     19  H6  UNL     1      22.484   6.121  26.234  1.00  0.00     0.164 HD
HETATM   20  O1  UNL     1      20.753   4.704  27.516  1.00  0.00    -0.247 OA
ENDBRANCH  12  13
ENDBRANCH  11  12
ENDBRANCH   1  11
TORSDOF 5
ENDMDL
MODEL 4
REMARK VINA RESULT: -5.078656493      1.444      1.731
REMARK  5 active torsions:
REMARK  status: ('A' for Active; 'I' for Inactive)
REMARK    1  A    between atoms: N2_4  and  N3_6 
REMARK    2  A    between atoms: C1_8  and  N4_9 
REMARK    3  A    between atoms: N4_9  and  C2_11 
REMARK    4  A    between atoms: C2_11  and  C3_12 
REMARK    5  A    between atoms: C3_12  and  N5_13 
ROOT
HETATM    1  N4  UNL     1      20.035   3.600  29.050  1.00  0.00    -0.384 N 
ATOM      2  H4  UNL     1      19.585   4.509  29.166  1.00  0.00     0.160 HD
ENDROOT
BRANCH   1   3
HETATM    3  C1  UNL     1      19.740   2.846  27.897  1.00  0.00     0.194 C 
HETATM    4  N3  UNL     1      20.345   3.056  26.781  1.00  0.00    -0.283 N 
ATOM      5  H3  UNL     1      21.053   3.790  26.747  1.00  0.00     0.189 HD
BRANCH   4   6
HETATM    6  N2  UNL     1      20.088   2.337  25.621  1.00  0.00    -0.248 N 
HETATM    7  N1  UNL     1      19.223   2.735  24.797  1.00  0.00    -0.331 N 
ATOM      8  H12 UNL     1      18.716   3.596  24.999  1.00  0.00     0.178 HD
ATOM      9  H11 UNL     1      19.034   2.208  23.944  1.00  0.00     0.178 HD
ATOM     10  H2  UNL     1      20.605   1.478  25.434  1.00  0.00     0.207 HD
ENDBRANCH   4   6
ENDBRANCH   1   3
BRANCH   1  11
HETATM   11  C2  UNL     1      20.953   3.144  30.085  1.00  0.00     0.140 C 
BRANCH  11  12
HETATM   12  C3  UNL     1      22.300   3.731  29.807  1.00  0.00     0.147 C 
BRANCH  12  13
HETATM   13  N5  UNL     1      22.360   5.149  29.836  1.00  0.00    -0.333 N 
HETATM   14  C4  UNL     1      22.300   5.795  31.142  1.00  0.00     0.129 C 
HETATM   15  C5  UNL     1      22.518   7.277  31.052  1.00  0.00     0.040 C 
HETATM   16  C6  UNL     1      23.545   7.664  30.021  1.00  0.00     0.126 C 
HETATM   17  N6  UNL     1      23.108   7.204  28.716  1.00  0.00    -0.343 N 
HETATM   18  C7  UNL     1      22.471   5.937  28.668  1.00  0.00     0.318 C 
ATOM     19  H6  UNL     1      23.252   7.762  27.875  1.00  0.00     0.164 HD
HETATM   20  O1  UNL     1      22.011   5.517  27.605  1.00  0.00    -0.247 OA
ENDBRANCH  12  13
ENDBRANCH  11  12
ENDBRANCH   1  11
TORSDOF 5
ENDMDL
MODEL 5
REMARK VINA RESULT: -4.873170506      2.131      2.458
REMARK  5 active torsions:
REMARK  status: ('A' for Active; 'I' for Inactive)
REMARK    1  A    between atoms: N2_4  and  N3_6 
REMARK    2  A    between atoms: C1_8  and  N4_9 
REMARK    3  A    between atoms: N4_9  and  C2_11 
REMARK    4  A    between atoms: C2_11  and  C3_12 
REMARK    5  A    between atoms: C3_12  and  N5_13 
ROOT
HETATM    1  N4  UNL     1      19.681   2.205  29.189  1.00  0.00    -0.384 N 
ATOM      2  H4  UNL     1      19.603   1.325  29.698  1.00  0.00     0.160 HD
ENDROOT
BRANCH   1   3
HETATM    3  C1  UNL     1      19.396   2.211  27.809  1.00  0.00     0.194 C 
HETATM    4  N3  UNL     1      20.327   2.339  26.929  1.00  0.00    -0.283 N 
ATOM      5  H3  UNL     1      21.289   2.437  27.255  1.00  0.00     0.189 HD
BRANCH   4   6
HETATM    6  N2  UNL     1      20.093   2.349  25.560  1.00  0.00    -0.248 N 
HETATM    7  N1  UNL     1      19.046   2.865  25.090  1.00  0.00    -0.331 N 
ATOM      8  H12 UNL     1      18.371   3.275  25.736  1.00  0.00     0.178 HD
ATOM      9  H11 UNL     1      18.874   2.873  24.085  1.00  0.00     0.178 HD
ATOM     10  H2  UNL     1      20.779   1.935  24.928  1.00  0.00     0.207 HD
ENDBRANCH   4   6
ENDBRANCH   1   3
BRANCH   1  11
HETATM   11  C2  UNL     1      20.080   3.398  29.923  1.00  0.00     0.140 C 
BRANCH  11  12
HETATM   12  C3  UNL     1      21.359   3.100  30.640  1.00  0.00     0.147 C 
BRANCH  12  13
HETATM   13  N5  UNL     1      22.542   3.406  29.918  1.00  0.00    -0.333 N 
HETATM   14  C4  UNL     1      22.997   4.791  29.934  1.00  0.00     0.129 C 
HETATM   15  C5  UNL     1      24.329   4.959  29.262  1.00  0.00     0.040 C 
HETATM   16  C6  UNL     1      25.269   3.811  29.516  1.00  0.00     0.126 C 
HETATM   17  N6  UNL     1      24.675   2.586  29.015  1.00  0.00    -0.343 N 
HETATM   18  C7  UNL     1      23.276   2.434  29.201  1.00  0.00     0.318 C 
ATOM     19  H6  UNL     1      25.234   1.869  28.553  1.00  0.00     0.164 HD
HETATM   20  O1  UNL     1      22.695   1.453  28.737  1.00  0.00    -0.247 OA
ENDBRANCH  12  13
ENDBRANCH  11  12
ENDBRANCH   1  11
TORSDOF 5
ENDMDL
