MODEL 1
REMARK VINA RESULT: -5.341893756      0.000      0.000
REMARK  5 active torsions:
REMARK  status: ('A' for Active; 'I' for Inactive)
REMARK    1  A    between atoms: N2_4  and  N3_6 
REMARK    2  A    between atoms: C1_8  and  C2_9 
REMARK    3  A    between atoms: C2_9  and  O1_10 
REMARK    4  A    between atoms: O1_10  and  C3_11 
REMARK    5  A    between atoms: C5_13  and  N4_14 
REMARK       I    between atoms: N4_14  and  C6_16 
ROOT
HETATM    1  C3  UNL     1      22.378   2.990  29.840  1.00  0.00     0.146 A 
HETATM    2  C4  UNL     1      23.863   2.603  29.844  1.00  0.00     0.061 A 
HETATM    3  C5  UNL     1      23.427   4.026  29.795  1.00  0.00     0.115 A 
ENDROOT
BRANCH   1   4
HETATM    4  O1  UNL     1      21.712   2.559  28.724  1.00  0.00    -0.379 OA
BRANCH   4   5
HETATM    5  C2  UNL     1      20.360   2.887  28.819  1.00  0.00     0.214 C 
BRANCH   5   6
HETATM    6  C1  UNL     1      20.055   4.090  28.011  1.00  0.00     0.107 C 
HETATM    7  N3  UNL     1      19.987   3.987  26.736  1.00  0.00    -0.300 N 
ATOM      8  H3  UNL     1      19.778   4.804  26.164  1.00  0.00     0.187 HD
BRANCH   7   9
HETATM    9  N2  UNL     1      20.200   2.747  26.140  1.00  0.00    -0.250 N 
HETATM   10  N1  UNL     1      19.721   2.391  25.021  1.00  0.00    -0.331 N 
ATOM     11  H12 UNL     1      19.140   3.075  24.536  1.00  0.00     0.178 HD
ATOM     12  H11 UNL     1      19.877   1.482  24.584  1.00  0.00     0.178 HD
ATOM     13  H2  UNL     1      20.784   2.077  26.640  1.00  0.00     0.207 HD
ENDBRANCH   7   9
ENDBRANCH   5   6
ENDBRANCH   4   5
ENDBRANCH   1   4
BRANCH   3  14
HETATM   14  N4  UNL     1      23.703   4.791  28.615  1.00  0.00    -0.358 N 
HETATM   15  C6  UNL     1      23.055   6.025  28.423  1.00  0.00     0.182 C 
HETATM   16  N5  UNL     1      22.832   6.408  27.197  1.00  0.00    -0.374 N 
HETATM   17  N6  UNL     1      22.650   6.838  29.513  1.00  0.00    -0.064 NA
ATOM     18  H52 UNL     1      23.123   5.823  26.413  1.00  0.00     0.158 HD
ATOM     19  H51 UNL     1      22.362   7.302  27.058  1.00  0.00     0.158 HD
ATOM     20  H4  UNL     1      24.363   4.443  27.920  1.00  0.00     0.162 HD
ENDBRANCH   3  14
TORSDOF 5
ENDMDL
MODEL 2
REMARK VINA RESULT: -4.960163925      1.705      2.062
REMARK  5 active torsions:
REMARK  status: ('A' for Active; 'I' for Inactive)
REMARK    1  A    between atoms: N2_4  and  N3_6 
REMARK    2  A    between atoms: C1_8  and  C2_9 
REMARK    3  A    between atoms: C2_9  and  O1_10 
REMARK    4  A    between atoms: O1_10  and  C3_11 
REMARK    5  A    between atoms: C5_13  and  N4_14 
REMARK       I    between atoms: N4_14  and  C6_16 
ROOT
HETATM    1  C3  UNL     1      20.322   1.437  29.221  1.00  0.00     0.146 A 
HETATM    2  C4  UNL     1      21.637   0.677  29.441  1.00  0.00     0.061 A 
HETATM    3  C5  UNL     1      21.489   2.108  29.823  1.00  0.00     0.115 A 
ENDROOT
BRANCH   1   4
HETATM    4  O1  UNL     1      19.989   1.567  27.899  1.00  0.00    -0.379 OA
BRANCH   4   5
HETATM    5  C2  UNL     1      18.791   2.268  27.775  1.00  0.00     0.214 C 
BRANCH   5   6
HETATM    6  C1  UNL     1      19.046   3.680  27.409  1.00  0.00     0.107 C 
HETATM    7  N3  UNL     1      19.213   3.986  26.177  1.00  0.00    -0.300 N 
ATOM      8  H3  UNL     1      19.390   4.953  25.907  1.00  0.00     0.187 HD
BRANCH   7   9
HETATM    9  N2  UNL     1      19.152   2.986  25.211  1.00  0.00    -0.250 N 
HETATM   10  N1  UNL     1      20.139   2.281  24.837  1.00  0.00    -0.331 N 
ATOM     11  H12 UNL     1      21.033   2.474  25.287  1.00  0.00     0.178 HD
ATOM     12  H11 UNL     1      20.094   1.548  24.129  1.00  0.00     0.178 HD
ATOM     13  H2  UNL     1      18.249   2.807  24.773  1.00  0.00     0.207 HD
ENDBRANCH   7   9
ENDBRANCH   5   6
ENDBRANCH   4   5
ENDBRANCH   1   4
BRANCH   3  14
HETATM   14  N4  UNL     1      22.258   3.092  29.118  1.00  0.00    -0.358 N 
HETATM   15  C6  UNL     1      22.048   4.457  29.387  1.00  0.00     0.182 C 
HETATM   16  N5  UNL     1      22.261   5.304  28.419  1.00  0.00    -0.374 N 
HETATM   17  N6  UNL     1      21.620   4.915  30.659  1.00  0.00    -0.064 NA
ATOM     18  H52 UNL     1      22.569   4.976  27.504  1.00  0.00     0.158 HD
ATOM     19  H51 UNL     1      22.109   6.294  28.614  1.00  0.00     0.158 HD
ATOM     20  H4  UNL     1      22.951   2.804  28.428  1.00  0.00     0.162 HD
ENDBRANCH   3  14
TORSDOF 5
ENDMDL
MODEL 3
REMARK VINA RESULT: -4.959736579      1.669      2.196
REMARK  5 active torsions:
REMARK  status: ('A' for Active; 'I' for Inactive)
REMARK    1  A    between atoms: N2_4  and  N3_6 
REMARK    2  A    between atoms: C1_8  and  C2_9 
REMARK    3  A    between atoms: C2_9  and  O1_10 
REMARK    4  A    between atoms: O1_10  and  C3_11 
REMARK    5  A    between atoms: C5_13  and  N4_14 
REMARK       I    between atoms: N4_14  and  C6_16 
ROOT
HETATM    1  C3  UNL     1      20.631   1.135  29.738  1.00  0.00     0.146 A 
HETATM    2  C4  UNL     1      21.777   0.124  29.876  1.00  0.00     0.061 A 
HETATM    3  C5  UNL     1      21.961   1.562  30.210  1.00  0.00     0.115 A 
ENDROOT
BRANCH   1   4
HETATM    4  O1  UNL     1      20.212   1.302  28.445  1.00  0.00    -0.379 OA
BRANCH   4   5
HETATM    5  C2  UNL     1      19.249   2.308  28.382  1.00  0.00     0.214 C 
BRANCH   5   6
HETATM    6  C1  UNL     1      19.854   3.584  27.935  1.00  0.00     0.107 C 
HETATM    7  N3  UNL     1      20.223   3.708  26.715  1.00  0.00    -0.300 N 
ATOM      8  H3  UNL     1      20.641   4.579  26.390  1.00  0.00     0.187 HD
BRANCH   7   9
HETATM    9  N2  UNL     1      20.047   2.642  25.838  1.00  0.00    -0.250 N 
HETATM   10  N1  UNL     1      19.338   2.680  24.787  1.00  0.00    -0.331 N 
ATOM     11  H12 UNL     1      18.870   3.564  24.585  1.00  0.00     0.178 HD
ATOM     12  H11 UNL     1      19.209   1.899  24.144  1.00  0.00     0.178 HD
ATOM     13  H2  UNL     1      20.523   1.767  26.056  1.00  0.00     0.207 HD
ENDBRANCH   7   9
ENDBRANCH   5   6
ENDBRANCH   4   5
ENDBRANCH   1   4
BRANCH   3  14
HETATM   14  N4  UNL     1      22.847   2.349  29.403  1.00  0.00    -0.358 N 
HETATM   15  C6  UNL     1      23.090   3.692  29.749  1.00  0.00     0.182 C 
HETATM   16  N5  UNL     1      23.367   4.525  28.785  1.00  0.00    -0.374 N 
HETATM   17  N6  UNL     1      23.039   4.142  31.094  1.00  0.00    -0.064 NA
ATOM     18  H52 UNL     1      23.404   4.202  27.818  1.00  0.00     0.158 HD
ATOM     19  H51 UNL     1      23.543   5.498  29.036  1.00  0.00     0.158 HD
ATOM     20  H4  UNL     1      23.297   1.940  28.585  1.00  0.00     0.162 HD
ENDBRANCH   3  14
TORSDOF 5
ENDMDL
MODEL 4
REMARK VINA RESULT: -4.957168877      1.169      1.513
REMARK  5 active torsions:
REMARK  status: ('A' for Active; 'I' for Inactive)
REMARK    1  A    between atoms: N2_4  and  N3_6 
REMARK    2  A    between atoms: C1_8  and  C2_9 
REMARK    3  A    between atoms: C2_9  and  O1_10 
REMARK    4  A    between atoms: O1_10  and  C3_11 
REMARK    5  A    between atoms: C5_13  and  N4_14 
REMARK       I    between atoms: N4_14  and  C6_16 
ROOT
HETATM    1  C3  UNL     1      22.303   3.686  29.661  1.00  0.00     0.146 A 
HETATM    2  C4  UNL     1      23.777   4.061  29.458  1.00  0.00     0.061 A 
HETATM    3  C5  UNL     1      22.690   5.070  29.326  1.00  0.00     0.115 A 
ENDROOT
BRANCH   1   4
HETATM    4  O1  UNL     1      21.839   2.798  28.727  1.00  0.00    -0.379 OA
BRANCH   4   5
HETATM    5  C2  UNL     1      20.446   2.779  28.737  1.00  0.00     0.214 C 
BRANCH   5   6
HETATM    6  C1  UNL     1      19.936   1.486  28.226  1.00  0.00     0.107 C 
HETATM    7  N3  UNL     1      19.808   1.320  26.962  1.00  0.00    -0.300 N 
ATOM      8  H3  UNL     1      19.459   0.437  26.592  1.00  0.00     0.187 HD
BRANCH   7   9
HETATM    9  N2  UNL     1      20.151   2.357  26.100  1.00  0.00    -0.250 N 
HETATM   10  N1  UNL     1      19.636   2.547  24.956  1.00  0.00    -0.331 N 
ATOM     11  H12 UNL     1      18.921   1.882  24.663  1.00  0.00     0.178 HD
ATOM     12  H11 UNL     1      19.888   3.307  24.324  1.00  0.00     0.178 HD
ATOM     13  H2  UNL     1      20.869   3.012  26.411  1.00  0.00     0.207 HD
ENDBRANCH   7   9
ENDBRANCH   5   6
ENDBRANCH   4   5
ENDBRANCH   1   4
BRANCH   3  14
HETATM   14  N4  UNL     1      22.439   5.648  28.039  1.00  0.00    -0.358 N 
HETATM   15  C6  UNL     1      23.140   6.806  27.652  1.00  0.00     0.182 C 
HETATM   16  N5  UNL     1      22.545   7.629  26.834  1.00  0.00    -0.374 N 
HETATM   17  N6  UNL     1      24.447   7.087  28.126  1.00  0.00    -0.064 NA
ATOM     18  H52 UNL     1      21.605   7.427  26.493  1.00  0.00     0.158 HD
ATOM     19  H51 UNL     1      23.053   8.468  26.554  1.00  0.00     0.158 HD
ATOM     20  H4  UNL     1      21.759   5.225  27.409  1.00  0.00     0.162 HD
ENDBRANCH   3  14
TORSDOF 5
ENDMDL
MODEL 5
REMARK VINA RESULT: -4.924773697      1.903      2.478
REMARK  5 active torsions:
REMARK  status: ('A' for Active; 'I' for Inactive)
REMARK    1  A    between atoms: N2_4  and  N3_6 
REMARK    2  A    between atoms: C1_8  and  C2_9 
REMARK    3  A    between atoms: C2_9  and  O1_10 
REMARK    4  A    between atoms: O1_10  and  C3_11 
REMARK    5  A    between atoms: C5_13  and  N4_14 
REMARK       I    between atoms: N4_14  and  C6_16 
ROOT
HETATM    1  C3  UNL     1      22.554   5.416  29.148  1.00  0.00     0.146 A 
HETATM    2  C4  UNL     1      24.044   5.499  28.794  1.00  0.00     0.061 A 
HETATM    3  C5  UNL     1      23.237   6.720  29.063  1.00  0.00     0.115 A 
ENDROOT
BRANCH   1   4
HETATM    4  O1  UNL     1      21.786   4.912  28.132  1.00  0.00    -0.379 OA
BRANCH   4   5
HETATM    5  C2  UNL     1      20.672   4.256  28.655  1.00  0.00     0.214 C 
BRANCH   5   6
HETATM    6  C1  UNL     1      20.877   2.790  28.649  1.00  0.00     0.107 C 
HETATM    7  N3  UNL     1      20.703   2.139  27.560  1.00  0.00    -0.300 N 
ATOM      8  H3  UNL     1      20.839   1.129  27.537  1.00  0.00     0.187 HD
BRANCH   7   9
HETATM    9  N2  UNL     1      20.326   2.824  26.409  1.00  0.00    -0.250 N 
HETATM   10  N1  UNL     1      20.024   2.274  25.306  1.00  0.00    -0.331 N 
ATOM     11  H12 UNL     1      20.065   1.255  25.279  1.00  0.00     0.178 HD
ATOM     12  H11 UNL     1      19.747   2.776  24.462  1.00  0.00     0.178 HD
ATOM     13  H2  UNL     1      20.290   3.842  26.456  1.00  0.00     0.207 HD
ENDBRANCH   7   9
ENDBRANCH   5   6
ENDBRANCH   4   5
ENDBRANCH   1   4
BRANCH   3  14
HETATM   14  N4  UNL     1      23.004   7.642  27.990  1.00  0.00    -0.358 N 
HETATM   15  C6  UNL     1      23.451   8.971  28.110  1.00  0.00     0.182 C 
HETATM   16  N5  UNL     1      22.775   9.895  27.486  1.00  0.00    -0.374 N 
HETATM   17  N6  UNL     1      24.592   9.313  28.879  1.00  0.00    -0.064 NA
ATOM     18  H52 UNL     1      21.954   9.650  26.933  1.00  0.00     0.158 HD
ATOM     19  H51 UNL     1      23.099  10.859  27.573  1.00  0.00     0.158 HD
ATOM     20  H4  UNL     1      22.519   7.337  27.146  1.00  0.00     0.162 HD
ENDBRANCH   3  14
TORSDOF 5
ENDMDL
