MODEL 1
REMARK VINA RESULT: -5.875717216      0.000      0.000
REMARK  8 active torsions:
REMARK  status: ('A' for Active; 'I' for Inactive)
REMARK    1  A    between atoms: C3_3  and  C4_4 
REMARK    2  A    between atoms: C4_4  and  O1_5 
REMARK    3  A    between atoms: O1_5  and  C5_6 
REMARK    4  A    between atoms: C8_9  and  N1_10 
REMARK    5  A    between atoms: N1_10  and  C9_12 
REMARK    6  A    between atoms: C13_22  and  N5_23 
REMARK    7  A    between atoms: N5_23  and  C14_25 
REMARK    8  A    between atoms: N6_34  and  C23_35 
ROOT
HETATM    1  C1  UNL     1      36.097  62.855  52.211  1.00  0.00     0.112 C 
HETATM    2  C2  UNL     1      35.202  62.786  51.050  1.00  0.00    -0.109 C 
HETATM    3  C3  UNL     1      34.462  62.715  50.083  1.00  0.00    -0.080 C 
ENDROOT
BRANCH   3   4
HETATM    4  C4  UNL     1      33.575  62.654  48.945  1.00  0.00     0.269 C 
BRANCH   4   5
HETATM    5  O1  UNL     1      32.431  61.893  49.208  1.00  0.00    -0.340 OA
BRANCH   5   6
HETATM    6  C5  UNL     1      32.375  60.520  49.239  1.00  0.00     0.070 A 
HETATM    7  C6  UNL     1      33.317  59.658  48.731  1.00  0.00     0.039 A 
HETATM    8  C7  UNL     1      33.172  58.267  48.812  1.00  0.00     0.032 A 
HETATM    9  C8  UNL     1      32.064  57.711  49.411  1.00  0.00     0.033 A 
HETATM   10  C29 UNL     1      31.114  58.570  49.921  1.00  0.00     0.032 A 
HETATM   11  C30 UNL     1      31.256  59.938  49.843  1.00  0.00     0.039 A 
BRANCH   9  12
HETATM   12  N1  UNL     1      31.875  56.303  49.513  1.00  0.00    -0.341 N 
ATOM     13  H1  UNL     1      31.609  55.863  50.394  1.00  0.00     0.167 HD
BRANCH  12  14
HETATM   14  C9  UNL     1      32.059  55.608  48.434  1.00  0.00     0.136 A 
HETATM   15  N2  UNL     1      33.240  55.074  48.098  1.00  0.00    -0.337 N 
HETATM   16  C10 UNL     1      33.361  54.363  46.964  1.00  0.00     0.182 A 
ATOM     17  H2  UNL     1      34.050  55.207  48.704  1.00  0.00     0.168 HD
HETATM   18  N3  UNL     1      32.312  54.163  46.134  1.00  0.00    -0.349 N 
HETATM   19  C11 UNL     1      31.097  54.696  46.453  1.00  0.00     0.080 A 
ATOM     20  H3  UNL     1      32.427  53.618  45.279  1.00  0.00     0.166 HD
HETATM   21  C12 UNL     1      30.006  54.507  45.623  1.00  0.00     0.138 A 
HETATM   22  C28 UNL     1      30.967  55.428  47.618  1.00  0.00     0.121 A 
HETATM   23  N4  UNL     1      28.820  55.058  45.986  1.00  0.00    -0.199 N 
HETATM   24  C13 UNL     1      28.691  55.771  47.120  1.00  0.00     0.683 A 
ATOM     25  H4  UNL     1      28.007  54.928  45.384  1.00  0.00     0.183 HD
HETATM   26  N7  UNL     1      29.748  55.958  47.931  1.00  0.00    -0.185 N 
ATOM     27  H7  UNL     1      29.638  56.501  48.788  1.00  0.00     0.184 HD
BRANCH  24  28
HETATM   28  N5  UNL     1      27.565  56.302  47.481  1.00  0.00    -0.192 N 
ATOM     29  H5  UNL     1      26.686  55.808  47.332  1.00  0.00     0.184 HD
BRANCH  28  30
HETATM   30  C14 UNL     1      27.580  57.587  48.090  1.00  0.00     0.049 A 
HETATM   31  C15 UNL     1      27.767  58.709  47.311  1.00  0.00     0.031 A 
HETATM   32  C16 UNL     1      27.792  59.984  47.826  1.00  0.00     0.020 A 
HETATM   33  C17 UNL     1      27.617  60.111  49.207  1.00  0.00     0.039 A 
HETATM   34  C18 UNL     1      27.429  59.037  50.022  1.00  0.00    -0.035 A 
HETATM   35  C27 UNL     1      27.640  61.442  49.796  1.00  0.00     0.255 C 
HETATM   36  C19 UNL     1      27.413  57.782  49.448  1.00  0.00     0.038 A 
HETATM   37  C20 UNL     1      27.238  59.122  51.487  1.00  0.00     0.034 C 
HETATM   38  C21 UNL     1      28.412  58.507  52.213  1.00  0.00     0.017 C 
HETATM   39  C22 UNL     1      26.899  60.504  51.954  1.00  0.00     0.136 C 
HETATM   40  N6  UNL     1      27.466  61.567  51.188  1.00  0.00    -0.339 N 
HETATM   41  O2  UNL     1      27.811  62.482  49.092  1.00  0.00    -0.267 OA
BRANCH  40  42
HETATM   42  C23 UNL     1      27.860  62.783  51.871  1.00  0.00     0.024 C 
HETATM   43  C24 UNL     1      29.279  63.181  51.559  1.00  0.00     0.037 C 
HETATM   44  C25 UNL     1      27.760  62.523  53.359  1.00  0.00     0.037 C 
HETATM   45  C26 UNL     1      26.970  63.945  51.518  1.00  0.00     0.037 C 
ENDBRANCH  40  42
ENDBRANCH  28  30
ENDBRANCH  24  28
ENDBRANCH  12  14
ENDBRANCH   9  12
ENDBRANCH   5   6
ENDBRANCH   4   5
ENDBRANCH   3   4
TORSDOF 8
ENDMDL
MODEL 2
REMARK VINA RESULT: -5.858963044      3.630      7.818
REMARK  8 active torsions:
REMARK  status: ('A' for Active; 'I' for Inactive)
REMARK    1  A    between atoms: C3_3  and  C4_4 
REMARK    2  A    between atoms: C4_4  and  O1_5 
REMARK    3  A    between atoms: O1_5  and  C5_6 
REMARK    4  A    between atoms: C8_9  and  N1_10 
REMARK    5  A    between atoms: N1_10  and  C9_12 
REMARK    6  A    between atoms: C13_22  and  N5_23 
REMARK    7  A    between atoms: N5_23  and  C14_25 
REMARK    8  A    between atoms: N6_34  and  C23_35 
ROOT
HETATM    1  C1  UNL     1      37.316  61.217  46.511  1.00  0.00     0.112 C 
HETATM    2  C2  UNL     1      36.368  61.626  47.554  1.00  0.00    -0.109 C 
HETATM    3  C3  UNL     1      35.579  61.980  48.415  1.00  0.00    -0.080 C 
ENDROOT
BRANCH   3   4
HETATM    4  C4  UNL     1      34.643  62.375  49.441  1.00  0.00     0.269 C 
BRANCH   4   5
HETATM    5  O1  UNL     1      33.315  62.229  49.028  1.00  0.00    -0.340 OA
BRANCH   5   6
HETATM    6  C5  UNL     1      32.485  61.185  49.361  1.00  0.00     0.070 A 
HETATM    7  C6  UNL     1      31.238  61.290  49.929  1.00  0.00     0.039 A 
HETATM    8  C7  UNL     1      30.462  60.165  50.233  1.00  0.00     0.032 A 
HETATM    9  C8  UNL     1      30.932  58.897  49.969  1.00  0.00     0.033 A 
HETATM   10  C29 UNL     1      32.183  58.784  49.401  1.00  0.00     0.032 A 
HETATM   11  C30 UNL     1      32.946  59.891  49.101  1.00  0.00     0.039 A 
BRANCH   9  12
HETATM   12  N1  UNL     1      30.178  57.725  50.263  1.00  0.00    -0.341 N 
ATOM     13  H1  UNL     1      30.203  57.291  51.186  1.00  0.00     0.167 HD
BRANCH  12  14
HETATM   14  C9  UNL     1      29.458  57.237  49.302  1.00  0.00     0.136 A 
HETATM   15  N2  UNL     1      28.218  57.660  49.026  1.00  0.00    -0.337 N 
HETATM   16  C10 UNL     1      27.526  57.110  48.014  1.00  0.00     0.182 A 
ATOM     17  H2  UNL     1      27.796  58.401  49.587  1.00  0.00     0.168 HD
HETATM   18  N3  UNL     1      28.048  56.126  47.247  1.00  0.00    -0.349 N 
HETATM   19  C11 UNL     1      29.310  55.676  47.506  1.00  0.00     0.080 A 
ATOM     20  H3  UNL     1      27.504  55.724  46.482  1.00  0.00     0.166 HD
HETATM   21  C12 UNL     1      29.870  54.671  46.738  1.00  0.00     0.138 A 
HETATM   22  C28 UNL     1      30.026  56.238  48.546  1.00  0.00     0.121 A 
HETATM   23  N4  UNL     1      31.129  54.260  47.036  1.00  0.00    -0.199 N 
HETATM   24  C13 UNL     1      31.828  54.806  48.048  1.00  0.00     0.683 A 
ATOM     25  H4  UNL     1      31.555  53.520  46.479  1.00  0.00     0.183 HD
HETATM   26  N7  UNL     1      31.289  55.784  48.799  1.00  0.00    -0.185 N 
ATOM     27  H7  UNL     1      31.828  56.190  49.563  1.00  0.00     0.184 HD
BRANCH  24  28
HETATM   28  N5  UNL     1      33.031  54.426  48.344  1.00  0.00    -0.192 N 
ATOM     29  H5  UNL     1      33.197  53.789  49.123  1.00  0.00     0.184 HD
BRANCH  28  30
HETATM   30  C14 UNL     1      34.114  54.914  47.564  1.00  0.00     0.049 A 
HETATM   31  C15 UNL     1      35.355  54.325  47.673  1.00  0.00     0.031 A 
HETATM   32  C16 UNL     1      36.450  54.740  46.951  1.00  0.00     0.020 A 
HETATM   33  C17 UNL     1      36.258  55.813  46.076  1.00  0.00     0.039 A 
HETATM   34  C18 UNL     1      35.055  56.431  45.930  1.00  0.00    -0.035 A 
HETATM   35  C27 UNL     1      37.391  56.288  45.294  1.00  0.00     0.255 C 
HETATM   36  C19 UNL     1      33.993  55.970  46.680  1.00  0.00     0.038 A 
HETATM   37  C20 UNL     1      34.804  57.568  45.016  1.00  0.00     0.034 C 
HETATM   38  C21 UNL     1      34.498  58.823  45.799  1.00  0.00     0.017 C 
HETATM   39  C22 UNL     1      35.886  57.746  43.993  1.00  0.00     0.136 C 
HETATM   40  N6  UNL     1      37.197  57.371  44.414  1.00  0.00    -0.339 N 
HETATM   41  O2  UNL     1      38.537  55.755  45.384  1.00  0.00    -0.267 OA
BRANCH  40  42
HETATM   42  C23 UNL     1      38.329  58.126  43.918  1.00  0.00     0.024 C 
HETATM   43  C24 UNL     1      37.920  59.448  43.321  1.00  0.00     0.037 C 
HETATM   44  C25 UNL     1      38.988  57.303  42.832  1.00  0.00     0.037 C 
HETATM   45  C26 UNL     1      39.340  58.406  44.999  1.00  0.00     0.037 C 
ENDBRANCH  40  42
ENDBRANCH  28  30
ENDBRANCH  24  28
ENDBRANCH  12  14
ENDBRANCH   9  12
ENDBRANCH   5   6
ENDBRANCH   4   5
ENDBRANCH   3   4
TORSDOF 8
ENDMDL
MODEL 3
REMARK VINA RESULT: -5.814437146     10.352     14.589
REMARK  8 active torsions:
REMARK  status: ('A' for Active; 'I' for Inactive)
REMARK    1  A    between atoms: C3_3  and  C4_4 
REMARK    2  A    between atoms: C4_4  and  O1_5 
REMARK    3  A    between atoms: O1_5  and  C5_6 
REMARK    4  A    between atoms: C8_9  and  N1_10 
REMARK    5  A    between atoms: N1_10  and  C9_12 
REMARK    6  A    between atoms: C13_22  and  N5_23 
REMARK    7  A    between atoms: N5_23  and  C14_25 
REMARK    8  A    between atoms: N6_34  and  C23_35 
ROOT
HETATM    1  C1  UNL     1      31.544  62.924  54.795  1.00  0.00     0.112 C 
HETATM    2  C2  UNL     1      32.591  62.038  55.315  1.00  0.00    -0.109 C 
HETATM    3  C3  UNL     1      33.457  61.290  55.738  1.00  0.00    -0.080 C 
ENDROOT
BRANCH   3   4
HETATM    4  C4  UNL     1      34.492  60.425  56.253  1.00  0.00     0.269 C 
BRANCH   4   5
HETATM    5  O1  UNL     1      35.205  61.020  57.299  1.00  0.00    -0.340 OA
BRANCH   5   6
HETATM    6  C5  UNL     1      36.575  61.102  57.387  1.00  0.00     0.070 A 
HETATM    7  C6  UNL     1      37.351  62.161  56.983  1.00  0.00     0.039 A 
HETATM    8  C7  UNL     1      38.745  62.154  57.115  1.00  0.00     0.032 A 
HETATM    9  C8  UNL     1      39.392  61.068  57.662  1.00  0.00     0.033 A 
HETATM   10  C29 UNL     1      38.619  60.001  58.069  1.00  0.00     0.032 A 
HETATM   11  C30 UNL     1      37.248  60.008  57.939  1.00  0.00     0.039 A 
BRANCH   9  12
HETATM   12  N1  UNL     1      40.807  61.017  57.814  1.00  0.00    -0.341 N 
ATOM     13  H1  UNL     1      41.369  60.299  57.356  1.00  0.00     0.167 HD
BRANCH  12  14
HETATM   14  C9  UNL     1      41.348  61.927  58.563  1.00  0.00     0.136 A 
HETATM   15  N2  UNL     1      41.805  63.093  58.086  1.00  0.00    -0.337 N 
HETATM   16  C10 UNL     1      42.354  63.993  58.918  1.00  0.00     0.182 A 
ATOM     17  H2  UNL     1      41.735  63.297  57.089  1.00  0.00     0.168 HD
HETATM   18  N3  UNL     1      42.464  63.762  60.247  1.00  0.00    -0.349 N 
HETATM   19  C11 UNL     1      42.006  62.582  60.758  1.00  0.00     0.080 A 
ATOM     20  H3  UNL     1      42.884  64.461  60.859  1.00  0.00     0.166 HD
HETATM   21  C12 UNL     1      42.105  62.318  62.112  1.00  0.00     0.138 A 
HETATM   22  C28 UNL     1      41.441  61.652  59.907  1.00  0.00     0.121 A 
HETATM   23  N4  UNL     1      41.634  61.130  62.571  1.00  0.00    -0.199 N 
HETATM   24  C13 UNL     1      41.083  60.224  61.744  1.00  0.00     0.683 A 
ATOM     25  H4  UNL     1      41.701  60.920  63.567  1.00  0.00     0.183 HD
HETATM   26  N7  UNL     1      40.984  60.475  60.425  1.00  0.00    -0.185 N 
ATOM     27  H7  UNL     1      40.564  59.779  59.809  1.00  0.00     0.184 HD
BRANCH  24  28
HETATM   28  N5  UNL     1      40.628  59.086  62.166  1.00  0.00    -0.192 N 
ATOM     29  H5  UNL     1      41.184  58.503  62.791  1.00  0.00     0.184 HD
BRANCH  28  30
HETATM   30  C14 UNL     1      39.337  58.666  61.742  1.00  0.00     0.049 A 
HETATM   31  C15 UNL     1      38.240  59.455  62.010  1.00  0.00     0.031 A 
HETATM   32  C16 UNL     1      36.961  59.117  61.632  1.00  0.00     0.020 A 
HETATM   33  C17 UNL     1      36.805  57.909  60.946  1.00  0.00     0.039 A 
HETATM   34  C18 UNL     1      37.854  57.092  60.656  1.00  0.00    -0.035 A 
HETATM   35  C27 UNL     1      35.468  57.510  60.529  1.00  0.00     0.255 C 
HETATM   36  C19 UNL     1      39.113  57.484  61.060  1.00  0.00     0.038 A 
HETATM   37  C20 UNL     1      37.737  55.807  59.931  1.00  0.00     0.034 C 
HETATM   38  C21 UNL     1      38.070  54.649  60.843  1.00  0.00     0.017 C 
HETATM   39  C22 UNL     1      36.428  55.654  59.218  1.00  0.00     0.136 C 
HETATM   40  N6  UNL     1      35.313  56.291  59.839  1.00  0.00    -0.339 N 
HETATM   41  O2  UNL     1      34.451  58.226  60.768  1.00  0.00    -0.267 OA
BRANCH  40  42
HETATM   42  C23 UNL     1      34.011  55.660  59.747  1.00  0.00     0.024 C 
HETATM   43  C24 UNL     1      32.963  56.587  59.189  1.00  0.00     0.037 C 
HETATM   44  C25 UNL     1      33.595  55.267  61.148  1.00  0.00     0.037 C 
HETATM   45  C26 UNL     1      34.039  54.428  58.882  1.00  0.00     0.037 C 
ENDBRANCH  40  42
ENDBRANCH  28  30
ENDBRANCH  24  28
ENDBRANCH  12  14
ENDBRANCH   9  12
ENDBRANCH   5   6
ENDBRANCH   4   5
ENDBRANCH   3   4
TORSDOF 8
ENDMDL
MODEL 4
REMARK VINA RESULT: -5.810667075      2.694      4.528
REMARK  8 active torsions:
REMARK  status: ('A' for Active; 'I' for Inactive)
REMARK    1  A    between atoms: C3_3  and  C4_4 
REMARK    2  A    between atoms: C4_4  and  O1_5 
REMARK    3  A    between atoms: O1_5  and  C5_6 
REMARK    4  A    between atoms: C8_9  and  N1_10 
REMARK    5  A    between atoms: N1_10  and  C9_12 
REMARK    6  A    between atoms: C13_22  and  N5_23 
REMARK    7  A    between atoms: N5_23  and  C14_25 
REMARK    8  A    between atoms: N6_34  and  C23_35 
ROOT
HETATM    1  C1  UNL     1      37.105  63.703  52.958  1.00  0.00     0.112 C 
HETATM    2  C2  UNL     1      36.255  63.561  51.769  1.00  0.00    -0.109 C 
HETATM    3  C3  UNL     1      35.555  63.429  50.779  1.00  0.00    -0.080 C 
ENDROOT
BRANCH   3   4
HETATM    4  C4  UNL     1      34.713  63.296  49.614  1.00  0.00     0.269 C 
BRANCH   4   5
HETATM    5  O1  UNL     1      34.266  61.983  49.434  1.00  0.00    -0.340 OA
BRANCH   5   6
HETATM    6  C5  UNL     1      34.527  61.193  48.340  1.00  0.00     0.070 A 
HETATM    7  C6  UNL     1      35.550  61.368  47.439  1.00  0.00     0.039 A 
HETATM    8  C7  UNL     1      35.738  60.506  46.351  1.00  0.00     0.032 A 
HETATM    9  C8  UNL     1      34.889  59.441  46.146  1.00  0.00     0.033 A 
HETATM   10  C29 UNL     1      33.860  59.260  47.045  1.00  0.00     0.032 A 
HETATM   11  C30 UNL     1      33.675  60.107  48.116  1.00  0.00     0.039 A 
BRANCH   9  12
HETATM   12  N1  UNL     1      35.042  58.541  45.053  1.00  0.00    -0.341 N 
ATOM     13  H1  UNL     1      34.433  58.585  44.235  1.00  0.00     0.167 HD
BRANCH  12  14
HETATM   14  C9  UNL     1      35.991  57.663  45.146  1.00  0.00     0.136 A 
HETATM   15  N2  UNL     1      37.257  57.910  44.784  1.00  0.00    -0.337 N 
HETATM   16  C10 UNL     1      38.194  56.955  44.908  1.00  0.00     0.182 A 
ATOM     17  H2  UNL     1      37.511  58.826  44.414  1.00  0.00     0.168 HD
HETATM   18  N3  UNL     1      37.899  55.727  45.395  1.00  0.00    -0.349 N 
HETATM   19  C11 UNL     1      36.617  55.449  45.771  1.00  0.00     0.080 A 
ATOM     20  H3  UNL     1      38.627  55.018  45.481  1.00  0.00     0.166 HD
HETATM   21  C12 UNL     1      36.286  54.203  46.273  1.00  0.00     0.138 A 
HETATM   22  C28 UNL     1      35.650  56.428  45.646  1.00  0.00     0.121 A 
HETATM   23  N4  UNL     1      34.997  53.977  46.633  1.00  0.00    -0.199 N 
HETATM   24  C13 UNL     1      34.054  54.929  46.512  1.00  0.00     0.683 A 
ATOM     25  H4  UNL     1      34.738  53.063  47.004  1.00  0.00     0.183 HD
HETATM   26  N7  UNL     1      34.369  56.143  46.024  1.00  0.00    -0.185 N 
ATOM     27  H7  UNL     1      33.646  56.856  45.938  1.00  0.00     0.184 HD
BRANCH  24  28
HETATM   28  N5  UNL     1      32.820  54.729  46.853  1.00  0.00    -0.192 N 
ATOM     29  H5  UNL     1      32.328  53.887  46.555  1.00  0.00     0.184 HD
BRANCH  28  30
HETATM   30  C14 UNL     1      32.163  55.707  47.649  1.00  0.00     0.049 A 
HETATM   31  C15 UNL     1      32.765  56.164  48.802  1.00  0.00     0.031 A 
HETATM   32  C16 UNL     1      32.194  57.108  49.624  1.00  0.00     0.020 A 
HETATM   33  C17 UNL     1      30.944  57.605  49.240  1.00  0.00     0.039 A 
HETATM   34  C18 UNL     1      30.307  57.189  48.113  1.00  0.00    -0.035 A 
HETATM   35  C27 UNL     1      30.301  58.604  50.082  1.00  0.00     0.255 C 
HETATM   36  C19 UNL     1      30.929  56.240  47.328  1.00  0.00     0.038 A 
HETATM   37  C20 UNL     1      28.986  57.686  47.666  1.00  0.00     0.034 C 
HETATM   38  C21 UNL     1      27.950  56.590  47.744  1.00  0.00     0.017 C 
HETATM   39  C22 UNL     1      28.575  58.952  48.355  1.00  0.00     0.136 C 
HETATM   40  N6  UNL     1      29.041  59.102  49.695  1.00  0.00    -0.339 N 
HETATM   41  O2  UNL     1      30.843  59.033  51.144  1.00  0.00    -0.267 OA
BRANCH  40  42
HETATM   42  C23 UNL     1      28.193  59.778  50.655  1.00  0.00     0.024 C 
HETATM   43  C24 UNL     1      27.926  58.937  51.877  1.00  0.00     0.037 C 
HETATM   44  C25 UNL     1      26.869  60.058  49.977  1.00  0.00     0.037 C 
HETATM   45  C26 UNL     1      28.789  61.081  51.119  1.00  0.00     0.037 C 
ENDBRANCH  40  42
ENDBRANCH  28  30
ENDBRANCH  24  28
ENDBRANCH  12  14
ENDBRANCH   9  12
ENDBRANCH   5   6
ENDBRANCH   4   5
ENDBRANCH   3   4
TORSDOF 8
ENDMDL
MODEL 5
REMARK VINA RESULT: -5.741003558      9.111     12.192
REMARK  8 active torsions:
REMARK  status: ('A' for Active; 'I' for Inactive)
REMARK    1  A    between atoms: C3_3  and  C4_4 
REMARK    2  A    between atoms: C4_4  and  O1_5 
REMARK    3  A    between atoms: O1_5  and  C5_6 
REMARK    4  A    between atoms: C8_9  and  N1_10 
REMARK    5  A    between atoms: N1_10  and  C9_12 
REMARK    6  A    between atoms: C13_22  and  N5_23 
REMARK    7  A    between atoms: N5_23  and  C14_25 
REMARK    8  A    between atoms: N6_34  and  C23_35 
ROOT
HETATM    1  C1  UNL     1      37.150  64.158  53.218  1.00  0.00     0.112 C 
HETATM    2  C2  UNL     1      38.038  63.929  54.363  1.00  0.00    -0.109 C 
HETATM    3  C3  UNL     1      38.765  63.739  55.325  1.00  0.00    -0.080 C 
ENDROOT
BRANCH   3   4
HETATM    4  C4  UNL     1      39.645  63.508  56.446  1.00  0.00     0.269 C 
BRANCH   4   5
HETATM    5  O1  UNL     1      39.976  62.157  56.588  1.00  0.00    -0.340 OA
BRANCH   5   6
HETATM    6  C5  UNL     1      39.618  61.353  57.644  1.00  0.00     0.070 A 
HETATM    7  C6  UNL     1      38.794  60.256  57.585  1.00  0.00     0.039 A 
HETATM    8  C7  UNL     1      38.487  59.494  58.720  1.00  0.00     0.032 A 
HETATM    9  C8  UNL     1      39.009  59.828  59.949  1.00  0.00     0.033 A 
HETATM   10  C29 UNL     1      39.837  60.928  60.017  1.00  0.00     0.032 A 
HETATM   11  C30 UNL     1      40.139  61.677  58.900  1.00  0.00     0.039 A 
BRANCH   9  12
HETATM   12  N1  UNL     1      38.723  59.083  61.129  1.00  0.00    -0.341 N 
ATOM     13  H1  UNL     1      38.105  59.448  61.855  1.00  0.00     0.167 HD
BRANCH  12  14
HETATM   14  C9  UNL     1      39.284  57.919  61.237  1.00  0.00     0.136 A 
HETATM   15  N2  UNL     1      40.594  57.755  61.461  1.00  0.00    -0.337 N 
HETATM   16  C10 UNL     1      41.112  56.519  61.563  1.00  0.00     0.182 A 
ATOM     17  H2  UNL     1      41.201  58.569  61.555  1.00  0.00     0.168 HD
HETATM   18  N3  UNL     1      40.342  55.412  61.445  1.00  0.00    -0.349 N 
HETATM   19  C11 UNL     1      39.004  55.552  61.216  1.00  0.00     0.080 A 
ATOM     20  H3  UNL     1      40.758  54.484  61.528  1.00  0.00     0.166 HD
HETATM   21  C12 UNL     1      38.193  54.439  61.093  1.00  0.00     0.138 A 
HETATM   22  C28 UNL     1      38.467  56.820  61.111  1.00  0.00     0.121 A 
HETATM   23  N4  UNL     1      36.868  54.631  60.866  1.00  0.00    -0.199 N 
HETATM   24  C13 UNL     1      36.343  55.865  60.764  1.00  0.00     0.683 A 
ATOM     25  H4  UNL     1      36.257  53.820  60.772  1.00  0.00     0.183 HD
HETATM   26  N7  UNL     1      37.127  56.953  60.883  1.00  0.00    -0.185 N 
ATOM     27  H7  UNL     1      36.717  57.883  60.803  1.00  0.00     0.184 HD
BRANCH  24  28
HETATM   28  N5  UNL     1      35.080  56.066  60.549  1.00  0.00    -0.192 N 
ATOM     29  H5  UNL     1      34.375  55.536  61.061  1.00  0.00     0.184 HD
BRANCH  28  30
HETATM   30  C14 UNL     1      34.697  57.040  59.586  1.00  0.00     0.049 A 
HETATM   31  C15 UNL     1      34.437  56.652  58.289  1.00  0.00     0.031 A 
HETATM   32  C16 UNL     1      34.061  57.534  57.303  1.00  0.00     0.020 A 
HETATM   33  C17 UNL     1      33.947  58.879  57.670  1.00  0.00     0.039 A 
HETATM   34  C18 UNL     1      34.192  59.315  58.935  1.00  0.00    -0.035 A 
HETATM   35  C27 UNL     1      33.555  59.848  56.657  1.00  0.00     0.255 C 
HETATM   36  C19 UNL     1      34.566  58.384  59.881  1.00  0.00     0.038 A 
HETATM   37  C20 UNL     1      34.083  60.726  59.369  1.00  0.00     0.034 C 
HETATM   38  C21 UNL     1      35.443  61.278  59.730  1.00  0.00     0.017 C 
HETATM   39  C22 UNL     1      33.325  61.580  58.399  1.00  0.00     0.136 C 
HETATM   40  N6  UNL     1      33.443  61.203  57.027  1.00  0.00    -0.339 N 
HETATM   41  O2  UNL     1      33.313  59.506  55.461  1.00  0.00    -0.267 OA
BRANCH  40  42
HETATM   42  C23 UNL     1      33.445  62.243  56.018  1.00  0.00     0.024 C 
HETATM   43  C24 UNL     1      34.601  62.111  55.061  1.00  0.00     0.037 C 
HETATM   44  C25 UNL     1      33.572  63.572  56.732  1.00  0.00     0.037 C 
HETATM   45  C26 UNL     1      32.176  62.246  55.205  1.00  0.00     0.037 C 
ENDBRANCH  40  42
ENDBRANCH  28  30
ENDBRANCH  24  28
ENDBRANCH  12  14
ENDBRANCH   9  12
ENDBRANCH   5   6
ENDBRANCH   4   5
ENDBRANCH   3   4
TORSDOF 8
ENDMDL
