MODEL 1
REMARK VINA RESULT: -7.520781934      0.000      0.000
REMARK  7 active torsions:
REMARK  status: ('A' for Active; 'I' for Inactive)
REMARK    1  A    between atoms: O1_2  and  S1_3 
REMARK    2  A    between atoms: S1_3  and  N1_4 
REMARK    3  A    between atoms: S1_3  and  C2_8 
REMARK    4  A    between atoms: C3_11  and  C4_12 
REMARK    5  A    between atoms: C5_15  and  N4_16 
REMARK    6  A    between atoms: C7_23  and  O4_24 
REMARK    7  A    between atoms: C8_26  and  N6_27 
ROOT
HETATM    1  C2  UNL     1      32.966  64.646   2.090  1.00  0.00     0.213 A 
HETATM    2  N2  UNL     1      32.651  65.704   2.819  1.00  0.00    -0.327 N 
ATOM      3  H2  UNL     1      33.265  66.120   3.519  1.00  0.00     0.168 HD
HETATM    4  C3  UNL     1      31.387  66.176   2.515  1.00  0.00     0.116 A 
HETATM    5  C8  UNL     1      30.952  65.329   1.569  1.00  0.00     0.207 A 
HETATM    6  N7  UNL     1      31.935  64.376   1.291  1.00  0.00    -0.307 N 
HETATM    7  C9  UNL     1      31.831  63.332   0.305  1.00  0.00     0.160 C 
ENDROOT
BRANCH   4   8
HETATM    8  C4  UNL     1      30.792  67.286   3.229  1.00  0.00     0.118 A 
HETATM    9  N3  UNL     1      31.049  67.393   4.575  1.00  0.00    -0.187 N 
HETATM   10  C5  UNL     1      30.719  68.441   5.315  1.00  0.00     0.679 A 
ATOM     11  H3  UNL     1      31.526  66.617   5.032  1.00  0.00     0.184 HD
HETATM   12  N5  UNL     1      30.090  69.502   4.783  1.00  0.00    -0.154 N 
HETATM   13  C6  UNL     1      29.797  69.502   3.495  1.00  0.00     0.295 A 
ATOM     14  H5  UNL     1      29.840  70.300   5.367  1.00  0.00     0.187 HD
HETATM   15  O3  UNL     1      29.214  70.461   2.950  1.00  0.00    -0.265 OA
HETATM   16  C7  UNL     1      30.160  68.377   2.716  1.00  0.00     0.165 A 
BRANCH  10  17
HETATM   17  N4  UNL     1      30.983  68.479   6.584  1.00  0.00    -0.234 N 
ATOM     18  H42 UNL     1      31.604  67.761   6.956  1.00  0.00     0.174 HD
ATOM     19  H41 UNL     1      30.590  69.202   7.186  1.00  0.00     0.174 HD
ENDBRANCH  10  17
BRANCH  16  20
HETATM   20  O4  UNL     1      29.848  68.478   1.409  1.00  0.00    -0.354 OA
ATOM     21  H4  UNL     1      28.949  68.490   1.102  1.00  0.00     0.218 HD
ENDBRANCH  16  20
ENDBRANCH   4   8
BRANCH   5  22
HETATM   22  N6  UNL     1      29.634  65.048   1.126  1.00  0.00    -0.095 N 
HETATM   23  O5  UNL     1      28.998  65.662   0.261  1.00  0.00    -0.530 OA
HETATM   24  O6  UNL     1      28.840  64.132   1.810  1.00  0.00    -0.530 OA
ENDBRANCH   5  22
BRANCH   1  25
HETATM   25  S1  UNL     1      34.493  63.745   2.158  1.00  0.00     0.204 S 
HETATM   26  O2  UNL     1      35.075  63.811   3.506  1.00  0.00    -0.213 OA
BRANCH  25  27
HETATM   27  O1  UNL     1      34.296  62.179   1.653  1.00  0.00    -0.291 OA
HETATM   28  C1  UNL     1      34.107  61.299   2.697  1.00  0.00     0.224 C 
ENDBRANCH  25  27
BRANCH  25  29
HETATM   29  N1  UNL     1      35.469  64.532   1.211  1.00  0.00    -0.333 N 
ATOM     30  H12 UNL     1      35.875  64.135   0.364  1.00  0.00     0.168 HD
ATOM     31  H11 UNL     1      35.637  65.479   1.555  1.00  0.00     0.168 HD
ENDBRANCH  25  29
ENDBRANCH   1  25
TORSDOF 7
ENDMDL
MODEL 2
REMARK VINA RESULT: -7.444009609      1.949      2.471
REMARK  7 active torsions:
REMARK  status: ('A' for Active; 'I' for Inactive)
REMARK    1  A    between atoms: O1_2  and  S1_3 
REMARK    2  A    between atoms: S1_3  and  N1_4 
REMARK    3  A    between atoms: S1_3  and  C2_8 
REMARK    4  A    between atoms: C3_11  and  C4_12 
REMARK    5  A    between atoms: C5_15  and  N4_16 
REMARK    6  A    between atoms: C7_23  and  O4_24 
REMARK    7  A    between atoms: C8_26  and  N6_27 
ROOT
HETATM    1  C2  UNL     1      32.801  64.645   1.758  1.00  0.00     0.213 A 
HETATM    2  N2  UNL     1      32.511  65.909   2.018  1.00  0.00    -0.327 N 
ATOM      3  H2  UNL     1      33.036  66.495   2.667  1.00  0.00     0.168 HD
HETATM    4  C3  UNL     1      31.410  66.339   1.300  1.00  0.00     0.116 A 
HETATM    5  C8  UNL     1      31.043  65.252   0.603  1.00  0.00     0.207 A 
HETATM    6  N7  UNL     1      31.912  64.193   0.875  1.00  0.00    -0.307 N 
HETATM    7  C9  UNL     1      31.846  62.884   0.280  1.00  0.00     0.160 C 
ENDROOT
BRANCH   4   8
HETATM    8  C4  UNL     1      30.858  67.667   1.466  1.00  0.00     0.118 A 
HETATM    9  N3  UNL     1      30.730  68.452   0.345  1.00  0.00    -0.187 N 
HETATM   10  C5  UNL     1      30.089  69.611   0.316  1.00  0.00     0.679 A 
ATOM     11  H3  UNL     1      31.156  68.121  -0.520  1.00  0.00     0.184 HD
HETATM   12  N5  UNL     1      29.501  70.112   1.416  1.00  0.00    -0.154 N 
HETATM   13  C6  UNL     1      29.562  69.434   2.548  1.00  0.00     0.295 A 
ATOM     14  H5  UNL     1      29.013  71.006   1.378  1.00  0.00     0.187 HD
HETATM   15  O3  UNL     1      29.034  69.853   3.599  1.00  0.00    -0.265 OA
HETATM   16  C7  UNL     1      30.248  68.195   2.562  1.00  0.00     0.165 A 
BRANCH  10  17
HETATM   17  N4  UNL     1      30.010  70.310  -0.773  1.00  0.00    -0.234 N 
ATOM     18  H42 UNL     1      30.659  71.089  -0.878  1.00  0.00     0.174 HD
ATOM     19  H41 UNL     1      29.329  70.085  -1.499  1.00  0.00     0.174 HD
ENDBRANCH  10  17
BRANCH  16  20
HETATM   20  O4  UNL     1      30.234  67.562   3.752  1.00  0.00    -0.354 OA
ATOM     21  H4  UNL     1      30.857  67.763   4.440  1.00  0.00     0.218 HD
ENDBRANCH  16  20
ENDBRANCH   4   8
BRANCH   5  22
HETATM   22  N6  UNL     1      29.807  64.933  -0.014  1.00  0.00    -0.095 N 
HETATM   23  O5  UNL     1      29.488  65.149  -1.189  1.00  0.00    -0.530 OA
HETATM   24  O6  UNL     1      28.724  64.509   0.753  1.00  0.00    -0.530 OA
ENDBRANCH   5  22
BRANCH   1  25
HETATM   25  S1  UNL     1      34.141  63.713   2.455  1.00  0.00     0.204 S 
HETATM   26  O2  UNL     1      34.718  64.419   3.609  1.00  0.00    -0.213 OA
BRANCH  25  27
HETATM   27  O1  UNL     1      33.669  62.176   2.853  1.00  0.00    -0.291 OA
HETATM   28  C1  UNL     1      34.492  61.207   2.321  1.00  0.00     0.224 C 
ENDBRANCH  25  27
BRANCH  25  29
HETATM   29  N1  UNL     1      35.248  63.701   1.340  1.00  0.00    -0.333 N 
ATOM     30  H12 UNL     1      35.186  63.139   0.491  1.00  0.00     0.168 HD
ATOM     31  H11 UNL     1      36.022  64.322   1.578  1.00  0.00     0.168 HD
ENDBRANCH  25  29
ENDBRANCH   1  25
TORSDOF 7
ENDMDL
MODEL 3
REMARK VINA RESULT: -7.380327809      2.934      6.308
REMARK  7 active torsions:
REMARK  status: ('A' for Active; 'I' for Inactive)
REMARK    1  A    between atoms: O1_2  and  S1_3 
REMARK    2  A    between atoms: S1_3  and  N1_4 
REMARK    3  A    between atoms: S1_3  and  C2_8 
REMARK    4  A    between atoms: C3_11  and  C4_12 
REMARK    5  A    between atoms: C5_15  and  N4_16 
REMARK    6  A    between atoms: C7_23  and  O4_24 
REMARK    7  A    between atoms: C8_26  and  N6_27 
ROOT
HETATM    1  C2  UNL     1      30.728  67.906   3.803  1.00  0.00     0.213 A 
HETATM    2  N2  UNL     1      30.755  66.829   3.036  1.00  0.00    -0.327 N 
ATOM      3  H2  UNL     1      31.079  65.913   3.346  1.00  0.00     0.168 HD
HETATM    4  C3  UNL     1      30.288  67.097   1.762  1.00  0.00     0.116 A 
HETATM    5  C8  UNL     1      29.993  68.406   1.802  1.00  0.00     0.207 A 
HETATM    6  N7  UNL     1      30.254  68.917   3.075  1.00  0.00    -0.307 N 
HETATM    7  C9  UNL     1      30.023  70.274   3.495  1.00  0.00     0.160 C 
ENDROOT
BRANCH   4   8
HETATM    8  C4  UNL     1      30.285  66.092   0.720  1.00  0.00     0.118 A 
HETATM    9  N3  UNL     1      29.678  66.407  -0.472  1.00  0.00    -0.187 N 
HETATM   10  C5  UNL     1      29.748  65.661  -1.565  1.00  0.00     0.679 A 
ATOM     11  H3  UNL     1      29.140  67.272  -0.519  1.00  0.00     0.184 HD
HETATM   12  N5  UNL     1      30.440  64.509  -1.580  1.00  0.00    -0.154 N 
HETATM   13  C6  UNL     1      31.065  64.114  -0.486  1.00  0.00     0.295 A 
ATOM     14  H5  UNL     1      30.483  63.945  -2.429  1.00  0.00     0.187 HD
HETATM   15  O3  UNL     1      31.722  63.054  -0.446  1.00  0.00    -0.265 OA
HETATM   16  C7  UNL     1      30.984  64.925   0.673  1.00  0.00     0.165 A 
BRANCH  10  17
HETATM   17  N4  UNL     1      29.146  66.009  -2.658  1.00  0.00    -0.234 N 
ATOM     18  H42 UNL     1      28.130  65.922  -2.682  1.00  0.00     0.174 HD
ATOM     19  H41 UNL     1      29.666  66.364  -3.461  1.00  0.00     0.174 HD
ENDBRANCH  10  17
BRANCH  16  20
HETATM   20  O4  UNL     1      31.676  64.458   1.731  1.00  0.00    -0.354 OA
ATOM     21  H4  UNL     1      32.231  63.688   1.674  1.00  0.00     0.218 HD
ENDBRANCH  16  20
ENDBRANCH   4   8
BRANCH   5  22
HETATM   22  N6  UNL     1      29.833  69.342   0.749  1.00  0.00    -0.095 N 
HETATM   23  O5  UNL     1      28.799  69.955   0.454  1.00  0.00    -0.530 OA
HETATM   24  O6  UNL     1      30.829  69.503  -0.210  1.00  0.00    -0.530 OA
ENDBRANCH   5  22
BRANCH   1  25
HETATM   25  S1  UNL     1      31.226  67.993   5.504  1.00  0.00     0.204 S 
HETATM   26  O2  UNL     1      31.971  66.785   5.888  1.00  0.00    -0.213 OA
BRANCH  25  27
HETATM   27  O1  UNL     1      32.094  69.369   5.812  1.00  0.00    -0.291 OA
HETATM   28  C1  UNL     1      31.590  70.097   6.868  1.00  0.00     0.224 C 
ENDBRANCH  25  27
BRANCH  25  29
HETATM   29  N1  UNL     1      29.884  67.968   6.320  1.00  0.00    -0.333 N 
ATOM     30  H12 UNL     1      29.630  67.218   6.964  1.00  0.00     0.168 HD
ATOM     31  H11 UNL     1      29.313  68.790   6.121  1.00  0.00     0.168 HD
ENDBRANCH  25  29
ENDBRANCH   1  25
TORSDOF 7
ENDMDL
MODEL 4
REMARK VINA RESULT: -7.364801905      2.744      6.577
REMARK  7 active torsions:
REMARK  status: ('A' for Active; 'I' for Inactive)
REMARK    1  A    between atoms: O1_2  and  S1_3 
REMARK    2  A    between atoms: S1_3  and  N1_4 
REMARK    3  A    between atoms: S1_3  and  C2_8 
REMARK    4  A    between atoms: C3_11  and  C4_12 
REMARK    5  A    between atoms: C5_15  and  N4_16 
REMARK    6  A    between atoms: C7_23  and  O4_24 
REMARK    7  A    between atoms: C8_26  and  N6_27 
ROOT
HETATM    1  C2  UNL     1      30.574  68.258   1.451  1.00  0.00     0.213 A 
HETATM    2  N2  UNL     1      31.223  67.142   1.163  1.00  0.00    -0.327 N 
ATOM      3  H2  UNL     1      31.323  66.765   0.220  1.00  0.00     0.168 HD
HETATM    4  C3  UNL     1      31.750  66.550   2.296  1.00  0.00     0.116 A 
HETATM    5  C8  UNL     1      31.367  67.368   3.288  1.00  0.00     0.207 A 
HETATM    6  N7  UNL     1      30.640  68.443   2.769  1.00  0.00    -0.307 N 
HETATM    7  C9  UNL     1      30.102  69.535   3.536  1.00  0.00     0.160 C 
ENDROOT
BRANCH   4   8
HETATM    8  C4  UNL     1      32.446  65.281   2.244  1.00  0.00     0.118 A 
HETATM    9  N3  UNL     1      31.971  64.326   1.378  1.00  0.00    -0.187 N 
HETATM   10  C5  UNL     1      32.600  63.194   1.099  1.00  0.00     0.679 A 
ATOM     11  H3  UNL     1      31.076  64.499   0.921  1.00  0.00     0.184 HD
HETATM   12  N5  UNL     1      33.783  62.896   1.661  1.00  0.00    -0.154 N 
HETATM   13  C6  UNL     1      34.331  63.749   2.507  1.00  0.00     0.295 A 
ATOM     14  H5  UNL     1      34.254  62.019   1.437  1.00  0.00     0.187 HD
HETATM   15  O3  UNL     1      35.428  63.522   3.058  1.00  0.00    -0.265 OA
HETATM   16  C7  UNL     1      33.648  64.956   2.793  1.00  0.00     0.165 A 
BRANCH  10  17
HETATM   17  N4  UNL     1      32.095  62.327   0.278  1.00  0.00    -0.234 N 
ATOM     18  H42 UNL     1      31.306  61.772   0.609  1.00  0.00     0.174 HD
ATOM     19  H41 UNL     1      32.467  62.210  -0.664  1.00  0.00     0.174 HD
ENDBRANCH  10  17
BRANCH  16  20
HETATM   20  O4  UNL     1      34.296  65.777   3.643  1.00  0.00    -0.354 OA
ATOM     21  H4  UNL     1      34.920  65.454   4.282  1.00  0.00     0.218 HD
ENDBRANCH  16  20
ENDBRANCH   4   8
BRANCH   5  22
HETATM   22  N6  UNL     1      31.267  67.133   4.683  1.00  0.00    -0.095 N 
HETATM   23  O5  UNL     1      30.269  67.306   5.393  1.00  0.00    -0.530 OA
HETATM   24  O6  UNL     1      32.406  66.864   5.437  1.00  0.00    -0.530 OA
ENDBRANCH   5  22
BRANCH   1  25
HETATM   25  S1  UNL     1      29.763  69.328   0.291  1.00  0.00     0.204 S 
HETATM   26  O2  UNL     1      29.790  68.745  -1.059  1.00  0.00    -0.213 OA
BRANCH  25  27
HETATM   27  O1  UNL     1      28.219  69.684   0.772  1.00  0.00    -0.291 OA
HETATM   28  C1  UNL     1      27.458  68.560   1.010  1.00  0.00     0.224 C 
ENDBRANCH  25  27
BRANCH  25  29
HETATM   29  N1  UNL     1      30.658  70.619   0.237  1.00  0.00    -0.333 N 
ATOM     30  H12 UNL     1      30.318  71.550   0.477  1.00  0.00     0.168 HD
ATOM     31  H11 UNL     1      31.608  70.400  -0.065  1.00  0.00     0.168 HD
ENDBRANCH  25  29
ENDBRANCH   1  25
TORSDOF 7
ENDMDL
MODEL 5
REMARK VINA RESULT: -7.318471520      1.589      1.998
REMARK  7 active torsions:
REMARK  status: ('A' for Active; 'I' for Inactive)
REMARK    1  A    between atoms: O1_2  and  S1_3 
REMARK    2  A    between atoms: S1_3  and  N1_4 
REMARK    3  A    between atoms: S1_3  and  C2_8 
REMARK    4  A    between atoms: C3_11  and  C4_12 
REMARK    5  A    between atoms: C5_15  and  N4_16 
REMARK    6  A    between atoms: C7_23  and  O4_24 
REMARK    7  A    between atoms: C8_26  and  N6_27 
ROOT
HETATM    1  C2  UNL     1      33.049  64.553   2.156  1.00  0.00     0.213 A 
HETATM    2  N2  UNL     1      32.861  65.591   2.956  1.00  0.00    -0.327 N 
ATOM      3  H2  UNL     1      33.512  65.874   3.688  1.00  0.00     0.168 HD
HETATM    4  C3  UNL     1      31.675  66.244   2.675  1.00  0.00     0.116 A 
HETATM    5  C8  UNL     1      31.150  65.528   1.668  1.00  0.00     0.207 A 
HETATM    6  N7  UNL     1      32.006  64.477   1.331  1.00  0.00    -0.307 N 
HETATM    7  C9  UNL     1      31.784  63.526   0.274  1.00  0.00     0.160 C 
ENDROOT
BRANCH   4   8
HETATM    8  C4  UNL     1      31.216  67.370   3.461  1.00  0.00     0.118 A 
HETATM    9  N3  UNL     1      30.414  68.298   2.843  1.00  0.00    -0.187 N 
HETATM   10  C5  UNL     1      29.784  69.278   3.474  1.00  0.00     0.679 A 
ATOM     11  H3  UNL     1      30.296  68.228   1.832  1.00  0.00     0.184 HD
HETATM   12  N5  UNL     1      29.890  69.433   4.804  1.00  0.00    -0.154 N 
HETATM   13  C6  UNL     1      30.636  68.591   5.497  1.00  0.00     0.295 A 
ATOM     14  H5  UNL     1      29.400  70.193   5.275  1.00  0.00     0.187 HD
HETATM   15  O3  UNL     1      30.769  68.690   6.734  1.00  0.00    -0.265 OA
HETATM   16  C7  UNL     1      31.300  67.548   4.808  1.00  0.00     0.165 A 
BRANCH  10  17
HETATM   17  N4  UNL     1      29.046  70.128   2.831  1.00  0.00    -0.234 N 
ATOM     18  H42 UNL     1      28.072  69.875   2.667  1.00  0.00     0.174 HD
ATOM     19  H41 UNL     1      29.423  71.019   2.507  1.00  0.00     0.174 HD
ENDBRANCH  10  17
BRANCH  16  20
HETATM   20  O4  UNL     1      32.013  66.722   5.599  1.00  0.00    -0.354 OA
ATOM     21  H4  UNL     1      32.713  67.036   6.159  1.00  0.00     0.218 HD
ENDBRANCH  16  20
ENDBRANCH   4   8
BRANCH   5  22
HETATM   22  N6  UNL     1      29.815  65.453   1.196  1.00  0.00    -0.095 N 
HETATM   23  O5  UNL     1      29.243  66.268   0.462  1.00  0.00    -0.530 OA
HETATM   24  O6  UNL     1      28.935  64.505   1.713  1.00  0.00    -0.530 OA
ENDBRANCH   5  22
BRANCH   1  25
HETATM   25  S1  UNL     1      34.445  63.458   2.172  1.00  0.00     0.204 S 
HETATM   26  O2  UNL     1      34.998  63.342   3.530  1.00  0.00    -0.213 OA
BRANCH  25  27
HETATM   27  O1  UNL     1      34.060  61.976   1.541  1.00  0.00    -0.291 OA
HETATM   28  C1  UNL     1      35.161  61.167   1.361  1.00  0.00     0.224 C 
ENDBRANCH  25  27
BRANCH  25  29
HETATM   29  N1  UNL     1      35.537  64.183   1.306  1.00  0.00    -0.333 N 
ATOM     30  H12 UNL     1      35.546  65.190   1.139  1.00  0.00     0.168 HD
ATOM     31  H11 UNL     1      36.223  63.521   0.942  1.00  0.00     0.168 HD
ENDBRANCH  25  29
ENDBRANCH   1  25
TORSDOF 7
ENDMDL
