MODEL 1
REMARK VINA RESULT: -8.789965359      0.000      0.000
REMARK  5 active torsions:
REMARK  status: ('A' for Active; 'I' for Inactive)
REMARK    1  A    between atoms: N1_1  and  C1_4 
REMARK    2  A    between atoms: C2_7  and  S1_8 
REMARK    3  A    between atoms: S1_8  and  C3_9 
REMARK    4  A    between atoms: C6_18  and  O3_19 
REMARK    5  A    between atoms: C7_23  and  N6_24 
ROOT
HETATM    1  C1  UNL     1      29.378  65.278   1.761  1.00  0.00     0.692 A 
HETATM    2  N2  UNL     1      30.640  64.892   1.511  1.00  0.00    -0.169 N 
ATOM      3  H2  UNL     1      30.848  63.895   1.465  1.00  0.00     0.186 HD
HETATM    4  C2  UNL     1      31.637  65.774   1.319  1.00  0.00     0.180 A 
HETATM    5  N5  UNL     1      31.319  67.073   1.387  1.00  0.00    -0.169 N 
ATOM      6  H5  UNL     1      32.060  67.759   1.244  1.00  0.00     0.186 HD
HETATM    7  C7  UNL     1      30.067  67.528   1.636  1.00  0.00     0.697 A 
HETATM    8  N7  UNL     1      29.120  66.600   1.818  1.00  0.00    -0.022 N 
ATOM      9  H7  UNL     1      28.165  66.905   2.008  1.00  0.00     0.203 HD
ENDROOT
BRANCH   4  10
HETATM   10  S1  UNL     1      33.326  65.242   0.990  1.00  0.00    -0.031 SA
BRANCH  10  11
HETATM   11  C3  UNL     1      33.587  63.627   1.726  1.00  0.00     0.132 A 
HETATM   12  N3  UNL     1      34.349  63.465   2.828  1.00  0.00    -0.309 N 
HETATM   13  C4  UNL     1      34.524  62.229   3.356  1.00  0.00     0.314 A 
ATOM     14  H3  UNL     1      34.793  64.273   3.263  1.00  0.00     0.170 HD
HETATM   15  O1  UNL     1      35.234  62.045   4.388  1.00  0.00    -0.262 OA
HETATM   16  C5  UNL     1      33.945  61.109   2.804  1.00  0.00     0.315 A 
HETATM   17  O2  UNL     1      34.127  59.979   3.319  1.00  0.00    -0.262 OA
HETATM   18  N4  UNL     1      33.176  61.260   1.696  1.00  0.00    -0.297 N 
HETATM   19  C6  UNL     1      33.010  62.489   1.182  1.00  0.00     0.178 A 
ATOM     20  H4  UNL     1      32.730  60.451   1.261  1.00  0.00     0.171 HD
BRANCH  19  21
HETATM   21  O3  UNL     1      32.217  62.665   0.034  1.00  0.00    -0.344 OA
ATOM     22  H3  UNL     1      32.638  63.050  -0.725  1.00  0.00     0.219 HD
ENDBRANCH  19  21
ENDBRANCH  10  11
ENDBRANCH   4  10
BRANCH   1  23
HETATM   23  N1  UNL     1      28.468  64.395   1.936  1.00  0.00    -0.234 N 
ATOM     24  H12 UNL     1      28.634  63.537   2.463  1.00  0.00     0.174 HD
ATOM     25  H11 UNL     1      27.539  64.541   1.540  1.00  0.00     0.174 HD
ENDBRANCH   1  23
BRANCH   7  26
HETATM   26  N6  UNL     1      29.790  68.916   1.694  1.00  0.00    -0.213 N 
HETATM   27  C8  UNL     1      29.044  69.501   2.764  1.00  0.00     0.167 C 
HETATM   28  C9  UNL     1      29.525  70.906   3.140  1.00  0.00     0.188 C 
HETATM   29  O4  UNL     1      29.846  71.687   2.063  1.00  0.00    -0.388 OA
HETATM   30  C10 UNL     1      29.521  71.124   0.834  1.00  0.00     0.188 C 
HETATM   31  C11 UNL     1      30.257  69.820   0.643  1.00  0.00     0.167 C 
ENDBRANCH   7  26
TORSDOF 5
ENDMDL
MODEL 2
REMARK VINA RESULT: -8.732918578      2.787      4.158
REMARK  5 active torsions:
REMARK  status: ('A' for Active; 'I' for Inactive)
REMARK    1  A    between atoms: N1_1  and  C1_4 
REMARK    2  A    between atoms: C2_7  and  S1_8 
REMARK    3  A    between atoms: S1_8  and  C3_9 
REMARK    4  A    between atoms: C6_18  and  O3_19 
REMARK    5  A    between atoms: C7_23  and  N6_24 
ROOT
HETATM    1  C1  UNL     1      30.490  70.391   1.545  1.00  0.00     0.692 A 
HETATM    2  N2  UNL     1      30.405  69.099   1.191  1.00  0.00    -0.169 N 
ATOM      3  H2  UNL     1      30.524  68.850   0.209  1.00  0.00     0.186 HD
HETATM    4  C2  UNL     1      30.170  68.122   2.085  1.00  0.00     0.180 A 
HETATM    5  N5  UNL     1      30.021  68.493   3.363  1.00  0.00    -0.169 N 
ATOM      6  H5  UNL     1      29.842  67.768   4.057  1.00  0.00     0.186 HD
HETATM    7  C7  UNL     1      30.095  69.779   3.786  1.00  0.00     0.697 A 
HETATM    8  N7  UNL     1      30.331  70.703   2.847  1.00  0.00    -0.022 N 
ATOM      9  H7  UNL     1      30.393  71.682   3.128  1.00  0.00     0.203 HD
ENDROOT
BRANCH   4  10
HETATM   10  S1  UNL     1      30.053  66.393   1.595  1.00  0.00    -0.031 SA
BRANCH  10  11
HETATM   11  C3  UNL     1      31.685  65.652   1.665  1.00  0.00     0.132 A 
HETATM   12  N3  UNL     1      32.460  65.747   2.766  1.00  0.00    -0.309 N 
HETATM   13  C4  UNL     1      33.689  65.175   2.783  1.00  0.00     0.314 A 
ATOM     14  H3  UNL     1      32.121  66.249   3.586  1.00  0.00     0.170 HD
HETATM   15  O1  UNL     1      34.439  65.247   3.799  1.00  0.00    -0.262 OA
HETATM   16  C5  UNL     1      34.190  64.486   1.700  1.00  0.00     0.315 A 
HETATM   17  O2  UNL     1      35.332  63.968   1.749  1.00  0.00    -0.262 OA
HETATM   18  N4  UNL     1      33.419  64.384   0.588  1.00  0.00    -0.297 N 
HETATM   19  C6  UNL     1      32.204  64.955   0.584  1.00  0.00     0.178 A 
ATOM     20  H4  UNL     1      33.758  63.880  -0.233  1.00  0.00     0.171 HD
BRANCH  19  21
HETATM   21  O3  UNL     1      31.392  64.860  -0.560  1.00  0.00    -0.344 OA
ATOM     22  H3  UNL     1      31.396  65.602  -1.153  1.00  0.00     0.219 HD
ENDBRANCH  19  21
ENDBRANCH  10  11
ENDBRANCH   4  10
BRANCH   1  23
HETATM   23  N1  UNL     1      30.715  71.280   0.651  1.00  0.00    -0.234 N 
ATOM     24  H12 UNL     1      31.614  71.359   0.174  1.00  0.00     0.174 HD
ATOM     25  H11 UNL     1      29.979  71.939   0.397  1.00  0.00     0.174 HD
ENDBRANCH   1  23
BRANCH   7  26
HETATM   26  N6  UNL     1      29.931  70.111   5.152  1.00  0.00    -0.213 N 
HETATM   27  C8  UNL     1      30.627  69.421   6.194  1.00  0.00     0.167 C 
HETATM   28  C9  UNL     1      31.016  70.329   7.366  1.00  0.00     0.188 C 
HETATM   29  O4  UNL     1      30.046  71.230   7.713  1.00  0.00    -0.388 OA
HETATM   30  C10 UNL     1      28.835  71.046   7.053  1.00  0.00     0.188 C 
HETATM   31  C11 UNL     1      29.024  71.183   5.562  1.00  0.00     0.167 C 
ENDBRANCH   7  26
TORSDOF 5
ENDMDL
MODEL 3
REMARK VINA RESULT: -8.632239221      1.602      1.994
REMARK  5 active torsions:
REMARK  status: ('A' for Active; 'I' for Inactive)
REMARK    1  A    between atoms: N1_1  and  C1_4 
REMARK    2  A    between atoms: C2_7  and  S1_8 
REMARK    3  A    between atoms: S1_8  and  C3_9 
REMARK    4  A    between atoms: C6_18  and  O3_19 
REMARK    5  A    between atoms: C7_23  and  N6_24 
ROOT
HETATM    1  C1  UNL     1      29.227  65.956   1.292  1.00  0.00     0.692 A 
HETATM    2  N2  UNL     1      30.394  65.429   0.889  1.00  0.00    -0.169 N 
ATOM      3  H2  UNL     1      30.385  64.713   0.164  1.00  0.00     0.186 HD
HETATM    4  C2  UNL     1      31.574  65.813   1.408  1.00  0.00     0.180 A 
HETATM    5  N5  UNL     1      31.540  66.757   2.357  1.00  0.00    -0.169 N 
ATOM      6  H5  UNL     1      32.424  67.063   2.764  1.00  0.00     0.186 HD
HETATM    7  C7  UNL     1      30.397  67.329   2.809  1.00  0.00     0.697 A 
HETATM    8  N7  UNL     1      29.257  66.903   2.252  1.00  0.00    -0.022 N 
ATOM      9  H7  UNL     1      28.376  67.310   2.567  1.00  0.00     0.203 HD
ENDROOT
BRANCH   4  10
HETATM   10  S1  UNL     1      33.132  65.094   0.861  1.00  0.00    -0.031 SA
BRANCH  10  11
HETATM   11  C3  UNL     1      33.383  63.530   1.702  1.00  0.00     0.132 A 
HETATM   12  N3  UNL     1      34.318  63.385   2.666  1.00  0.00    -0.309 N 
HETATM   13  C4  UNL     1      34.480  62.187   3.280  1.00  0.00     0.314 A 
ATOM     14  H3  UNL     1      34.902  64.177   2.932  1.00  0.00     0.170 HD
HETATM   15  O1  UNL     1      35.347  62.020   4.185  1.00  0.00    -0.262 OA
HETATM   16  C5  UNL     1      33.715  61.089   2.954  1.00  0.00     0.315 A 
HETATM   17  O2  UNL     1      33.891  59.995   3.543  1.00  0.00    -0.262 OA
HETATM   18  N4  UNL     1      32.772  61.223   1.988  1.00  0.00    -0.297 N 
HETATM   19  C6  UNL     1      32.621  62.415   1.387  1.00  0.00     0.178 A 
ATOM     20  H4  UNL     1      32.186  60.431   1.722  1.00  0.00     0.171 HD
BRANCH  19  21
HETATM   21  O3  UNL     1      31.649  62.572   0.383  1.00  0.00    -0.344 OA
ATOM     22  H3  UNL     1      31.873  62.257  -0.485  1.00  0.00     0.219 HD
ENDBRANCH  19  21
ENDBRANCH  10  11
ENDBRANCH   4  10
BRANCH   1  23
HETATM   23  N1  UNL     1      28.132  65.552   0.764  1.00  0.00    -0.234 N 
ATOM     24  H12 UNL     1      27.341  65.235   1.323  1.00  0.00     0.174 HD
ATOM     25  H11 UNL     1      28.036  65.542  -0.252  1.00  0.00     0.174 HD
ENDBRANCH   1  23
BRANCH   7  26
HETATM   26  N6  UNL     1      30.424  68.325   3.814  1.00  0.00    -0.213 N 
HETATM   27  C8  UNL     1      30.212  69.709   3.525  1.00  0.00     0.167 C 
HETATM   28  C9  UNL     1      29.464  70.452   4.637  1.00  0.00     0.188 C 
HETATM   29  O4  UNL     1      29.860  70.102   5.899  1.00  0.00    -0.388 OA
HETATM   30  C10 UNL     1      30.973  69.267   5.936  1.00  0.00     0.188 C 
HETATM   31  C11 UNL     1      30.683  67.975   5.211  1.00  0.00     0.167 C 
ENDBRANCH   7  26
TORSDOF 5
ENDMDL
MODEL 4
REMARK VINA RESULT: -8.257881666      2.335      3.539
REMARK  5 active torsions:
REMARK  status: ('A' for Active; 'I' for Inactive)
REMARK    1  A    between atoms: N1_1  and  C1_4 
REMARK    2  A    between atoms: C2_7  and  S1_8 
REMARK    3  A    between atoms: S1_8  and  C3_9 
REMARK    4  A    between atoms: C6_18  and  O3_19 
REMARK    5  A    between atoms: C7_23  and  N6_24 
ROOT
HETATM    1  C1  UNL     1      30.191  69.713   0.472  1.00  0.00     0.692 A 
HETATM    2  N2  UNL     1      30.163  68.395   0.219  1.00  0.00    -0.169 N 
ATOM      3  H2  UNL     1      30.191  68.080  -0.751  1.00  0.00     0.186 HD
HETATM    4  C2  UNL     1      30.100  67.475   1.198  1.00  0.00     0.180 A 
HETATM    5  N5  UNL     1      30.067  67.931   2.457  1.00  0.00    -0.169 N 
ATOM      6  H5  UNL     1      30.019  67.251   3.215  1.00  0.00     0.186 HD
HETATM    7  C7  UNL     1      30.091  69.247   2.780  1.00  0.00     0.697 A 
HETATM    8  N7  UNL     1      30.154  70.111   1.760  1.00  0.00    -0.022 N 
ATOM      9  H7  UNL     1      30.175  71.110   1.965  1.00  0.00     0.203 HD
ENDROOT
BRANCH   4  10
HETATM   10  S1  UNL     1      30.058  65.710   0.843  1.00  0.00    -0.031 SA
BRANCH  10  11
HETATM   11  C3  UNL     1      31.636  64.984   1.289  1.00  0.00     0.132 A 
HETATM   12  N3  UNL     1      32.383  65.476   2.300  1.00  0.00    -0.309 N 
HETATM   13  C4  UNL     1      33.572  64.901   2.608  1.00  0.00     0.314 A 
ATOM     14  H3  UNL     1      32.052  66.280   2.833  1.00  0.00     0.170 HD
HETATM   15  O1  UNL     1      34.294  65.340   3.549  1.00  0.00    -0.262 OA
HETATM   16  C5  UNL     1      34.059  63.814   1.917  1.00  0.00     0.315 A 
HETATM   17  O2  UNL     1      35.163  63.306   2.229  1.00  0.00    -0.262 OA
HETATM   18  N4  UNL     1      33.317  63.311   0.899  1.00  0.00    -0.297 N 
HETATM   19  C6  UNL     1      32.141  63.889   0.604  1.00  0.00     0.178 A 
ATOM     20  H4  UNL     1      33.647  62.505   0.367  1.00  0.00     0.171 HD
BRANCH  19  21
HETATM   21  O3  UNL     1      31.359  63.381  -0.448  1.00  0.00    -0.344 OA
ATOM     22  H3  UNL     1      31.485  63.772  -1.305  1.00  0.00     0.219 HD
ENDBRANCH  19  21
ENDBRANCH  10  11
ENDBRANCH   4  10
BRANCH   1  23
HETATM   23  N1  UNL     1      30.251  70.544  -0.500  1.00  0.00    -0.234 N 
ATOM     24  H12 UNL     1      31.134  70.931  -0.834  1.00  0.00     0.174 HD
ATOM     25  H11 UNL     1      29.393  70.840  -0.965  1.00  0.00     0.174 HD
ENDBRANCH   1  23
BRANCH   7  26
HETATM   26  N6  UNL     1      30.055  69.670   4.131  1.00  0.00    -0.213 N 
HETATM   27  C8  UNL     1      29.495  70.926   4.524  1.00  0.00     0.167 C 
HETATM   28  C9  UNL     1      28.787  70.875   5.882  1.00  0.00     0.188 C 
HETATM   29  O4  UNL     1      29.447  70.131   6.821  1.00  0.00    -0.388 OA
HETATM   30  C10 UNL     1      30.709  69.701   6.425  1.00  0.00     0.188 C 
HETATM   31  C11 UNL     1      30.604  68.831   5.196  1.00  0.00     0.167 C 
ENDBRANCH   7  26
TORSDOF 5
ENDMDL
MODEL 5
REMARK VINA RESULT: -8.254295667      1.158      1.639
REMARK  5 active torsions:
REMARK  status: ('A' for Active; 'I' for Inactive)
REMARK    1  A    between atoms: N1_1  and  C1_4 
REMARK    2  A    between atoms: C2_7  and  S1_8 
REMARK    3  A    between atoms: S1_8  and  C3_9 
REMARK    4  A    between atoms: C6_18  and  O3_19 
REMARK    5  A    between atoms: C7_23  and  N6_24 
ROOT
HETATM    1  C1  UNL     1      29.181  65.038   1.790  1.00  0.00     0.692 A 
HETATM    2  N2  UNL     1      30.337  64.573   1.290  1.00  0.00    -0.169 N 
ATOM      3  H2  UNL     1      30.461  63.565   1.194  1.00  0.00     0.186 HD
HETATM    4  C2  UNL     1      31.337  65.389   0.911  1.00  0.00     0.180 A 
HETATM    5  N5  UNL     1      31.132  66.705   1.053  1.00  0.00    -0.169 N 
ATOM      6  H5  UNL     1      31.877  67.342   0.772  1.00  0.00     0.186 HD
HETATM    7  C7  UNL     1      29.990  67.238   1.551  1.00  0.00     0.697 A 
HETATM    8  N7  UNL     1      29.034  66.373   1.910  1.00  0.00    -0.022 N 
ATOM      9  H7  UNL     1      28.160  66.738   2.288  1.00  0.00     0.203 HD
ENDROOT
BRANCH   4  10
HETATM   10  S1  UNL     1      32.885  64.751   0.247  1.00  0.00    -0.031 SA
BRANCH  10  11
HETATM   11  C3  UNL     1      33.711  63.783   1.511  1.00  0.00     0.132 A 
HETATM   12  N3  UNL     1      33.178  62.638   1.989  1.00  0.00    -0.309 N 
HETATM   13  C4  UNL     1      33.831  61.933   2.945  1.00  0.00     0.314 A 
ATOM     14  H3  UNL     1      32.284  62.304   1.630  1.00  0.00     0.170 HD
HETATM   15  O1  UNL     1      33.357  60.857   3.413  1.00  0.00    -0.262 OA
HETATM   16  C5  UNL     1      35.040  62.344   3.459  1.00  0.00     0.315 A 
HETATM   17  O2  UNL     1      35.618  61.667   4.343  1.00  0.00    -0.262 OA
HETATM   18  N4  UNL     1      35.586  63.493   2.986  1.00  0.00    -0.297 N 
HETATM   19  C6  UNL     1      34.929  64.183   2.039  1.00  0.00     0.178 A 
ATOM     20  H4  UNL     1      36.481  63.827   3.344  1.00  0.00     0.171 HD
BRANCH  19  21
HETATM   21  O3  UNL     1      35.479  65.376   1.537  1.00  0.00    -0.344 OA
ATOM     22  H3  UNL     1      35.750  66.025   2.174  1.00  0.00     0.219 HD
ENDBRANCH  19  21
ENDBRANCH  10  11
ENDBRANCH   4  10
BRANCH   1  23
HETATM   23  N1  UNL     1      28.263  64.215   2.135  1.00  0.00    -0.234 N 
ATOM     24  H12 UNL     1      28.077  63.356   1.616  1.00  0.00     0.174 HD
ATOM     25  H11 UNL     1      27.690  64.412   2.955  1.00  0.00     0.174 HD
ENDBRANCH   1  23
BRANCH   7  26
HETATM   26  N6  UNL     1      29.830  68.640   1.676  1.00  0.00    -0.213 N 
HETATM   27  C8  UNL     1      29.256  69.242   2.839  1.00  0.00     0.167 C 
HETATM   28  C9  UNL     1      29.883  70.594   3.194  1.00  0.00     0.188 C 
HETATM   29  O4  UNL     1      30.142  71.385   2.108  1.00  0.00    -0.388 OA
HETATM   30  C10 UNL     1      29.639  70.890   0.909  1.00  0.00     0.188 C 
HETATM   31  C11 UNL     1      30.246  69.542   0.603  1.00  0.00     0.167 C 
ENDBRANCH   7  26
TORSDOF 5
ENDMDL
