MODEL 1
REMARK VINA RESULT: -7.092071308      0.000      0.000
REMARK  7 active torsions:
REMARK  status: ('A' for Active; 'I' for Inactive)
REMARK    1  A    between atoms: N1_2  and  S1_4 
REMARK    2  A    between atoms: S1_4  and  C2_7 
REMARK    3  A    between atoms: C4_10  and  C5_11 
REMARK    4  A    between atoms: C5_11  and  C6_12 
REMARK    5  A    between atoms: C6_12  and  O3_13 
REMARK    6  A    between atoms: N3_15  and  O4_17 
REMARK    7  A    between atoms: C8_21  and  N5_22 
ROOT
HETATM    1  C2  UNL     1      30.095  69.527   5.108  1.00  0.00     0.167 A 
HETATM    2  C3  UNL     1      29.557  69.882   3.880  1.00  0.00     0.155 A 
HETATM    3  N2  UNL     1      29.729  69.106   2.773  1.00  0.00    -0.114 N 
HETATM    4  C4  UNL     1      30.419  67.961   2.829  1.00  0.00     0.159 A 
HETATM    5  N4  UNL     1      30.947  67.630   4.061  1.00  0.00    -0.325 N 
ATOM      6  H4  UNL     1      31.482  66.764   4.133  1.00  0.00     0.169 HD
HETATM    7  C8  UNL     1      30.806  68.351   5.140  1.00  0.00     0.128 A 
HETATM    8  C9  UNL     1      29.252  69.593   1.534  1.00  0.00     0.684 C 
HETATM    9  N6  UNL     1      29.428  68.995   0.410  1.00  0.00    -0.234 N 
ATOM     10  H61 UNL     1      29.084  69.347  -0.483  1.00  0.00     0.174 HD
ATOM     11  H62 UNL     1      29.889  68.086   0.431  1.00  0.00     0.174 HD
HETATM   12  N7  UNL     1      28.601  70.878   1.505  1.00  0.00    -0.206 N 
HETATM   13  C10 UNL     1      27.806  71.171   0.332  1.00  0.00     0.170 C 
HETATM   14  C11 UNL     1      28.710  71.843   2.559  1.00  0.00     0.265 C 
HETATM   15  N8  UNL     1      28.795  71.080   3.808  1.00  0.00    -0.357 N 
ATOM     16  H8  UNL     1      28.300  71.413   4.636  1.00  0.00     0.162 HD
ENDROOT
BRANCH   4  17
HETATM   17  C5  UNL     1      30.509  66.957   1.808  1.00  0.00     0.100 C 
HETATM   18  N3  UNL     1      31.385  66.682   0.979  1.00  0.00    -0.266 N 
ATOM     19  H3  UNL     1      32.237  67.242   0.969  1.00  0.00     0.194 HD
BRANCH  17  20
HETATM   20  C6  UNL     1      29.279  66.017   1.773  1.00  0.00     0.227 C 
BRANCH  20  21
HETATM   21  O3  UNL     1      29.620  64.984   2.640  1.00  0.00    -0.395 OA
ATOM     22  H3  UNL     1      29.849  64.266   2.063  1.00  0.00     0.209 HD
ENDBRANCH  20  21
ENDBRANCH  17  20
BRANCH  18  23
HETATM   23  O4  UNL     1      31.261  65.642   0.058  1.00  0.00    -0.285 OA
HETATM   24  C7  UNL     1      32.186  64.574   0.161  1.00  0.00     0.237 C 
ENDBRANCH  18  23
ENDBRANCH   4  17
BRANCH   7  25
HETATM   25  N5  UNL     1      31.302  68.048   6.306  1.00  0.00    -0.384 N 
ATOM     26  H52 UNL     1      31.828  68.691   6.899  1.00  0.00     0.157 HD
ATOM     27  H51 UNL     1      31.128  67.089   6.607  1.00  0.00     0.157 HD
ENDBRANCH   7  25
BRANCH   1  28
HETATM   28  S1  UNL     1      29.868  70.545   6.481  1.00  0.00     0.265 S 
HETATM   29  O1  UNL     1      29.542  71.971   6.153  1.00  0.00    -0.200 OA
HETATM   30  O2  UNL     1      31.233  70.615   7.174  1.00  0.00    -0.200 OA
BRANCH  28  31
HETATM   31  N1  UNL     1      28.801  69.870   7.654  1.00  0.00    -0.320 N 
HETATM   32  C1  UNL     1      27.553  70.567   7.721  1.00  0.00     0.159 C 
ATOM     33  H1  UNL     1      29.034  69.065   8.235  1.00  0.00     0.171 HD
ENDBRANCH  28  31
ENDBRANCH   1  28
TORSDOF 7
ENDMDL
MODEL 2
REMARK VINA RESULT: -6.983176863      4.195      6.423
REMARK  7 active torsions:
REMARK  status: ('A' for Active; 'I' for Inactive)
REMARK    1  A    between atoms: N1_2  and  S1_4 
REMARK    2  A    between atoms: S1_4  and  C2_7 
REMARK    3  A    between atoms: C4_10  and  C5_11 
REMARK    4  A    between atoms: C5_11  and  C6_12 
REMARK    5  A    between atoms: C6_12  and  O3_13 
REMARK    6  A    between atoms: N3_15  and  O4_17 
REMARK    7  A    between atoms: C8_21  and  N5_22 
ROOT
HETATM    1  C2  UNL     1      29.890  65.939  -0.340  1.00  0.00     0.167 A 
HETATM    2  C3  UNL     1      30.223  66.402   0.924  1.00  0.00     0.155 A 
HETATM    3  N2  UNL     1      31.275  65.887   1.619  1.00  0.00    -0.114 N 
HETATM    4  C4  UNL     1      32.038  64.915   1.105  1.00  0.00     0.159 A 
HETATM    5  N4  UNL     1      31.686  64.469  -0.154  1.00  0.00    -0.325 N 
ATOM      6  H4  UNL     1      32.247  63.725  -0.570  1.00  0.00     0.169 HD
HETATM    7  C8  UNL     1      30.682  64.936  -0.846  1.00  0.00     0.128 A 
HETATM    8  C9  UNL     1      31.479  66.328   2.947  1.00  0.00     0.684 C 
HETATM    9  N6  UNL     1      32.381  65.857   3.731  1.00  0.00    -0.234 N 
ATOM     10  H61 UNL     1      32.528  66.175   4.689  1.00  0.00     0.174 HD
ATOM     11  H62 UNL     1      33.023  65.165   3.344  1.00  0.00     0.174 HD
HETATM   12  N7  UNL     1      30.572  67.305   3.495  1.00  0.00    -0.206 N 
HETATM   13  C10 UNL     1      31.016  68.002   4.682  1.00  0.00     0.170 C 
HETATM   14  C11 UNL     1      29.290  67.598   2.924  1.00  0.00     0.265 C 
HETATM   15  N8  UNL     1      29.442  67.455   1.474  1.00  0.00    -0.357 N 
ATOM     16  H8  UNL     1      28.981  68.120   0.851  1.00  0.00     0.162 HD
ENDROOT
BRANCH   4  17
HETATM   17  C5  UNL     1      33.280  64.425   1.629  1.00  0.00     0.100 C 
HETATM   18  N3  UNL     1      33.578  63.401   2.255  1.00  0.00    -0.266 N 
ATOM     19  H3  UNL     1      32.840  62.731   2.471  1.00  0.00     0.194 HD
BRANCH  17  20
HETATM   20  C6  UNL     1      34.480  65.349   1.309  1.00  0.00     0.227 C 
BRANCH  20  21
HETATM   21  O3  UNL     1      34.330  65.639  -0.043  1.00  0.00    -0.395 OA
ATOM     22  H3  UNL     1      34.457  64.802  -0.473  1.00  0.00     0.209 HD
ENDBRANCH  20  21
ENDBRANCH  17  20
BRANCH  18  23
HETATM   23  O4  UNL     1      34.877  63.118   2.678  1.00  0.00    -0.285 OA
HETATM   24  C7  UNL     1      35.053  61.988   3.513  1.00  0.00     0.237 C 
ENDBRANCH  18  23
ENDBRANCH   4  17
BRANCH   7  25
HETATM   25  N5  UNL     1      30.341  64.519  -2.032  1.00  0.00    -0.384 N 
ATOM     26  H52 UNL     1      30.496  65.038  -2.897  1.00  0.00     0.157 HD
ATOM     27  H51 UNL     1      29.892  63.604  -2.049  1.00  0.00     0.157 HD
ENDBRANCH   7  25
BRANCH   1  28
HETATM   28  S1  UNL     1      28.540  66.606  -1.181  1.00  0.00     0.265 S 
HETATM   29  O1  UNL     1      28.539  66.353  -2.658  1.00  0.00    -0.200 OA
HETATM   30  O2  UNL     1      28.684  68.126  -1.053  1.00  0.00    -0.200 OA
BRANCH  28  31
HETATM   31  N1  UNL     1      27.030  66.233  -0.439  1.00  0.00    -0.320 N 
HETATM   32  C1  UNL     1      26.599  64.898  -0.721  1.00  0.00     0.159 C 
ATOM     33  H1  UNL     1      26.503  66.890   0.136  1.00  0.00     0.171 HD
ENDBRANCH  28  31
ENDBRANCH   1  28
TORSDOF 7
ENDMDL
MODEL 3
REMARK VINA RESULT: -6.941622367      4.216      6.556
REMARK  7 active torsions:
REMARK  status: ('A' for Active; 'I' for Inactive)
REMARK    1  A    between atoms: N1_2  and  S1_4 
REMARK    2  A    between atoms: S1_4  and  C2_7 
REMARK    3  A    between atoms: C4_10  and  C5_11 
REMARK    4  A    between atoms: C5_11  and  C6_12 
REMARK    5  A    between atoms: C6_12  and  O3_13 
REMARK    6  A    between atoms: N3_15  and  O4_17 
REMARK    7  A    between atoms: C8_21  and  N5_22 
ROOT
HETATM    1  C2  UNL     1      29.795  66.003  -0.674  1.00  0.00     0.167 A 
HETATM    2  C3  UNL     1      30.052  66.478   0.603  1.00  0.00     0.155 A 
HETATM    3  N2  UNL     1      31.053  65.963   1.370  1.00  0.00    -0.114 N 
HETATM    4  C4  UNL     1      31.838  64.978   0.917  1.00  0.00     0.159 A 
HETATM    5  N4  UNL     1      31.561  64.518  -0.357  1.00  0.00    -0.325 N 
ATOM      6  H4  UNL     1      32.140  63.765  -0.727  1.00  0.00     0.169 HD
HETATM    7  C8  UNL     1      30.608  64.986  -1.116  1.00  0.00     0.128 A 
HETATM    8  C9  UNL     1      31.178  66.418   2.702  1.00  0.00     0.684 C 
HETATM    9  N6  UNL     1      32.024  65.949   3.548  1.00  0.00    -0.234 N 
ATOM     10  H61 UNL     1      32.113  66.278   4.509  1.00  0.00     0.174 HD
ATOM     11  H62 UNL     1      32.682  65.247   3.210  1.00  0.00     0.174 HD
HETATM   12  N7  UNL     1      30.247  67.411   3.180  1.00  0.00    -0.206 N 
HETATM   13  C10 UNL     1      30.622  68.119   4.384  1.00  0.00     0.170 C 
HETATM   14  C11 UNL     1      29.007  67.709   2.526  1.00  0.00     0.265 C 
HETATM   15  N8  UNL     1      29.249  67.546   1.090  1.00  0.00    -0.357 N 
ATOM     16  H8  UNL     1      28.835  68.206   0.431  1.00  0.00     0.162 HD
ENDROOT
BRANCH   4  17
HETATM   17  C5  UNL     1      33.039  64.482   1.524  1.00  0.00     0.100 C 
HETATM   18  N3  UNL     1      33.289  63.459   2.171  1.00  0.00    -0.266 N 
ATOM     19  H3  UNL     1      32.535  62.793   2.339  1.00  0.00     0.194 HD
BRANCH  17  20
HETATM   20  C6  UNL     1      34.262  65.400   1.283  1.00  0.00     0.227 C 
BRANCH  20  21
HETATM   21  O3  UNL     1      34.223  65.661  -0.083  1.00  0.00    -0.395 OA
ATOM     22  H3  UNL     1      34.207  66.610  -0.135  1.00  0.00     0.209 HD
ENDBRANCH  20  21
ENDBRANCH  17  20
BRANCH  18  23
HETATM   23  O4  UNL     1      34.556  63.171   2.681  1.00  0.00    -0.285 OA
HETATM   24  C7  UNL     1      34.707  61.952   3.385  1.00  0.00     0.237 C 
ENDBRANCH  18  23
ENDBRANCH   4  17
BRANCH   7  25
HETATM   25  N5  UNL     1      30.339  64.557  -2.317  1.00  0.00    -0.384 N 
ATOM     26  H52 UNL     1      29.686  65.005  -2.961  1.00  0.00     0.157 HD
ATOM     27  H51 UNL     1      30.840  63.712  -2.590  1.00  0.00     0.157 HD
ENDBRANCH   7  25
BRANCH   1  28
HETATM   28  S1  UNL     1      28.508  66.671  -1.607  1.00  0.00     0.265 S 
HETATM   29  O1  UNL     1      27.391  67.256  -0.798  1.00  0.00    -0.200 OA
HETATM   30  O2  UNL     1      27.870  65.487  -2.340  1.00  0.00    -0.200 OA
BRANCH  28  31
HETATM   31  N1  UNL     1      29.055  67.730  -2.852  1.00  0.00    -0.320 N 
HETATM   32  C1  UNL     1      29.321  69.050  -2.368  1.00  0.00     0.159 C 
ATOM     33  H1  UNL     1      29.176  67.448  -3.824  1.00  0.00     0.171 HD
ENDBRANCH  28  31
ENDBRANCH   1  28
TORSDOF 7
ENDMDL
MODEL 4
REMARK VINA RESULT: -6.925883708      4.286      6.741
REMARK  7 active torsions:
REMARK  status: ('A' for Active; 'I' for Inactive)
REMARK    1  A    between atoms: N1_2  and  S1_4 
REMARK    2  A    between atoms: S1_4  and  C2_7 
REMARK    3  A    between atoms: C4_10  and  C5_11 
REMARK    4  A    between atoms: C5_11  and  C6_12 
REMARK    5  A    between atoms: C6_12  and  O3_13 
REMARK    6  A    between atoms: N3_15  and  O4_17 
REMARK    7  A    between atoms: C8_21  and  N5_22 
ROOT
HETATM    1  C2  UNL     1      29.196  66.337  -1.435  1.00  0.00     0.167 A 
HETATM    2  C3  UNL     1      29.431  66.791  -0.146  1.00  0.00     0.155 A 
HETATM    3  N2  UNL     1      30.323  66.173   0.678  1.00  0.00    -0.114 N 
HETATM    4  C4  UNL     1      31.018  65.104   0.272  1.00  0.00     0.159 A 
HETATM    5  N4  UNL     1      30.765  64.669  -1.015  1.00  0.00    -0.325 N 
ATOM      6  H4  UNL     1      31.277  63.853  -1.350  1.00  0.00     0.169 HD
HETATM    7  C8  UNL     1      29.915  65.234  -1.829  1.00  0.00     0.128 A 
HETATM    8  C9  UNL     1      30.420  66.622   2.015  1.00  0.00     0.684 C 
HETATM    9  N6  UNL     1      31.159  66.068   2.909  1.00  0.00    -0.234 N 
ATOM     10  H61 UNL     1      31.229  66.392   3.873  1.00  0.00     0.174 HD
ATOM     11  H62 UNL     1      31.753  65.295   2.610  1.00  0.00     0.174 HD
HETATM   12  N7  UNL     1      29.580  67.715   2.437  1.00  0.00    -0.206 N 
HETATM   13  C10 UNL     1      29.962  68.386   3.661  1.00  0.00     0.170 C 
HETATM   14  C11 UNL     1      28.420  68.143   1.713  1.00  0.00     0.265 C 
HETATM   15  N8  UNL     1      28.724  67.945   0.293  1.00  0.00    -0.357 N 
ATOM     16  H8  UNL     1      28.425  68.642  -0.389  1.00  0.00     0.162 HD
ENDROOT
BRANCH   4  17
HETATM   17  C5  UNL     1      32.120  64.483   0.948  1.00  0.00     0.100 C 
HETATM   18  N3  UNL     1      32.284  63.351   1.417  1.00  0.00    -0.266 N 
ATOM     19  H3  UNL     1      31.522  62.677   1.338  1.00  0.00     0.194 HD
BRANCH  17  20
HETATM   20  C6  UNL     1      33.352  65.411   1.077  1.00  0.00     0.227 C 
BRANCH  20  21
HETATM   21  O3  UNL     1      33.921  65.393  -0.193  1.00  0.00    -0.395 OA
ATOM     22  H3  UNL     1      33.471  66.088  -0.657  1.00  0.00     0.209 HD
ENDBRANCH  20  21
ENDBRANCH  17  20
BRANCH  18  23
HETATM   23  O4  UNL     1      33.461  62.951   2.049  1.00  0.00    -0.285 OA
HETATM   24  C7  UNL     1      33.944  61.653   1.755  1.00  0.00     0.237 C 
ENDBRANCH  18  23
ENDBRANCH   4  17
BRANCH   7  25
HETATM   25  N5  UNL     1      29.669  64.829  -3.042  1.00  0.00    -0.384 N 
ATOM     26  H52 UNL     1      28.751  64.854  -3.488  1.00  0.00     0.157 HD
ATOM     27  H51 UNL     1      30.481  64.471  -3.545  1.00  0.00     0.157 HD
ENDBRANCH   7  25
BRANCH   1  28
HETATM   28  S1  UNL     1      28.047  67.138  -2.441  1.00  0.00     0.265 S 
HETATM   29  O1  UNL     1      27.213  68.166  -1.738  1.00  0.00    -0.200 OA
HETATM   30  O2  UNL     1      27.046  66.058  -2.866  1.00  0.00    -0.200 OA
BRANCH  28  31
HETATM   31  N1  UNL     1      28.728  67.724  -3.912  1.00  0.00    -0.320 N 
HETATM   32  C1  UNL     1      29.722  68.729  -3.690  1.00  0.00     0.159 C 
ATOM     33  H1  UNL     1      28.454  67.391  -4.836  1.00  0.00     0.171 HD
ENDBRANCH  28  31
ENDBRANCH   1  28
TORSDOF 7
ENDMDL
MODEL 5
REMARK VINA RESULT: -6.785897465      2.470      6.160
REMARK  7 active torsions:
REMARK  status: ('A' for Active; 'I' for Inactive)
REMARK    1  A    between atoms: N1_2  and  S1_4 
REMARK    2  A    between atoms: S1_4  and  C2_7 
REMARK    3  A    between atoms: C4_10  and  C5_11 
REMARK    4  A    between atoms: C5_11  and  C6_12 
REMARK    5  A    between atoms: C6_12  and  O3_13 
REMARK    6  A    between atoms: N3_15  and  O4_17 
REMARK    7  A    between atoms: C8_21  and  N5_22 
ROOT
HETATM    1  C2  UNL     1      30.223  67.767   2.107  1.00  0.00     0.167 A 
HETATM    2  C3  UNL     1      30.097  68.481   3.289  1.00  0.00     0.155 A 
HETATM    3  N2  UNL     1      29.383  69.639   3.353  1.00  0.00    -0.114 N 
HETATM    4  C4  UNL     1      28.763  70.132   2.274  1.00  0.00     0.159 A 
HETATM    5  N4  UNL     1      28.904  69.405   1.108  1.00  0.00    -0.325 N 
ATOM      6  H4  UNL     1      28.446  69.759   0.268  1.00  0.00     0.169 HD
HETATM    7  C8  UNL     1      29.585  68.295   1.010  1.00  0.00     0.128 A 
HETATM    8  C9  UNL     1      29.399  70.369   4.563  1.00  0.00     0.684 C 
HETATM    9  N6  UNL     1      28.836  71.514   4.720  1.00  0.00    -0.234 N 
ATOM     10  H61 UNL     1      28.848  72.041   5.594  1.00  0.00     0.174 HD
ATOM     11  H62 UNL     1      28.297  71.882   3.937  1.00  0.00     0.174 HD
HETATM   12  N7  UNL     1      30.162  69.850   5.670  1.00  0.00    -0.206 N 
HETATM   13  C10 UNL     1      29.860  70.399   6.974  1.00  0.00     0.170 C 
HETATM   14  C11 UNL     1      31.173  68.844   5.528  1.00  0.00     0.265 C 
HETATM   15  N8  UNL     1      30.724  67.956   4.453  1.00  0.00    -0.357 N 
ATOM     16  H8  UNL     1      30.862  66.949   4.541  1.00  0.00     0.162 HD
ENDROOT
BRANCH   4  17
HETATM   17  C5  UNL     1      27.823  71.215   2.238  1.00  0.00     0.100 C 
HETATM   18  N3  UNL     1      27.947  72.423   2.006  1.00  0.00    -0.266 N 
ATOM     19  H3  UNL     1      28.875  72.784   1.789  1.00  0.00     0.194 HD
BRANCH  17  20
HETATM   20  C6  UNL     1      26.367  70.762   2.508  1.00  0.00     0.227 C 
BRANCH  20  21
HETATM   21  O3  UNL     1      26.043  71.372   3.715  1.00  0.00    -0.395 OA
ATOM     22  H3  UNL     1      25.672  70.669   4.235  1.00  0.00     0.209 HD
ENDBRANCH  20  21
ENDBRANCH  17  20
BRANCH  18  23
HETATM   23  O4  UNL     1      26.875  73.316   2.028  1.00  0.00    -0.285 OA
HETATM   24  C7  UNL     1      26.445  73.841   0.785  1.00  0.00     0.237 C 
ENDBRANCH  18  23
ENDBRANCH   4  17
BRANCH   7  25
HETATM   25  N5  UNL     1      29.725  67.605  -0.086  1.00  0.00    -0.384 N 
ATOM     26  H52 UNL     1      29.042  67.571  -0.843  1.00  0.00     0.157 HD
ATOM     27  H51 UNL     1      30.596  67.078  -0.149  1.00  0.00     0.157 HD
ENDBRANCH   7  25
BRANCH   1  28
HETATM   28  S1  UNL     1      31.150  66.314   2.065  1.00  0.00     0.265 S 
HETATM   29  O1  UNL     1      32.107  66.152   3.206  1.00  0.00    -0.200 OA
HETATM   30  O2  UNL     1      32.047  66.431   0.828  1.00  0.00    -0.200 OA
BRANCH  28  31
HETATM   31  N1  UNL     1      30.191  64.908   1.794  1.00  0.00    -0.320 N 
HETATM   32  C1  UNL     1      30.620  64.168   0.647  1.00  0.00     0.159 C 
ATOM     33  H1  UNL     1      29.406  64.634   2.384  1.00  0.00     0.171 HD
ENDBRANCH  28  31
ENDBRANCH   1  28
TORSDOF 7
ENDMDL
