MODEL 1
REMARK VINA RESULT: -8.154160364      0.000      0.000
REMARK  7 active torsions:
REMARK  status: ('A' for Active; 'I' for Inactive)
REMARK    1  A    between atoms: C2_2  and  O1_3 
REMARK    2  A    between atoms: O1_3  and  C3_4 
REMARK    3  A    between atoms: C3_4  and  C4_6 
REMARK    4  A    between atoms: C4_6  and  C5_7 
REMARK    5  A    between atoms: C8_13  and  C9_14 
REMARK    6  A    between atoms: C12_23  and  N6_24 
REMARK    7  A    between atoms: C13_29  and  N8_30 
ROOT
HETATM    1  C9  UNL     1      30.668  70.850   7.448  1.00  0.00     0.201 C 
HETATM    2  C10 UNL     1      29.367  71.503   7.582  1.00  0.00     0.066 C 
HETATM    3  N2  UNL     1      28.335  72.007   7.702  1.00  0.00    -0.197 NA
ENDROOT
BRANCH   1   4
HETATM    4  C8  UNL     1      30.589  69.886   6.299  1.00  0.00     0.112 A 
HETATM    5  N1  UNL     1      31.161  68.676   6.409  1.00  0.00    -0.309 N 
HETATM    6  C7  UNL     1      31.144  67.748   5.437  1.00  0.00     0.278 A 
ATOM      7  H1  UNL     1      31.635  68.448   7.282  1.00  0.00     0.170 HD
HETATM    8  C6  UNL     1      30.489  68.085   4.256  1.00  0.00     0.167 A 
HETATM    9  O3  UNL     1      31.705  66.636   5.619  1.00  0.00    -0.265 OA
HETATM   10  C5  UNL     1      30.288  67.371   3.066  1.00  0.00     0.097 A 
HETATM   11  N4  UNL     1      29.920  69.297   4.157  1.00  0.00    -0.076 N 
HETATM   12  N9  UNL     1      29.591  68.192   2.270  1.00  0.00     0.024 N 
HETATM   13  C11 UNL     1      29.372  69.351   2.934  1.00  0.00     0.740 A 
HETATM   14  C13 UNL     1      29.136  68.012   1.018  1.00  0.00     0.712 A 
HETATM   15  N5  UNL     1      28.685  70.311   2.294  1.00  0.00    -0.019 N 
HETATM   16  C12 UNL     1      28.217  70.154   1.034  1.00  0.00     0.705 A 
ATOM     17  H5  UNL     1      28.509  71.193   2.776  1.00  0.00     0.203 HD
HETATM   18  N7  UNL     1      28.451  68.991   0.401  1.00  0.00    -0.021 N 
ATOM     19  H7  UNL     1      28.108  68.851  -0.549  1.00  0.00     0.203 HD
HETATM   20  N3  UNL     1      29.963  70.193   5.158  1.00  0.00    -0.266 N 
ATOM     21  H3  UNL     1      29.519  71.104   5.048  1.00  0.00     0.189 HD
BRANCH  10  22
HETATM   22  C4  UNL     1      30.786  65.994   2.835  1.00  0.00     0.172 C 
BRANCH  22  23
HETATM   23  C3  UNL     1      32.100  66.079   2.131  1.00  0.00     0.264 C 
HETATM   24  O2  UNL     1      32.244  66.482   0.964  1.00  0.00    -0.265 OA
BRANCH  23  25
HETATM   25  O1  UNL     1      33.216  65.681   2.834  1.00  0.00    -0.322 OA
BRANCH  25  26
HETATM   26  C2  UNL     1      34.274  65.033   2.125  1.00  0.00     0.174 C 
HETATM   27  C1  UNL     1      34.415  63.653   2.773  1.00  0.00     0.034 C 
ENDBRANCH  25  26
ENDBRANCH  23  25
ENDBRANCH  22  23
ENDBRANCH  10  22
BRANCH  16  28
HETATM   28  N6  UNL     1      27.559  71.108   0.453  1.00  0.00    -0.234 N 
ATOM     29  H62 UNL     1      26.542  71.161   0.521  1.00  0.00     0.174 HD
ATOM     30  H61 UNL     1      28.050  71.823  -0.083  1.00  0.00     0.174 HD
ENDBRANCH  16  28
BRANCH  14  31
HETATM   31  N8  UNL     1      29.327  66.929   0.348  1.00  0.00    -0.233 N 
ATOM     32  H82 UNL     1      28.619  66.514  -0.257  1.00  0.00     0.174 HD
ATOM     33  H81 UNL     1      30.239  66.481   0.450  1.00  0.00     0.174 HD
ENDBRANCH  14  31
ENDBRANCH   1   4
TORSDOF 7
ENDMDL
MODEL 2
REMARK VINA RESULT: -8.080027220      3.073      6.070
REMARK  7 active torsions:
REMARK  status: ('A' for Active; 'I' for Inactive)
REMARK    1  A    between atoms: C2_2  and  O1_3 
REMARK    2  A    between atoms: O1_3  and  C3_4 
REMARK    3  A    between atoms: C3_4  and  C4_6 
REMARK    4  A    between atoms: C4_6  and  C5_7 
REMARK    5  A    between atoms: C8_13  and  C9_14 
REMARK    6  A    between atoms: C12_23  and  N6_24 
REMARK    7  A    between atoms: C13_29  and  N8_30 
ROOT
HETATM    1  C9  UNL     1      35.349  63.714   1.997  1.00  0.00     0.201 C 
HETATM    2  C10 UNL     1      35.333  62.700   3.051  1.00  0.00     0.066 C 
HETATM    3  N2  UNL     1      35.315  61.887   3.869  1.00  0.00    -0.197 NA
ENDROOT
BRANCH   1   4
HETATM    4  C8  UNL     1      34.075  64.503   2.091  1.00  0.00     0.112 A 
HETATM    5  N1  UNL     1      33.806  65.196   3.209  1.00  0.00    -0.309 N 
HETATM    6  C7  UNL     1      32.695  65.930   3.388  1.00  0.00     0.278 A 
ATOM      7  H1  UNL     1      34.487  65.163   3.968  1.00  0.00     0.170 HD
HETATM    8  C6  UNL     1      31.783  65.957   2.335  1.00  0.00     0.167 A 
HETATM    9  O3  UNL     1      32.517  66.551   4.468  1.00  0.00    -0.265 OA
HETATM   10  C5  UNL     1      30.548  66.605   2.190  1.00  0.00     0.097 A 
HETATM   11  N4  UNL     1      32.062  65.261   1.222  1.00  0.00    -0.076 N 
HETATM   12  N9  UNL     1      30.112  66.272   0.969  1.00  0.00     0.024 N 
HETATM   13  C11 UNL     1      31.029  65.463   0.390  1.00  0.00     0.740 A 
HETATM   14  C13 UNL     1      28.983  66.615   0.325  1.00  0.00     0.712 A 
HETATM   15  N5  UNL     1      30.767  65.016  -0.849  1.00  0.00    -0.019 N 
HETATM   16  C12 UNL     1      29.639  65.347  -1.518  1.00  0.00     0.705 A 
ATOM     17  H5  UNL     1      31.446  64.404  -1.304  1.00  0.00     0.203 HD
HETATM   18  N7  UNL     1      28.746  66.153  -0.916  1.00  0.00    -0.021 N 
ATOM     19  H7  UNL     1      27.889  66.414  -1.402  1.00  0.00     0.203 HD
HETATM   20  N3  UNL     1      33.189  64.541   1.090  1.00  0.00    -0.266 N 
ATOM     21  H3  UNL     1      33.369  64.026   0.229  1.00  0.00     0.189 HD
BRANCH  10  22
HETATM   22  C4  UNL     1      29.937  67.461   3.235  1.00  0.00     0.172 C 
BRANCH  22  23
HETATM   23  C3  UNL     1      30.297  68.882   2.954  1.00  0.00     0.264 C 
HETATM   24  O2  UNL     1      30.265  69.402   1.826  1.00  0.00    -0.265 OA
BRANCH  23  25
HETATM   25  O1  UNL     1      30.690  69.653   4.026  1.00  0.00    -0.322 OA
BRANCH  25  26
HETATM   26  C2  UNL     1      30.308  69.240   5.340  1.00  0.00     0.174 C 
HETATM   27  C1  UNL     1      31.548  69.448   6.211  1.00  0.00     0.034 C 
ENDBRANCH  25  26
ENDBRANCH  23  25
ENDBRANCH  22  23
ENDBRANCH  10  22
BRANCH  16  28
HETATM   28  N6  UNL     1      29.426  64.892  -2.714  1.00  0.00    -0.234 N 
ATOM     29  H62 UNL     1      28.697  64.200  -2.889  1.00  0.00     0.174 HD
ATOM     30  H61 UNL     1      29.986  65.221  -3.499  1.00  0.00     0.174 HD
ENDBRANCH  16  28
BRANCH  14  31
HETATM   31  N8  UNL     1      28.081  67.376   0.840  1.00  0.00    -0.233 N 
ATOM     32  H82 UNL     1      27.257  67.692   0.328  1.00  0.00     0.174 HD
ATOM     33  H81 UNL     1      28.225  67.668   1.807  1.00  0.00     0.174 HD
ENDBRANCH  14  31
ENDBRANCH   1   4
TORSDOF 7
ENDMDL
MODEL 3
REMARK VINA RESULT: -7.983871338      3.362      5.758
REMARK  7 active torsions:
REMARK  status: ('A' for Active; 'I' for Inactive)
REMARK    1  A    between atoms: C2_2  and  O1_3 
REMARK    2  A    between atoms: O1_3  and  C3_4 
REMARK    3  A    between atoms: C3_4  and  C4_6 
REMARK    4  A    between atoms: C4_6  and  C5_7 
REMARK    5  A    between atoms: C8_13  and  C9_14 
REMARK    6  A    between atoms: C12_23  and  N6_24 
REMARK    7  A    between atoms: C13_29  and  N8_30 
ROOT
HETATM    1  C9  UNL     1      30.334  69.064   4.728  1.00  0.00     0.201 C 
HETATM    2  C10 UNL     1      31.070  68.002   5.413  1.00  0.00     0.066 C 
HETATM    3  N2  UNL     1      31.669  67.174   5.950  1.00  0.00    -0.197 NA
ENDROOT
BRANCH   1   4
HETATM    4  C8  UNL     1      30.006  68.585   3.343  1.00  0.00     0.112 A 
HETATM    5  N1  UNL     1      29.306  69.378   2.516  1.00  0.00    -0.309 N 
HETATM    6  C7  UNL     1      28.964  69.038   1.262  1.00  0.00     0.278 A 
ATOM      7  H1  UNL     1      29.016  70.293   2.861  1.00  0.00     0.170 HD
HETATM    8  C6  UNL     1      29.373  67.784   0.817  1.00  0.00     0.167 A 
HETATM    9  O3  UNL     1      28.305  69.840   0.550  1.00  0.00    -0.265 OA
HETATM   10  C5  UNL     1      29.190  67.125  -0.408  1.00  0.00     0.097 A 
HETATM   11  N4  UNL     1      30.073  66.999   1.652  1.00  0.00    -0.076 N 
HETATM   12  N9  UNL     1      29.797  65.940  -0.270  1.00  0.00     0.024 N 
HETATM   13  C11 UNL     1      30.327  65.870   0.973  1.00  0.00     0.740 A 
HETATM   14  C13 UNL     1      29.921  64.920  -1.137  1.00  0.00     0.712 A 
HETATM   15  N5  UNL     1      30.981  64.745   1.306  1.00  0.00    -0.019 N 
HETATM   16  C12 UNL     1      31.120  63.705   0.451  1.00  0.00     0.705 A 
ATOM     17  H5  UNL     1      31.389  64.672   2.238  1.00  0.00     0.203 HD
HETATM   18  N7  UNL     1      30.581  63.804  -0.776  1.00  0.00    -0.021 N 
ATOM     19  H7  UNL     1      30.672  63.032  -1.436  1.00  0.00     0.203 HD
HETATM   20  N3  UNL     1      30.392  67.384   2.899  1.00  0.00    -0.266 N 
ATOM     21  H3  UNL     1      30.926  66.762   3.505  1.00  0.00     0.189 HD
BRANCH  10  22
HETATM   22  C4  UNL     1      28.457  67.708  -1.557  1.00  0.00     0.172 C 
BRANCH  22  23
HETATM   23  C3  UNL     1      29.450  68.309  -2.496  1.00  0.00     0.264 C 
HETATM   24  O2  UNL     1      30.153  69.300  -2.231  1.00  0.00    -0.265 OA
BRANCH  23  25
HETATM   25  O1  UNL     1      29.584  67.716  -3.732  1.00  0.00    -0.322 OA
BRANCH  25  26
HETATM   26  C2  UNL     1      30.339  68.397  -4.737  1.00  0.00     0.174 C 
HETATM   27  C1  UNL     1      29.332  68.756  -5.832  1.00  0.00     0.034 C 
ENDBRANCH  25  26
ENDBRANCH  23  25
ENDBRANCH  22  23
ENDBRANCH  10  22
BRANCH  16  28
HETATM   28  N6  UNL     1      31.759  62.637   0.814  1.00  0.00    -0.234 N 
ATOM     29  H62 UNL     1      32.719  62.472   0.513  1.00  0.00     0.174 HD
ATOM     30  H61 UNL     1      31.307  61.941   1.408  1.00  0.00     0.174 HD
ENDBRANCH  16  28
BRANCH  14  31
HETATM   31  N8  UNL     1      29.426  64.940  -2.325  1.00  0.00    -0.233 N 
ATOM     32  H82 UNL     1      29.844  64.447  -3.113  1.00  0.00     0.174 HD
ATOM     33  H81 UNL     1      28.576  65.490  -2.459  1.00  0.00     0.174 HD
ENDBRANCH  14  31
ENDBRANCH   1   4
TORSDOF 7
ENDMDL
MODEL 4
REMARK VINA RESULT: -7.958382445      1.284      1.409
REMARK  7 active torsions:
REMARK  status: ('A' for Active; 'I' for Inactive)
REMARK    1  A    between atoms: C2_2  and  O1_3 
REMARK    2  A    between atoms: O1_3  and  C3_4 
REMARK    3  A    between atoms: C3_4  and  C4_6 
REMARK    4  A    between atoms: C4_6  and  C5_7 
REMARK    5  A    between atoms: C8_13  and  C9_14 
REMARK    6  A    between atoms: C12_23  and  N6_24 
REMARK    7  A    between atoms: C13_29  and  N8_30 
ROOT
HETATM    1  C9  UNL     1      30.200  70.626   7.624  1.00  0.00     0.201 C 
HETATM    2  C10 UNL     1      28.987  71.427   7.460  1.00  0.00     0.066 C 
HETATM    3  N2  UNL     1      28.020  72.046   7.343  1.00  0.00    -0.197 NA
ENDROOT
BRANCH   1   4
HETATM    4  C8  UNL     1      30.368  69.779   6.395  1.00  0.00     0.112 A 
HETATM    5  N1  UNL     1      31.038  68.618   6.478  1.00  0.00    -0.309 N 
HETATM    6  C7  UNL     1      31.241  67.794   5.436  1.00  0.00     0.278 A 
ATOM      7  H1  UNL     1      31.415  68.346   7.386  1.00  0.00     0.170 HD
HETATM    8  C6  UNL     1      30.715  68.190   4.209  1.00  0.00     0.167 A 
HETATM    9  O3  UNL     1      31.880  66.722   5.597  1.00  0.00    -0.265 OA
HETATM   10  C5  UNL     1      30.743  67.584   2.945  1.00  0.00     0.097 A 
HETATM   11  N4  UNL     1      30.047  69.353   4.138  1.00  0.00    -0.076 N 
HETATM   12  N9  UNL     1      30.079  68.417   2.135  1.00  0.00     0.024 N 
HETATM   13  C11 UNL     1      29.662  69.481   2.860  1.00  0.00     0.740 A 
HETATM   14  C13 UNL     1      29.812  68.324   0.820  1.00  0.00     0.712 A 
HETATM   15  N5  UNL     1      28.972  70.437   2.217  1.00  0.00    -0.019 N 
HETATM   16  C12 UNL     1      28.691  70.367   0.895  1.00  0.00     0.705 A 
ATOM     17  H5  UNL     1      28.648  71.248   2.745  1.00  0.00     0.203 HD
HETATM   18  N7  UNL     1      29.120  69.298   0.202  1.00  0.00    -0.021 N 
ATOM     19  H7  UNL     1      28.919  69.225  -0.795  1.00  0.00     0.203 HD
HETATM   20  N3  UNL     1      29.870  70.144   5.210  1.00  0.00    -0.266 N 
ATOM     21  H3  UNL     1      29.356  71.020   5.119  1.00  0.00     0.189 HD
BRANCH  10  22
HETATM   22  C4  UNL     1      31.402  66.285   2.666  1.00  0.00     0.172 C 
BRANCH  22  23
HETATM   23  C3  UNL     1      30.370  65.327   2.172  1.00  0.00     0.264 C 
HETATM   24  O2  UNL     1      29.216  65.245   2.628  1.00  0.00    -0.265 OA
BRANCH  23  25
HETATM   25  O1  UNL     1      30.734  64.487   1.143  1.00  0.00    -0.322 OA
BRANCH  25  26
HETATM   26  C2  UNL     1      32.123  64.205   0.953  1.00  0.00     0.174 C 
HETATM   27  C1  UNL     1      32.192  62.719   0.596  1.00  0.00     0.034 C 
ENDBRANCH  25  26
ENDBRANCH  23  25
ENDBRANCH  22  23
ENDBRANCH  10  22
BRANCH  16  28
HETATM   28  N6  UNL     1      28.023  71.314   0.314  1.00  0.00    -0.234 N 
ATOM     29  H62 UNL     1      28.368  72.274   0.311  1.00  0.00     0.174 HD
ATOM     30  H61 UNL     1      27.138  71.112  -0.151  1.00  0.00     0.174 HD
ENDBRANCH  16  28
BRANCH  14  31
HETATM   31  N8  UNL     1      30.196  67.335   0.091  1.00  0.00    -0.233 N 
ATOM     32  H82 UNL     1      30.944  67.406  -0.598  1.00  0.00     0.174 HD
ATOM     33  H81 UNL     1      29.706  66.449   0.226  1.00  0.00     0.174 HD
ENDBRANCH  14  31
ENDBRANCH   1   4
TORSDOF 7
ENDMDL
MODEL 5
REMARK VINA RESULT: -7.832830330      3.426      6.683
REMARK  7 active torsions:
REMARK  status: ('A' for Active; 'I' for Inactive)
REMARK    1  A    between atoms: C2_2  and  O1_3 
REMARK    2  A    between atoms: O1_3  and  C3_4 
REMARK    3  A    between atoms: C3_4  and  C4_6 
REMARK    4  A    between atoms: C4_6  and  C5_7 
REMARK    5  A    between atoms: C8_13  and  C9_14 
REMARK    6  A    between atoms: C12_23  and  N6_24 
REMARK    7  A    between atoms: C13_29  and  N8_30 
ROOT
HETATM    1  C9  UNL     1      35.257  63.376   2.598  1.00  0.00     0.201 C 
HETATM    2  C10 UNL     1      35.371  61.934   2.388  1.00  0.00     0.066 C 
HETATM    3  N2  UNL     1      35.473  60.799   2.206  1.00  0.00    -0.197 NA
ENDROOT
BRANCH   1   4
HETATM    4  C8  UNL     1      33.921  63.819   2.074  1.00  0.00     0.112 A 
HETATM    5  N1  UNL     1      33.365  63.164   1.041  1.00  0.00    -0.309 N 
HETATM    6  C7  UNL     1      32.177  63.484   0.502  1.00  0.00     0.278 A 
ATOM      7  H1  UNL     1      33.877  62.377   0.642  1.00  0.00     0.170 HD
HETATM    8  C6  UNL     1      31.501  64.563   1.066  1.00  0.00     0.167 A 
HETATM    9  O3  UNL     1      31.725  62.820  -0.467  1.00  0.00    -0.265 OA
HETATM   10  C5  UNL     1      30.268  65.154   0.755  1.00  0.00     0.097 A 
HETATM   11  N4  UNL     1      32.065  65.210   2.098  1.00  0.00    -0.076 N 
HETATM   12  N9  UNL     1      30.125  66.160   1.627  1.00  0.00     0.024 N 
HETATM   13  C11 UNL     1      31.211  66.188   2.434  1.00  0.00     0.740 A 
HETATM   14  C13 UNL     1      29.129  67.052   1.771  1.00  0.00     0.712 A 
HETATM   15  N5  UNL     1      31.254  67.138   3.382  1.00  0.00    -0.019 N 
HETATM   16  C12 UNL     1      30.265  68.046   3.547  1.00  0.00     0.705 A 
ATOM     17  H5  UNL     1      32.065  67.177   4.001  1.00  0.00     0.203 HD
HETATM   18  N7  UNL     1      29.199  67.993   2.729  1.00  0.00    -0.021 N 
ATOM     19  H7  UNL     1      28.442  68.668   2.836  1.00  0.00     0.203 HD
HETATM   20  N3  UNL     1      33.257  64.851   2.604  1.00  0.00    -0.266 N 
ATOM     21  H3  UNL     1      33.655  65.365   3.389  1.00  0.00     0.189 HD
BRANCH  10  22
HETATM   22  C4  UNL     1      29.380  64.688  -0.336  1.00  0.00     0.172 C 
BRANCH  22  23
HETATM   23  C3  UNL     1      29.769  65.389  -1.596  1.00  0.00     0.264 C 
HETATM   24  O2  UNL     1      30.236  64.820  -2.597  1.00  0.00    -0.265 OA
BRANCH  23  25
HETATM   25  O1  UNL     1      29.591  66.755  -1.634  1.00  0.00    -0.322 OA
BRANCH  25  26
HETATM   26  C2  UNL     1      29.016  67.335  -2.807  1.00  0.00     0.174 C 
HETATM   27  C1  UNL     1      27.506  67.138  -2.661  1.00  0.00     0.034 C 
ENDBRANCH  25  26
ENDBRANCH  23  25
ENDBRANCH  22  23
ENDBRANCH  10  22
BRANCH  16  28
HETATM   28  N6  UNL     1      30.348  68.948   4.476  1.00  0.00    -0.234 N 
ATOM     29  H62 UNL     1      30.818  68.750   5.359  1.00  0.00     0.174 HD
ATOM     30  H61 UNL     1      29.943  69.874   4.335  1.00  0.00     0.174 HD
ENDBRANCH  16  28
BRANCH  14  31
HETATM   31  N8  UNL     1      28.082  67.067   1.022  1.00  0.00    -0.233 N 
ATOM     32  H82 UNL     1      28.032  66.589   0.122  1.00  0.00     0.174 HD
ATOM     33  H81 UNL     1      27.279  67.595   1.366  1.00  0.00     0.174 HD
ENDBRANCH  14  31
ENDBRANCH   1   4
TORSDOF 7
ENDMDL
