MODEL 1
REMARK VINA RESULT: -4.699099900      0.000      0.000
REMARK  1 active torsions:
REMARK  status: ('A' for Active; 'I' for Inactive)
REMARK    1  A    between atoms: C4_10  and  S1_11 
ROOT
HETATM    1  S1  UNL     1      26.726  80.640  61.612  1.00  0.00    -0.035 SA
HETATM    2  C5  UNL     1      26.587  78.906  61.929  1.00  0.00     0.134 C 
HETATM    3  N3  UNL     1      26.474  77.773  62.142  1.00  0.00    -0.184 NA
ENDROOT
BRANCH   1   4
HETATM    4  C4  UNL     1      28.118  81.300  62.527  1.00  0.00     0.162 C 
HETATM    5  C2  UNL     1      29.138  80.261  62.899  1.00  0.00     0.170 C 
HETATM    6  C1  UNL     1      28.974  79.900  64.362  1.00  0.00     0.044 C 
HETATM    7  O1  UNL     1      30.382  80.828  62.631  1.00  0.00    -0.272 OA
HETATM    8  N1  UNL     1      30.197  81.786  61.689  1.00  0.00    -0.253 N 
HETATM    9  C3  UNL     1      28.886  82.313  61.788  1.00  0.00     0.112 C 
ATOM     10  H1  UNL     1      30.899  82.083  61.011  1.00  0.00     0.195 HD
HETATM   11  N2  UNL     1      28.443  83.436  61.338  1.00  0.00    -0.386 N 
ATOM     12  H22 UNL     1      28.975  84.139  60.826  1.00  0.00     0.157 HD
ATOM     13  H21 UNL     1      27.499  83.815  61.409  1.00  0.00     0.157 HD
ENDBRANCH   1   4
TORSDOF 1
ENDMDL
MODEL 2
REMARK VINA RESULT: -4.535652401      2.071      2.318
REMARK  1 active torsions:
REMARK  status: ('A' for Active; 'I' for Inactive)
REMARK    1  A    between atoms: C4_10  and  S1_11 
ROOT
HETATM    1  S1  UNL     1      28.699  79.414  63.413  1.00  0.00    -0.035 SA
HETATM    2  C5  UNL     1      27.426  78.185  63.441  1.00  0.00     0.134 C 
HETATM    3  N3  UNL     1      26.604  77.369  63.444  1.00  0.00    -0.184 NA
ENDROOT
BRANCH   1   4
HETATM    4  C4  UNL     1      27.960  81.025  63.147  1.00  0.00     0.162 C 
HETATM    5  C2  UNL     1      28.894  82.167  63.428  1.00  0.00     0.170 C 
HETATM    6  C1  UNL     1      28.552  82.774  64.774  1.00  0.00     0.044 C 
HETATM    7  O1  UNL     1      28.725  83.072  62.382  1.00  0.00    -0.272 OA
HETATM    8  N1  UNL     1      28.253  82.377  61.317  1.00  0.00    -0.253 N 
HETATM    9  C3  UNL     1      27.517  81.251  61.763  1.00  0.00     0.112 C 
ATOM     10  H1  UNL     1      28.406  82.628  60.340  1.00  0.00     0.195 HD
HETATM   11  N2  UNL     1      26.643  80.564  61.113  1.00  0.00    -0.386 N 
ATOM     12  H22 UNL     1      26.335  80.722  60.154  1.00  0.00     0.157 HD
ATOM     13  H21 UNL     1      26.113  79.754  61.434  1.00  0.00     0.157 HD
ENDBRANCH   1   4
TORSDOF 1
ENDMDL
MODEL 3
REMARK VINA RESULT: -4.407641817      1.774      1.806
REMARK  1 active torsions:
REMARK  status: ('A' for Active; 'I' for Inactive)
REMARK    1  A    between atoms: C4_10  and  S1_11 
ROOT
HETATM    1  S1  UNL     1      27.518  81.026  62.093  1.00  0.00    -0.035 SA
HETATM    2  C5  UNL     1      27.846  79.476  62.878  1.00  0.00     0.134 C 
HETATM    3  N3  UNL     1      28.039  78.458  63.397  1.00  0.00    -0.184 NA
ENDROOT
BRANCH   1   4
HETATM    4  C4  UNL     1      28.592  82.281  62.789  1.00  0.00     0.162 C 
HETATM    5  C2  UNL     1      29.122  81.930  64.149  1.00  0.00     0.170 C 
HETATM    6  C1  UNL     1      28.351  82.702  65.201  1.00  0.00     0.044 C 
HETATM    7  O1  UNL     1      30.475  82.263  64.135  1.00  0.00    -0.272 OA
HETATM    8  N1  UNL     1      30.885  82.240  62.843  1.00  0.00    -0.253 N 
HETATM    9  C3  UNL     1      29.797  82.540  61.986  1.00  0.00     0.112 C 
ATOM     10  H1  UNL     1      31.835  82.037  62.533  1.00  0.00     0.195 HD
HETATM   11  N2  UNL     1      29.834  82.954  60.767  1.00  0.00    -0.386 N 
ATOM     12  H22 UNL     1      30.669  83.134  60.211  1.00  0.00     0.157 HD
ATOM     13  H21 UNL     1      29.050  83.169  60.150  1.00  0.00     0.157 HD
ENDBRANCH   1   4
TORSDOF 1
ENDMDL
MODEL 4
REMARK VINA RESULT: -4.337431751      2.626      3.440
REMARK  1 active torsions:
REMARK  status: ('A' for Active; 'I' for Inactive)
REMARK    1  A    between atoms: C4_10  and  S1_11 
ROOT
HETATM    1  S1  UNL     1      30.053  82.158  64.181  1.00  0.00    -0.035 SA
HETATM    2  C5  UNL     1      28.738  82.643  65.259  1.00  0.00     0.134 C 
HETATM    3  N3  UNL     1      27.887  82.950  65.983  1.00  0.00    -0.184 NA
ENDROOT
BRANCH   1   4
HETATM    4  C4  UNL     1      29.370  81.312  62.757  1.00  0.00     0.162 C 
HETATM    5  C2  UNL     1      28.034  80.678  63.020  1.00  0.00     0.170 C 
HETATM    6  C1  UNL     1      28.216  79.185  63.206  1.00  0.00     0.044 C 
HETATM    7  O1  UNL     1      27.238  80.979  61.916  1.00  0.00    -0.272 OA
HETATM    8  N1  UNL     1      27.741  82.104  61.349  1.00  0.00    -0.253 N 
HETATM    9  C3  UNL     1      29.132  82.193  61.603  1.00  0.00     0.112 C 
ATOM     10  H1  UNL     1      27.198  82.785  60.818  1.00  0.00     0.195 HD
HETATM   11  N2  UNL     1      30.014  82.885  60.970  1.00  0.00    -0.386 N 
ATOM     12  H22 UNL     1      29.849  83.496  60.170  1.00  0.00     0.157 HD
ATOM     13  H21 UNL     1      31.015  82.950  61.154  1.00  0.00     0.157 HD
ENDBRANCH   1   4
TORSDOF 1
ENDMDL
MODEL 5
REMARK VINA RESULT: -4.261052826      2.241      3.091
REMARK  1 active torsions:
REMARK  status: ('A' for Active; 'I' for Inactive)
REMARK    1  A    between atoms: C4_10  and  S1_11 
ROOT
HETATM    1  S1  UNL     1      28.534  79.406  63.420  1.00  0.00    -0.035 SA
HETATM    2  C5  UNL     1      30.285  79.512  63.648  1.00  0.00     0.134 C 
HETATM    3  N3  UNL     1      31.429  79.571  63.817  1.00  0.00    -0.184 NA
ENDROOT
BRANCH   1   4
HETATM    4  C4  UNL     1      27.876  81.046  63.122  1.00  0.00     0.162 C 
HETATM    5  C2  UNL     1      28.865  82.146  63.382  1.00  0.00     0.170 C 
HETATM    6  C1  UNL     1      28.553  82.796  64.715  1.00  0.00     0.044 C 
HETATM    7  O1  UNL     1      28.740  83.038  62.318  1.00  0.00    -0.272 OA
HETATM    8  N1  UNL     1      28.234  82.346  61.267  1.00  0.00    -0.253 N 
HETATM    9  C3  UNL     1      27.443  81.267  61.734  1.00  0.00     0.112 C 
ATOM     10  H1  UNL     1      28.398  82.570  60.285  1.00  0.00     0.195 HD
HETATM   11  N2  UNL     1      26.536  80.611  61.098  1.00  0.00    -0.386 N 
ATOM     12  H22 UNL     1      26.236  80.765  60.135  1.00  0.00     0.157 HD
ATOM     13  H21 UNL     1      25.968  79.834  61.434  1.00  0.00     0.157 HD
ENDBRANCH   1   4
TORSDOF 1
ENDMDL
