MODEL 1
REMARK VINA RESULT: -4.813876789      0.000      0.000
REMARK  2 active torsions:
REMARK  status: ('A' for Active; 'I' for Inactive)
REMARK    1  A    between atoms: C5_5  and  C6_6 
REMARK    2  A    between atoms: N1_7  and  N2_9 
ROOT
HETATM    1  C1  UNL     1      29.333  82.646  64.071  1.00  0.00     0.023 C 
HETATM    2  C2  UNL     1      28.908  81.694  62.995  1.00  0.00     0.013 C 
HETATM    3  C3  UNL     1      30.031  80.787  62.534  1.00  0.00     0.023 C 
HETATM    4  C4  UNL     1      27.764  80.816  63.412  1.00  0.00     0.047 C 
HETATM    5  C5  UNL     1      26.888  80.691  62.193  1.00  0.00     0.124 C 
HETATM    6  N3  UNL     1      27.579  81.404  61.139  1.00  0.00    -0.370 N 
ATOM      7  H3  UNL     1      27.501  81.241  60.135  1.00  0.00     0.161 HD
HETATM    8  C7  UNL     1      28.387  82.372  61.785  1.00  0.00     0.079 C 
HETATM    9  N4  UNL     1      28.595  83.589  61.357  1.00  0.00    -0.388 N 
ATOM     10  H41 UNL     1      28.237  84.056  60.525  1.00  0.00     0.157 HD
ATOM     11  H42 UNL     1      29.176  84.287  61.822  1.00  0.00     0.157 HD
ENDROOT
BRANCH   5  12
HETATM   12  C6  UNL     1      26.730  79.252  61.896  1.00  0.00     0.104 C 
HETATM   13  N1  UNL     1      27.011  78.403  62.803  1.00  0.00    -0.320 N 
ATOM     14  H1  UNL     1      27.335  78.752  63.705  1.00  0.00     0.185 HD
BRANCH  13  15
HETATM   15  N2  UNL     1      26.900  77.018  62.632  1.00  0.00    -0.346 N 
ATOM     16  H22 UNL     1      27.754  76.468  62.724  1.00  0.00     0.176 HD
ATOM     17  H21 UNL     1      26.021  76.542  62.425  1.00  0.00     0.176 HD
ENDBRANCH  13  15
ENDBRANCH   5  12
TORSDOF 2
ENDMDL
MODEL 2
REMARK VINA RESULT: -4.506415134      2.064      3.074
REMARK  2 active torsions:
REMARK  status: ('A' for Active; 'I' for Inactive)
REMARK    1  A    between atoms: C5_5  and  C6_6 
REMARK    2  A    between atoms: N1_7  and  N2_9 
ROOT
HETATM    1  C1  UNL     1      31.132  82.495  64.367  1.00  0.00     0.023 C 
HETATM    2  C2  UNL     1      29.761  81.972  64.063  1.00  0.00     0.013 C 
HETATM    3  C3  UNL     1      28.667  82.740  64.776  1.00  0.00     0.023 C 
HETATM    4  C4  UNL     1      29.443  81.994  62.596  1.00  0.00     0.047 C 
HETATM    5  C5  UNL     1      28.667  80.729  62.335  1.00  0.00     0.124 C 
HETATM    6  N3  UNL     1      28.503  80.096  63.627  1.00  0.00    -0.370 N 
ATOM      7  H3  UNL     1      27.760  79.456  63.906  1.00  0.00     0.161 HD
HETATM    8  C7  UNL     1      29.585  80.547  64.424  1.00  0.00     0.079 C 
HETATM    9  N4  UNL     1      30.246  79.816  65.282  1.00  0.00    -0.388 N 
ATOM     10  H41 UNL     1      30.124  78.835  65.531  1.00  0.00     0.157 HD
ATOM     11  H42 UNL     1      31.024  80.140  65.856  1.00  0.00     0.157 HD
ENDROOT
BRANCH   5  12
HETATM   12  C6  UNL     1      27.378  81.108  61.721  1.00  0.00     0.104 C 
HETATM   13  N1  UNL     1      26.586  80.188  61.336  1.00  0.00    -0.320 N 
ATOM     14  H1  UNL     1      26.875  79.218  61.469  1.00  0.00     0.185 HD
BRANCH  13  15
HETATM   15  N2  UNL     1      25.342  80.431  60.743  1.00  0.00    -0.346 N 
ATOM     16  H22 UNL     1      24.526  80.001  61.180  1.00  0.00     0.176 HD
ATOM     17  H21 UNL     1      25.215  81.007  59.910  1.00  0.00     0.176 HD
ENDBRANCH  13  15
ENDBRANCH   5  12
TORSDOF 2
ENDMDL
MODEL 3
REMARK VINA RESULT: -4.406869601      1.881      2.488
REMARK  2 active torsions:
REMARK  status: ('A' for Active; 'I' for Inactive)
REMARK    1  A    between atoms: C5_5  and  C6_6 
REMARK    2  A    between atoms: N1_7  and  N2_9 
ROOT
HETATM    1  C1  UNL     1      31.329  82.099  63.530  1.00  0.00     0.023 C 
HETATM    2  C2  UNL     1      29.910  81.967  63.066  1.00  0.00     0.013 C 
HETATM    3  C3  UNL     1      29.619  82.780  61.821  1.00  0.00     0.023 C 
HETATM    4  C4  UNL     1      29.524  80.545  62.774  1.00  0.00     0.047 C 
HETATM    5  C5  UNL     1      28.107  80.405  63.263  1.00  0.00     0.124 C 
HETATM    6  N3  UNL     1      27.718  81.723  63.721  1.00  0.00    -0.370 N 
ATOM      7  H3  UNL     1      26.772  82.101  63.770  1.00  0.00     0.161 HD
HETATM    8  C7  UNL     1      28.919  82.381  64.086  1.00  0.00     0.079 C 
HETATM    9  N4  UNL     1      29.062  83.176  65.113  1.00  0.00    -0.388 N 
ATOM     10  H41 UNL     1      28.380  83.461  65.815  1.00  0.00     0.157 HD
ATOM     11  H42 UNL     1      29.927  83.649  65.376  1.00  0.00     0.157 HD
ENDROOT
BRANCH   5  12
HETATM   12  C6  UNL     1      27.283  79.933  62.130  1.00  0.00     0.104 C 
HETATM   13  N1  UNL     1      26.349  80.682  61.695  1.00  0.00    -0.320 N 
ATOM     14  H1  UNL     1      26.206  81.585  62.148  1.00  0.00     0.185 HD
BRANCH  13  15
HETATM   15  N2  UNL     1      25.509  80.337  60.630  1.00  0.00    -0.346 N 
ATOM     16  H22 UNL     1      25.955  79.994  59.779  1.00  0.00     0.176 HD
ATOM     17  H21 UNL     1      24.492  80.409  60.665  1.00  0.00     0.176 HD
ENDBRANCH  13  15
ENDBRANCH   5  12
TORSDOF 2
ENDMDL
MODEL 4
REMARK VINA RESULT: -4.240284050      2.765      3.988
REMARK  2 active torsions:
REMARK  status: ('A' for Active; 'I' for Inactive)
REMARK    1  A    between atoms: C5_5  and  C6_6 
REMARK    2  A    between atoms: N1_7  and  N2_9 
ROOT
HETATM    1  C1  UNL     1      27.180  81.125  61.868  1.00  0.00     0.023 C 
HETATM    2  C2  UNL     1      28.396  81.492  62.663  1.00  0.00     0.013 C 
HETATM    3  C3  UNL     1      28.058  82.095  64.012  1.00  0.00     0.023 C 
HETATM    4  C4  UNL     1      29.305  80.322  62.909  1.00  0.00     0.047 C 
HETATM    5  C5  UNL     1      30.704  80.868  62.786  1.00  0.00     0.124 C 
HETATM    6  N3  UNL     1      30.551  82.292  62.568  1.00  0.00    -0.370 N 
ATOM      7  H3  UNL     1      31.225  83.022  62.796  1.00  0.00     0.161 HD
HETATM    8  C7  UNL     1      29.277  82.462  61.972  1.00  0.00     0.079 C 
HETATM    9  N4  UNL     1      28.995  83.314  61.022  1.00  0.00    -0.388 N 
ATOM     10  H41 UNL     1      29.601  83.982  60.547  1.00  0.00     0.157 HD
ATOM     11  H42 UNL     1      28.078  83.437  60.593  1.00  0.00     0.157 HD
ENDROOT
BRANCH   5  12
HETATM   12  C6  UNL     1      31.420  80.560  64.041  1.00  0.00     0.104 C 
HETATM   13  N1  UNL     1      31.690  81.512  64.844  1.00  0.00    -0.320 N 
ATOM     14  H1  UNL     1      31.398  82.455  64.588  1.00  0.00     0.185 HD
BRANCH  13  15
HETATM   15  N2  UNL     1      32.363  81.336  66.059  1.00  0.00    -0.346 N 
ATOM     16  H22 UNL     1      32.668  80.390  66.289  1.00  0.00     0.176 HD
ATOM     17  H21 UNL     1      32.561  82.095  66.711  1.00  0.00     0.176 HD
ENDBRANCH  13  15
ENDBRANCH   5  12
TORSDOF 2
ENDMDL
MODEL 5
REMARK VINA RESULT: -4.202712505      2.631      4.610
REMARK  2 active torsions:
REMARK  status: ('A' for Active; 'I' for Inactive)
REMARK    1  A    between atoms: C5_5  and  C6_6 
REMARK    2  A    between atoms: N1_7  and  N2_9 
ROOT
HETATM    1  C1  UNL     1      27.453  81.376  61.732  1.00  0.00     0.023 C 
HETATM    2  C2  UNL     1      28.611  81.396  62.682  1.00  0.00     0.013 C 
HETATM    3  C3  UNL     1      29.945  81.554  61.981  1.00  0.00     0.023 C 
HETATM    4  C4  UNL     1      28.508  82.493  63.702  1.00  0.00     0.047 C 
HETATM    5  C5  UNL     1      29.022  81.898  64.986  1.00  0.00     0.124 C 
HETATM    6  N3  UNL     1      29.464  80.560  64.649  1.00  0.00    -0.370 N 
ATOM      7  H3  UNL     1      30.173  80.009  65.131  1.00  0.00     0.161 HD
HETATM    8  C7  UNL     1      28.710  80.174  63.513  1.00  0.00     0.079 C 
HETATM    9  N4  UNL     1      28.232  78.978  63.295  1.00  0.00    -0.388 N 
ATOM     10  H41 UNL     1      28.300  78.136  63.867  1.00  0.00     0.157 HD
ATOM     11  H42 UNL     1      27.689  78.699  62.477  1.00  0.00     0.157 HD
ENDROOT
BRANCH   5  12
HETATM   12  C6  UNL     1      30.125  82.753  65.472  1.00  0.00     0.104 C 
HETATM   13  N1  UNL     1      31.284  82.610  64.962  1.00  0.00    -0.320 N 
ATOM     14  H1  UNL     1      31.405  81.907  64.234  1.00  0.00     0.185 HD
BRANCH  13  15
HETATM   15  N2  UNL     1      32.399  83.365  65.345  1.00  0.00    -0.346 N 
ATOM     16  H22 UNL     1      33.283  82.866  65.449  1.00  0.00     0.176 HD
ATOM     17  H21 UNL     1      32.370  84.369  65.521  1.00  0.00     0.176 HD
ENDBRANCH  13  15
ENDBRANCH   5  12
TORSDOF 2
ENDMDL
