MODEL 1
REMARK VINA RESULT: -5.068612812      0.000      0.000
REMARK  2 active torsions:
REMARK  status: ('A' for Active; 'I' for Inactive)
REMARK    1  A    between atoms: C4_4  and  N1_5 
REMARK    2  A    between atoms: N1_5  and  C5_7 
ROOT
HETATM    1  C5  UNL     1      26.521  80.250  61.471  1.00  0.00     0.171 C 
HETATM    2  N2  UNL     1      25.417  79.946  60.879  1.00  0.00    -0.361 N 
ATOM      3  H2  UNL     1      25.001  80.486  60.121  1.00  0.00     0.162 HD
HETATM    4  C6  UNL     1      24.845  78.738  61.432  1.00  0.00     0.142 C 
HETATM    5  C7  UNL     1      26.009  78.119  62.156  1.00  0.00     0.142 C 
HETATM    6  N3  UNL     1      26.808  79.280  62.480  1.00  0.00    -0.361 N 
ATOM      7  H3  UNL     1      27.447  79.385  63.269  1.00  0.00     0.162 HD
ENDROOT
BRANCH   1   8
HETATM    8  N1  UNL     1      27.382  81.361  61.218  1.00  0.00    -0.358 N 
ATOM      9  H1  UNL     1      27.438  81.749  60.277  1.00  0.00     0.163 HD
BRANCH   8  10
HETATM   10  C4  UNL     1      28.179  81.948  62.281  1.00  0.00     0.084 C 
HETATM   11  C3  UNL     1      29.367  81.108  62.630  1.00  0.00     0.025 C 
HETATM   12  C2  UNL     1      30.573  82.009  62.422  1.00  0.00     0.002 C 
HETATM   13  C1  UNL     1      30.077  82.863  61.250  1.00  0.00     0.002 C 
HETATM   14  C8  UNL     1      28.708  83.283  61.802  1.00  0.00     0.025 C 
ENDBRANCH   8  10
ENDBRANCH   1   8
TORSDOF 2
ENDMDL
MODEL 2
REMARK VINA RESULT: -5.000965376      2.819      4.630
REMARK  2 active torsions:
REMARK  status: ('A' for Active; 'I' for Inactive)
REMARK    1  A    between atoms: C4_4  and  N1_5 
REMARK    2  A    between atoms: N1_5  and  C5_7 
ROOT
HETATM    1  C5  UNL     1      27.164  76.910  64.132  1.00  0.00     0.171 C 
HETATM    2  N2  UNL     1      27.474  75.784  63.584  1.00  0.00    -0.361 N 
ATOM      3  H2  UNL     1      27.253  75.532  62.621  1.00  0.00     0.162 HD
HETATM    4  C6  UNL     1      28.178  74.928  64.513  1.00  0.00     0.142 C 
HETATM    5  C7  UNL     1      28.630  75.891  65.577  1.00  0.00     0.142 C 
HETATM    6  N3  UNL     1      27.626  76.928  65.484  1.00  0.00    -0.361 N 
ATOM      7  H3  UNL     1      27.313  77.547  66.232  1.00  0.00     0.162 HD
ENDROOT
BRANCH   1   8
HETATM    8  N1  UNL     1      26.470  78.014  63.550  1.00  0.00    -0.358 N 
ATOM      9  H1  UNL     1      25.778  78.520  64.102  1.00  0.00     0.163 HD
BRANCH   8  10
HETATM   10  C4  UNL     1      26.737  78.428  62.184  1.00  0.00     0.084 C 
HETATM   11  C3  UNL     1      25.489  78.814  61.455  1.00  0.00     0.025 C 
HETATM   12  C2  UNL     1      25.712  80.249  61.004  1.00  0.00     0.002 C 
HETATM   13  C1  UNL     1      26.570  80.768  62.164  1.00  0.00     0.002 C 
HETATM   14  C8  UNL     1      27.624  79.654  62.219  1.00  0.00     0.025 C 
ENDBRANCH   8  10
ENDBRANCH   1   8
TORSDOF 2
ENDMDL
MODEL 3
REMARK VINA RESULT: -4.770088824      1.789      2.317
REMARK  2 active torsions:
REMARK  status: ('A' for Active; 'I' for Inactive)
REMARK    1  A    between atoms: C4_4  and  N1_5 
REMARK    2  A    between atoms: N1_5  and  C5_7 
ROOT
HETATM    1  C5  UNL     1      27.594  80.300  62.271  1.00  0.00     0.171 C 
HETATM    2  N2  UNL     1      26.960  80.917  61.332  1.00  0.00    -0.361 N 
ATOM      3  H2  UNL     1      27.303  81.753  60.859  1.00  0.00     0.162 HD
HETATM    4  C6  UNL     1      25.701  80.270  61.040  1.00  0.00     0.142 C 
HETATM    5  C7  UNL     1      25.878  78.906  61.650  1.00  0.00     0.142 C 
HETATM    6  N3  UNL     1      26.829  79.175  62.706  1.00  0.00    -0.361 N 
ATOM      7  H3  UNL     1      26.933  78.663  63.583  1.00  0.00     0.162 HD
ENDROOT
BRANCH   1   8
HETATM    8  N1  UNL     1      28.862  80.624  62.841  1.00  0.00    -0.358 N 
ATOM      9  H1  UNL     1      29.551  79.886  62.987  1.00  0.00     0.163 HD
BRANCH   8  10
HETATM   10  C4  UNL     1      29.187  81.989  63.218  1.00  0.00     0.084 C 
HETATM   11  C3  UNL     1      28.380  82.463  64.385  1.00  0.00     0.025 C 
HETATM   12  C2  UNL     1      29.395  82.859  65.444  1.00  0.00     0.002 C 
HETATM   13  C1  UNL     1      30.503  81.839  65.154  1.00  0.00     0.002 C 
HETATM   14  C8  UNL     1      30.640  82.036  63.638  1.00  0.00     0.025 C 
ENDBRANCH   8  10
ENDBRANCH   1   8
TORSDOF 2
ENDMDL
MODEL 4
REMARK VINA RESULT: -4.752504473      2.007      4.833
REMARK  2 active torsions:
REMARK  status: ('A' for Active; 'I' for Inactive)
REMARK    1  A    between atoms: C4_4  and  N1_5 
REMARK    2  A    between atoms: N1_5  and  C5_7 
ROOT
HETATM    1  C5  UNL     1      29.571  81.246  62.774  1.00  0.00     0.171 C 
HETATM    2  N2  UNL     1      29.709  82.228  63.599  1.00  0.00    -0.361 N 
ATOM      3  H2  UNL     1      29.031  82.981  63.717  1.00  0.00     0.162 HD
HETATM    4  C6  UNL     1      30.950  82.121  64.334  1.00  0.00     0.142 C 
HETATM    5  C7  UNL     1      31.332  80.680  64.136  1.00  0.00     0.142 C 
HETATM    6  N3  UNL     1      30.701  80.377  62.870  1.00  0.00    -0.361 N 
ATOM      7  H3  UNL     1      31.003  79.684  62.185  1.00  0.00     0.162 HD
ENDROOT
BRANCH   1   8
HETATM    8  N1  UNL     1      28.491  80.992  61.876  1.00  0.00    -0.358 N 
ATOM      9  H1  UNL     1      28.657  81.017  60.870  1.00  0.00     0.163 HD
BRANCH   8  10
HETATM   10  C4  UNL     1      27.158  80.698  62.373  1.00  0.00     0.084 C 
HETATM   11  C3  UNL     1      26.139  80.664  61.278  1.00  0.00     0.025 C 
HETATM   12  C2  UNL     1      25.518  79.278  61.347  1.00  0.00     0.002 C 
HETATM   13  C1  UNL     1      26.728  78.460  61.814  1.00  0.00     0.002 C 
HETATM   14  C8  UNL     1      27.175  79.322  63.003  1.00  0.00     0.025 C 
ENDBRANCH   8  10
ENDBRANCH   1   8
TORSDOF 2
ENDMDL
MODEL 5
REMARK VINA RESULT: -4.715507008      2.811      5.534
REMARK  2 active torsions:
REMARK  status: ('A' for Active; 'I' for Inactive)
REMARK    1  A    between atoms: C4_4  and  N1_5 
REMARK    2  A    between atoms: N1_5  and  C5_7 
ROOT
HETATM    1  C5  UNL     1      26.685  78.502  62.493  1.00  0.00     0.171 C 
HETATM    2  N2  UNL     1      27.453  79.536  62.559  1.00  0.00    -0.361 N 
ATOM      3  H2  UNL     1      28.358  79.553  63.029  1.00  0.00     0.162 HD
HETATM    4  C6  UNL     1      26.862  80.668  61.881  1.00  0.00     0.142 C 
HETATM    5  C7  UNL     1      25.813  80.027  61.014  1.00  0.00     0.142 C 
HETATM    6  N3  UNL     1      25.502  78.829  61.763  1.00  0.00    -0.361 N 
ATOM      7  H3  UNL     1      24.617  78.321  61.768  1.00  0.00     0.162 HD
ENDROOT
BRANCH   1   8
HETATM    8  N1  UNL     1      26.909  77.199  63.034  1.00  0.00    -0.358 N 
ATOM      9  H1  UNL     1      26.763  76.379  62.446  1.00  0.00     0.163 HD
BRANCH   8  10
HETATM   10  C4  UNL     1      27.342  77.025  64.410  1.00  0.00     0.084 C 
HETATM   11  C3  UNL     1      26.193  76.819  65.345  1.00  0.00     0.025 C 
HETATM   12  C2  UNL     1      26.453  75.480  66.016  1.00  0.00     0.002 C 
HETATM   13  C1  UNL     1      27.149  74.733  64.872  1.00  0.00     0.002 C 
HETATM   14  C8  UNL     1      28.202  75.782  64.486  1.00  0.00     0.025 C 
ENDBRANCH   8  10
ENDBRANCH   1   8
TORSDOF 2
ENDMDL
