MODEL 1
REMARK VINA RESULT: -5.140967453      0.000      0.000
REMARK  1 active torsions:
REMARK  status: ('A' for Active; 'I' for Inactive)
REMARK       I    between atoms: C4_6  and  N2_7 
REMARK    1  A    between atoms: N2_7  and  C5_9 
ROOT
HETATM    1  C1  UNL     1      27.306  81.079  61.429  1.00  0.00     0.022 C 
HETATM    2  C2  UNL     1      27.571  81.423  62.870  1.00  0.00     0.022 C 
HETATM    3  C3  UNL     1      28.581  80.508  63.508  1.00  0.00     0.138 C 
HETATM    4  N1  UNL     1      28.284  79.144  63.154  1.00  0.00    -0.227 N 
ATOM      5  H1  UNL     1      29.087  78.515  63.159  1.00  0.00     0.177 HD
HETATM    6  C4  UNL     1      27.058  78.540  62.801  1.00  0.00     0.670 C 
HETATM    7  N2  UNL     1      26.801  77.259  63.351  1.00  0.00    -0.222 N 
ATOM      8  H2  UNL     1      26.157  76.657  62.839  1.00  0.00     0.178 HD
HETATM    9  N3  UNL     1      26.152  79.048  62.023  1.00  0.00    -0.227 N 
ATOM     10  H3  UNL     1      25.344  78.436  61.905  1.00  0.00     0.177 HD
HETATM   11  C8  UNL     1      26.028  80.278  61.288  1.00  0.00     0.138 C 
ENDROOT
BRANCH   7  12
HETATM   12  C5  UNL     1      27.366  76.726  64.567  1.00  0.00     0.099 A 
HETATM   13  C6  UNL     1      27.310  75.322  64.959  1.00  0.00     0.028 A 
HETATM   14  C7  UNL     1      26.477  76.367  65.715  1.00  0.00     0.028 A 
ENDBRANCH   7  12
TORSDOF 1
ENDMDL
MODEL 2
REMARK VINA RESULT: -5.117599911      2.289      4.768
REMARK  1 active torsions:
REMARK  status: ('A' for Active; 'I' for Inactive)
REMARK       I    between atoms: C4_6  and  N2_7 
REMARK    1  A    between atoms: N2_7  and  C5_9 
ROOT
HETATM    1  C1  UNL     1      25.551  78.560  62.216  1.00  0.00     0.022 C 
HETATM    2  C2  UNL     1      26.973  78.077  62.319  1.00  0.00     0.022 C 
HETATM    3  C3  UNL     1      27.804  78.915  63.252  1.00  0.00     0.138 C 
HETATM    4  N1  UNL     1      27.552  80.310  62.997  1.00  0.00    -0.227 N 
ATOM      5  H1  UNL     1      27.706  80.927  63.795  1.00  0.00     0.177 HD
HETATM    6  C4  UNL     1      27.125  80.959  61.818  1.00  0.00     0.670 C 
HETATM    7  N2  UNL     1      27.764  82.185  61.503  1.00  0.00    -0.222 N 
ATOM      8  H2  UNL     1      27.243  82.840  60.920  1.00  0.00     0.178 HD
HETATM    9  N3  UNL     1      26.205  80.537  61.004  1.00  0.00    -0.227 N 
ATOM     10  H3  UNL     1      26.058  81.167  60.215  1.00  0.00     0.177 HD
HETATM   11  C8  UNL     1      25.347  79.385  60.962  1.00  0.00     0.138 C 
ENDROOT
BRANCH   7  12
HETATM   12  C5  UNL     1      29.080  82.592  61.929  1.00  0.00     0.099 A 
HETATM   13  C6  UNL     1      30.170  82.943  61.024  1.00  0.00     0.028 A 
HETATM   14  C7  UNL     1      30.229  81.641  61.835  1.00  0.00     0.028 A 
ENDBRANCH   7  12
TORSDOF 1
ENDMDL
MODEL 3
REMARK VINA RESULT: -4.867302392      1.932      4.182
REMARK  1 active torsions:
REMARK  status: ('A' for Active; 'I' for Inactive)
REMARK       I    between atoms: C4_6  and  N2_7 
REMARK    1  A    between atoms: N2_7  and  C5_9 
ROOT
HETATM    1  C1  UNL     1      25.308  79.039  61.745  1.00  0.00     0.022 C 
HETATM    2  C2  UNL     1      26.376  77.980  61.801  1.00  0.00     0.022 C 
HETATM    3  C3  UNL     1      27.225  78.079  63.040  1.00  0.00     0.138 C 
HETATM    4  N1  UNL     1      27.587  79.455  63.264  1.00  0.00    -0.227 N 
ATOM      5  H1  UNL     1      27.777  79.695  64.236  1.00  0.00     0.177 HD
HETATM    6  C4  UNL     1      27.721  80.523  62.351  1.00  0.00     0.670 C 
HETATM    7  N2  UNL     1      28.831  81.384  62.541  1.00  0.00    -0.222 N 
ATOM      8  H2  UNL     1      28.747  82.334  62.178  1.00  0.00     0.178 HD
HETATM    9  N3  UNL     1      26.923  80.787  61.361  1.00  0.00    -0.227 N 
ATOM     10  H3  UNL     1      27.211  81.609  60.831  1.00  0.00     0.177 HD
HETATM   11  C8  UNL     1      25.726  80.183  60.843  1.00  0.00     0.138 C 
ENDROOT
BRANCH   7  12
HETATM   12  C5  UNL     1      30.069  81.044  63.200  1.00  0.00     0.099 A 
HETATM   13  C6  UNL     1      30.329  81.238  64.623  1.00  0.00     0.028 A 
HETATM   14  C7  UNL     1      31.037  82.117  63.582  1.00  0.00     0.028 A 
ENDBRANCH   7  12
TORSDOF 1
ENDMDL
MODEL 4
REMARK VINA RESULT: -4.751595447      1.866      4.253
REMARK  1 active torsions:
REMARK  status: ('A' for Active; 'I' for Inactive)
REMARK       I    between atoms: C4_6  and  N2_7 
REMARK    1  A    between atoms: N2_7  and  C5_9 
ROOT
HETATM    1  C1  UNL     1      26.473  78.316  61.587  1.00  0.00     0.022 C 
HETATM    2  C2  UNL     1      25.761  79.636  61.711  1.00  0.00     0.022 C 
HETATM    3  C3  UNL     1      26.657  80.808  61.416  1.00  0.00     0.138 C 
HETATM    4  N1  UNL     1      27.920  80.626  62.083  1.00  0.00    -0.227 N 
ATOM      5  H1  UNL     1      28.710  81.096  61.642  1.00  0.00     0.177 HD
HETATM    6  C4  UNL     1      28.238  79.899  63.252  1.00  0.00     0.670 C 
HETATM    7  N2  UNL     1      29.139  80.516  64.156  1.00  0.00    -0.222 N 
ATOM      8  H2  UNL     1      29.671  79.899  64.771  1.00  0.00     0.178 HD
HETATM    9  N3  UNL     1      27.784  78.725  63.568  1.00  0.00    -0.227 N 
ATOM     10  H3  UNL     1      28.148  78.388  64.459  1.00  0.00     0.177 HD
HETATM   11  C8  UNL     1      26.884  77.791  62.947  1.00  0.00     0.138 C 
ENDROOT
BRANCH   7  12
HETATM   12  C5  UNL     1      29.375  81.933  64.289  1.00  0.00     0.099 A 
HETATM   13  C6  UNL     1      29.899  82.575  65.490  1.00  0.00     0.028 A 
HETATM   14  C7  UNL     1      28.433  82.781  65.082  1.00  0.00     0.028 A 
ENDBRANCH   7  12
TORSDOF 1
ENDMDL
MODEL 5
REMARK VINA RESULT: -4.738744030      2.463      3.498
REMARK  1 active torsions:
REMARK  status: ('A' for Active; 'I' for Inactive)
REMARK       I    between atoms: C4_6  and  N2_7 
REMARK    1  A    between atoms: N2_7  and  C5_9 
ROOT
HETATM    1  C1  UNL     1      30.411  82.461  62.410  1.00  0.00     0.022 C 
HETATM    2  C2  UNL     1      29.844  82.145  63.768  1.00  0.00     0.022 C 
HETATM    3  C3  UNL     1      29.472  80.694  63.918  1.00  0.00     0.138 C 
HETATM    4  N1  UNL     1      28.765  80.257  62.741  1.00  0.00    -0.227 N 
ATOM      5  H1  UNL     1      28.839  79.259  62.542  1.00  0.00     0.177 HD
HETATM    6  C4  UNL     1      27.986  80.990  61.820  1.00  0.00     0.670 C 
HETATM    7  N2  UNL     1      26.782  80.382  61.384  1.00  0.00    -0.222 N 
ATOM      8  H2  UNL     1      26.417  80.677  60.478  1.00  0.00     0.178 HD
HETATM    9  N3  UNL     1      28.274  82.160  61.338  1.00  0.00    -0.227 N 
ATOM     10  H3  UNL     1      27.568  82.502  60.685  1.00  0.00     0.177 HD
HETATM   11  C8  UNL     1      29.360  83.085  61.515  1.00  0.00     0.138 C 
ENDROOT
BRANCH   7  12
HETATM   12  C5  UNL     1      26.023  79.387  62.102  1.00  0.00     0.099 A 
HETATM   13  C6  UNL     1      26.222  77.946  61.977  1.00  0.00     0.028 A 
HETATM   14  C7  UNL     1      24.959  78.603  61.402  1.00  0.00     0.028 A 
ENDBRANCH   7  12
TORSDOF 1
ENDMDL
