MODEL 1
REMARK VINA RESULT: -8.525750767      0.000      0.000
REMARK  9 active torsions:
REMARK  status: ('A' for Active; 'I' for Inactive)
REMARK    1  A    between atoms: C2_2  and  N1_3 
REMARK    2  A    between atoms: N1_3  and  C3_4 
REMARK    3  A    between atoms: N1_3  and  C5_6 
REMARK    4  A    between atoms: C5_6  and  C6_7 
REMARK    5  A    between atoms: C6_7  and  N2_8 
REMARK       I    between atoms: N2_8  and  C7_10 
REMARK    6  A    between atoms: C7_10  and  C8_12 
REMARK    7  A    between atoms: C8_12  and  N3_13 
REMARK    8  A    between atoms: C17_22  and  C18_23 
REMARK    9  A    between atoms: C19_24  and  C20_25 
ROOT
HETATM    1  N3  UNL     1       4.548  25.884   6.782  1.00  0.00    -0.334 N 
HETATM    2  C9  UNL     1       5.721  25.539   7.374  1.00  0.00     0.015 A 
HETATM    3  C10 UNL     1       6.502  24.475   6.751  1.00  0.00     0.069 C 
HETATM    4  C11 UNL     1       6.188  26.131   8.502  1.00  0.00    -0.033 A 
HETATM    5  C12 UNL     1       7.450  25.729   9.097  1.00  0.00     0.050 C 
HETATM    6  C13 UNL     1       5.441  27.131   9.079  1.00  0.00    -0.045 A 
HETATM    7  C14 UNL     1       5.870  27.850  10.329  1.00  0.00     0.049 C 
HETATM    8  C15 UNL     1       4.236  27.516   8.508  1.00  0.00    -0.020 A 
HETATM    9  C16 UNL     1       3.421  28.590   9.117  1.00  0.00     0.052 C 
HETATM   10  C17 UNL     1       3.817  26.858   7.340  1.00  0.00     0.096 A 
ENDROOT
BRANCH   1  11
HETATM   11  C8  UNL     1       4.094  25.230   5.580  1.00  0.00     0.232 C 
BRANCH  11  12
HETATM   12  C7  UNL     1       3.684  23.832   5.808  1.00  0.00     0.235 C 
HETATM   13  N2  UNL     1       4.091  22.791   4.943  1.00  0.00    -0.358 N 
ATOM     14  H2  UNL     1       4.681  23.039   4.149  1.00  0.00     0.162 HD
HETATM   15  O1  UNL     1       2.960  23.577   6.791  1.00  0.00    -0.272 OA
BRANCH  13  16
HETATM   16  C6  UNL     1       3.734  21.411   5.100  1.00  0.00     0.152 C 
BRANCH  16  17
HETATM   17  C5  UNL     1       4.666  20.436   4.449  1.00  0.00     0.292 C 
BRANCH  17  18
HETATM   18  N1  UNL     1       4.247  19.982   3.140  1.00  0.00     0.089 N 
BRANCH  18  19
HETATM   19  C2  UNL     1       5.220  19.103   2.572  1.00  0.00     0.268 C 
HETATM   20  C1  UNL     1       5.496  19.267   1.114  1.00  0.00     0.037 C 
ENDBRANCH  18  19
BRANCH  18  21
HETATM   21  C3  UNL     1       2.931  19.417   3.271  1.00  0.00     0.268 C 
HETATM   22  C4  UNL     1       2.895  17.977   3.695  1.00  0.00     0.037 C 
ENDBRANCH  18  21
ENDBRANCH  17  18
ENDBRANCH  16  17
ENDBRANCH  13  16
ENDBRANCH  11  12
ENDBRANCH   1  11
BRANCH  10  23
HETATM   23  C18 UNL     1       2.556  27.295   6.777  1.00  0.00    -0.042 C 
HETATM   24  C19 UNL     1       1.501  27.669   6.331  1.00  0.00    -0.056 C 
BRANCH  24  25
HETATM   25  C20 UNL     1       0.240  28.126   5.830  1.00  0.00     0.061 A 
HETATM   26  C21 UNL     1      -0.117  27.965   4.496  1.00  0.00     0.026 A 
HETATM   27  C22 UNL     1      -1.327  28.406   4.000  1.00  0.00     0.019 A 
HETATM   28  C23 UNL     1      -2.172  29.020   4.899  1.00  0.00     0.090 A 
HETATM   29  N4  UNL     1      -1.826  29.175   6.190  1.00  0.00    -0.351 N 
HETATM   30  C24 UNL     1      -0.641  28.746   6.686  1.00  0.00     0.119 A 
ATOM     31  H4  UNL     1      -2.483  29.634   6.821  1.00  0.00     0.166 HD
HETATM   32  N5  UNL     1      -0.304  28.889   7.912  1.00  0.00    -0.380 N 
HETATM   33  C25 UNL     1      -1.156  29.527   8.901  1.00  0.00     0.147 C 
ATOM     34  H5  UNL     1       0.607  28.537   8.209  1.00  0.00     0.160 HD
ENDBRANCH  24  25
ENDBRANCH  10  23
TORSDOF 9
ENDMDL
MODEL 2
REMARK VINA RESULT: -8.357976850      0.522      1.230
REMARK  9 active torsions:
REMARK  status: ('A' for Active; 'I' for Inactive)
REMARK    1  A    between atoms: C2_2  and  N1_3 
REMARK    2  A    between atoms: N1_3  and  C3_4 
REMARK    3  A    between atoms: N1_3  and  C5_6 
REMARK    4  A    between atoms: C5_6  and  C6_7 
REMARK    5  A    between atoms: C6_7  and  N2_8 
REMARK       I    between atoms: N2_8  and  C7_10 
REMARK    6  A    between atoms: C7_10  and  C8_12 
REMARK    7  A    between atoms: C8_12  and  N3_13 
REMARK    8  A    between atoms: C17_22  and  C18_23 
REMARK    9  A    between atoms: C19_24  and  C20_25 
ROOT
HETATM    1  N3  UNL     1       4.413  25.992   6.846  1.00  0.00    -0.334 N 
HETATM    2  C9  UNL     1       5.582  25.706   7.474  1.00  0.00     0.015 A 
HETATM    3  C10 UNL     1       6.395  24.625   6.924  1.00  0.00     0.069 C 
HETATM    4  C11 UNL     1       6.020  26.370   8.574  1.00  0.00    -0.033 A 
HETATM    5  C12 UNL     1       7.279  26.028   9.209  1.00  0.00     0.050 C 
HETATM    6  C13 UNL     1       5.243  27.386   9.081  1.00  0.00    -0.045 A 
HETATM    7  C14 UNL     1       5.637  28.183  10.295  1.00  0.00     0.049 C 
HETATM    8  C15 UNL     1       4.040  27.712   8.472  1.00  0.00    -0.020 A 
HETATM    9  C16 UNL     1       3.194  28.801   9.006  1.00  0.00     0.052 C 
HETATM   10  C17 UNL     1       3.653  26.981   7.337  1.00  0.00     0.096 A 
ENDROOT
BRANCH   1  11
HETATM   11  C8  UNL     1       3.991  25.261   5.676  1.00  0.00     0.232 C 
BRANCH  11  12
HETATM   12  C7  UNL     1       3.709  23.842   5.958  1.00  0.00     0.235 C 
HETATM   13  N2  UNL     1       4.308  22.805   5.208  1.00  0.00    -0.358 N 
ATOM     14  H2  UNL     1       4.947  23.072   4.459  1.00  0.00     0.162 HD
HETATM   15  O1  UNL     1       2.919  23.564   6.883  1.00  0.00    -0.272 OA
BRANCH  13  16
HETATM   16  C6  UNL     1       4.084  21.405   5.422  1.00  0.00     0.152 C 
BRANCH  16  17
HETATM   17  C5  UNL     1       3.396  20.692   4.299  1.00  0.00     0.292 C 
BRANCH  17  18
HETATM   18  N1  UNL     1       3.944  19.389   3.987  1.00  0.00     0.089 N 
BRANCH  18  19
HETATM   19  C2  UNL     1       2.972  18.576   3.326  1.00  0.00     0.268 C 
HETATM   20  C1  UNL     1       2.678  17.250   3.947  1.00  0.00     0.037 C 
ENDBRANCH  18  19
BRANCH  18  21
HETATM   21  C3  UNL     1       5.161  19.589   3.249  1.00  0.00     0.268 C 
HETATM   22  C4  UNL     1       5.102  19.195   1.800  1.00  0.00     0.037 C 
ENDBRANCH  18  21
ENDBRANCH  17  18
ENDBRANCH  16  17
ENDBRANCH  13  16
ENDBRANCH  11  12
ENDBRANCH   1  11
BRANCH  10  23
HETATM   23  C18 UNL     1       2.393  27.358   6.730  1.00  0.00    -0.042 C 
HETATM   24  C19 UNL     1       1.338  27.684   6.248  1.00  0.00    -0.056 C 
BRANCH  24  25
HETATM   25  C20 UNL     1       0.077  28.086   5.703  1.00  0.00     0.061 A 
HETATM   26  C21 UNL     1      -0.154  28.103   4.332  1.00  0.00     0.026 A 
HETATM   27  C22 UNL     1      -1.364  28.493   3.794  1.00  0.00     0.019 A 
HETATM   28  C23 UNL     1      -2.340  28.870   4.689  1.00  0.00     0.090 A 
HETATM   29  N4  UNL     1      -2.117  28.853   6.016  1.00  0.00    -0.351 N 
HETATM   30  C24 UNL     1      -0.933  28.472   6.553  1.00  0.00     0.119 A 
ATOM     31  H4  UNL     1      -2.869  29.139   6.643  1.00  0.00     0.166 HD
HETATM   32  N5  UNL     1      -0.712  28.453   7.813  1.00  0.00    -0.380 N 
HETATM   33  C25 UNL     1      -1.706  28.840   8.801  1.00  0.00     0.147 C 
ATOM     34  H5  UNL     1       0.207  28.152   8.140  1.00  0.00     0.160 HD
ENDBRANCH  24  25
ENDBRANCH  10  23
TORSDOF 9
ENDMDL
MODEL 3
REMARK VINA RESULT: -7.982807804      2.989      7.036
REMARK  9 active torsions:
REMARK  status: ('A' for Active; 'I' for Inactive)
REMARK    1  A    between atoms: C2_2  and  N1_3 
REMARK    2  A    between atoms: N1_3  and  C3_4 
REMARK    3  A    between atoms: N1_3  and  C5_6 
REMARK    4  A    between atoms: C5_6  and  C6_7 
REMARK    5  A    between atoms: C6_7  and  N2_8 
REMARK       I    between atoms: N2_8  and  C7_10 
REMARK    6  A    between atoms: C7_10  and  C8_12 
REMARK    7  A    between atoms: C8_12  and  N3_13 
REMARK    8  A    between atoms: C17_22  and  C18_23 
REMARK    9  A    between atoms: C19_24  and  C20_25 
ROOT
HETATM    1  N3  UNL     1       2.901  29.042   7.202  1.00  0.00    -0.334 N 
HETATM    2  C9  UNL     1       1.704  29.221   6.584  1.00  0.00     0.015 A 
HETATM    3  C10 UNL     1       1.697  29.981   5.339  1.00  0.00     0.069 C 
HETATM    4  C11 UNL     1       0.535  28.733   7.069  1.00  0.00    -0.033 A 
HETATM    5  C12 UNL     1      -0.719  28.949   6.371  1.00  0.00     0.050 C 
HETATM    6  C13 UNL     1       0.557  28.019   8.245  1.00  0.00    -0.045 A 
HETATM    7  C14 UNL     1      -0.684  27.436   8.866  1.00  0.00     0.049 C 
HETATM    8  C15 UNL     1       1.757  27.811   8.911  1.00  0.00    -0.020 A 
HETATM    9  C16 UNL     1       1.796  27.046  10.175  1.00  0.00     0.052 C 
HETATM   10  C17 UNL     1       2.927  28.347   8.347  1.00  0.00     0.096 A 
ENDROOT
BRANCH   1  11
HETATM   11  C8  UNL     1       4.120  29.576   6.645  1.00  0.00     0.232 C 
BRANCH  11  12
HETATM   12  C7  UNL     1       4.860  28.590   5.837  1.00  0.00     0.235 C 
HETATM   13  N2  UNL     1       4.709  27.200   6.041  1.00  0.00    -0.358 N 
ATOM     14  H2  UNL     1       4.065  26.898   6.773  1.00  0.00     0.162 HD
HETATM   15  O1  UNL     1       5.638  29.008   4.955  1.00  0.00    -0.272 OA
BRANCH  13  16
HETATM   16  C6  UNL     1       5.392  26.184   5.297  1.00  0.00     0.152 C 
BRANCH  16  17
HETATM   17  C5  UNL     1       4.932  24.784   5.562  1.00  0.00     0.292 C 
BRANCH  17  18
HETATM   18  N1  UNL     1       5.586  24.135   6.679  1.00  0.00     0.089 N 
BRANCH  18  19
HETATM   19  C2  UNL     1       5.151  22.779   6.803  1.00  0.00     0.268 C 
HETATM   20  C1  UNL     1       3.958  22.386   5.996  1.00  0.00     0.037 C 
ENDBRANCH  18  19
BRANCH  18  21
HETATM   21  C3  UNL     1       7.005  24.297   6.512  1.00  0.00     0.268 C 
HETATM   22  C4  UNL     1       7.798  23.021   6.521  1.00  0.00     0.037 C 
ENDBRANCH  18  21
ENDBRANCH  17  18
ENDBRANCH  16  17
ENDBRANCH  13  16
ENDBRANCH  11  12
ENDBRANCH   1  11
BRANCH  10  23
HETATM   23  C18 UNL     1       4.156  28.102   9.072  1.00  0.00    -0.042 C 
HETATM   24  C19 UNL     1       5.190  27.920   9.666  1.00  0.00    -0.056 C 
BRANCH  24  25
HETATM   25  C20 UNL     1       6.429  27.732  10.356  1.00  0.00     0.061 A 
HETATM   26  C21 UNL     1       7.163  28.808  10.844  1.00  0.00     0.026 A 
HETATM   27  C22 UNL     1       8.362  28.640  11.508  1.00  0.00     0.019 A 
HETATM   28  C23 UNL     1       8.801  27.343  11.663  1.00  0.00     0.090 A 
HETATM   29  N4  UNL     1       8.090  26.303  11.191  1.00  0.00    -0.351 N 
HETATM   30  C24 UNL     1       6.913  26.457  10.539  1.00  0.00     0.119 A 
ATOM     31  H4  UNL     1       8.451  25.359  11.330  1.00  0.00     0.166 HD
HETATM   32  N5  UNL     1       6.230  25.474  10.087  1.00  0.00    -0.380 N 
HETATM   33  C25 UNL     1       6.646  24.089  10.225  1.00  0.00     0.147 C 
ATOM     34  H5  UNL     1       5.351  25.673   9.608  1.00  0.00     0.160 HD
ENDBRANCH  24  25
ENDBRANCH  10  23
TORSDOF 9
ENDMDL
MODEL 4
REMARK VINA RESULT: -7.978989693      3.806      7.224
REMARK  9 active torsions:
REMARK  status: ('A' for Active; 'I' for Inactive)
REMARK    1  A    between atoms: C2_2  and  N1_3 
REMARK    2  A    between atoms: N1_3  and  C3_4 
REMARK    3  A    between atoms: N1_3  and  C5_6 
REMARK    4  A    between atoms: C5_6  and  C6_7 
REMARK    5  A    between atoms: C6_7  and  N2_8 
REMARK       I    between atoms: N2_8  and  C7_10 
REMARK    6  A    between atoms: C7_10  and  C8_12 
REMARK    7  A    between atoms: C8_12  and  N3_13 
REMARK    8  A    between atoms: C17_22  and  C18_23 
REMARK    9  A    between atoms: C19_24  and  C20_25 
ROOT
HETATM    1  N3  UNL     1       3.439  27.961   8.220  1.00  0.00    -0.334 N 
HETATM    2  C9  UNL     1       4.466  27.453   8.950  1.00  0.00     0.015 A 
HETATM    3  C10 UNL     1       4.776  28.104  10.218  1.00  0.00     0.069 C 
HETATM    4  C11 UNL     1       5.204  26.385   8.555  1.00  0.00    -0.033 A 
HETATM    5  C12 UNL     1       6.290  25.877   9.372  1.00  0.00     0.050 C 
HETATM    6  C13 UNL     1       4.900  25.782   7.356  1.00  0.00    -0.045 A 
HETATM    7  C14 UNL     1       5.656  24.592   6.830  1.00  0.00     0.049 C 
HETATM    8  C15 UNL     1       3.859  26.267   6.577  1.00  0.00    -0.020 A 
HETATM    9  C16 UNL     1       3.522  25.630   5.287  1.00  0.00     0.052 C 
HETATM   10  C17 UNL     1       3.140  27.377   7.051  1.00  0.00     0.096 A 
ENDROOT
BRANCH   1  11
HETATM   11  C8  UNL     1       2.680  29.097   8.682  1.00  0.00     0.232 C 
BRANCH  11  12
HETATM   12  C7  UNL     1       1.308  28.741   9.089  1.00  0.00     0.235 C 
HETATM   13  N2  UNL     1       0.205  29.567   8.775  1.00  0.00    -0.358 N 
ATOM     14  H2  UNL     1       0.390  30.425   8.254  1.00  0.00     0.162 HD
HETATM   15  O1  UNL     1       1.131  27.684   9.726  1.00  0.00    -0.272 OA
BRANCH  13  16
HETATM   16  C6  UNL     1      -1.154  29.289   9.134  1.00  0.00     0.152 C 
BRANCH  16  17
HETATM   17  C5  UNL     1      -2.186  30.022   8.334  1.00  0.00     0.292 C 
BRANCH  17  18
HETATM   18  N1  UNL     1      -3.419  29.292   8.126  1.00  0.00     0.089 N 
BRANCH  18  19
HETATM   19  C2  UNL     1      -4.518  29.969   8.740  1.00  0.00     0.268 C 
HETATM   20  C1  UNL     1      -5.503  30.611   7.819  1.00  0.00     0.037 C 
ENDBRANCH  18  19
BRANCH  18  21
HETATM   21  C3  UNL     1      -3.565  29.069   6.713  1.00  0.00     0.268 C 
HETATM   22  C4  UNL     1      -3.833  27.645   6.316  1.00  0.00     0.037 C 
ENDBRANCH  18  21
ENDBRANCH  17  18
ENDBRANCH  16  17
ENDBRANCH  13  16
ENDBRANCH  11  12
ENDBRANCH   1  11
BRANCH  10  23
HETATM   23  C18 UNL     1       2.061  27.847   6.209  1.00  0.00    -0.042 C 
HETATM   24  C19 UNL     1       1.174  28.262   5.505  1.00  0.00    -0.056 C 
BRANCH  24  25
HETATM   25  C20 UNL     1       0.136  28.783   4.669  1.00  0.00     0.061 A 
HETATM   26  C21 UNL     1      -0.909  27.984   4.219  1.00  0.00     0.026 A 
HETATM   27  C22 UNL     1      -1.913  28.473   3.408  1.00  0.00     0.019 A 
HETATM   28  C23 UNL     1      -1.828  29.803   3.061  1.00  0.00     0.090 A 
HETATM   29  N4  UNL     1      -0.816  30.577   3.497  1.00  0.00    -0.351 N 
HETATM   30  C24 UNL     1       0.173  30.106   4.293  1.00  0.00     0.119 A 
ATOM     31  H4  UNL     1      -0.794  31.558   3.217  1.00  0.00     0.166 HD
HETATM   32  N5  UNL     1       1.138  30.834   4.713  1.00  0.00    -0.380 N 
HETATM   33  C25 UNL     1       1.275  32.241   4.378  1.00  0.00     0.147 C 
ATOM     34  H5  UNL     1       1.845  30.405   5.311  1.00  0.00     0.160 HD
ENDBRANCH  24  25
ENDBRANCH  10  23
TORSDOF 9
ENDMDL
MODEL 5
REMARK VINA RESULT: -7.861829869      3.212      8.683
REMARK  9 active torsions:
REMARK  status: ('A' for Active; 'I' for Inactive)
REMARK    1  A    between atoms: C2_2  and  N1_3 
REMARK    2  A    between atoms: N1_3  and  C3_4 
REMARK    3  A    between atoms: N1_3  and  C5_6 
REMARK    4  A    between atoms: C5_6  and  C6_7 
REMARK    5  A    between atoms: C6_7  and  N2_8 
REMARK       I    between atoms: N2_8  and  C7_10 
REMARK    6  A    between atoms: C7_10  and  C8_12 
REMARK    7  A    between atoms: C8_12  and  N3_13 
REMARK    8  A    between atoms: C17_22  and  C18_23 
REMARK    9  A    between atoms: C19_24  and  C20_25 
ROOT
HETATM    1  N3  UNL     1       5.002  26.739   7.594  1.00  0.00    -0.334 N 
HETATM    2  C9  UNL     1       4.199  26.068   6.727  1.00  0.00     0.015 A 
HETATM    3  C10 UNL     1       3.170  26.836   6.034  1.00  0.00     0.069 C 
HETATM    4  C11 UNL     1       4.312  24.739   6.483  1.00  0.00    -0.033 A 
HETATM    5  C12 UNL     1       3.432  24.067   5.545  1.00  0.00     0.050 C 
HETATM    6  C13 UNL     1       5.287  24.028   7.145  1.00  0.00    -0.045 A 
HETATM    7  C14 UNL     1       5.495  22.551   6.945  1.00  0.00     0.049 C 
HETATM    8  C15 UNL     1       6.129  24.672   8.041  1.00  0.00    -0.020 A 
HETATM    9  C16 UNL     1       7.181  23.921   8.759  1.00  0.00     0.052 C 
HETATM   10  C17 UNL     1       5.953  26.051   8.241  1.00  0.00     0.096 A 
ENDROOT
BRANCH   1  11
HETATM   11  C8  UNL     1       4.847  28.155   7.818  1.00  0.00     0.232 C 
BRANCH  11  12
HETATM   12  C7  UNL     1       3.683  28.478   8.662  1.00  0.00     0.235 C 
HETATM   13  N2  UNL     1       2.581  29.205   8.158  1.00  0.00    -0.358 N 
ATOM     14  H2  UNL     1       2.617  29.501   7.182  1.00  0.00     0.162 HD
HETATM   15  O1  UNL     1       3.685  28.096   9.850  1.00  0.00    -0.272 OA
BRANCH  13  16
HETATM   16  C6  UNL     1       1.416  29.556   8.915  1.00  0.00     0.152 C 
BRANCH  16  17
HETATM   17  C5  UNL     1       0.110  29.199   8.275  1.00  0.00     0.292 C 
BRANCH  17  18
HETATM   18  N1  UNL     1       0.048  27.855   7.740  1.00  0.00     0.089 N 
BRANCH  18  19
HETATM   19  C2  UNL     1      -0.100  26.898   8.791  1.00  0.00     0.268 C 
HETATM   20  C1  UNL     1       0.942  25.831   8.873  1.00  0.00     0.037 C 
ENDBRANCH  18  19
BRANCH  18  21
HETATM   21  C3  UNL     1      -0.992  27.824   6.748  1.00  0.00     0.268 C 
HETATM   22  C4  UNL     1      -0.565  28.220   5.363  1.00  0.00     0.037 C 
ENDBRANCH  18  21
ENDBRANCH  17  18
ENDBRANCH  16  17
ENDBRANCH  13  16
ENDBRANCH  11  12
ENDBRANCH   1  11
BRANCH  10  23
HETATM   23  C18 UNL     1       6.856  26.682   9.180  1.00  0.00    -0.042 C 
HETATM   24  C19 UNL     1       7.625  27.187   9.960  1.00  0.00    -0.056 C 
BRANCH  24  25
HETATM   25  C20 UNL     1       8.557  27.760  10.882  1.00  0.00     0.061 A 
HETATM   26  C21 UNL     1       8.812  29.128  10.906  1.00  0.00     0.026 A 
HETATM   27  C22 UNL     1       9.712  29.692  11.787  1.00  0.00     0.019 A 
HETATM   28  C23 UNL     1      10.352  28.828  12.648  1.00  0.00     0.090 A 
HETATM   29  N4  UNL     1      10.104  27.506  12.625  1.00  0.00    -0.351 N 
HETATM   30  C24 UNL     1       9.223  26.942  11.765  1.00  0.00     0.119 A 
ATOM     31  H4  UNL     1      10.600  26.903  13.282  1.00  0.00     0.166 HD
HETATM   32  N5  UNL     1       8.981  25.686  11.735  1.00  0.00    -0.380 N 
HETATM   33  C25 UNL     1       9.627  24.732  12.621  1.00  0.00     0.147 C 
ATOM     34  H5  UNL     1       8.302  25.339  11.058  1.00  0.00     0.160 HD
ENDBRANCH  24  25
ENDBRANCH  10  23
TORSDOF 9
ENDMDL
