MODEL 1
REMARK VINA RESULT: -10.089544360      0.000      0.000
REMARK  7 active torsions:
REMARK  status: ('A' for Active; 'I' for Inactive)
REMARK    1  A    between atoms: C7_7  and  C8_8 
REMARK    2  A    between atoms: C8_8  and  C9_9 
REMARK    3  A    between atoms: C9_9  and  N1_10 
REMARK       I    between atoms: N1_10  and  C11_12 
REMARK    4  A    between atoms: C11_12  and  C12_14 
REMARK    5  A    between atoms: C12_14  and  C13_15 
REMARK    6  A    between atoms: C13_15  and  C14_16 
REMARK    7  A    between atoms: C16_20  and  C17_21 
ROOT
HETATM    1  C14 UNL     1       7.259  26.659  10.305  1.00  0.00     0.028 A 
HETATM    2  C15 UNL     1       6.795  27.472  11.304  1.00  0.00     0.115 A 
HETATM    3  N2  UNL     1       7.842  27.869  11.996  1.00  0.00    -0.350 N 
ATOM      4  H2  UNL     1       7.800  28.488  12.806  1.00  0.00     0.166 HD
HETATM    5  C16 UNL     1       9.006  27.336  11.478  1.00  0.00     0.118 A 
HETATM    6  N4  UNL     1       8.632  26.597  10.438  1.00  0.00    -0.339 N 
HETATM    7  C24 UNL     1       9.446  25.871   9.460  1.00  0.00     0.158 C 
ENDROOT
BRANCH   1   8
HETATM    8  C13 UNL     1       6.518  25.945   9.250  1.00  0.00     0.068 C 
BRANCH   8   9
HETATM    9  C12 UNL     1       6.053  26.834   8.151  1.00  0.00     0.109 C 
BRANCH   9  10
HETATM   10  C11 UNL     1       4.610  26.635   7.894  1.00  0.00     0.219 C 
HETATM   11  N1  UNL     1       3.961  27.184   6.756  1.00  0.00    -0.356 N 
HETATM   12  C10 UNL     1       4.770  27.965   5.827  1.00  0.00     0.152 C 
HETATM   13  O1  UNL     1       3.937  25.959   8.705  1.00  0.00    -0.273 OA
BRANCH  11  14
HETATM   14  C9  UNL     1       2.568  26.985   6.517  1.00  0.00     0.130 C 
BRANCH  14  15
HETATM   15  C8  UNL     1       1.680  28.112   6.952  1.00  0.00     0.059 C 
BRANCH  15  16
HETATM   16  C7  UNL     1       0.327  28.090   6.386  1.00  0.00    -0.050 A 
HETATM   17  C5  UNL     1      -0.731  27.755   7.195  1.00  0.00    -0.056 A 
HETATM   18  C4  UNL     1      -2.020  27.730   6.678  1.00  0.00     0.008 A 
HETATM   19  C6  UNL     1      -0.499  27.417   8.620  1.00  0.00     0.049 C 
HETATM   20  C3  UNL     1      -2.244  28.042   5.352  1.00  0.00     0.007 A 
HETATM   21  C2  UNL     1      -1.200  28.382   4.517  1.00  0.00    -0.061 A 
HETATM   22  C1  UNL     1      -1.454  28.719   3.081  1.00  0.00     0.048 C 
HETATM   23  C25 UNL     1       0.067  28.398   5.060  1.00  0.00     0.014 A 
ENDBRANCH  15  16
ENDBRANCH  14  15
ENDBRANCH  11  14
ENDBRANCH   9  10
ENDBRANCH   8   9
ENDBRANCH   1   8
BRANCH   5  24
HETATM   24  C17 UNL     1      10.300  27.725  12.024  1.00  0.00     0.021 A 
HETATM   25  C18 UNL     1      11.076  26.720  12.644  1.00  0.00     0.090 A 
HETATM   26  C19 UNL     1      12.323  26.902  13.131  1.00  0.00     0.246 A 
HETATM   27  O2  UNL     1      12.965  25.968  13.673  1.00  0.00    -0.268 OA
HETATM   28  N3  UNL     1      12.884  28.117  13.032  1.00  0.00    -0.327 N 
HETATM   29  C20 UNL     1      12.191  29.106  12.450  1.00  0.00     0.015 A 
ATOM     30  H3  UNL     1      13.823  28.285  13.392  1.00  0.00     0.169 HD
HETATM   31  C21 UNL     1      12.820  30.447  12.347  1.00  0.00     0.069 C 
HETATM   32  C22 UNL     1      10.902  28.941  11.938  1.00  0.00    -0.026 A 
HETATM   33  C23 UNL     1      10.345  30.120  11.231  1.00  0.00     0.051 C 
ENDBRANCH   5  24
TORSDOF 7
ENDMDL
MODEL 2
REMARK VINA RESULT: -9.681683147      1.700      2.259
REMARK  7 active torsions:
REMARK  status: ('A' for Active; 'I' for Inactive)
REMARK    1  A    between atoms: C7_7  and  C8_8 
REMARK    2  A    between atoms: C8_8  and  C9_9 
REMARK    3  A    between atoms: C9_9  and  N1_10 
REMARK       I    between atoms: N1_10  and  C11_12 
REMARK    4  A    between atoms: C11_12  and  C12_14 
REMARK    5  A    between atoms: C12_14  and  C13_15 
REMARK    6  A    between atoms: C13_15  and  C14_16 
REMARK    7  A    between atoms: C16_20  and  C17_21 
ROOT
HETATM    1  C14 UNL     1       5.688  26.313   8.601  1.00  0.00     0.028 A 
HETATM    2  C15 UNL     1       5.229  27.263   9.475  1.00  0.00     0.115 A 
HETATM    3  N2  UNL     1       6.080  27.308  10.478  1.00  0.00    -0.350 N 
ATOM      4  H2  UNL     1       5.993  27.929  11.283  1.00  0.00     0.166 HD
HETATM    5  C16 UNL     1       7.107  26.403  10.294  1.00  0.00     0.118 A 
HETATM    6  N4  UNL     1       6.854  25.801   9.136  1.00  0.00    -0.339 N 
HETATM    7  C24 UNL     1       7.648  24.818   8.395  1.00  0.00     0.158 C 
ENDROOT
BRANCH   1   8
HETATM    8  C13 UNL     1       5.120  25.857   7.320  1.00  0.00     0.068 C 
BRANCH   8   9
HETATM    9  C12 UNL     1       5.177  26.888   6.249  1.00  0.00     0.109 C 
BRANCH   9  10
HETATM   10  C11 UNL     1       3.838  27.471   6.013  1.00  0.00     0.219 C 
HETATM   11  N1  UNL     1       3.571  28.852   6.201  1.00  0.00    -0.356 N 
HETATM   12  C10 UNL     1       4.672  29.701   6.641  1.00  0.00     0.152 C 
HETATM   13  O1  UNL     1       2.909  26.721   5.634  1.00  0.00    -0.273 OA
BRANCH  11  14
HETATM   14  C9  UNL     1       2.275  29.405   5.969  1.00  0.00     0.130 C 
BRANCH  14  15
HETATM   15  C8  UNL     1       1.195  28.898   6.877  1.00  0.00     0.059 C 
BRANCH  15  16
HETATM   16  C7  UNL     1      -0.095  28.647   6.226  1.00  0.00    -0.050 A 
HETATM   17  C5  UNL     1      -1.075  27.980   6.920  1.00  0.00    -0.056 A 
HETATM   18  C4  UNL     1      -2.305  27.734   6.322  1.00  0.00     0.008 A 
HETATM   19  C6  UNL     1      -0.823  27.522   8.308  1.00  0.00     0.049 C 
HETATM   20  C3  UNL     1      -2.547  28.157   5.030  1.00  0.00     0.007 A 
HETATM   21  C2  UNL     1      -1.580  28.828   4.310  1.00  0.00    -0.061 A 
HETATM   22  C1  UNL     1      -1.854  29.282   2.910  1.00  0.00     0.048 C 
HETATM   23  C25 UNL     1      -0.371  29.057   4.932  1.00  0.00     0.014 A 
ENDBRANCH  15  16
ENDBRANCH  14  15
ENDBRANCH  11  14
ENDBRANCH   9  10
ENDBRANCH   8   9
ENDBRANCH   1   8
BRANCH   5  24
HETATM   24  C17 UNL     1       8.221  26.355  11.233  1.00  0.00     0.021 A 
HETATM   25  C18 UNL     1       8.488  25.120  11.867  1.00  0.00     0.090 A 
HETATM   26  C19 UNL     1       9.525  24.894  12.702  1.00  0.00     0.246 A 
HETATM   27  O2  UNL     1       9.711  23.772  13.236  1.00  0.00    -0.268 OA
HETATM   28  N3  UNL     1      10.375  25.898  12.964  1.00  0.00    -0.327 N 
HETATM   29  C20 UNL     1      10.168  27.091  12.387  1.00  0.00     0.015 A 
ATOM     30  H3  UNL     1      11.166  25.757  13.592  1.00  0.00     0.169 HD
HETATM   31  C21 UNL     1      11.113  28.196  12.686  1.00  0.00     0.069 C 
HETATM   32  C22 UNL     1       9.104  27.348  11.519  1.00  0.00    -0.026 A 
HETATM   33  C23 UNL     1       9.109  28.693  10.893  1.00  0.00     0.051 C 
ENDBRANCH   5  24
TORSDOF 7
ENDMDL
MODEL 3
REMARK VINA RESULT: -9.663131990      2.301      3.542
REMARK  7 active torsions:
REMARK  status: ('A' for Active; 'I' for Inactive)
REMARK    1  A    between atoms: C7_7  and  C8_8 
REMARK    2  A    between atoms: C8_8  and  C9_9 
REMARK    3  A    between atoms: C9_9  and  N1_10 
REMARK       I    between atoms: N1_10  and  C11_12 
REMARK    4  A    between atoms: C11_12  and  C12_14 
REMARK    5  A    between atoms: C12_14  and  C13_15 
REMARK    6  A    between atoms: C13_15  and  C14_16 
REMARK    7  A    between atoms: C16_20  and  C17_21 
ROOT
HETATM    1  C14 UNL     1       5.617  26.940   8.739  1.00  0.00     0.028 A 
HETATM    2  C15 UNL     1       6.191  25.768   8.324  1.00  0.00     0.115 A 
HETATM    3  N2  UNL     1       7.228  25.548   9.105  1.00  0.00    -0.350 N 
ATOM      4  H2  UNL     1       7.850  24.743   9.030  1.00  0.00     0.166 HD
HETATM    5  C16 UNL     1       7.361  26.555  10.041  1.00  0.00     0.118 A 
HETATM    6  N4  UNL     1       6.363  27.401   9.805  1.00  0.00    -0.339 N 
HETATM    7  C24 UNL     1       5.956  28.601  10.539  1.00  0.00     0.158 C 
ENDROOT
BRANCH   1   8
HETATM    8  C13 UNL     1       4.436  27.648   8.214  1.00  0.00     0.068 C 
BRANCH   8   9
HETATM    9  C12 UNL     1       3.147  27.094   8.708  1.00  0.00     0.109 C 
BRANCH   9  10
HETATM   10  C11 UNL     1       2.144  28.170   8.870  1.00  0.00     0.219 C 
HETATM   11  N1  UNL     1       0.750  27.905   8.905  1.00  0.00    -0.356 N 
HETATM   12  C10 UNL     1       0.321  26.517   8.773  1.00  0.00     0.152 C 
HETATM   13  O1  UNL     1       2.538  29.353   8.983  1.00  0.00    -0.273 OA
BRANCH  11  14
HETATM   14  C9  UNL     1      -0.209  28.950   9.064  1.00  0.00     0.130 C 
BRANCH  14  15
HETATM   15  C8  UNL     1      -0.683  29.579   7.788  1.00  0.00     0.059 C 
BRANCH  15  16
HETATM   16  C7  UNL     1      -2.099  29.361   7.477  1.00  0.00    -0.050 A 
HETATM   17  C5  UNL     1      -2.436  28.512   6.451  1.00  0.00    -0.056 A 
HETATM   18  C4  UNL     1      -3.772  28.291   6.142  1.00  0.00     0.008 A 
HETATM   19  C6  UNL     1      -1.374  27.832   5.671  1.00  0.00     0.049 C 
HETATM   20  C3  UNL     1      -4.766  28.922   6.863  1.00  0.00     0.007 A 
HETATM   21  C2  UNL     1      -4.457  29.781   7.898  1.00  0.00    -0.061 A 
HETATM   22  C1  UNL     1      -5.543  30.459   8.673  1.00  0.00     0.048 C 
HETATM   23  C25 UNL     1      -3.122  29.978   8.180  1.00  0.00     0.014 A 
ENDBRANCH  15  16
ENDBRANCH  14  15
ENDBRANCH  11  14
ENDBRANCH   9  10
ENDBRANCH   8   9
ENDBRANCH   1   8
BRANCH   5  24
HETATM   24  C17 UNL     1       8.382  26.465  11.078  1.00  0.00     0.021 A 
HETATM   25  C18 UNL     1       8.500  25.241  11.774  1.00  0.00     0.090 A 
HETATM   26  C19 UNL     1       9.440  24.974  12.706  1.00  0.00     0.246 A 
HETATM   27  O2  UNL     1       9.494  23.864  13.293  1.00  0.00    -0.268 OA
HETATM   28  N3  UNL     1      10.336  25.925  13.010  1.00  0.00    -0.327 N 
HETATM   29  C20 UNL     1      10.271  27.105  12.377  1.00  0.00     0.015 A 
ATOM     30  H3  UNL     1      11.057  25.753  13.711  1.00  0.00     0.169 HD
HETATM   31  C21 UNL     1      11.266  28.151  12.722  1.00  0.00     0.069 C 
HETATM   32  C22 UNL     1       9.309  27.403  11.408  1.00  0.00    -0.026 A 
HETATM   33  C23 UNL     1       9.469  28.717  10.740  1.00  0.00     0.051 C 
ENDBRANCH   5  24
TORSDOF 7
ENDMDL
MODEL 4
REMARK VINA RESULT: -9.654857927      1.620      2.094
REMARK  7 active torsions:
REMARK  status: ('A' for Active; 'I' for Inactive)
REMARK    1  A    between atoms: C7_7  and  C8_8 
REMARK    2  A    between atoms: C8_8  and  C9_9 
REMARK    3  A    between atoms: C9_9  and  N1_10 
REMARK       I    between atoms: N1_10  and  C11_12 
REMARK    4  A    between atoms: C11_12  and  C12_14 
REMARK    5  A    between atoms: C12_14  and  C13_15 
REMARK    6  A    between atoms: C13_15  and  C14_16 
REMARK    7  A    between atoms: C16_20  and  C17_21 
ROOT
HETATM    1  C14 UNL     1       6.580  25.400   8.363  1.00  0.00     0.028 A 
HETATM    2  C15 UNL     1       5.763  25.983   9.294  1.00  0.00     0.115 A 
HETATM    3  N2  UNL     1       6.504  26.239  10.352  1.00  0.00    -0.350 N 
ATOM      4  H2  UNL     1       6.161  26.675  11.208  1.00  0.00     0.166 HD
HETATM    5  C16 UNL     1       7.809  25.837  10.147  1.00  0.00     0.118 A 
HETATM    6  N4  UNL     1       7.841  25.326   8.920  1.00  0.00    -0.339 N 
HETATM    7  C24 UNL     1       8.976  24.828   8.140  1.00  0.00     0.158 C 
ENDROOT
BRANCH   1   8
HETATM    8  C13 UNL     1       6.268  24.914   7.007  1.00  0.00     0.068 C 
BRANCH   8   9
HETATM    9  C12 UNL     1       4.808  24.797   6.743  1.00  0.00     0.109 C 
BRANCH   9  10
HETATM   10  C11 UNL     1       4.269  26.071   6.219  1.00  0.00     0.219 C 
HETATM   11  N1  UNL     1       3.090  26.665   6.742  1.00  0.00    -0.356 N 
HETATM   12  C10 UNL     1       2.409  25.974   7.831  1.00  0.00     0.152 C 
HETATM   13  O1  UNL     1       4.873  26.646   5.285  1.00  0.00    -0.273 OA
BRANCH  11  14
HETATM   14  C9  UNL     1       2.579  27.896   6.230  1.00  0.00     0.130 C 
BRANCH  14  15
HETATM   15  C8  UNL     1       1.436  28.482   7.003  1.00  0.00     0.059 C 
BRANCH  15  16
HETATM   16  C7  UNL     1       0.123  28.354   6.363  1.00  0.00    -0.050 A 
HETATM   17  C5  UNL     1      -0.943  27.910   7.106  1.00  0.00    -0.056 A 
HETATM   18  C4  UNL     1      -2.196  27.784   6.518  1.00  0.00     0.008 A 
HETATM   19  C6  UNL     1      -0.760  27.563   8.536  1.00  0.00     0.049 C 
HETATM   20  C3  UNL     1      -2.375  28.104   5.187  1.00  0.00     0.007 A 
HETATM   21  C2  UNL     1      -1.321  28.552   4.416  1.00  0.00    -0.061 A 
HETATM   22  C1  UNL     1      -1.527  28.896   2.975  1.00  0.00     0.048 C 
HETATM   23  C25 UNL     1      -0.091  28.667   5.030  1.00  0.00     0.014 A 
ENDBRANCH  15  16
ENDBRANCH  14  15
ENDBRANCH  11  14
ENDBRANCH   9  10
ENDBRANCH   8   9
ENDBRANCH   1   8
BRANCH   5  24
HETATM   24  C17 UNL     1       8.831  26.117  11.149  1.00  0.00     0.021 A 
HETATM   25  C18 UNL     1       9.465  25.013  11.762  1.00  0.00     0.090 A 
HETATM   26  C19 UNL     1      10.478  25.105  12.650  1.00  0.00     0.246 A 
HETATM   27  O2  UNL     1      11.003  24.085  13.163  1.00  0.00    -0.268 OA
HETATM   28  N3  UNL     1      10.930  26.321  12.992  1.00  0.00    -0.327 N 
HETATM   29  C20 UNL     1      10.363  27.403  12.438  1.00  0.00     0.015 A 
ATOM     30  H3  UNL     1      11.692  26.422  13.662  1.00  0.00     0.169 HD
HETATM   31  C21 UNL     1      10.869  28.745  12.824  1.00  0.00     0.069 C 
HETATM   32  C22 UNL     1       9.317  27.333  11.516  1.00  0.00    -0.026 A 
HETATM   33  C23 UNL     1       8.901  28.631  10.930  1.00  0.00     0.051 C 
ENDBRANCH   5  24
TORSDOF 7
ENDMDL
MODEL 5
REMARK VINA RESULT: -9.652811699      2.951      3.437
REMARK  7 active torsions:
REMARK  status: ('A' for Active; 'I' for Inactive)
REMARK    1  A    between atoms: C7_7  and  C8_8 
REMARK    2  A    between atoms: C8_8  and  C9_9 
REMARK    3  A    between atoms: C9_9  and  N1_10 
REMARK       I    between atoms: N1_10  and  C11_12 
REMARK    4  A    between atoms: C11_12  and  C12_14 
REMARK    5  A    between atoms: C12_14  and  C13_15 
REMARK    6  A    between atoms: C13_15  and  C14_16 
REMARK    7  A    between atoms: C16_20  and  C17_21 
ROOT
HETATM    1  C14 UNL     1       6.257  24.664   7.718  1.00  0.00     0.028 A 
HETATM    2  C15 UNL     1       6.365  25.995   8.025  1.00  0.00     0.115 A 
HETATM    3  N2  UNL     1       7.172  26.088   9.061  1.00  0.00    -0.350 N 
ATOM      4  H2  UNL     1       7.438  26.964   9.511  1.00  0.00     0.166 HD
HETATM    5  C16 UNL     1       7.610  24.839   9.458  1.00  0.00     0.118 A 
HETATM    6  N4  UNL     1       7.041  23.976   8.622  1.00  0.00    -0.339 N 
HETATM    7  C24 UNL     1       7.214  22.525   8.510  1.00  0.00     0.158 C 
ENDROOT
BRANCH   1   8
HETATM    8  C13 UNL     1       5.482  24.002   6.654  1.00  0.00     0.068 C 
BRANCH   8   9
HETATM    9  C12 UNL     1       4.011  24.176   6.800  1.00  0.00     0.109 C 
BRANCH   9  10
HETATM   10  C11 UNL     1       3.560  25.405   6.112  1.00  0.00     0.219 C 
HETATM   11  N1  UNL     1       2.934  26.474   6.806  1.00  0.00    -0.356 N 
HETATM   12  C10 UNL     1       2.743  26.327   8.244  1.00  0.00     0.152 C 
HETATM   13  O1  UNL     1       3.737  25.508   4.876  1.00  0.00    -0.273 OA
BRANCH  11  14
HETATM   14  C9  UNL     1       2.503  27.657   6.132  1.00  0.00     0.130 C 
BRANCH  14  15
HETATM   15  C8  UNL     1       1.435  28.438   6.837  1.00  0.00     0.059 C 
BRANCH  15  16
HETATM   16  C7  UNL     1       0.101  28.348   6.234  1.00  0.00    -0.050 A 
HETATM   17  C5  UNL     1      -0.943  27.872   6.988  1.00  0.00    -0.056 A 
HETATM   18  C4  UNL     1      -2.215  27.781   6.436  1.00  0.00     0.008 A 
HETATM   19  C6  UNL     1      -0.715  27.452   8.392  1.00  0.00     0.049 C 
HETATM   20  C3  UNL     1      -2.434  28.170   5.129  1.00  0.00     0.007 A 
HETATM   21  C2  UNL     1      -1.404  28.651   4.348  1.00  0.00    -0.061 A 
HETATM   22  C1  UNL     1      -1.654  29.069   2.933  1.00  0.00     0.048 C 
HETATM   23  C25 UNL     1      -0.154  28.729   4.926  1.00  0.00     0.014 A 
ENDBRANCH  15  16
ENDBRANCH  14  15
ENDBRANCH  11  14
ENDBRANCH   9  10
ENDBRANCH   8   9
ENDBRANCH   1   8
BRANCH   5  24
HETATM   24  C17 UNL     1       8.596  24.711  10.524  1.00  0.00     0.021 A 
HETATM   25  C18 UNL     1       8.153  24.908  11.851  1.00  0.00     0.090 A 
HETATM   26  C19 UNL     1       8.922  24.753  12.949  1.00  0.00     0.246 A 
HETATM   27  O2  UNL     1       8.471  24.943  14.106  1.00  0.00    -0.268 OA
HETATM   28  N3  UNL     1      10.203  24.385  12.794  1.00  0.00    -0.327 N 
HETATM   29  C20 UNL     1      10.674  24.182  11.555  1.00  0.00     0.015 A 
ATOM     30  H3  UNL     1      10.809  24.261  13.605  1.00  0.00     0.169 HD
HETATM   31  C21 UNL     1      12.094  23.778  11.393  1.00  0.00     0.069 C 
HETATM   32  C22 UNL     1       9.897  24.335  10.405  1.00  0.00    -0.026 A 
HETATM   33  C23 UNL     1      10.563  23.956   9.135  1.00  0.00     0.051 C 
ENDBRANCH   5  24
TORSDOF 7
ENDMDL
