MODEL 1
REMARK VINA RESULT: -8.974449546      0.000      0.000
REMARK  9 active torsions:
REMARK  status: ('A' for Active; 'I' for Inactive)
REMARK    1  A    between atoms: C2_2  and  N1_3 
REMARK    2  A    between atoms: C5_6  and  C6_7 
REMARK       I    between atoms: C6_7  and  N2_9 
REMARK    3  A    between atoms: N2_9  and  C7_11 
REMARK    4  A    between atoms: C7_11  and  C8_12 
REMARK    5  A    between atoms: N3_14  and  C10_15 
REMARK    6  A    between atoms: C10_15  and  C11_16 
REMARK    7  A    between atoms: C11_16  and  C12_17 
REMARK    8  A    between atoms: C16_21  and  N4_22 
REMARK    9  A    between atoms: N4_22  and  C17_24 
ROOT
HETATM    1  C8  UNL     1       4.633  24.664   6.225  1.00  0.00     0.060 C 
HETATM    2  C9  UNL     1       5.115  26.074   5.984  1.00  0.00     0.280 C 
HETATM    3  N3  UNL     1       3.798  26.421   5.622  1.00  0.00     0.089 N 
HETATM    4  C23 UNL     1       3.665  25.077   5.094  1.00  0.00     0.280 C 
ENDROOT
BRANCH   3   5
HETATM    5  C10 UNL     1       2.793  26.698   6.573  1.00  0.00     0.277 C 
BRANCH   5   6
HETATM    6  C11 UNL     1       2.471  28.143   6.790  1.00  0.00     0.070 C 
BRANCH   6   7
HETATM    7  C12 UNL     1       1.029  28.468   6.648  1.00  0.00    -0.034 A 
HETATM    8  C13 UNL     1       0.353  28.198   5.446  1.00  0.00     0.019 A 
HETATM    9  C14 UNL     1      -0.983  28.487   5.275  1.00  0.00    -0.018 A 
HETATM   10  C15 UNL     1      -1.664  28.184   3.978  1.00  0.00     0.052 C 
HETATM   11  C16 UNL     1      -1.721  29.066   6.306  1.00  0.00     0.107 A 
HETATM   12  N5  UNL     1      -1.072  29.318   7.440  1.00  0.00    -0.346 N 
HETATM   13  C21 UNL     1       0.255  29.040   7.633  1.00  0.00     0.013 A 
ATOM     14  H5  UNL     1      -1.592  29.741   8.209  1.00  0.00     0.167 HD
HETATM   15  C22 UNL     1       0.875  29.366   8.953  1.00  0.00     0.068 C 
BRANCH  11  16
HETATM   16  N4  UNL     1      -2.945  29.321   6.119  1.00  0.00    -0.368 N 
ATOM     17  H4  UNL     1      -3.140  29.982   5.367  1.00  0.00     0.161 HD
BRANCH  16  18
HETATM   18  C17 UNL     1      -4.092  28.824   6.798  1.00  0.00     0.021 C 
HETATM   19  C18 UNL     1      -5.301  29.637   6.316  1.00  0.00     0.037 C 
HETATM   20  C19 UNL     1      -4.418  27.387   6.495  1.00  0.00     0.037 C 
HETATM   21  C20 UNL     1      -4.027  29.016   8.306  1.00  0.00     0.037 C 
ENDBRANCH  16  18
ENDBRANCH  11  16
ENDBRANCH   6   7
ENDBRANCH   5   6
ENDBRANCH   3   5
BRANCH   1  22
HETATM   22  C7  UNL     1       5.577  23.582   5.834  1.00  0.00     0.131 C 
BRANCH  22  23
HETATM   23  N2  UNL     1       4.896  22.615   5.011  1.00  0.00    -0.356 N 
HETATM   24  C6  UNL     1       5.300  21.262   5.031  1.00  0.00     0.251 C 
HETATM   25  O1  UNL     1       6.264  20.832   5.747  1.00  0.00    -0.268 OA
ATOM     26  H2  UNL     1       4.122  22.907   4.415  1.00  0.00     0.162 HD
BRANCH  24  27
HETATM   27  C5  UNL     1       4.574  20.307   4.187  1.00  0.00     0.034 A 
HETATM   28  C4  UNL     1       3.206  20.242   4.154  1.00  0.00     0.034 A 
HETATM   29  C3  UNL     1       2.602  19.317   3.324  1.00  0.00     0.091 A 
HETATM   30  N1  UNL     1       3.323  18.470   2.539  1.00  0.00    -0.367 N 
HETATM   31  C25 UNL     1       4.667  18.520   2.559  1.00  0.00     0.091 A 
HETATM   32  C24 UNL     1       5.279  19.426   3.372  1.00  0.00     0.034 A 
BRANCH  30  33
HETATM   33  C2  UNL     1       2.576  17.539   1.708  1.00  0.00     0.123 C 
HETATM   34  C1  UNL     1       3.351  16.254   1.496  1.00  0.00     0.027 C 
ENDBRANCH  30  33
ENDBRANCH  24  27
ENDBRANCH  22  23
ENDBRANCH   1  22
TORSDOF 9
ENDMDL
MODEL 2
REMARK VINA RESULT: -8.824831284      1.046      1.406
REMARK  9 active torsions:
REMARK  status: ('A' for Active; 'I' for Inactive)
REMARK    1  A    between atoms: C2_2  and  N1_3 
REMARK    2  A    between atoms: C5_6  and  C6_7 
REMARK       I    between atoms: C6_7  and  N2_9 
REMARK    3  A    between atoms: N2_9  and  C7_11 
REMARK    4  A    between atoms: C7_11  and  C8_12 
REMARK    5  A    between atoms: N3_14  and  C10_15 
REMARK    6  A    between atoms: C10_15  and  C11_16 
REMARK    7  A    between atoms: C11_16  and  C12_17 
REMARK    8  A    between atoms: C16_21  and  N4_22 
REMARK    9  A    between atoms: N4_22  and  C17_24 
ROOT
HETATM    1  C8  UNL     1       4.684  24.318   5.744  1.00  0.00     0.060 C 
HETATM    2  C9  UNL     1       3.613  24.436   6.801  1.00  0.00     0.280 C 
HETATM    3  N3  UNL     1       3.744  25.837   6.722  1.00  0.00     0.089 N 
HETATM    4  C23 UNL     1       5.150  25.618   6.437  1.00  0.00     0.280 C 
ENDROOT
BRANCH   3   5
HETATM    5  C10 UNL     1       3.132  26.605   5.709  1.00  0.00     0.277 C 
BRANCH   5   6
HETATM    6  C11 UNL     1       2.623  27.951   6.118  1.00  0.00     0.070 C 
BRANCH   6   7
HETATM    7  C12 UNL     1       1.153  28.006   6.315  1.00  0.00    -0.034 A 
HETATM    8  C13 UNL     1       0.297  28.260   5.230  1.00  0.00     0.019 A 
HETATM    9  C14 UNL     1      -1.071  28.321   5.372  1.00  0.00    -0.018 A 
HETATM   10  C15 UNL     1      -1.945  28.595   4.190  1.00  0.00     0.052 C 
HETATM   11  C16 UNL     1      -1.664  28.130   6.619  1.00  0.00     0.107 A 
HETATM   12  N5  UNL     1      -0.845  27.889   7.642  1.00  0.00    -0.346 N 
HETATM   13  C21 UNL     1       0.517  27.824   7.524  1.00  0.00     0.013 A 
ATOM     14  H5  UNL     1      -1.256  27.746   8.564  1.00  0.00     0.167 HD
HETATM   15  C22 UNL     1       1.333  27.546   8.744  1.00  0.00     0.068 C 
BRANCH  11  16
HETATM   16  N4  UNL     1      -2.922  28.192   6.720  1.00  0.00    -0.368 N 
ATOM     17  H4  UNL     1      -3.428  27.394   6.335  1.00  0.00     0.161 HD
BRANCH  16  18
HETATM   18  C17 UNL     1      -3.741  29.207   7.288  1.00  0.00     0.021 C 
HETATM   19  C18 UNL     1      -4.274  28.674   8.625  1.00  0.00     0.037 C 
HETATM   20  C19 UNL     1      -3.010  30.480   7.618  1.00  0.00     0.037 C 
HETATM   21  C20 UNL     1      -4.963  29.536   6.444  1.00  0.00     0.037 C 
ENDBRANCH  16  18
ENDBRANCH  11  16
ENDBRANCH   6   7
ENDBRANCH   5   6
ENDBRANCH   3   5
BRANCH   1  22
HETATM   22  C7  UNL     1       5.633  23.183   5.910  1.00  0.00     0.131 C 
BRANCH  22  23
HETATM   23  N2  UNL     1       5.350  22.164   4.930  1.00  0.00    -0.356 N 
HETATM   24  C6  UNL     1       4.363  21.188   5.193  1.00  0.00     0.251 C 
HETATM   25  O1  UNL     1       3.694  21.146   6.278  1.00  0.00    -0.268 OA
ATOM     26  H2  UNL     1       5.861  22.148   4.048  1.00  0.00     0.162 HD
BRANCH  24  27
HETATM   27  C5  UNL     1       4.098  20.175   4.166  1.00  0.00     0.034 A 
HETATM   28  C4  UNL     1       2.830  19.787   3.821  1.00  0.00     0.034 A 
HETATM   29  C3  UNL     1       2.670  18.831   2.837  1.00  0.00     0.091 A 
HETATM   30  N1  UNL     1       3.731  18.263   2.200  1.00  0.00    -0.367 N 
HETATM   31  C25 UNL     1       4.983  18.631   2.527  1.00  0.00     0.091 A 
HETATM   32  C24 UNL     1       5.159  19.574   3.495  1.00  0.00     0.034 A 
BRANCH  30  33
HETATM   33  C2  UNL     1       3.437  17.267   1.183  1.00  0.00     0.123 C 
HETATM   34  C1  UNL     1       2.364  16.306   1.654  1.00  0.00     0.027 C 
ENDBRANCH  30  33
ENDBRANCH  24  27
ENDBRANCH  22  23
ENDBRANCH   1  22
TORSDOF 9
ENDMDL
MODEL 3
REMARK VINA RESULT: -8.805274261      1.030      1.443
REMARK  9 active torsions:
REMARK  status: ('A' for Active; 'I' for Inactive)
REMARK    1  A    between atoms: C2_2  and  N1_3 
REMARK    2  A    between atoms: C5_6  and  C6_7 
REMARK       I    between atoms: C6_7  and  N2_9 
REMARK    3  A    between atoms: N2_9  and  C7_11 
REMARK    4  A    between atoms: C7_11  and  C8_12 
REMARK    5  A    between atoms: N3_14  and  C10_15 
REMARK    6  A    between atoms: C10_15  and  C11_16 
REMARK    7  A    between atoms: C11_16  and  C12_17 
REMARK    8  A    between atoms: C16_21  and  N4_22 
REMARK    9  A    between atoms: N4_22  and  C17_24 
ROOT
HETATM    1  C8  UNL     1       4.984  24.295   5.854  1.00  0.00     0.060 C 
HETATM    2  C9  UNL     1       4.759  24.948   7.196  1.00  0.00     0.280 C 
HETATM    3  N3  UNL     1       4.566  26.172   6.525  1.00  0.00     0.089 N 
HETATM    4  C23 UNL     1       5.532  25.706   5.548  1.00  0.00     0.280 C 
ENDROOT
BRANCH   3   5
HETATM    5  C10 UNL     1       3.345  26.520   5.909  1.00  0.00     0.277 C 
BRANCH   5   6
HETATM    6  C11 UNL     1       2.820  27.888   6.214  1.00  0.00     0.070 C 
BRANCH   6   7
HETATM    7  C12 UNL     1       1.348  27.942   6.399  1.00  0.00    -0.034 A 
HETATM    8  C13 UNL     1       0.500  28.157   5.300  1.00  0.00     0.019 A 
HETATM    9  C14 UNL     1      -0.870  28.216   5.430  1.00  0.00    -0.018 A 
HETATM   10  C15 UNL     1      -1.736  28.448   4.233  1.00  0.00     0.052 C 
HETATM   11  C16 UNL     1      -1.471  28.062   6.678  1.00  0.00     0.107 A 
HETATM   12  N5  UNL     1      -0.659  27.859   7.714  1.00  0.00    -0.346 N 
HETATM   13  C21 UNL     1       0.705  27.796   7.608  1.00  0.00     0.013 A 
ATOM     14  H5  UNL     1      -1.076  27.743   8.637  1.00  0.00     0.167 HD
HETATM   15  C22 UNL     1       1.513  27.562   8.842  1.00  0.00     0.068 C 
BRANCH  11  16
HETATM   16  N4  UNL     1      -2.730  28.122   6.768  1.00  0.00    -0.368 N 
ATOM     17  H4  UNL     1      -3.232  27.344   6.339  1.00  0.00     0.161 HD
BRANCH  16  18
HETATM   18  C17 UNL     1      -3.554  29.109   7.376  1.00  0.00     0.021 C 
HETATM   19  C18 UNL     1      -4.714  29.398   6.414  1.00  0.00     0.037 C 
HETATM   20  C19 UNL     1      -4.192  28.675   8.667  1.00  0.00     0.037 C 
HETATM   21  C20 UNL     1      -2.841  30.436   7.591  1.00  0.00     0.037 C 
ENDBRANCH  16  18
ENDBRANCH  11  16
ENDBRANCH   6   7
ENDBRANCH   5   6
ENDBRANCH   3   5
BRANCH   1  22
HETATM   22  C7  UNL     1       6.026  23.232   5.818  1.00  0.00     0.131 C 
BRANCH  22  23
HETATM   23  N2  UNL     1       5.647  22.210   4.874  1.00  0.00    -0.356 N 
HETATM   24  C6  UNL     1       4.646  21.274   5.213  1.00  0.00     0.251 C 
HETATM   25  O1  UNL     1       4.044  21.270   6.337  1.00  0.00    -0.268 OA
ATOM     26  H2  UNL     1       6.102  22.165   3.963  1.00  0.00     0.162 HD
BRANCH  24  27
HETATM   27  C5  UNL     1       4.283  20.257   4.220  1.00  0.00     0.034 A 
HETATM   28  C4  UNL     1       5.214  19.601   3.460  1.00  0.00     0.034 A 
HETATM   29  C3  UNL     1       4.786  18.651   2.553  1.00  0.00     0.091 A 
HETATM   30  N1  UNL     1       3.468  18.347   2.392  1.00  0.00    -0.367 N 
HETATM   31  C25 UNL     1       2.540  18.982   3.130  1.00  0.00     0.091 A 
HETATM   32  C24 UNL     1       2.945  19.922   4.030  1.00  0.00     0.034 A 
BRANCH  30  33
HETATM   33  C2  UNL     1       3.138  17.331   1.406  1.00  0.00     0.123 C 
HETATM   34  C1  UNL     1       2.115  16.354   1.950  1.00  0.00     0.027 C 
ENDBRANCH  30  33
ENDBRANCH  24  27
ENDBRANCH  22  23
ENDBRANCH   1  22
TORSDOF 9
ENDMDL
MODEL 4
REMARK VINA RESULT: -8.797924689      0.752      1.063
REMARK  9 active torsions:
REMARK  status: ('A' for Active; 'I' for Inactive)
REMARK    1  A    between atoms: C2_2  and  N1_3 
REMARK    2  A    between atoms: C5_6  and  C6_7 
REMARK       I    between atoms: C6_7  and  N2_9 
REMARK    3  A    between atoms: N2_9  and  C7_11 
REMARK    4  A    between atoms: C7_11  and  C8_12 
REMARK    5  A    between atoms: N3_14  and  C10_15 
REMARK    6  A    between atoms: C10_15  and  C11_16 
REMARK    7  A    between atoms: C11_16  and  C12_17 
REMARK    8  A    between atoms: C16_21  and  N4_22 
REMARK    9  A    between atoms: N4_22  and  C17_24 
ROOT
HETATM    1  C8  UNL     1       4.254  24.370   6.357  1.00  0.00     0.060 C 
HETATM    2  C9  UNL     1       4.803  25.703   6.805  1.00  0.00     0.280 C 
HETATM    3  N3  UNL     1       3.668  26.317   6.238  1.00  0.00     0.089 N 
HETATM    4  C23 UNL     1       3.692  25.270   5.234  1.00  0.00     0.280 C 
ENDROOT
BRANCH   3   5
HETATM    5  C10 UNL     1       2.420  26.367   6.894  1.00  0.00     0.277 C 
BRANCH   5   6
HETATM    6  C11 UNL     1       1.921  27.730   7.258  1.00  0.00     0.070 C 
BRANCH   6   7
HETATM    7  C12 UNL     1       0.492  27.958   6.928  1.00  0.00    -0.034 A 
HETATM    8  C13 UNL     1       0.096  28.201   5.603  1.00  0.00     0.019 A 
HETATM    9  C14 UNL     1      -1.220  28.419   5.257  1.00  0.00    -0.018 A 
HETATM   10  C15 UNL     1      -1.597  28.675   3.833  1.00  0.00     0.052 C 
HETATM   11  C16 UNL     1      -2.219  28.405   6.228  1.00  0.00     0.107 A 
HETATM   12  N5  UNL     1      -1.835  28.173   7.481  1.00  0.00    -0.346 N 
HETATM   13  C21 UNL     1      -0.534  27.954   7.848  1.00  0.00     0.013 A 
ATOM     14  H5  UNL     1      -2.549  28.158   8.209  1.00  0.00     0.167 HD
HETATM   15  C22 UNL     1      -0.224  27.704   9.288  1.00  0.00     0.068 C 
BRANCH  11  16
HETATM   16  N4  UNL     1      -3.418  28.609   5.881  1.00  0.00    -0.368 N 
ATOM     17  H4  UNL     1      -3.565  28.721   4.878  1.00  0.00     0.161 HD
BRANCH  16  18
HETATM   18  C17 UNL     1      -4.592  28.705   6.678  1.00  0.00     0.021 C 
HETATM   19  C18 UNL     1      -5.282  27.335   6.650  1.00  0.00     0.037 C 
HETATM   20  C19 UNL     1      -4.333  29.003   8.130  1.00  0.00     0.037 C 
HETATM   21  C20 UNL     1      -5.606  29.702   6.136  1.00  0.00     0.037 C 
ENDBRANCH  16  18
ENDBRANCH  11  16
ENDBRANCH   6   7
ENDBRANCH   5   6
ENDBRANCH   3   5
BRANCH   1  22
HETATM   22  C7  UNL     1       5.262  23.384   5.879  1.00  0.00     0.131 C 
BRANCH  22  23
HETATM   23  N2  UNL     1       4.626  22.416   5.020  1.00  0.00    -0.356 N 
HETATM   24  C6  UNL     1       5.134  21.100   4.943  1.00  0.00     0.251 C 
HETATM   25  O1  UNL     1       6.155  20.706   5.599  1.00  0.00    -0.268 OA
ATOM     26  H2  UNL     1       3.811  22.681   4.469  1.00  0.00     0.162 HD
BRANCH  24  27
HETATM   27  C5  UNL     1       4.452  20.142   4.066  1.00  0.00     0.034 A 
HETATM   28  C4  UNL     1       3.092  19.987   4.058  1.00  0.00     0.034 A 
HETATM   29  C3  UNL     1       2.530  19.067   3.194  1.00  0.00     0.091 A 
HETATM   30  N1  UNL     1       3.287  18.311   2.351  1.00  0.00    -0.367 N 
HETATM   31  C25 UNL     1       4.625  18.450   2.346  1.00  0.00     0.091 A 
HETATM   32  C24 UNL     1       5.195  19.354   3.192  1.00  0.00     0.034 A 
BRANCH  30  33
HETATM   33  C2  UNL     1       2.584  17.375   1.489  1.00  0.00     0.123 C 
HETATM   34  C1  UNL     1       1.982  16.240   2.292  1.00  0.00     0.027 C 
ENDBRANCH  30  33
ENDBRANCH  24  27
ENDBRANCH  22  23
ENDBRANCH   1  22
TORSDOF 9
ENDMDL
MODEL 5
REMARK VINA RESULT: -8.629575226      1.380      2.277
REMARK  9 active torsions:
REMARK  status: ('A' for Active; 'I' for Inactive)
REMARK    1  A    between atoms: C2_2  and  N1_3 
REMARK    2  A    between atoms: C5_6  and  C6_7 
REMARK       I    between atoms: C6_7  and  N2_9 
REMARK    3  A    between atoms: N2_9  and  C7_11 
REMARK    4  A    between atoms: C7_11  and  C8_12 
REMARK    5  A    between atoms: N3_14  and  C10_15 
REMARK    6  A    between atoms: C10_15  and  C11_16 
REMARK    7  A    between atoms: C11_16  and  C12_17 
REMARK    8  A    between atoms: C16_21  and  N4_22 
REMARK    9  A    between atoms: N4_22  and  C17_24 
ROOT
HETATM    1  C8  UNL     1       4.622  24.321   6.471  1.00  0.00     0.060 C 
HETATM    2  C9  UNL     1       5.091  25.694   6.888  1.00  0.00     0.280 C 
HETATM    3  N3  UNL     1       3.785  26.168   6.652  1.00  0.00     0.089 N 
HETATM    4  C23 UNL     1       3.697  25.186   5.587  1.00  0.00     0.280 C 
ENDROOT
BRANCH   3   5
HETATM    5  C10 UNL     1       2.736  26.009   7.581  1.00  0.00     0.277 C 
BRANCH   5   6
HETATM    6  C11 UNL     1       2.180  27.267   8.171  1.00  0.00     0.070 C 
BRANCH   6   7
HETATM    7  C12 UNL     1       1.257  28.000   7.269  1.00  0.00    -0.034 A 
HETATM    8  C13 UNL     1      -0.093  27.623   7.171  1.00  0.00     0.019 A 
HETATM    9  C14 UNL     1      -0.980  28.276   6.344  1.00  0.00    -0.018 A 
HETATM   10  C15 UNL     1      -2.409  27.841   6.270  1.00  0.00     0.052 C 
HETATM   11  C16 UNL     1      -0.561  29.352   5.564  1.00  0.00     0.107 A 
HETATM   12  N5  UNL     1       0.719  29.702   5.663  1.00  0.00    -0.346 N 
HETATM   13  C21 UNL     1       1.619  29.068   6.478  1.00  0.00     0.013 A 
ATOM     14  H5  UNL     1       1.049  30.487   5.101  1.00  0.00     0.167 HD
HETATM   15  C22 UNL     1       3.032  29.553   6.506  1.00  0.00     0.068 C 
BRANCH  11  16
HETATM   16  N4  UNL     1      -1.398  29.932   4.814  1.00  0.00    -0.368 N 
ATOM     17  H4  UNL     1      -2.091  30.502   5.298  1.00  0.00     0.161 HD
BRANCH  16  18
HETATM   18  C17 UNL     1      -1.518  29.909   3.397  1.00  0.00     0.021 C 
HETATM   19  C18 UNL     1      -3.003  30.103   3.057  1.00  0.00     0.037 C 
HETATM   20  C19 UNL     1      -0.790  31.023   2.694  1.00  0.00     0.037 C 
HETATM   21  C20 UNL     1      -1.112  28.579   2.780  1.00  0.00     0.037 C 
ENDBRANCH  16  18
ENDBRANCH  11  16
ENDBRANCH   6   7
ENDBRANCH   5   6
ENDBRANCH   3   5
BRANCH   1  22
HETATM   22  C7  UNL     1       5.600  23.512   5.693  1.00  0.00     0.131 C 
BRANCH  22  23
HETATM   23  N2  UNL     1       4.900  22.542   4.889  1.00  0.00    -0.356 N 
HETATM   24  C6  UNL     1       5.275  21.181   4.939  1.00  0.00     0.251 C 
HETATM   25  O1  UNL     1       6.228  20.746   5.667  1.00  0.00    -0.268 OA
ATOM     26  H2  UNL     1       4.135  22.838   4.284  1.00  0.00     0.162 HD
BRANCH  24  27
HETATM   27  C5  UNL     1       4.531  20.225   4.113  1.00  0.00     0.034 A 
HETATM   28  C4  UNL     1       3.168  20.102   4.172  1.00  0.00     0.034 A 
HETATM   29  C3  UNL     1       2.545  19.181   3.353  1.00  0.00     0.091 A 
HETATM   30  N1  UNL     1       3.243  18.391   2.491  1.00  0.00    -0.367 N 
HETATM   31  C25 UNL     1       4.582  18.497   2.421  1.00  0.00     0.091 A 
HETATM   32  C24 UNL     1       5.213  19.402   3.221  1.00  0.00     0.034 A 
BRANCH  30  33
HETATM   33  C2  UNL     1       2.478  17.457   1.681  1.00  0.00     0.123 C 
HETATM   34  C1  UNL     1       3.279  16.203   1.390  1.00  0.00     0.027 C 
ENDBRANCH  30  33
ENDBRANCH  24  27
ENDBRANCH  22  23
ENDBRANCH   1  22
TORSDOF 9
ENDMDL
