MODEL 1
REMARK VINA RESULT: -9.512802720      0.000      0.000
REMARK  8 active torsions:
REMARK  status: ('A' for Active; 'I' for Inactive)
REMARK    1  A    between atoms: C2_2  and  N1_3 
REMARK       I    between atoms: N1_3  and  C4_5 
REMARK       I    between atoms: C4_5  and  N2_7 
REMARK    2  A    between atoms: N2_7  and  C5_9 
REMARK    3  A    between atoms: C5_9  and  C6_10 
REMARK    4  A    between atoms: C6_10  and  N3_11 
REMARK       I    between atoms: N3_11  and  C7_13 
REMARK    5  A    between atoms: C7_13  and  C8_15 
REMARK    6  A    between atoms: C8_15  and  C9_17 
REMARK    7  A    between atoms: C9_17  and  C10_18 
REMARK    8  A    between atoms: C18_27  and  C19_28 
ROOT
HETATM    1  C9  UNL     1       3.488  26.654   5.365  1.00  0.00     0.128 C 
ENDROOT
BRANCH   1   2
HETATM    2  C8  UNL     1       4.926  26.864   5.624  1.00  0.00     0.220 C 
HETATM    3  O3  UNL     1       5.426  27.976   5.706  1.00  0.00    -0.287 OA
BRANCH   2   4
HETATM    4  C7  UNL     1       5.717  25.657   5.783  1.00  0.00     0.287 C 
HETATM    5  N3  UNL     1       5.644  24.555   4.930  1.00  0.00    -0.353 N 
ATOM      6  H3  UNL     1       5.012  24.552   4.130  1.00  0.00     0.162 HD
HETATM    7  O2  UNL     1       6.527  25.640   6.783  1.00  0.00    -0.264 OA
BRANCH   5   8
HETATM    8  C6  UNL     1       6.492  23.416   5.214  1.00  0.00     0.143 C 
BRANCH   8   9
HETATM    9  C5  UNL     1       5.695  22.294   5.778  1.00  0.00     0.144 C 
BRANCH   9  10
HETATM   10  N2  UNL     1       5.602  21.152   4.823  1.00  0.00    -0.341 N 
HETATM   11  C4  UNL     1       4.302  20.842   4.391  1.00  0.00     0.317 C 
HETATM   12  N1  UNL     1       3.982  19.811   3.519  1.00  0.00    -0.339 N 
HETATM   13  O1  UNL     1       3.321  21.551   4.827  1.00  0.00    -0.247 OA
HETATM   14  C3  UNL     1       2.583  19.501   3.191  1.00  0.00     0.154 C 
ATOM     15  H2  UNL     1       6.422  20.635   4.506  1.00  0.00     0.164 HD
BRANCH  12  16
HETATM   16  C2  UNL     1       5.010  18.977   2.936  1.00  0.00     0.122 C 
HETATM   17  C1  UNL     1       5.271  19.275   1.476  1.00  0.00     0.026 C 
ENDBRANCH  12  16
ENDBRANCH   9  10
ENDBRANCH   8   9
ENDBRANCH   5   8
ENDBRANCH   2   4
ENDBRANCH   1   2
BRANCH   1  18
HETATM   18  C10 UNL     1       2.697  26.751   6.603  1.00  0.00    -0.037 A 
HETATM   19  C11 UNL     1       3.206  26.187   7.766  1.00  0.00     0.025 A 
HETATM   20  C12 UNL     1       2.514  26.278   8.905  1.00  0.00     0.091 A 
HETATM   21  N4  UNL     1       1.292  26.903   9.037  1.00  0.00    -0.360 N 
HETATM   22  C13 UNL     1       0.657  26.964  10.292  1.00  0.00     0.155 C 
HETATM   23  C14 UNL     1       0.792  27.448   7.913  1.00  0.00     0.050 A 
HETATM   24  C15 UNL     1      -0.459  28.046   7.966  1.00  0.00    -0.034 A 
HETATM   25  C24 UNL     1       1.480  27.386   6.677  1.00  0.00    -0.002 A 
HETATM   26  C16 UNL     1      -1.243  28.098   9.181  1.00  0.00     0.050 C 
HETATM   27  C17 UNL     1      -0.951  28.554   6.760  1.00  0.00     0.017 A 
HETATM   28  C18 UNL     1      -0.303  28.507   5.551  1.00  0.00    -0.049 A 
HETATM   29  C23 UNL     1       0.911  27.921   5.535  1.00  0.00     0.022 A 
BRANCH  28  30
HETATM   30  C19 UNL     1      -1.044  29.062   4.376  1.00  0.00    -0.024 C 
HETATM   31  C20 UNL     1      -2.539  29.131   4.766  1.00  0.00     0.019 C 
HETATM   32  C21 UNL     1      -0.921  28.234   3.158  1.00  0.00     0.019 C 
HETATM   33  C22 UNL     1      -0.553  30.465   4.137  1.00  0.00     0.019 C 
ENDBRANCH  28  30
ENDBRANCH   1  18
TORSDOF 8
ENDMDL
MODEL 2
REMARK VINA RESULT: -9.343739881      4.484      6.834
REMARK  8 active torsions:
REMARK  status: ('A' for Active; 'I' for Inactive)
REMARK    1  A    between atoms: C2_2  and  N1_3 
REMARK       I    between atoms: N1_3  and  C4_5 
REMARK       I    between atoms: C4_5  and  N2_7 
REMARK    2  A    between atoms: N2_7  and  C5_9 
REMARK    3  A    between atoms: C5_9  and  C6_10 
REMARK    4  A    between atoms: C6_10  and  N3_11 
REMARK       I    between atoms: N3_11  and  C7_13 
REMARK    5  A    between atoms: C7_13  and  C8_15 
REMARK    6  A    between atoms: C8_15  and  C9_17 
REMARK    7  A    between atoms: C9_17  and  C10_18 
REMARK    8  A    between atoms: C18_27  and  C19_28 
ROOT
HETATM    1  C9  UNL     1       3.416  30.351   6.321  1.00  0.00     0.128 C 
ENDROOT
BRANCH   1   2
HETATM    2  C8  UNL     1       4.470  29.662   5.549  1.00  0.00     0.220 C 
HETATM    3  O3  UNL     1       4.914  30.104   4.501  1.00  0.00    -0.287 OA
BRANCH   2   4
HETATM    4  C7  UNL     1       4.953  28.417   6.120  1.00  0.00     0.287 C 
HETATM    5  N3  UNL     1       5.022  28.158   7.489  1.00  0.00    -0.353 N 
ATOM      6  H3  UNL     1       4.723  28.855   8.170  1.00  0.00     0.162 HD
HETATM    7  O2  UNL     1       5.331  27.519   5.278  1.00  0.00    -0.264 OA
BRANCH   5   8
HETATM    8  C6  UNL     1       5.531  26.871   7.914  1.00  0.00     0.143 C 
BRANCH   8   9
HETATM    9  C5  UNL     1       5.810  26.871   9.374  1.00  0.00     0.144 C 
BRANCH   9  10
HETATM   10  N2  UNL     1       7.151  27.453   9.677  1.00  0.00    -0.341 N 
HETATM   11  C4  UNL     1       7.904  26.749  10.630  1.00  0.00     0.317 C 
HETATM   12  N1  UNL     1       9.165  27.118  11.074  1.00  0.00    -0.339 N 
HETATM   13  O1  UNL     1       7.404  25.680  11.145  1.00  0.00    -0.247 OA
HETATM   14  C3  UNL     1       9.844  26.371  12.142  1.00  0.00     0.154 C 
ATOM     15  H2  UNL     1       7.495  28.300   9.225  1.00  0.00     0.164 HD
BRANCH  12  16
HETATM   16  C2  UNL     1       9.839  28.278  10.533  1.00  0.00     0.122 C 
HETATM   17  C1  UNL     1       9.699  29.513  11.395  1.00  0.00     0.026 C 
ENDBRANCH  12  16
ENDBRANCH   9  10
ENDBRANCH   8   9
ENDBRANCH   5   8
ENDBRANCH   2   4
ENDBRANCH   1   2
BRANCH   1  18
HETATM   18  C10 UNL     1       2.085  30.133   5.730  1.00  0.00    -0.037 A 
HETATM   19  C11 UNL     1       1.713  30.887   4.625  1.00  0.00     0.025 A 
HETATM   20  C12 UNL     1       0.518  30.694   4.062  1.00  0.00     0.091 A 
HETATM   21  N4  UNL     1      -0.419  29.779   4.495  1.00  0.00    -0.360 N 
HETATM   22  C13 UNL     1      -1.643  29.637   3.813  1.00  0.00     0.155 C 
HETATM   23  C14 UNL     1      -0.066  29.048   5.568  1.00  0.00     0.050 A 
HETATM   24  C15 UNL     1      -0.984  28.147   6.088  1.00  0.00    -0.034 A 
HETATM   25  C24 UNL     1       1.188  29.206   6.206  1.00  0.00    -0.002 A 
HETATM   26  C16 UNL     1      -2.305  27.971   5.522  1.00  0.00     0.050 C 
HETATM   27  C17 UNL     1      -0.584  27.448   7.231  1.00  0.00     0.017 A 
HETATM   28  C18 UNL     1       0.626  27.583   7.866  1.00  0.00    -0.049 A 
HETATM   29  C23 UNL     1       1.495  28.466   7.334  1.00  0.00     0.022 A 
BRANCH  28  30
HETATM   30  C19 UNL     1       0.818  26.776   9.110  1.00  0.00    -0.024 C 
HETATM   31  C20 UNL     1       2.180  27.184   9.717  1.00  0.00     0.019 C 
HETATM   32  C21 UNL     1       0.838  25.318   8.868  1.00  0.00     0.019 C 
HETATM   33  C22 UNL     1      -0.266  27.155  10.083  1.00  0.00     0.019 C 
ENDBRANCH  28  30
ENDBRANCH   1  18
TORSDOF 8
ENDMDL
MODEL 3
REMARK VINA RESULT: -9.295312944      2.189      4.509
REMARK  8 active torsions:
REMARK  status: ('A' for Active; 'I' for Inactive)
REMARK    1  A    between atoms: C2_2  and  N1_3 
REMARK       I    between atoms: N1_3  and  C4_5 
REMARK       I    between atoms: C4_5  and  N2_7 
REMARK    2  A    between atoms: N2_7  and  C5_9 
REMARK    3  A    between atoms: C5_9  and  C6_10 
REMARK    4  A    between atoms: C6_10  and  N3_11 
REMARK       I    between atoms: N3_11  and  C7_13 
REMARK    5  A    between atoms: C7_13  and  C8_15 
REMARK    6  A    between atoms: C8_15  and  C9_17 
REMARK    7  A    between atoms: C9_17  and  C10_18 
REMARK    8  A    between atoms: C18_27  and  C19_28 
ROOT
HETATM    1  C9  UNL     1       3.325  30.434   6.272  1.00  0.00     0.128 C 
ENDROOT
BRANCH   1   2
HETATM    2  C8  UNL     1       4.389  29.746   5.514  1.00  0.00     0.220 C 
HETATM    3  O3  UNL     1       4.798  30.152   4.437  1.00  0.00    -0.287 OA
BRANCH   2   4
HETATM    4  C7  UNL     1       4.926  28.548   6.134  1.00  0.00     0.287 C 
HETATM    5  N3  UNL     1       4.934  28.314   7.509  1.00  0.00    -0.353 N 
ATOM      6  H3  UNL     1       4.546  28.996   8.159  1.00  0.00     0.162 HD
HETATM    7  O2  UNL     1       5.417  27.669   5.332  1.00  0.00    -0.264 OA
BRANCH   5   8
HETATM    8  C6  UNL     1       5.509  27.074   7.985  1.00  0.00     0.143 C 
BRANCH   8   9
HETATM    9  C5  UNL     1       4.629  25.923   7.652  1.00  0.00     0.144 C 
BRANCH   9  10
HETATM   10  N2  UNL     1       5.372  24.858   6.916  1.00  0.00    -0.341 N 
HETATM   11  C4  UNL     1       4.599  23.751   6.530  1.00  0.00     0.317 C 
HETATM   12  N1  UNL     1       5.085  22.642   5.853  1.00  0.00    -0.339 N 
HETATM   13  O1  UNL     1       3.344  23.743   6.818  1.00  0.00    -0.247 OA
HETATM   14  C3  UNL     1       4.222  21.487   5.568  1.00  0.00     0.154 C 
ATOM     15  H2  UNL     1       6.368  24.929   6.709  1.00  0.00     0.164 HD
BRANCH  12  16
HETATM   16  C2  UNL     1       6.470  22.563   5.443  1.00  0.00     0.122 C 
HETATM   17  C1  UNL     1       7.362  21.892   6.464  1.00  0.00     0.026 C 
ENDBRANCH  12  16
ENDBRANCH   9  10
ENDBRANCH   8   9
ENDBRANCH   5   8
ENDBRANCH   2   4
ENDBRANCH   1   2
BRANCH   1  18
HETATM   18  C10 UNL     1       1.998  30.188   5.684  1.00  0.00    -0.037 A 
HETATM   19  C11 UNL     1       1.615  30.921   4.568  1.00  0.00     0.025 A 
HETATM   20  C12 UNL     1       0.423  30.702   4.007  1.00  0.00     0.091 A 
HETATM   21  N4  UNL     1      -0.500  29.779   4.452  1.00  0.00    -0.360 N 
HETATM   22  C13 UNL     1      -1.721  29.609   3.772  1.00  0.00     0.155 C 
HETATM   23  C14 UNL     1      -0.137  29.068   5.535  1.00  0.00     0.050 A 
HETATM   24  C15 UNL     1      -1.042  28.161   6.067  1.00  0.00    -0.034 A 
HETATM   25  C24 UNL     1       1.114  29.254   6.172  1.00  0.00    -0.002 A 
HETATM   26  C16 UNL     1      -2.359  27.957   5.502  1.00  0.00     0.050 C 
HETATM   27  C17 UNL     1      -0.632  27.484   7.219  1.00  0.00     0.017 A 
HETATM   28  C18 UNL     1       0.575  27.645   7.853  1.00  0.00    -0.049 A 
HETATM   29  C23 UNL     1       1.432  28.534   7.310  1.00  0.00     0.022 A 
BRANCH  28  30
HETATM   30  C19 UNL     1       0.779  26.858   9.108  1.00  0.00    -0.024 C 
HETATM   31  C20 UNL     1       2.094  27.354   9.754  1.00  0.00     0.019 C 
HETATM   32  C21 UNL     1       0.896  25.403   8.877  1.00  0.00     0.019 C 
HETATM   33  C22 UNL     1      -0.356  27.175  10.045  1.00  0.00     0.019 C 
ENDBRANCH  28  30
ENDBRANCH   1  18
TORSDOF 8
ENDMDL
MODEL 4
REMARK VINA RESULT: -9.221962049      4.360      6.170
REMARK  8 active torsions:
REMARK  status: ('A' for Active; 'I' for Inactive)
REMARK    1  A    between atoms: C2_2  and  N1_3 
REMARK       I    between atoms: N1_3  and  C4_5 
REMARK       I    between atoms: C4_5  and  N2_7 
REMARK    2  A    between atoms: N2_7  and  C5_9 
REMARK    3  A    between atoms: C5_9  and  C6_10 
REMARK    4  A    between atoms: C6_10  and  N3_11 
REMARK       I    between atoms: N3_11  and  C7_13 
REMARK    5  A    between atoms: C7_13  and  C8_15 
REMARK    6  A    between atoms: C8_15  and  C9_17 
REMARK    7  A    between atoms: C9_17  and  C10_18 
REMARK    8  A    between atoms: C18_27  and  C19_28 
ROOT
HETATM    1  C9  UNL     1       3.482  30.308   6.348  1.00  0.00     0.128 C 
ENDROOT
BRANCH   1   2
HETATM    2  C8  UNL     1       4.524  29.612   5.568  1.00  0.00     0.220 C 
HETATM    3  O3  UNL     1       4.986  30.068   4.533  1.00  0.00    -0.287 OA
BRANCH   2   4
HETATM    4  C7  UNL     1       4.975  28.345   6.113  1.00  0.00     0.287 C 
HETATM    5  N3  UNL     1       5.035  28.056   7.477  1.00  0.00    -0.353 N 
ATOM      6  H3  UNL     1       4.751  28.745   8.172  1.00  0.00     0.162 HD
HETATM    7  O2  UNL     1       5.333  27.456   5.254  1.00  0.00    -0.264 OA
BRANCH   5   8
HETATM    8  C6  UNL     1       5.510  26.748   7.876  1.00  0.00     0.143 C 
BRANCH   8   9
HETATM    9  C5  UNL     1       5.938  26.755   9.300  1.00  0.00     0.144 C 
BRANCH   9  10
HETATM   10  N2  UNL     1       6.727  25.536   9.643  1.00  0.00    -0.341 N 
HETATM   11  C4  UNL     1       7.432  25.605  10.855  1.00  0.00     0.317 C 
HETATM   12  N1  UNL     1       8.240  24.597  11.361  1.00  0.00    -0.339 N 
HETATM   13  O1  UNL     1       7.337  26.675  11.565  1.00  0.00    -0.247 OA
HETATM   14  C3  UNL     1       9.013  24.790  12.596  1.00  0.00     0.154 C 
ATOM     15  H2  UNL     1       6.752  24.713   9.042  1.00  0.00     0.164 HD
BRANCH  12  16
HETATM   16  C2  UNL     1       8.386  23.336  10.667  1.00  0.00     0.122 C 
HETATM   17  C1  UNL     1       9.822  22.875  10.552  1.00  0.00     0.026 C 
ENDBRANCH  12  16
ENDBRANCH   9  10
ENDBRANCH   8   9
ENDBRANCH   5   8
ENDBRANCH   2   4
ENDBRANCH   1   2
BRANCH   1  18
HETATM   18  C10 UNL     1       2.146  30.108   5.761  1.00  0.00    -0.037 A 
HETATM   19  C11 UNL     1       1.777  30.876   4.665  1.00  0.00     0.025 A 
HETATM   20  C12 UNL     1       0.577  30.700   4.105  1.00  0.00     0.091 A 
HETATM   21  N4  UNL     1      -0.367  29.791   4.534  1.00  0.00    -0.360 N 
HETATM   22  C13 UNL     1      -1.595  29.667   3.855  1.00  0.00     0.155 C 
HETATM   23  C14 UNL     1      -0.017  29.047   5.598  1.00  0.00     0.050 A 
HETATM   24  C15 UNL     1      -0.942  28.150   6.113  1.00  0.00    -0.034 A 
HETATM   25  C24 UNL     1       1.241  29.186   6.232  1.00  0.00    -0.002 A 
HETATM   26  C16 UNL     1      -2.266  27.993   5.551  1.00  0.00     0.050 C 
HETATM   27  C17 UNL     1      -0.544  27.437   7.248  1.00  0.00     0.017 A 
HETATM   28  C18 UNL     1       0.670  27.554   7.879  1.00  0.00    -0.049 A 
HETATM   29  C23 UNL     1       1.546  28.433   7.352  1.00  0.00     0.022 A 
BRANCH  28  30
HETATM   30  C19 UNL     1       0.859  26.733   9.115  1.00  0.00    -0.024 C 
HETATM   31  C20 UNL     1       2.228  27.123   9.721  1.00  0.00     0.019 C 
HETATM   32  C21 UNL     1       0.864  25.277   8.859  1.00  0.00     0.019 C 
HETATM   33  C22 UNL     1      -0.217  27.114  10.096  1.00  0.00     0.019 C 
ENDBRANCH  28  30
ENDBRANCH   1  18
TORSDOF 8
ENDMDL
MODEL 5
REMARK VINA RESULT: -9.119441157      2.074      2.705
REMARK  8 active torsions:
REMARK  status: ('A' for Active; 'I' for Inactive)
REMARK    1  A    between atoms: C2_2  and  N1_3 
REMARK       I    between atoms: N1_3  and  C4_5 
REMARK       I    between atoms: C4_5  and  N2_7 
REMARK    2  A    between atoms: N2_7  and  C5_9 
REMARK    3  A    between atoms: C5_9  and  C6_10 
REMARK    4  A    between atoms: C6_10  and  N3_11 
REMARK       I    between atoms: N3_11  and  C7_13 
REMARK    5  A    between atoms: C7_13  and  C8_15 
REMARK    6  A    between atoms: C8_15  and  C9_17 
REMARK    7  A    between atoms: C9_17  and  C10_18 
REMARK    8  A    between atoms: C18_27  and  C19_28 
ROOT
HETATM    1  C9  UNL     1       3.381  25.369   5.029  1.00  0.00     0.128 C 
ENDROOT
BRANCH   1   2
HETATM    2  C8  UNL     1       4.524  24.435   5.012  1.00  0.00     0.220 C 
HETATM    3  O3  UNL     1       5.673  24.803   4.823  1.00  0.00    -0.287 OA
BRANCH   2   4
HETATM    4  C7  UNL     1       4.197  23.039   5.239  1.00  0.00     0.287 C 
HETATM    5  N3  UNL     1       4.793  21.974   4.564  1.00  0.00    -0.353 N 
ATOM      6  H3  UNL     1       5.512  22.137   3.859  1.00  0.00     0.162 HD
HETATM    7  O2  UNL     1       3.295  22.808   6.128  1.00  0.00    -0.264 OA
BRANCH   5   8
HETATM    8  C6  UNL     1       4.362  20.632   4.892  1.00  0.00     0.143 C 
BRANCH   8   9
HETATM    9  C5  UNL     1       3.563  20.049   3.782  1.00  0.00     0.144 C 
BRANCH   9  10
HETATM   10  N2  UNL     1       4.043  18.684   3.417  1.00  0.00    -0.341 N 
HETATM   11  C4  UNL     1       3.253  18.007   2.473  1.00  0.00     0.317 C 
HETATM   12  N1  UNL     1       3.503  16.726   2.003  1.00  0.00    -0.339 N 
HETATM   13  O1  UNL     1       2.214  18.601   1.998  1.00  0.00    -0.247 OA
HETATM   14  C3  UNL     1       2.571  16.060   1.082  1.00  0.00     0.154 C 
ATOM     15  H2  UNL     1       4.884  18.272   3.822  1.00  0.00     0.164 HD
BRANCH  12  16
HETATM   16  C2  UNL     1       4.665  15.983   2.438  1.00  0.00     0.122 C 
HETATM   17  C1  UNL     1       5.446  15.366   1.298  1.00  0.00     0.026 C 
ENDBRANCH  12  16
ENDBRANCH   9  10
ENDBRANCH   8   9
ENDBRANCH   5   8
ENDBRANCH   2   4
ENDBRANCH   1   2
BRANCH   1  18
HETATM   18  C10 UNL     1       3.378  26.194   6.249  1.00  0.00    -0.037 A 
HETATM   19  C11 UNL     1       4.363  25.979   7.203  1.00  0.00     0.025 A 
HETATM   20  C12 UNL     1       4.390  26.727   8.309  1.00  0.00     0.091 A 
HETATM   21  N4  UNL     1       3.492  27.731   8.604  1.00  0.00    -0.360 N 
HETATM   22  C13 UNL     1       3.625  28.479   9.790  1.00  0.00     0.155 C 
HETATM   23  C14 UNL     1       2.532  27.942   7.685  1.00  0.00     0.050 A 
HETATM   24  C15 UNL     1       1.565  28.902   7.945  1.00  0.00    -0.034 A 
HETATM   25  C24 UNL     1       2.454  27.183   6.492  1.00  0.00    -0.002 A 
HETATM   26  C16 UNL     1       1.550  29.677   9.167  1.00  0.00     0.050 C 
HETATM   27  C17 UNL     1       0.564  29.046   6.979  1.00  0.00     0.017 A 
HETATM   28  C18 UNL     1       0.468  28.324   5.815  1.00  0.00    -0.049 A 
HETATM   29  C23 UNL     1       1.425  27.400   5.593  1.00  0.00     0.022 A 
BRANCH  28  30
HETATM   30  C19 UNL     1      -0.721  28.606   4.954  1.00  0.00    -0.024 C 
HETATM   31  C20 UNL     1      -1.930  27.878   5.586  1.00  0.00     0.019 C 
HETATM   32  C21 UNL     1      -0.568  28.126   3.564  1.00  0.00     0.019 C 
HETATM   33  C22 UNL     1      -0.986  30.087   4.996  1.00  0.00     0.019 C 
ENDBRANCH  28  30
ENDBRANCH   1  18
TORSDOF 8
ENDMDL
