MODEL 1
REMARK VINA RESULT: -8.775363565      0.000      0.000
REMARK  8 active torsions:
REMARK  status: ('A' for Active; 'I' for Inactive)
REMARK    1  A    between atoms: C2_2  and  C3_3 
REMARK    2  A    between atoms: C2_2  and  N4_31 
REMARK    3  A    between atoms: C3_3  and  C4_4 
REMARK    4  A    between atoms: C6_6  and  C7_7 
REMARK    5  A    between atoms: N2_13  and  C8_14 
REMARK    6  A    between atoms: C12_18  and  C13_19 
REMARK    7  A    between atoms: C19_25  and  N3_26 
REMARK    8  A    between atoms: N4_31  and  C21_33 
ROOT
HETATM    1  C4  UNL     1      -5.690 -28.531   9.535  1.00  0.00     0.038 A 
HETATM    2  C5  UNL     1      -6.680 -28.866  10.418  1.00  0.00     0.063 A 
HETATM    3  C6  UNL     1      -7.176 -30.107  10.057  1.00  0.00     0.134 A 
HETATM    4  N1  UNL     1      -6.516 -30.470   8.993  1.00  0.00    -0.289 N 
ATOM      5  H1  UNL     1      -6.660 -31.339   8.479  1.00  0.00     0.187 HD
HETATM    6  N2  UNL     1      -5.604 -29.510   8.674  1.00  0.00    -0.260 N 
ENDROOT
BRANCH   6   7
HETATM    7  C8  UNL     1      -4.762 -29.846   7.555  1.00  0.00     0.057 A 
HETATM    8  C9  UNL     1      -5.354 -29.888   6.323  1.00  0.00     0.031 A 
HETATM    9  C10 UNL     1      -4.608 -29.946   5.168  1.00  0.00     0.003 A 
HETATM   10  C11 UNL     1      -3.220 -29.963   5.289  1.00  0.00     0.007 A 
HETATM   11  C12 UNL     1      -2.597 -29.937   6.494  1.00  0.00    -0.050 A 
HETATM   12  C20 UNL     1      -3.383 -29.879   7.613  1.00  0.00     0.039 A 
BRANCH  11  13
HETATM   13  C13 UNL     1      -1.119 -29.811   6.675  1.00  0.00     0.049 C 
HETATM   14  C14 UNL     1      -0.954 -29.098   8.050  1.00  0.00     0.011 C 
HETATM   15  C15 UNL     1       0.413 -28.484   8.201  1.00  0.00     0.001 C 
HETATM   16  C16 UNL     1       1.425 -29.027   7.256  1.00  0.00     0.006 C 
HETATM   17  C17 UNL     1       0.989 -28.897   5.819  1.00  0.00     0.013 C 
HETATM   18  C18 UNL     1       1.666 -27.746   5.122  1.00  0.00     0.012 C 
HETATM   19  C19 UNL     1      -0.502 -28.871   5.659  1.00  0.00     0.195 C 
BRANCH  19  20
HETATM   20  N3  UNL     1      -0.970 -27.515   5.830  1.00  0.00    -0.074 N 
ATOM     21  H33 UNL     1      -1.387 -27.155   4.972  1.00  0.00     0.274 HD
ATOM     22  H32 UNL     1      -1.791 -27.479   6.433  1.00  0.00     0.274 HD
ATOM     23  H31 UNL     1      -0.230 -26.900   6.170  1.00  0.00     0.274 HD
ENDBRANCH  19  20
ENDBRANCH  11  13
ENDBRANCH   6   7
BRANCH   1  24
HETATM   24  C3  UNL     1      -4.915 -27.262   9.518  1.00  0.00     0.083 C 
BRANCH  24  25
HETATM   25  C2  UNL     1      -5.412 -26.454   8.261  1.00  0.00     0.078 C 
HETATM   26  C1  UNL     1      -4.366 -26.476   7.208  1.00  0.00     0.032 C 
BRANCH  25  27
HETATM   27  N4  UNL     1      -5.916 -25.209   8.727  1.00  0.00    -0.413 N 
ATOM     28  H4  UNL     1      -5.379 -24.631   9.374  1.00  0.00     0.154 HD
BRANCH  27  29
HETATM   29  C21 UNL     1      -7.176 -24.805   8.267  1.00  0.00     0.080 C 
HETATM   30  C22 UNL     1      -8.286 -25.055   9.177  1.00  0.00     0.025 C 
HETATM   31  C23 UNL     1      -9.465 -24.087   8.955  1.00  0.00     0.002 C 
HETATM   32  C24 UNL     1      -9.062 -22.650   8.911  1.00  0.00     0.001 C 
HETATM   33  C25 UNL     1      -7.538 -22.496   8.957  1.00  0.00     0.006 C 
HETATM   34  C26 UNL     1      -7.020 -23.340   7.824  1.00  0.00     0.004 C 
HETATM   35  C27 UNL     1      -5.570 -23.017   7.555  1.00  0.00     0.012 C 
ENDBRANCH  27  29
ENDBRANCH  25  27
ENDBRANCH  24  25
ENDBRANCH   1  24
BRANCH   3  36
HETATM   36  C7  UNL     1      -8.164 -30.965  10.828  1.00  0.00     0.434 C 
HETATM   37  F1  UNL     1      -8.950 -30.170  11.636  1.00  0.00    -0.165 F 
HETATM   38  F2  UNL     1      -7.372 -31.854  11.638  1.00  0.00    -0.165 F 
HETATM   39  F3  UNL     1      -8.834 -31.745   9.922  1.00  0.00    -0.165 F 
ENDBRANCH   3  36
TORSDOF 8
ENDMDL
MODEL 2
REMARK VINA RESULT: -8.707434329      1.853      8.326
REMARK  8 active torsions:
REMARK  status: ('A' for Active; 'I' for Inactive)
REMARK    1  A    between atoms: C2_2  and  C3_3 
REMARK    2  A    between atoms: C2_2  and  N4_31 
REMARK    3  A    between atoms: C3_3  and  C4_4 
REMARK    4  A    between atoms: C6_6  and  C7_7 
REMARK    5  A    between atoms: N2_13  and  C8_14 
REMARK    6  A    between atoms: C12_18  and  C13_19 
REMARK    7  A    between atoms: C19_25  and  N3_26 
REMARK    8  A    between atoms: N4_31  and  C21_33 
ROOT
HETATM    1  C4  UNL     1      -3.336 -28.340   7.392  1.00  0.00     0.038 A 
HETATM    2  C5  UNL     1      -3.703 -29.645   7.574  1.00  0.00     0.063 A 
HETATM    3  C6  UNL     1      -4.941 -29.661   8.193  1.00  0.00     0.134 A 
HETATM    4  N1  UNL     1      -5.272 -28.414   8.383  1.00  0.00    -0.289 N 
ATOM      5  H1  UNL     1      -6.131 -28.095   8.831  1.00  0.00     0.187 HD
HETATM    6  N2  UNL     1      -4.293 -27.604   7.891  1.00  0.00    -0.260 N 
ENDROOT
BRANCH   6   7
HETATM    7  C8  UNL     1      -4.594 -26.198   7.977  1.00  0.00     0.057 A 
HETATM    8  C9  UNL     1      -3.834 -25.353   7.216  1.00  0.00     0.031 A 
HETATM    9  C10 UNL     1      -4.192 -24.038   7.027  1.00  0.00     0.003 A 
HETATM   10  C11 UNL     1      -5.360 -23.586   7.637  1.00  0.00     0.007 A 
HETATM   11  C12 UNL     1      -6.132 -24.391   8.410  1.00  0.00    -0.050 A 
HETATM   12  C20 UNL     1      -5.733 -25.691   8.569  1.00  0.00     0.039 A 
BRANCH  11  13
HETATM   13  C13 UNL     1      -7.461 -23.998   8.969  1.00  0.00     0.049 C 
HETATM   14  C14 UNL     1      -8.469 -24.984   8.308  1.00  0.00     0.011 C 
HETATM   15  C15 UNL     1      -9.884 -24.475   8.388  1.00  0.00     0.001 C 
HETATM   16  C16 UNL     1     -10.086 -23.413   9.409  1.00  0.00     0.006 C 
HETATM   17  C17 UNL     1      -9.157 -22.244   9.205  1.00  0.00     0.013 C 
HETATM   18  C18 UNL     1      -9.851 -21.074   8.557  1.00  0.00     0.012 C 
HETATM   19  C19 UNL     1      -7.886 -22.619   8.505  1.00  0.00     0.195 C 
BRANCH  19  20
HETATM   20  N3  UNL     1      -8.106 -22.579   7.078  1.00  0.00    -0.074 N 
ATOM     21  H33 UNL     1      -8.707 -21.797   6.816  1.00  0.00     0.274 HD
ATOM     22  H32 UNL     1      -7.260 -22.303   6.579  1.00  0.00     0.274 HD
ATOM     23  H31 UNL     1      -8.473 -23.463   6.726  1.00  0.00     0.274 HD
ENDBRANCH  19  20
ENDBRANCH  11  13
ENDBRANCH   6   7
BRANCH   1  24
HETATM   24  C3  UNL     1      -2.058 -27.857   6.806  1.00  0.00     0.083 C 
BRANCH  24  25
HETATM   25  C2  UNL     1      -0.951 -28.088   7.902  1.00  0.00     0.078 C 
HETATM   26  C1  UNL     1      -0.732 -26.835   8.664  1.00  0.00     0.032 C 
BRANCH  25  27
HETATM   27  N4  UNL     1       0.149 -28.728   7.266  1.00  0.00    -0.413 N 
ATOM     28  H4  UNL     1       0.005 -29.467   6.578  1.00  0.00     0.154 HD
BRANCH  27  29
HETATM   29  C21 UNL     1       1.438 -28.307   7.618  1.00  0.00     0.080 C 
HETATM   30  C22 UNL     1       2.148 -29.171   8.553  1.00  0.00     0.025 C 
HETATM   31  C23 UNL     1       3.679 -29.053   8.424  1.00  0.00     0.002 C 
HETATM   32  C24 UNL     1       4.176 -29.180   7.022  1.00  0.00     0.001 C 
HETATM   33  C25 UNL     1       3.016 -29.257   6.024  1.00  0.00     0.006 C 
HETATM   34  C26 UNL     1       2.176 -28.038   6.296  1.00  0.00     0.004 C 
HETATM   35  C27 UNL     1       1.194 -27.822   5.171  1.00  0.00     0.012 C 
ENDBRANCH  27  29
ENDBRANCH  25  27
ENDBRANCH  24  25
ENDBRANCH   1  24
BRANCH   3  36
HETATM   36  C7  UNL     1      -5.828 -30.866   8.450  1.00  0.00     0.434 C 
HETATM   37  F1  UNL     1      -6.885 -30.872   7.563  1.00  0.00    -0.165 F 
HETATM   38  F2  UNL     1      -6.321 -30.719   9.795  1.00  0.00    -0.165 F 
HETATM   39  F3  UNL     1      -5.032 -31.981   8.439  1.00  0.00    -0.165 F 
ENDBRANCH   3  36
TORSDOF 8
ENDMDL
MODEL 3
REMARK VINA RESULT: -8.496624366      0.884      1.039
REMARK  8 active torsions:
REMARK  status: ('A' for Active; 'I' for Inactive)
REMARK    1  A    between atoms: C2_2  and  C3_3 
REMARK    2  A    between atoms: C2_2  and  N4_31 
REMARK    3  A    between atoms: C3_3  and  C4_4 
REMARK    4  A    between atoms: C6_6  and  C7_7 
REMARK    5  A    between atoms: N2_13  and  C8_14 
REMARK    6  A    between atoms: C12_18  and  C13_19 
REMARK    7  A    between atoms: C19_25  and  N3_26 
REMARK    8  A    between atoms: N4_31  and  C21_33 
ROOT
HETATM    1  C4  UNL     1      -6.283 -28.410   9.931  1.00  0.00     0.038 A 
HETATM    2  C5  UNL     1      -7.296 -28.855  10.736  1.00  0.00     0.063 A 
HETATM    3  C6  UNL     1      -7.569 -30.169  10.396  1.00  0.00     0.134 A 
HETATM    4  N1  UNL     1      -6.761 -30.470   9.418  1.00  0.00    -0.289 N 
ATOM      5  H1  UNL     1      -6.726 -31.369   8.939  1.00  0.00     0.187 HD
HETATM    6  N2  UNL     1      -5.971 -29.397   9.134  1.00  0.00    -0.260 N 
ENDROOT
BRANCH   6   7
HETATM    7  C8  UNL     1      -4.982 -29.646   8.117  1.00  0.00     0.057 A 
HETATM    8  C9  UNL     1      -5.436 -29.813   6.838  1.00  0.00     0.031 A 
HETATM    9  C10 UNL     1      -4.577 -29.802   5.763  1.00  0.00     0.003 A 
HETATM   10  C11 UNL     1      -3.219 -29.617   6.015  1.00  0.00     0.007 A 
HETATM   11  C12 UNL     1      -2.730 -29.462   7.272  1.00  0.00    -0.050 A 
HETATM   12  C20 UNL     1      -3.625 -29.481   8.307  1.00  0.00     0.039 A 
BRANCH  11  13
HETATM   13  C13 UNL     1      -1.309 -29.121   7.585  1.00  0.00     0.049 C 
HETATM   14  C14 UNL     1      -1.399 -27.805   8.412  1.00  0.00     0.011 C 
HETATM   15  C15 UNL     1      -0.085 -27.069   8.436  1.00  0.00     0.001 C 
HETATM   16  C16 UNL     1       1.084 -27.910   8.066  1.00  0.00     0.006 C 
HETATM   17  C17 UNL     1       0.912 -28.558   6.715  1.00  0.00     0.013 C 
HETATM   18  C18 UNL     1       1.697 -27.850   5.641  1.00  0.00     0.012 C 
HETATM   19  C19 UNL     1      -0.525 -28.760   6.340  1.00  0.00     0.195 C 
BRANCH  19  20
HETATM   20  N3  UNL     1      -1.024 -27.552   5.724  1.00  0.00    -0.074 N 
ATOM     21  H33 UNL     1      -2.039 -27.485   5.805  1.00  0.00     0.274 HD
ATOM     22  H32 UNL     1      -0.767 -26.726   6.264  1.00  0.00     0.274 HD
ATOM     23  H31 UNL     1      -0.723 -27.470   4.753  1.00  0.00     0.274 HD
ENDBRANCH  19  20
ENDBRANCH  11  13
ENDBRANCH   6   7
BRANCH   1  24
HETATM   24  C3  UNL     1      -5.702 -27.041   9.920  1.00  0.00     0.083 C 
BRANCH  24  25
HETATM   25  C2  UNL     1      -6.287 -26.320   8.648  1.00  0.00     0.078 C 
HETATM   26  C1  UNL     1      -5.184 -25.969   7.720  1.00  0.00     0.032 C 
BRANCH  25  27
HETATM   27  N4  UNL     1      -7.174 -25.307   9.104  1.00  0.00    -0.413 N 
ATOM     28  H4  UNL     1      -7.333 -25.153  10.100  1.00  0.00     0.154 HD
BRANCH  27  29
HETATM   29  C21 UNL     1      -7.822 -24.526   8.138  1.00  0.00     0.080 C 
HETATM   30  C22 UNL     1      -9.173 -24.949   7.792  1.00  0.00     0.025 C 
HETATM   31  C23 UNL     1     -10.040 -23.790   7.262  1.00  0.00     0.002 C 
HETATM   32  C24 UNL     1     -10.014 -22.576   8.129  1.00  0.00     0.001 C 
HETATM   33  C25 UNL     1      -9.009 -22.728   9.275  1.00  0.00     0.006 C 
HETATM   34  C26 UNL     1      -7.701 -23.069   8.613  1.00  0.00     0.004 C 
HETATM   35  C27 UNL     1      -6.567 -22.921   9.597  1.00  0.00     0.012 C 
ENDBRANCH  27  29
ENDBRANCH  25  27
ENDBRANCH  24  25
ENDBRANCH   1  24
BRANCH   3  36
HETATM   36  C7  UNL     1      -8.493 -31.134  11.116  1.00  0.00     0.434 C 
HETATM   37  F1  UNL     1      -9.337 -30.440  11.958  1.00  0.00    -0.165 F 
HETATM   38  F2  UNL     1      -7.641 -32.003  11.886  1.00  0.00    -0.165 F 
HETATM   39  F3  UNL     1      -9.102 -31.914  10.168  1.00  0.00    -0.165 F 
ENDBRANCH   3  36
TORSDOF 8
ENDMDL
MODEL 4
REMARK VINA RESULT: -8.481360597      3.254      5.440
REMARK  8 active torsions:
REMARK  status: ('A' for Active; 'I' for Inactive)
REMARK    1  A    between atoms: C2_2  and  C3_3 
REMARK    2  A    between atoms: C2_2  and  N4_31 
REMARK    3  A    between atoms: C3_3  and  C4_4 
REMARK    4  A    between atoms: C6_6  and  C7_7 
REMARK    5  A    between atoms: N2_13  and  C8_14 
REMARK    6  A    between atoms: C12_18  and  C13_19 
REMARK    7  A    between atoms: C19_25  and  N3_26 
REMARK    8  A    between atoms: N4_31  and  C21_33 
ROOT
HETATM    1  C4  UNL     1      -2.450 -27.364   6.761  1.00  0.00     0.038 A 
HETATM    2  C5  UNL     1      -3.315 -28.033   5.938  1.00  0.00     0.063 A 
HETATM    3  C6  UNL     1      -2.748 -29.256   5.624  1.00  0.00     0.134 A 
HETATM    4  N1  UNL     1      -1.590 -29.288   6.222  1.00  0.00    -0.289 N 
ATOM      5  H1  UNL     1      -0.924 -30.059   6.174  1.00  0.00     0.187 HD
HETATM    6  N2  UNL     1      -1.407 -28.134   6.922  1.00  0.00    -0.260 N 
ENDROOT
BRANCH   6   7
HETATM    7  C8  UNL     1      -0.189 -28.096   7.689  1.00  0.00     0.057 A 
HETATM    8  C9  UNL     1      -0.280 -27.645   8.977  1.00  0.00     0.031 A 
HETATM    9  C10 UNL     1       0.755 -27.805   9.869  1.00  0.00     0.003 A 
HETATM   10  C11 UNL     1       1.910 -28.442   9.421  1.00  0.00     0.007 A 
HETATM   11  C12 UNL     1       2.042 -28.891   8.147  1.00  0.00    -0.050 A 
HETATM   12  C20 UNL     1       0.985 -28.708   7.298  1.00  0.00     0.039 A 
BRANCH  11  13
HETATM   13  C13 UNL     1       3.197 -29.702   7.657  1.00  0.00     0.049 C 
HETATM   14  C14 UNL     1       3.990 -30.070   8.946  1.00  0.00     0.011 C 
HETATM   15  C15 UNL     1       5.402 -30.490   8.634  1.00  0.00     0.001 C 
HETATM   16  C16 UNL     1       5.616 -30.877   7.214  1.00  0.00     0.006 C 
HETATM   17  C17 UNL     1       5.210 -29.783   6.260  1.00  0.00     0.013 C 
HETATM   18  C18 UNL     1       6.398 -29.025   5.726  1.00  0.00     0.012 C 
HETATM   19  C19 UNL     1       4.154 -28.877   6.820  1.00  0.00     0.195 C 
BRANCH  19  20
HETATM   20  N3  UNL     1       4.790 -27.839   7.598  1.00  0.00    -0.074 N 
ATOM     21  H33 UNL     1       4.830 -26.960   7.082  1.00  0.00     0.274 HD
ATOM     22  H32 UNL     1       4.198 -27.542   8.373  1.00  0.00     0.274 HD
ATOM     23  H31 UNL     1       5.715 -28.122   7.922  1.00  0.00     0.274 HD
ENDBRANCH  19  20
ENDBRANCH  11  13
ENDBRANCH   6   7
BRANCH   1  24
HETATM   24  C3  UNL     1      -2.635 -25.993   7.306  1.00  0.00     0.083 C 
BRANCH  24  25
HETATM   25  C2  UNL     1      -4.187 -25.783   7.466  1.00  0.00     0.078 C 
HETATM   26  C1  UNL     1      -4.532 -24.367   7.186  1.00  0.00     0.032 C 
BRANCH  25  27
HETATM   27  N4  UNL     1      -4.570 -26.370   8.703  1.00  0.00    -0.413 N 
ATOM     28  H4  UNL     1      -4.070 -26.157   9.566  1.00  0.00     0.154 HD
BRANCH  27  29
HETATM   29  C21 UNL     1      -5.659 -27.252   8.695  1.00  0.00     0.080 C 
HETATM   30  C22 UNL     1      -5.323 -28.665   8.815  1.00  0.00     0.025 C 
HETATM   31  C23 UNL     1      -6.471 -29.497   9.420  1.00  0.00     0.002 C 
HETATM   32  C24 UNL     1      -7.031 -28.924  10.678  1.00  0.00     0.001 C 
HETATM   33  C25 UNL     1      -6.416 -27.556  10.990  1.00  0.00     0.006 C 
HETATM   34  C26 UNL     1      -6.642 -26.727   9.754  1.00  0.00     0.004 C 
HETATM   35  C27 UNL     1      -6.381 -25.271  10.050  1.00  0.00     0.012 C 
ENDBRANCH  27  29
ENDBRANCH  25  27
ENDBRANCH  24  25
ENDBRANCH   1  24
BRANCH   3  36
HETATM   36  C7  UNL     1      -3.397 -30.409   4.879  1.00  0.00     0.434 C 
HETATM   37  F1  UNL     1      -4.396 -29.935   4.054  1.00  0.00    -0.165 F 
HETATM   38  F2  UNL     1      -3.963 -31.267   5.888  1.00  0.00    -0.165 F 
HETATM   39  F3  UNL     1      -2.402 -31.122   4.265  1.00  0.00    -0.165 F 
ENDBRANCH   3  36
TORSDOF 8
ENDMDL
MODEL 5
REMARK VINA RESULT: -8.449366249      1.931      3.027
REMARK  8 active torsions:
REMARK  status: ('A' for Active; 'I' for Inactive)
REMARK    1  A    between atoms: C2_2  and  C3_3 
REMARK    2  A    between atoms: C2_2  and  N4_31 
REMARK    3  A    between atoms: C3_3  and  C4_4 
REMARK    4  A    between atoms: C6_6  and  C7_7 
REMARK    5  A    between atoms: N2_13  and  C8_14 
REMARK    6  A    between atoms: C12_18  and  C13_19 
REMARK    7  A    between atoms: C19_25  and  N3_26 
REMARK    8  A    between atoms: N4_31  and  C21_33 
ROOT
HETATM    1  C4  UNL     1      -5.514 -27.561   9.423  1.00  0.00     0.038 A 
HETATM    2  C5  UNL     1      -6.356 -28.635   9.323  1.00  0.00     0.063 A 
HETATM    3  C6  UNL     1      -5.625 -29.712   8.854  1.00  0.00     0.134 A 
HETATM    4  N1  UNL     1      -4.410 -29.277   8.669  1.00  0.00    -0.289 N 
ATOM      5  H1  UNL     1      -3.632 -29.835   8.315  1.00  0.00     0.187 HD
HETATM    6  N2  UNL     1      -4.339 -27.963   9.020  1.00  0.00    -0.260 N 
ENDROOT
BRANCH   6   7
HETATM    7  C8  UNL     1      -3.016 -27.399   8.929  1.00  0.00     0.057 A 
HETATM    8  C9  UNL     1      -2.475 -26.898  10.081  1.00  0.00     0.031 A 
HETATM    9  C10 UNL     1      -1.140 -26.573  10.166  1.00  0.00     0.003 A 
HETATM   10  C11 UNL     1      -0.348 -26.769   9.036  1.00  0.00     0.007 A 
HETATM   11  C12 UNL     1      -0.852 -27.252   7.873  1.00  0.00    -0.050 A 
HETATM   12  C20 UNL     1      -2.186 -27.559   7.838  1.00  0.00     0.039 A 
BRANCH  11  13
HETATM   13  C13 UNL     1      -0.024 -27.612   6.682  1.00  0.00     0.049 C 
HETATM   14  C14 UNL     1      -0.692 -28.901   6.120  1.00  0.00     0.011 C 
HETATM   15  C15 UNL     1       0.239 -29.663   5.212  1.00  0.00     0.001 C 
HETATM   16  C16 UNL     1       1.382 -28.856   4.708  1.00  0.00     0.006 C 
HETATM   17  C17 UNL     1       2.185 -28.245   5.827  1.00  0.00     0.013 C 
HETATM   18  C18 UNL     1       3.462 -28.999   6.089  1.00  0.00     0.012 C 
HETATM   19  C19 UNL     1       1.380 -28.025   7.074  1.00  0.00     0.195 C 
BRANCH  19  20
HETATM   20  N3  UNL     1       1.384 -29.240   7.855  1.00  0.00    -0.074 N 
ATOM     21  H33 UNL     1       2.211 -29.297   8.450  1.00  0.00     0.274 HD
ATOM     22  H32 UNL     1       0.667 -29.217   8.580  1.00  0.00     0.274 HD
ATOM     23  H31 UNL     1       1.291 -30.069   7.267  1.00  0.00     0.274 HD
ENDBRANCH  19  20
ENDBRANCH  11  13
ENDBRANCH   6   7
BRANCH   1  24
HETATM   24  C3  UNL     1      -5.887 -26.184   9.842  1.00  0.00     0.083 C 
BRANCH  24  25
HETATM   25  C2  UNL     1      -6.468 -25.472   8.563  1.00  0.00     0.078 C 
HETATM   26  C1  UNL     1      -5.374 -24.790   7.829  1.00  0.00     0.032 C 
BRANCH  25  27
HETATM   27  N4  UNL     1      -7.612 -24.732   8.971  1.00  0.00    -0.413 N 
ATOM     28  H4  UNL     1      -7.917 -24.725   9.944  1.00  0.00     0.154 HD
BRANCH  27  29
HETATM   29  C21 UNL     1      -8.305 -24.012   7.989  1.00  0.00     0.080 C 
HETATM   30  C22 UNL     1      -9.593 -24.568   7.595  1.00  0.00     0.025 C 
HETATM   31  C23 UNL     1     -10.557 -23.499   7.044  1.00  0.00     0.002 C 
HETATM   32  C24 UNL     1     -10.685 -22.297   7.920  1.00  0.00     0.001 C 
HETATM   33  C25 UNL     1      -9.708 -22.358   9.098  1.00  0.00     0.006 C 
HETATM   34  C26 UNL     1      -8.351 -22.555   8.478  1.00  0.00     0.004 C 
HETATM   35  C27 UNL     1      -7.271 -22.302   9.501  1.00  0.00     0.012 C 
ENDBRANCH  27  29
ENDBRANCH  25  27
ENDBRANCH  24  25
ENDBRANCH   1  24
BRANCH   3  36
HETATM   36  C7  UNL     1      -6.080 -31.155   8.737  1.00  0.00     0.434 C 
HETATM   37  F1  UNL     1      -4.986 -31.994   8.699  1.00  0.00    -0.165 F 
HETATM   38  F2  UNL     1      -6.808 -31.245   7.498  1.00  0.00    -0.165 F 
HETATM   39  F3  UNL     1      -6.980 -31.392   9.743  1.00  0.00    -0.165 F 
ENDBRANCH   3  36
TORSDOF 8
ENDMDL
