MODEL 1
REMARK VINA RESULT: -9.423302052      0.000      0.000
REMARK  9 active torsions:
REMARK  status: ('A' for Active; 'I' for Inactive)
REMARK    1  A    between atoms: C2_2  and  C5_5 
REMARK    2  A    between atoms: C5_5  and  C6_6 
REMARK    3  A    between atoms: C6_6  and  N1_7 
REMARK    4  A    between atoms: N1_7  and  C7_9 
REMARK    5  A    between atoms: C7_9  and  C8_10 
REMARK    6  A    between atoms: C8_10  and  C9_11 
REMARK    7  A    between atoms: C12_14  and  N2_15 
REMARK    8  A    between atoms: N2_15  and  C13_17 
REMARK    9  A    between atoms: C25_33  and  C26_34 
ROOT
HETATM    1  C9  UNL     1      -2.139 -29.763   5.893  1.00  0.00    -0.013 C 
HETATM    2  C10 UNL     1      -2.539 -28.302   5.775  1.00  0.00     0.007 C 
HETATM    3  C11 UNL     1      -4.040 -28.187   5.603  1.00  0.00     0.025 C 
HETATM    4  C12 UNL     1      -4.737 -28.988   6.683  1.00  0.00     0.083 C 
HETATM    5  C21 UNL     1      -4.371 -30.457   6.594  1.00  0.00     0.025 C 
HETATM    6  C22 UNL     1      -3.281 -30.655   5.539  1.00  0.00     0.007 C 
ENDROOT
BRANCH   1   7
HETATM    7  C8  UNL     1      -0.901 -29.948   5.077  1.00  0.00     0.024 C 
BRANCH   7   8
HETATM    8  C7  UNL     1       0.149 -28.860   5.310  1.00  0.00     0.115 C 
BRANCH   8   9
HETATM    9  N1  UNL     1       1.005 -29.331   6.324  1.00  0.00    -0.412 N 
ATOM     10  H1  UNL     1       1.277 -30.313   6.374  1.00  0.00     0.154 HD
BRANCH   9  11
HETATM   11  C6  UNL     1       1.485 -28.366   7.296  1.00  0.00     0.026 C 
HETATM   12  C23 UNL     1       2.052 -29.165   8.449  1.00  0.00     0.031 C 
HETATM   13  C24 UNL     1       3.246 -29.875   7.810  1.00  0.00     0.012 C 
HETATM   14  C25 UNL     1       3.622 -29.033   6.610  1.00  0.00     0.053 C 
HETATM   15  C27 UNL     1       2.725 -27.797   6.635  1.00  0.00     0.040 C 
BRANCH  11  16
HETATM   16  C5  UNL     1       0.428 -27.445   7.614  1.00  0.00     0.038 C 
BRANCH  16  17
HETATM   17  C2  UNL     1      -0.410 -27.523   8.823  1.00  0.00    -0.049 C 
HETATM   18  C1  UNL     1      -1.498 -26.442   8.559  1.00  0.00     0.014 C 
HETATM   19  C3  UNL     1      -1.202 -28.758   9.052  1.00  0.00     0.014 C 
HETATM   20  C4  UNL     1       0.290 -27.033  10.082  1.00  0.00     0.014 C 
ENDBRANCH  16  17
ENDBRANCH  11  16
BRANCH  14  21
HETATM   21  C26 UNL     1       5.074 -28.645   6.759  1.00  0.00     0.357 C 
HETATM   22  F1  UNL     1       5.309 -27.360   6.299  1.00  0.00    -0.214 F 
HETATM   23  F2  UNL     1       5.808 -29.561   6.022  1.00  0.00    -0.214 F 
ENDBRANCH  14  21
ENDBRANCH   9  11
ENDBRANCH   8   9
ENDBRANCH   7   8
ENDBRANCH   1   7
BRANCH   4  24
HETATM   24  N2  UNL     1      -4.447 -28.460   7.985  1.00  0.00    -0.371 N 
ATOM     25  H2  UNL     1      -3.750 -28.934   8.560  1.00  0.00     0.161 HD
BRANCH  24  26
HETATM   26  C13 UNL     1      -5.020 -27.428   8.453  1.00  0.00     0.117 A 
HETATM   27  C14 UNL     1      -5.619 -27.558   9.717  1.00  0.00     0.136 A 
HETATM   28  N3  UNL     1      -6.242 -26.522  10.282  1.00  0.00    -0.361 N 
HETATM   29  C15 UNL     1      -6.295 -25.332   9.622  1.00  0.00     0.059 A 
ATOM     30  H3  UNL     1      -6.675 -26.621  11.201  1.00  0.00     0.165 HD
HETATM   31  C16 UNL     1      -6.946 -24.277  10.227  1.00  0.00     0.032 A 
HETATM   32  C20 UNL     1      -5.722 -25.170   8.386  1.00  0.00     0.060 A 
HETATM   33  C17 UNL     1      -7.040 -23.045   9.622  1.00  0.00     0.002 A 
HETATM   34  C18 UNL     1      -6.465 -22.887   8.384  1.00  0.00     0.002 A 
HETATM   35  C19 UNL     1      -5.808 -23.945   7.768  1.00  0.00     0.032 A 
HETATM   36  N4  UNL     1      -5.100 -26.235   7.843  1.00  0.00    -0.340 N 
ATOM     37  H4  UNL     1      -4.669 -26.129   6.924  1.00  0.00     0.167 HD
ENDBRANCH  24  26
ENDBRANCH   4  24
TORSDOF 9
ENDMDL
MODEL 2
REMARK VINA RESULT: -9.156775661      2.300      4.516
REMARK  9 active torsions:
REMARK  status: ('A' for Active; 'I' for Inactive)
REMARK    1  A    between atoms: C2_2  and  C5_5 
REMARK    2  A    between atoms: C5_5  and  C6_6 
REMARK    3  A    between atoms: C6_6  and  N1_7 
REMARK    4  A    between atoms: N1_7  and  C7_9 
REMARK    5  A    between atoms: C7_9  and  C8_10 
REMARK    6  A    between atoms: C8_10  and  C9_11 
REMARK    7  A    between atoms: C12_14  and  N2_15 
REMARK    8  A    between atoms: N2_15  and  C13_17 
REMARK    9  A    between atoms: C25_33  and  C26_34 
ROOT
HETATM    1  C9  UNL     1      -0.945 -27.368   8.684  1.00  0.00    -0.013 C 
HETATM    2  C10 UNL     1      -2.020 -28.029   9.530  1.00  0.00     0.007 C 
HETATM    3  C11 UNL     1      -3.281 -27.189   9.517  1.00  0.00     0.025 C 
HETATM    4  C12 UNL     1      -3.660 -26.865   8.087  1.00  0.00     0.083 C 
HETATM    5  C21 UNL     1      -2.565 -26.071   7.400  1.00  0.00     0.025 C 
HETATM    6  C22 UNL     1      -1.342 -25.979   8.315  1.00  0.00     0.007 C 
ENDROOT
BRANCH   1   7
HETATM    7  C8  UNL     1       0.342 -27.493   9.430  1.00  0.00     0.024 C 
BRANCH   7   8
HETATM    8  C7  UNL     1       1.014 -28.857   9.261  1.00  0.00     0.115 C 
BRANCH   8   9
HETATM    9  N1  UNL     1       2.182 -28.645   8.503  1.00  0.00    -0.412 N 
ATOM     10  H1  UNL     1       2.894 -27.979   8.803  1.00  0.00     0.154 HD
BRANCH   9  11
HETATM   11  C6  UNL     1       2.333 -29.409   7.279  1.00  0.00     0.026 C 
HETATM   12  C23 UNL     1       3.255 -28.609   6.385  1.00  0.00     0.031 C 
HETATM   13  C24 UNL     1       4.574 -28.628   7.160  1.00  0.00     0.012 C 
HETATM   14  C25 UNL     1       4.499 -29.847   8.054  1.00  0.00     0.053 C 
HETATM   15  C27 UNL     1       3.203 -30.576   7.706  1.00  0.00     0.040 C 
BRANCH  11  16
HETATM   16  C5  UNL     1       1.034 -29.718   6.747  1.00  0.00     0.038 C 
BRANCH  16  17
HETATM   17  C2  UNL     1       0.531 -29.240   5.448  1.00  0.00    -0.049 C 
HETATM   18  C1  UNL     1      -1.014 -29.301   5.633  1.00  0.00     0.014 C 
HETATM   19  C3  UNL     1       0.776 -27.823   5.076  1.00  0.00     0.014 C 
HETATM   20  C4  UNL     1       0.797 -30.202   4.300  1.00  0.00     0.014 C 
ENDBRANCH  16  17
ENDBRANCH  11  16
BRANCH  14  21
HETATM   21  C26 UNL     1       5.699 -30.712   7.750  1.00  0.00     0.357 C 
HETATM   22  F1  UNL     1       6.516 -30.860   8.859  1.00  0.00    -0.214 F 
HETATM   23  F2  UNL     1       6.391 -30.088   6.723  1.00  0.00    -0.214 F 
ENDBRANCH  14  21
ENDBRANCH   9  11
ENDBRANCH   8   9
ENDBRANCH   7   8
ENDBRANCH   1   7
BRANCH   4  24
HETATM   24  N2  UNL     1      -3.971 -28.058   7.353  1.00  0.00    -0.371 N 
ATOM     25  H2  UNL     1      -3.497 -28.223   6.466  1.00  0.00     0.161 HD
BRANCH  24  26
HETATM   26  C13 UNL     1      -4.813 -28.917   7.762  1.00  0.00     0.117 A 
HETATM   27  C14 UNL     1      -5.018 -30.038   6.941  1.00  0.00     0.136 A 
HETATM   28  N3  UNL     1      -5.884 -30.990   7.295  1.00  0.00    -0.361 N 
HETATM   29  C15 UNL     1      -6.572 -30.865   8.464  1.00  0.00     0.059 A 
ATOM     30  H3  UNL     1      -6.030 -31.802   6.696  1.00  0.00     0.165 HD
HETATM   31  C16 UNL     1      -7.462 -31.862   8.807  1.00  0.00     0.032 A 
HETATM   32  C20 UNL     1      -6.397 -29.784   9.289  1.00  0.00     0.060 A 
HETATM   33  C17 UNL     1      -8.193 -31.806   9.972  1.00  0.00     0.002 A 
HETATM   34  C18 UNL     1      -8.015 -30.720  10.795  1.00  0.00     0.002 A 
HETATM   35  C19 UNL     1      -7.120 -29.713  10.457  1.00  0.00     0.032 A 
HETATM   36  N4  UNL     1      -5.515 -28.841   8.903  1.00  0.00    -0.340 N 
ATOM     37  H4  UNL     1      -5.374 -28.031   9.508  1.00  0.00     0.167 HD
ENDBRANCH  24  26
ENDBRANCH   4  24
TORSDOF 9
ENDMDL
MODEL 3
REMARK VINA RESULT: -9.129992721      1.679      2.791
REMARK  9 active torsions:
REMARK  status: ('A' for Active; 'I' for Inactive)
REMARK    1  A    between atoms: C2_2  and  C5_5 
REMARK    2  A    between atoms: C5_5  and  C6_6 
REMARK    3  A    between atoms: C6_6  and  N1_7 
REMARK    4  A    between atoms: N1_7  and  C7_9 
REMARK    5  A    between atoms: C7_9  and  C8_10 
REMARK    6  A    between atoms: C8_10  and  C9_11 
REMARK    7  A    between atoms: C12_14  and  N2_15 
REMARK    8  A    between atoms: N2_15  and  C13_17 
REMARK    9  A    between atoms: C25_33  and  C26_34 
ROOT
HETATM    1  C9  UNL     1      -1.975 -29.751   5.705  1.00  0.00    -0.013 C 
HETATM    2  C10 UNL     1      -2.292 -28.269   5.814  1.00  0.00     0.007 C 
HETATM    3  C11 UNL     1      -3.776 -28.039   5.606  1.00  0.00     0.025 C 
HETATM    4  C12 UNL     1      -4.564 -28.961   6.513  1.00  0.00     0.083 C 
HETATM    5  C21 UNL     1      -4.271 -30.416   6.198  1.00  0.00     0.025 C 
HETATM    6  C22 UNL     1      -3.144 -30.504   5.166  1.00  0.00     0.007 C 
ENDROOT
BRANCH   1   7
HETATM    7  C8  UNL     1      -0.712 -29.874   4.917  1.00  0.00     0.024 C 
BRANCH   7   8
HETATM    8  C7  UNL     1       0.324 -28.801   5.258  1.00  0.00     0.115 C 
BRANCH   8   9
HETATM    9  N1  UNL     1       1.114 -29.316   6.305  1.00  0.00    -0.412 N 
ATOM     10  H1  UNL     1       1.338 -30.310   6.360  1.00  0.00     0.154 HD
BRANCH   9  11
HETATM   11  C6  UNL     1       1.595 -28.379   7.303  1.00  0.00     0.026 C 
HETATM   12  C23 UNL     1       2.172 -29.210   8.429  1.00  0.00     0.031 C 
HETATM   13  C24 UNL     1       3.365 -29.896   7.762  1.00  0.00     0.012 C 
HETATM   14  C25 UNL     1       3.731 -29.017   6.585  1.00  0.00     0.053 C 
HETATM   15  C27 UNL     1       2.829 -27.785   6.652  1.00  0.00     0.040 C 
BRANCH  11  16
HETATM   16  C5  UNL     1       0.536 -27.472   7.654  1.00  0.00     0.038 C 
BRANCH  16  17
HETATM   17  C2  UNL     1      -0.330 -27.620   8.836  1.00  0.00    -0.049 C 
HETATM   18  C1  UNL     1      -1.493 -26.629   8.538  1.00  0.00     0.014 C 
HETATM   19  C3  UNL     1      -1.027 -28.915   9.041  1.00  0.00     0.014 C 
HETATM   20  C4  UNL     1       0.288 -27.078  10.116  1.00  0.00     0.014 C 
ENDBRANCH  16  17
ENDBRANCH  11  16
BRANCH  14  21
HETATM   21  C26 UNL     1       5.182 -28.628   6.738  1.00  0.00     0.357 C 
HETATM   22  F1  UNL     1       5.423 -27.354   6.250  1.00  0.00    -0.214 F 
HETATM   23  F2  UNL     1       5.921 -29.562   6.029  1.00  0.00    -0.214 F 
ENDBRANCH  14  21
ENDBRANCH   9  11
ENDBRANCH   8   9
ENDBRANCH   7   8
ENDBRANCH   1   7
BRANCH   4  24
HETATM   24  N2  UNL     1      -4.308 -28.670   7.894  1.00  0.00    -0.371 N 
ATOM     25  H2  UNL     1      -3.353 -28.453   8.178  1.00  0.00     0.161 HD
BRANCH  24  26
HETATM   26  C13 UNL     1      -5.220 -28.671   8.778  1.00  0.00     0.117 A 
HETATM   27  C14 UNL     1      -5.505 -27.440   9.390  1.00  0.00     0.136 A 
HETATM   28  N3  UNL     1      -6.450 -27.351  10.329  1.00  0.00    -0.361 N 
HETATM   29  C15 UNL     1      -7.139 -28.468  10.691  1.00  0.00     0.059 A 
ATOM     30  H3  UNL     1      -6.653 -26.454  10.771  1.00  0.00     0.165 HD
HETATM   31  C16 UNL     1      -8.110 -28.350  11.664  1.00  0.00     0.032 A 
HETATM   32  C20 UNL     1      -6.887 -29.686  10.114  1.00  0.00     0.060 A 
HETATM   33  C17 UNL     1      -8.848 -29.434  12.081  1.00  0.00     0.002 A 
HETATM   34  C18 UNL     1      -8.591 -30.653  11.501  1.00  0.00     0.002 A 
HETATM   35  C19 UNL     1      -7.616 -30.780  10.520  1.00  0.00     0.032 A 
HETATM   36  N4  UNL     1      -5.927 -29.743   9.169  1.00  0.00    -0.340 N 
ATOM     37  H4  UNL     1      -5.729 -30.643   8.731  1.00  0.00     0.167 HD
ENDBRANCH  24  26
ENDBRANCH   4  24
TORSDOF 9
ENDMDL
MODEL 4
REMARK VINA RESULT: -9.103690931      1.980      3.942
REMARK  9 active torsions:
REMARK  status: ('A' for Active; 'I' for Inactive)
REMARK    1  A    between atoms: C2_2  and  C5_5 
REMARK    2  A    between atoms: C5_5  and  C6_6 
REMARK    3  A    between atoms: C6_6  and  N1_7 
REMARK    4  A    between atoms: N1_7  and  C7_9 
REMARK    5  A    between atoms: C7_9  and  C8_10 
REMARK    6  A    between atoms: C8_10  and  C9_11 
REMARK    7  A    between atoms: C12_14  and  N2_15 
REMARK    8  A    between atoms: N2_15  and  C13_17 
REMARK    9  A    between atoms: C25_33  and  C26_34 
ROOT
HETATM    1  C9  UNL     1      -1.151 -27.808   9.100  1.00  0.00    -0.013 C 
HETATM    2  C10 UNL     1      -1.502 -26.717   8.104  1.00  0.00     0.007 C 
HETATM    3  C11 UNL     1      -2.378 -27.282   7.003  1.00  0.00     0.025 C 
HETATM    4  C12 UNL     1      -3.543 -28.030   7.616  1.00  0.00     0.083 C 
HETATM    5  C21 UNL     1      -3.060 -29.189   8.466  1.00  0.00     0.025 C 
HETATM    6  C22 UNL     1      -1.534 -29.150   8.574  1.00  0.00     0.007 C 
ENDROOT
BRANCH   1   7
HETATM    7  C8  UNL     1       0.292 -27.641   9.446  1.00  0.00     0.024 C 
BRANCH   7   8
HETATM    8  C7  UNL     1       1.115 -28.917   9.256  1.00  0.00     0.115 C 
BRANCH   8   9
HETATM    9  N1  UNL     1       2.202 -28.580   8.425  1.00  0.00    -0.412 N 
ATOM     10  H1  UNL     1       2.828 -27.809   8.658  1.00  0.00     0.154 HD
BRANCH   9  11
HETATM   11  C6  UNL     1       2.397 -29.372   7.225  1.00  0.00     0.026 C 
HETATM   12  C23 UNL     1       3.377 -28.608   6.361  1.00  0.00     0.031 C 
HETATM   13  C24 UNL     1       4.656 -28.636   7.199  1.00  0.00     0.012 C 
HETATM   14  C25 UNL     1       4.514 -29.835   8.112  1.00  0.00     0.053 C 
HETATM   15  C27 UNL     1       3.221 -30.546   7.716  1.00  0.00     0.040 C 
BRANCH  11  16
HETATM   16  C5  UNL     1       1.119 -29.666   6.636  1.00  0.00     0.038 C 
BRANCH  16  17
HETATM   17  C2  UNL     1       0.722 -29.282   5.271  1.00  0.00    -0.049 C 
HETATM   18  C1  UNL     1      -0.781 -29.684   5.223  1.00  0.00     0.014 C 
HETATM   19  C3  UNL     1       0.702 -27.838   4.923  1.00  0.00     0.014 C 
HETATM   20  C4  UNL     1       1.361 -30.137   4.187  1.00  0.00     0.014 C 
ENDBRANCH  16  17
ENDBRANCH  11  16
BRANCH  14  21
HETATM   21  C26 UNL     1       5.709 -30.729   7.883  1.00  0.00     0.357 C 
HETATM   22  F1  UNL     1       6.587 -30.692   8.955  1.00  0.00    -0.214 F 
HETATM   23  F2  UNL     1       6.335 -30.272   6.734  1.00  0.00    -0.214 F 
ENDBRANCH  14  21
ENDBRANCH   9  11
ENDBRANCH   8   9
ENDBRANCH   7   8
ENDBRANCH   1   7
BRANCH   4  24
HETATM   24  N2  UNL     1      -4.382 -27.147   8.375  1.00  0.00    -0.371 N 
ATOM     25  H2  UNL     1      -4.243 -26.141   8.281  1.00  0.00     0.161 HD
BRANCH  24  26
HETATM   26  C13 UNL     1      -5.289 -27.566   9.159  1.00  0.00     0.117 A 
HETATM   27  C14 UNL     1      -5.820 -26.632  10.064  1.00  0.00     0.136 A 
HETATM   28  N3  UNL     1      -6.777 -26.987  10.923  1.00  0.00    -0.361 N 
HETATM   29  C15 UNL     1      -7.238 -28.268  10.917  1.00  0.00     0.059 A 
ATOM     30  H3  UNL     1      -7.160 -26.305  11.578  1.00  0.00     0.165 HD
HETATM   31  C16 UNL     1      -8.228 -28.611  11.815  1.00  0.00     0.032 A 
HETATM   32  C20 UNL     1      -6.743 -29.206  10.048  1.00  0.00     0.060 A 
HETATM   33  C17 UNL     1      -8.744 -29.885  11.868  1.00  0.00     0.002 A 
HETATM   34  C18 UNL     1      -8.244 -30.822  10.996  1.00  0.00     0.002 A 
HETATM   35  C19 UNL     1      -7.248 -30.485  10.088  1.00  0.00     0.032 A 
HETATM   36  N4  UNL     1      -5.777 -28.816   9.193  1.00  0.00    -0.340 N 
ATOM     37  H4  UNL     1      -5.399 -29.503   8.540  1.00  0.00     0.167 HD
ENDBRANCH  24  26
ENDBRANCH   4  24
TORSDOF 9
ENDMDL
MODEL 5
REMARK VINA RESULT: -9.000378865      1.654      3.126
REMARK  9 active torsions:
REMARK  status: ('A' for Active; 'I' for Inactive)
REMARK    1  A    between atoms: C2_2  and  C5_5 
REMARK    2  A    between atoms: C5_5  and  C6_6 
REMARK    3  A    between atoms: C6_6  and  N1_7 
REMARK    4  A    between atoms: N1_7  and  C7_9 
REMARK    5  A    between atoms: C7_9  and  C8_10 
REMARK    6  A    between atoms: C8_10  and  C9_11 
REMARK    7  A    between atoms: C12_14  and  N2_15 
REMARK    8  A    between atoms: N2_15  and  C13_17 
REMARK    9  A    between atoms: C25_33  and  C26_34 
ROOT
HETATM    1  C9  UNL     1      -1.256 -27.378   9.260  1.00  0.00    -0.013 C 
HETATM    2  C10 UNL     1      -1.764 -26.302   8.316  1.00  0.00     0.007 C 
HETATM    3  C11 UNL     1      -2.931 -26.830   7.507  1.00  0.00     0.025 C 
HETATM    4  C12 UNL     1      -3.957 -27.442   8.437  1.00  0.00     0.083 C 
HETATM    5  C21 UNL     1      -3.365 -28.604   9.212  1.00  0.00     0.025 C 
HETATM    6  C22 UNL     1      -1.864 -28.700   8.933  1.00  0.00     0.007 C 
ENDROOT
BRANCH   1   7
HETATM    7  C8  UNL     1       0.236 -27.329   9.223  1.00  0.00     0.024 C 
BRANCH   7   8
HETATM    8  C7  UNL     1       0.889 -28.712   9.186  1.00  0.00     0.115 C 
BRANCH   8   9
HETATM    9  N1  UNL     1       2.098 -28.572   8.476  1.00  0.00    -0.412 N 
ATOM     10  H1  UNL     1       2.827 -27.933   8.792  1.00  0.00     0.154 HD
BRANCH   9  11
HETATM   11  C6  UNL     1       2.265 -29.372   7.276  1.00  0.00     0.026 C 
HETATM   12  C23 UNL     1       3.201 -28.600   6.373  1.00  0.00     0.031 C 
HETATM   13  C24 UNL     1       4.509 -28.599   7.167  1.00  0.00     0.012 C 
HETATM   14  C25 UNL     1       4.418 -29.791   8.094  1.00  0.00     0.053 C 
HETATM   15  C27 UNL     1       3.125 -30.527   7.749  1.00  0.00     0.040 C 
BRANCH  11  16
HETATM   16  C5  UNL     1       0.972 -29.693   6.734  1.00  0.00     0.038 C 
BRANCH  16  17
HETATM   17  C2  UNL     1       0.494 -29.263   5.410  1.00  0.00    -0.049 C 
HETATM   18  C1  UNL     1      -1.052 -29.379   5.547  1.00  0.00     0.014 C 
HETATM   19  C3  UNL     1       0.698 -27.846   5.014  1.00  0.00     0.014 C 
HETATM   20  C4  UNL     1       0.833 -30.238   4.293  1.00  0.00     0.014 C 
ENDBRANCH  16  17
ENDBRANCH  11  16
BRANCH  14  21
HETATM   21  C26 UNL     1       5.621 -30.667   7.832  1.00  0.00     0.357 C 
HETATM   22  F1  UNL     1       6.433 -30.767   8.950  1.00  0.00    -0.214 F 
HETATM   23  F2  UNL     1       6.316 -30.086   6.783  1.00  0.00    -0.214 F 
ENDBRANCH  14  21
ENDBRANCH   9  11
ENDBRANCH   8   9
ENDBRANCH   7   8
ENDBRANCH   1   7
BRANCH   4  24
HETATM   24  N2  UNL     1      -4.504 -26.455   9.324  1.00  0.00    -0.371 N 
ATOM     25  H2  UNL     1      -4.050 -26.303  10.225  1.00  0.00     0.161 HD
BRANCH  24  26
HETATM   26  C13 UNL     1      -5.528 -25.762   9.035  1.00  0.00     0.117 A 
HETATM   27  C14 UNL     1      -6.763 -26.235   9.508  1.00  0.00     0.136 A 
HETATM   28  N3  UNL     1      -7.890 -25.568   9.251  1.00  0.00    -0.361 N 
HETATM   29  C15 UNL     1      -7.835 -24.421   8.520  1.00  0.00     0.059 A 
ATOM     30  H3  UNL     1      -8.784 -25.916   9.597  1.00  0.00     0.165 HD
HETATM   31  C16 UNL     1      -9.013 -23.750   8.267  1.00  0.00     0.032 A 
HETATM   32  C20 UNL     1      -6.646 -23.930   8.041  1.00  0.00     0.060 A 
HETATM   33  C17 UNL     1      -9.037 -22.584   7.536  1.00  0.00     0.002 A 
HETATM   34  C18 UNL     1      -7.844 -22.096   7.058  1.00  0.00     0.002 A 
HETATM   35  C19 UNL     1      -6.653 -22.765   7.310  1.00  0.00     0.032 A 
HETATM   36  N4  UNL     1      -5.526 -24.626   8.319  1.00  0.00    -0.340 N 
ATOM     37  H4  UNL     1      -4.635 -24.273   7.970  1.00  0.00     0.167 HD
ENDBRANCH  24  26
ENDBRANCH   4  24
TORSDOF 9
ENDMDL
