MODEL 1
REMARK VINA RESULT: -8.982858052      0.000      0.000
REMARK  8 active torsions:
REMARK  status: ('A' for Active; 'I' for Inactive)
REMARK    1  A    between atoms: C7_7  and  C8_8 
REMARK    2  A    between atoms: C8_8  and  C9_9 
REMARK    3  A    between atoms: C13_13  and  N1_14 
REMARK    4  A    between atoms: N1_14  and  C14_16 
REMARK    5  A    between atoms: C14_16  and  C15_17 
REMARK    6  A    between atoms: C18_20  and  N2_21 
REMARK       I    between atoms: N2_21  and  C19_23 
REMARK    7  A    between atoms: C19_23  and  O2_25 
REMARK    8  A    between atoms: O2_25  and  C20_26 
ROOT
HETATM    1  N1  UNL     1      -2.564 -27.115   9.815  1.00  0.00    -0.411 N 
ATOM      2  H1  UNL     1      -2.877 -26.179  10.073  1.00  0.00     0.153 HD
ENDROOT
BRANCH   1   3
HETATM    3  C13 UNL     1      -1.201 -27.380   9.468  1.00  0.00     0.151 C 
HETATM    4  C12 UNL     1      -0.995 -28.843   9.130  1.00  0.00     0.052 C 
HETATM    5  C8  UNL     1      -0.332 -28.466   7.794  1.00  0.00     0.060 C 
HETATM    6  C26 UNL     1      -0.814 -27.057   8.027  1.00  0.00     0.275 C 
HETATM    7  F1  UNL     1      -1.820 -26.595   7.228  1.00  0.00    -0.203 F 
HETATM    8  F2  UNL     1       0.221 -26.102   8.014  1.00  0.00    -0.203 F 
BRANCH   5   9
HETATM    9  C7  UNL     1      -0.922 -29.202   6.674  1.00  0.00    -0.042 A 
HETATM   10  C6  UNL     1      -0.063 -29.866   5.831  1.00  0.00     0.014 A 
HETATM   11  C4  UNL     1      -0.551 -30.591   4.742  1.00  0.00    -0.061 A 
HETATM   12  C3  UNL     1      -1.905 -30.648   4.500  1.00  0.00     0.013 A 
HETATM   13  C5  UNL     1       0.359 -31.321   3.817  1.00  0.00     0.048 C 
HETATM   14  C2  UNL     1      -2.789 -29.996   5.322  1.00  0.00    -0.061 A 
HETATM   15  C1  UNL     1      -4.260 -30.021   5.106  1.00  0.00     0.048 C 
HETATM   16  C27 UNL     1      -2.263 -29.296   6.380  1.00  0.00     0.014 A 
ENDBRANCH   5   9
BRANCH   5  17
HETATM   17  C9  UNL     1       1.152 -28.512   7.990  1.00  0.00    -0.004 C 
HETATM   18  C10 UNL     1       1.647 -29.730   8.735  1.00  0.00     0.011 C 
HETATM   19  C11 UNL     1       1.920 -28.256   6.703  1.00  0.00     0.011 C 
ENDBRANCH   5  17
ENDBRANCH   1   3
BRANCH   1  20
HETATM   20  C14 UNL     1      -3.458 -28.216   9.781  1.00  0.00     0.118 C 
BRANCH  20  21
HETATM   21  C15 UNL     1      -4.603 -28.097   8.802  1.00  0.00     0.003 C 
HETATM   22  C16 UNL     1      -5.858 -28.322   9.626  1.00  0.00     0.008 C 
HETATM   23  C17 UNL     1      -6.249 -27.042  10.339  1.00  0.00     0.026 C 
HETATM   24  C18 UNL     1      -6.779 -26.132   9.215  1.00  0.00     0.086 C 
HETATM   25  C24 UNL     1      -5.645 -25.817   8.336  1.00  0.00     0.026 C 
HETATM   26  C25 UNL     1      -4.633 -26.838   8.030  1.00  0.00     0.008 C 
BRANCH  24  27
HETATM   27  N2  UNL     1      -7.341 -24.926   9.803  1.00  0.00    -0.332 N 
HETATM   28  C19 UNL     1      -8.635 -24.501   9.360  1.00  0.00     0.361 C 
HETATM   29  O1  UNL     1      -9.255 -25.188   8.482  1.00  0.00    -0.238 OA
ATOM     30  H2  UNL     1      -6.828 -24.399  10.511  1.00  0.00     0.165 HD
BRANCH  28  31
HETATM   31  O2  UNL     1      -9.252 -23.367   9.846  1.00  0.00    -0.294 OA
BRANCH  31  32
HETATM   32  C20 UNL     1      -9.687 -22.321   9.004  1.00  0.00     0.061 C 
HETATM   33  C21 UNL     1     -10.137 -21.153   9.887  1.00  0.00     0.046 C 
HETATM   34  C22 UNL     1      -8.629 -21.798   8.087  1.00  0.00     0.046 C 
HETATM   35  C23 UNL     1     -10.916 -22.772   8.212  1.00  0.00     0.046 C 
ENDBRANCH  31  32
ENDBRANCH  28  31
ENDBRANCH  24  27
ENDBRANCH  20  21
ENDBRANCH   1  20
TORSDOF 8
ENDMDL
MODEL 2
REMARK VINA RESULT: -8.932529974      0.112      1.475
REMARK  8 active torsions:
REMARK  status: ('A' for Active; 'I' for Inactive)
REMARK    1  A    between atoms: C7_7  and  C8_8 
REMARK    2  A    between atoms: C8_8  and  C9_9 
REMARK    3  A    between atoms: C13_13  and  N1_14 
REMARK    4  A    between atoms: N1_14  and  C14_16 
REMARK    5  A    between atoms: C14_16  and  C15_17 
REMARK    6  A    between atoms: C18_20  and  N2_21 
REMARK       I    between atoms: N2_21  and  C19_23 
REMARK    7  A    between atoms: C19_23  and  O2_25 
REMARK    8  A    between atoms: O2_25  and  C20_26 
ROOT
HETATM    1  N1  UNL     1      -2.615 -27.137   9.782  1.00  0.00    -0.411 N 
ATOM      2  H1  UNL     1      -2.951 -26.196   9.988  1.00  0.00     0.153 HD
ENDROOT
BRANCH   1   3
HETATM    3  C13 UNL     1      -1.242 -27.392   9.472  1.00  0.00     0.151 C 
HETATM    4  C12 UNL     1      -1.014 -28.856   9.155  1.00  0.00     0.052 C 
HETATM    5  C8  UNL     1      -0.322 -28.487   7.831  1.00  0.00     0.060 C 
HETATM    6  C26 UNL     1      -0.823 -27.080   8.037  1.00  0.00     0.275 C 
HETATM    7  F1  UNL     1      -1.814 -26.638   7.208  1.00  0.00    -0.203 F 
HETATM    8  F2  UNL     1       0.202 -26.116   8.039  1.00  0.00    -0.203 F 
BRANCH   5   9
HETATM    9  C7  UNL     1      -0.877 -29.241   6.706  1.00  0.00    -0.042 A 
HETATM   10  C6  UNL     1      -2.244 -29.258   6.569  1.00  0.00     0.014 A 
HETATM   11  C4  UNL     1      -2.848 -29.953   5.519  1.00  0.00    -0.061 A 
HETATM   12  C3  UNL     1      -2.074 -30.634   4.607  1.00  0.00     0.013 A 
HETATM   13  C5  UNL     1      -4.326 -29.984   5.348  1.00  0.00     0.048 C 
HETATM   14  C2  UNL     1      -0.706 -30.638   4.715  1.00  0.00    -0.061 A 
HETATM   15  C1  UNL     1       0.176 -31.358   3.760  1.00  0.00     0.048 C 
HETATM   16  C27 UNL     1      -0.159 -29.940   5.763  1.00  0.00     0.014 A 
ENDBRANCH   5   9
BRANCH   5  17
HETATM   17  C9  UNL     1       1.158 -28.515   8.064  1.00  0.00    -0.004 C 
HETATM   18  C10 UNL     1       1.651 -29.738   8.802  1.00  0.00     0.011 C 
HETATM   19  C11 UNL     1       1.954 -28.228   6.801  1.00  0.00     0.011 C 
ENDBRANCH   5  17
ENDBRANCH   1   3
BRANCH   1  20
HETATM   20  C14 UNL     1      -3.488 -28.256   9.788  1.00  0.00     0.118 C 
BRANCH  20  21
HETATM   21  C15 UNL     1      -4.669 -28.168   8.849  1.00  0.00     0.003 C 
HETATM   22  C16 UNL     1      -5.892 -28.377   9.723  1.00  0.00     0.008 C 
HETATM   23  C17 UNL     1      -6.263 -27.080  10.415  1.00  0.00     0.026 C 
HETATM   24  C18 UNL     1      -6.840 -26.203   9.288  1.00  0.00     0.086 C 
HETATM   25  C24 UNL     1      -5.740 -25.907   8.361  1.00  0.00     0.026 C 
HETATM   26  C25 UNL     1      -4.734 -26.931   8.045  1.00  0.00     0.008 C 
BRANCH  24  27
HETATM   27  N2  UNL     1      -7.386 -24.985   9.864  1.00  0.00    -0.332 N 
HETATM   28  C19 UNL     1      -8.643 -24.511   9.367  1.00  0.00     0.361 C 
HETATM   29  O1  UNL     1      -9.246 -25.168   8.455  1.00  0.00    -0.238 OA
ATOM     30  H2  UNL     1      -6.889 -24.483  10.600  1.00  0.00     0.165 HD
BRANCH  28  31
HETATM   31  O2  UNL     1      -9.244 -23.362   9.838  1.00  0.00    -0.294 OA
BRANCH  31  32
HETATM   32  C20 UNL     1      -9.680 -22.330   8.980  1.00  0.00     0.061 C 
HETATM   33  C21 UNL     1     -10.149 -21.156   9.845  1.00  0.00     0.046 C 
HETATM   34  C22 UNL     1      -8.619 -21.806   8.067  1.00  0.00     0.046 C 
HETATM   35  C23 UNL     1     -10.898 -22.801   8.182  1.00  0.00     0.046 C 
ENDBRANCH  31  32
ENDBRANCH  28  31
ENDBRANCH  24  27
ENDBRANCH  20  21
ENDBRANCH   1  20
TORSDOF 8
ENDMDL
MODEL 3
REMARK VINA RESULT: -8.826337656      2.267      4.157
REMARK  8 active torsions:
REMARK  status: ('A' for Active; 'I' for Inactive)
REMARK    1  A    between atoms: C7_7  and  C8_8 
REMARK    2  A    between atoms: C8_8  and  C9_9 
REMARK    3  A    between atoms: C13_13  and  N1_14 
REMARK    4  A    between atoms: N1_14  and  C14_16 
REMARK    5  A    between atoms: C14_16  and  C15_17 
REMARK    6  A    between atoms: C18_20  and  N2_21 
REMARK       I    between atoms: N2_21  and  C19_23 
REMARK    7  A    between atoms: C19_23  and  O2_25 
REMARK    8  A    between atoms: O2_25  and  C20_26 
ROOT
HETATM    1  N1  UNL     1      -5.190 -27.298   8.384  1.00  0.00    -0.411 N 
ATOM      2  H1  UNL     1      -5.274 -27.443   9.391  1.00  0.00     0.153 HD
ENDROOT
BRANCH   1   3
HETATM    3  C13 UNL     1      -4.973 -28.390   7.485  1.00  0.00     0.151 C 
HETATM    4  C12 UNL     1      -3.988 -28.017   6.396  1.00  0.00     0.052 C 
HETATM    5  C8  UNL     1      -3.138 -29.262   6.704  1.00  0.00     0.060 C 
HETATM    6  C26 UNL     1      -3.964 -29.437   7.953  1.00  0.00     0.275 C 
HETATM    7  F1  UNL     1      -3.356 -29.186   9.150  1.00  0.00    -0.203 F 
HETATM    8  F2  UNL     1      -4.588 -30.695   8.041  1.00  0.00    -0.203 F 
BRANCH   5   9
HETATM    9  C7  UNL     1      -1.725 -28.920   6.875  1.00  0.00    -0.042 A 
HETATM   10  C6  UNL     1      -1.006 -28.622   5.742  1.00  0.00     0.014 A 
HETATM   11  C4  UNL     1       0.347 -28.284   5.824  1.00  0.00    -0.061 A 
HETATM   12  C3  UNL     1       0.976 -28.246   7.047  1.00  0.00     0.013 A 
HETATM   13  C5  UNL     1       1.147 -27.955   4.612  1.00  0.00     0.048 C 
HETATM   14  C2  UNL     1       0.287 -28.538   8.197  1.00  0.00    -0.061 A 
HETATM   15  C1  UNL     1       0.918 -28.516   9.543  1.00  0.00     0.048 C 
HETATM   16  C27 UNL     1      -1.040 -28.865   8.067  1.00  0.00     0.014 A 
ENDBRANCH   5   9
BRANCH   5  17
HETATM   17  C9  UNL     1      -3.513 -30.328   5.721  1.00  0.00    -0.004 C 
HETATM   18  C10 UNL     1      -4.424 -29.860   4.610  1.00  0.00     0.011 C 
HETATM   19  C11 UNL     1      -2.308 -31.101   5.208  1.00  0.00     0.011 C 
ENDBRANCH   5  17
ENDBRANCH   1   3
BRANCH   1  20
HETATM   20  C14 UNL     1      -5.282 -26.004   7.809  1.00  0.00     0.118 C 
BRANCH  20  21
HETATM   21  C15 UNL     1      -5.545 -24.876   8.779  1.00  0.00     0.003 C 
HETATM   22  C16 UNL     1      -6.327 -23.843   7.988  1.00  0.00     0.008 C 
HETATM   23  C17 UNL     1      -7.793 -24.227   7.936  1.00  0.00     0.026 C 
HETATM   24  C18 UNL     1      -8.301 -23.966   9.367  1.00  0.00     0.086 C 
HETATM   25  C24 UNL     1      -7.626 -24.924  10.251  1.00  0.00     0.026 C 
HETATM   26  C25 UNL     1      -6.215 -25.276  10.032  1.00  0.00     0.008 C 
BRANCH  24  27
HETATM   27  N2  UNL     1      -9.744 -24.144   9.400  1.00  0.00    -0.332 N 
HETATM   28  C19 UNL     1     -10.530 -23.141  10.053  1.00  0.00     0.361 C 
HETATM   29  O1  UNL     1      -9.952 -22.128  10.571  1.00  0.00    -0.238 OA
ATOM     30  H2  UNL     1     -10.183 -24.959   8.970  1.00  0.00     0.165 HD
BRANCH  28  31
HETATM   31  O2  UNL     1     -11.904 -23.219  10.149  1.00  0.00    -0.294 OA
BRANCH  31  32
HETATM   32  C20 UNL     1     -12.552 -24.000  11.129  1.00  0.00     0.061 C 
HETATM   33  C21 UNL     1     -13.437 -23.075  11.971  1.00  0.00     0.046 C 
HETATM   34  C22 UNL     1     -13.437 -25.068  10.571  1.00  0.00     0.046 C 
HETATM   35  C23 UNL     1     -11.515 -24.600  12.081  1.00  0.00     0.046 C 
ENDBRANCH  31  32
ENDBRANCH  28  31
ENDBRANCH  24  27
ENDBRANCH  20  21
ENDBRANCH   1  20
TORSDOF 8
ENDMDL
MODEL 4
REMARK VINA RESULT: -8.763795989      2.259      4.234
REMARK  8 active torsions:
REMARK  status: ('A' for Active; 'I' for Inactive)
REMARK    1  A    between atoms: C7_7  and  C8_8 
REMARK    2  A    between atoms: C8_8  and  C9_9 
REMARK    3  A    between atoms: C13_13  and  N1_14 
REMARK    4  A    between atoms: N1_14  and  C14_16 
REMARK    5  A    between atoms: C14_16  and  C15_17 
REMARK    6  A    between atoms: C18_20  and  N2_21 
REMARK       I    between atoms: N2_21  and  C19_23 
REMARK    7  A    between atoms: C19_23  and  O2_25 
REMARK    8  A    between atoms: O2_25  and  C20_26 
ROOT
HETATM    1  N1  UNL     1      -5.135 -27.369   8.379  1.00  0.00    -0.411 N 
ATOM      2  H1  UNL     1      -5.159 -27.515   9.389  1.00  0.00     0.153 HD
ENDROOT
BRANCH   1   3
HETATM    3  C13 UNL     1      -4.933 -28.455   7.469  1.00  0.00     0.151 C 
HETATM    4  C12 UNL     1      -3.999 -28.060   6.344  1.00  0.00     0.052 C 
HETATM    5  C8  UNL     1      -3.114 -29.290   6.615  1.00  0.00     0.060 C 
HETATM    6  C26 UNL     1      -3.887 -29.483   7.895  1.00  0.00     0.275 C 
HETATM    7  F1  UNL     1      -3.238 -29.224   9.068  1.00  0.00    -0.203 F 
HETATM    8  F2  UNL     1      -4.484 -30.753   8.002  1.00  0.00    -0.203 F 
BRANCH   5   9
HETATM    9  C7  UNL     1      -1.702 -28.921   6.732  1.00  0.00    -0.042 A 
HETATM   10  C6  UNL     1      -1.157 -28.897   7.993  1.00  0.00     0.014 A 
HETATM   11  C4  UNL     1       0.185 -28.557   8.185  1.00  0.00    -0.061 A 
HETATM   12  C3  UNL     1       0.977 -28.240   7.106  1.00  0.00     0.013 A 
HETATM   13  C5  UNL     1       0.798 -28.527   9.541  1.00  0.00     0.048 C 
HETATM   14  C2  UNL     1       0.464 -28.253   5.833  1.00  0.00    -0.061 A 
HETATM   15  C1  UNL     1       1.274 -27.917   4.634  1.00  0.00     0.048 C 
HETATM   16  C27 UNL     1      -0.858 -28.594   5.694  1.00  0.00     0.014 A 
ENDBRANCH   5   9
BRANCH   5  17
HETATM   17  C9  UNL     1      -3.506 -30.360   5.643  1.00  0.00    -0.004 C 
HETATM   18  C10 UNL     1      -4.474 -29.909   4.574  1.00  0.00     0.011 C 
HETATM   19  C11 UNL     1      -2.307 -31.104   5.077  1.00  0.00     0.011 C 
ENDBRANCH   5  17
ENDBRANCH   1   3
BRANCH   1  20
HETATM   20  C14 UNL     1      -5.301 -26.080   7.810  1.00  0.00     0.118 C 
BRANCH  20  21
HETATM   21  C15 UNL     1      -5.541 -24.958   8.795  1.00  0.00     0.003 C 
HETATM   22  C16 UNL     1      -6.312 -23.905   8.020  1.00  0.00     0.008 C 
HETATM   23  C17 UNL     1      -7.784 -24.266   7.973  1.00  0.00     0.026 C 
HETATM   24  C18 UNL     1      -8.279 -24.013   9.410  1.00  0.00     0.086 C 
HETATM   25  C24 UNL     1      -7.613 -24.992  10.279  1.00  0.00     0.026 C 
HETATM   26  C25 UNL     1      -6.210 -25.362  10.047  1.00  0.00     0.008 C 
BRANCH  24  27
HETATM   27  N2  UNL     1      -9.725 -24.170   9.449  1.00  0.00    -0.332 N 
HETATM   28  C19 UNL     1     -10.494 -23.147  10.093  1.00  0.00     0.361 C 
HETATM   29  O1  UNL     1      -9.900 -22.136  10.595  1.00  0.00    -0.238 OA
ATOM     30  H2  UNL     1     -10.176 -24.983   9.031  1.00  0.00     0.165 HD
BRANCH  28  31
HETATM   31  O2  UNL     1     -11.869 -23.204  10.194  1.00  0.00    -0.294 OA
BRANCH  31  32
HETATM   32  C20 UNL     1     -12.525 -23.981  11.172  1.00  0.00     0.061 C 
HETATM   33  C21 UNL     1     -13.346 -25.057  10.455  1.00  0.00     0.046 C 
HETATM   34  C22 UNL     1     -11.600 -24.686  12.111  1.00  0.00     0.046 C 
HETATM   35  C23 UNL     1     -13.519 -23.111  11.943  1.00  0.00     0.046 C 
ENDBRANCH  31  32
ENDBRANCH  28  31
ENDBRANCH  24  27
ENDBRANCH  20  21
ENDBRANCH   1  20
TORSDOF 8
ENDMDL
MODEL 5
REMARK VINA RESULT: -8.708035926      2.334      4.131
REMARK  8 active torsions:
REMARK  status: ('A' for Active; 'I' for Inactive)
REMARK    1  A    between atoms: C7_7  and  C8_8 
REMARK    2  A    between atoms: C8_8  and  C9_9 
REMARK    3  A    between atoms: C13_13  and  N1_14 
REMARK    4  A    between atoms: N1_14  and  C14_16 
REMARK    5  A    between atoms: C14_16  and  C15_17 
REMARK    6  A    between atoms: C18_20  and  N2_21 
REMARK       I    between atoms: N2_21  and  C19_23 
REMARK    7  A    between atoms: C19_23  and  O2_25 
REMARK    8  A    between atoms: O2_25  and  C20_26 
ROOT
HETATM    1  N1  UNL     1      -4.995 -27.749   9.259  1.00  0.00    -0.411 N 
ATOM      2  H1  UNL     1      -4.221 -27.626   9.912  1.00  0.00     0.153 HD
ENDROOT
BRANCH   1   3
HETATM    3  C13 UNL     1      -4.880 -28.595   8.111  1.00  0.00     0.151 C 
HETATM    4  C12 UNL     1      -4.041 -27.943   7.031  1.00  0.00     0.052 C 
HETATM    5  C8  UNL     1      -3.146 -29.192   6.938  1.00  0.00     0.060 C 
HETATM    6  C26 UNL     1      -3.811 -29.682   8.199  1.00  0.00     0.275 C 
HETATM    7  F1  UNL     1      -3.063 -29.691   9.342  1.00  0.00    -0.203 F 
HETATM    8  F2  UNL     1      -4.407 -30.949   8.063  1.00  0.00    -0.203 F 
BRANCH   5   9
HETATM    9  C7  UNL     1      -1.727 -28.844   7.016  1.00  0.00    -0.042 A 
HETATM   10  C6  UNL     1      -1.063 -28.627   5.833  1.00  0.00     0.014 A 
HETATM   11  C4  UNL     1       0.293 -28.289   5.827  1.00  0.00    -0.061 A 
HETATM   12  C3  UNL     1       0.980 -28.171   7.013  1.00  0.00     0.013 A 
HETATM   13  C5  UNL     1       1.033 -28.046   4.558  1.00  0.00     0.048 C 
HETATM   14  C2  UNL     1       0.347 -28.382   8.212  1.00  0.00    -0.061 A 
HETATM   15  C1  UNL     1       1.042 -28.271   9.522  1.00  0.00     0.048 C 
HETATM   16  C27 UNL     1      -0.985 -28.712   8.168  1.00  0.00     0.014 A 
ENDBRANCH   5   9
BRANCH   5  17
HETATM   17  C9  UNL     1      -3.629 -30.016   5.783  1.00  0.00    -0.004 C 
HETATM   18  C10 UNL     1      -4.420 -29.245   4.753  1.00  0.00     0.011 C 
HETATM   19  C11 UNL     1      -2.525 -30.861   5.167  1.00  0.00     0.011 C 
ENDBRANCH   5  17
ENDBRANCH   1   3
BRANCH   1  20
HETATM   20  C14 UNL     1      -6.238 -27.090   9.446  1.00  0.00     0.118 C 
BRANCH  20  21
HETATM   21  C15 UNL     1      -6.151 -25.643   9.876  1.00  0.00     0.003 C 
HETATM   22  C16 UNL     1      -5.816 -24.871   8.613  1.00  0.00     0.008 C 
HETATM   23  C17 UNL     1      -7.074 -24.623   7.805  1.00  0.00     0.026 C 
HETATM   24  C18 UNL     1      -7.841 -23.562   8.618  1.00  0.00     0.086 C 
HETATM   25  C24 UNL     1      -8.247 -24.191   9.882  1.00  0.00     0.026 C 
HETATM   26  C25 UNL     1      -7.347 -25.128  10.571  1.00  0.00     0.008 C 
BRANCH  24  27
HETATM   27  N2  UNL     1      -8.997 -23.121   7.854  1.00  0.00    -0.332 N 
HETATM   28  C19 UNL     1      -8.962 -21.808   7.281  1.00  0.00     0.361 C 
HETATM   29  O1  UNL     1      -7.929 -21.078   7.445  1.00  0.00    -0.238 OA
ATOM     30  H2  UNL     1      -9.808 -23.727   7.730  1.00  0.00     0.165 HD
BRANCH  28  31
HETATM   31  O2  UNL     1     -10.009 -21.289   6.548  1.00  0.00    -0.294 OA
BRANCH  31  32
HETATM   32  C20 UNL     1     -10.126 -21.480   5.154  1.00  0.00     0.061 C 
HETATM   33  C21 UNL     1     -11.042 -20.387   4.597  1.00  0.00     0.046 C 
HETATM   34  C22 UNL     1      -8.830 -21.386   4.416  1.00  0.00     0.046 C 
HETATM   35  C23 UNL     1     -10.814 -22.817   4.871  1.00  0.00     0.046 C 
ENDBRANCH  31  32
ENDBRANCH  28  31
ENDBRANCH  24  27
ENDBRANCH  20  21
ENDBRANCH   1  20
TORSDOF 8
ENDMDL
