MODEL 1
REMARK VINA RESULT: -10.298272024      0.000      0.000
REMARK  8 active torsions:
REMARK  status: ('A' for Active; 'I' for Inactive)
REMARK    1  A    between atoms: C5_5  and  C6_6 
REMARK    2  A    between atoms: C9_9  and  O1_10 
REMARK    3  A    between atoms: C10_12  and  C11_13 
REMARK    4  A    between atoms: C11_13  and  C12_14 
REMARK    5  A    between atoms: C12_14  and  C13_15 
REMARK    6  A    between atoms: C13_15  and  C14_16 
REMARK    7  A    between atoms: C17_19  and  C18_20 
REMARK    8  A    between atoms: C23_29  and  C24_30 
ROOT
HETATM    1  C6  UNL     1      -2.000 -29.324   7.074  1.00  0.00     0.032 C 
HETATM    2  C7  UNL     1      -2.670 -28.262   7.475  1.00  0.00     0.049 C 
HETATM    3  C8  UNL     1      -2.275 -26.816   7.252  1.00  0.00     0.098 C 
HETATM    4  C9  UNL     1      -3.796 -26.255   7.283  1.00  0.00     0.153 C 
HETATM    5  C10 UNL     1      -4.063 -26.787   8.608  1.00  0.00     0.157 C 
HETATM    6  O2  UNL     1      -3.829 -28.263   8.191  1.00  0.00    -0.347 OA
ENDROOT
BRANCH   1   7
HETATM    7  C5  UNL     1      -0.695 -29.231   6.360  1.00  0.00     0.006 C 
HETATM    8  C4  UNL     1       0.400 -28.890   6.964  1.00  0.00    -0.071 C 
HETATM    9  C2  UNL     1       1.766 -28.715   6.411  1.00  0.00    -0.019 C 
HETATM   10  C21 UNL     1       0.576 -28.862   8.463  1.00  0.00     0.035 C 
HETATM   11  C1  UNL     1       1.765 -29.018   4.957  1.00  0.00     0.020 C 
HETATM   12  C3  UNL     1       2.155 -27.257   6.607  1.00  0.00     0.020 C 
HETATM   13  C23 UNL     1       2.556 -29.635   7.286  1.00  0.00     0.028 C 
HETATM   14  C22 UNL     1       1.865 -29.575   8.660  1.00  0.00     0.012 C 
BRANCH  13  15
HETATM   15  C24 UNL     1       3.973 -29.202   7.565  1.00  0.00     0.191 C 
HETATM   16  C25 UNL     1       5.013 -29.602   6.590  1.00  0.00     0.035 C 
HETATM   17  C26 UNL     1       5.751 -30.781   7.192  1.00  0.00     0.029 C 
HETATM   18  C27 UNL     1       5.617 -30.486   8.651  1.00  0.00     0.233 C 
HETATM   19  N1  UNL     1       4.321 -29.922   8.824  1.00  0.00    -0.070 N 
ATOM     20  H12 UNL     1       4.253 -29.330   9.652  1.00  0.00     0.277 HD
ATOM     21  H11 UNL     1       3.620 -30.611   9.095  1.00  0.00     0.277 HD
ENDBRANCH  13  15
ENDBRANCH   1   7
BRANCH   4  22
HETATM   22  O1  UNL     1      -3.668 -24.873   7.242  1.00  0.00    -0.393 OA
ATOM     23  H1  UNL     1      -3.632 -24.657   6.318  1.00  0.00     0.210 HD
ENDBRANCH   4  22
BRANCH   5  24
HETATM   24  C11 UNL     1      -5.368 -26.929   9.274  1.00  0.00     0.035 C 
BRANCH  24  25
HETATM   25  C12 UNL     1      -5.199 -28.395   9.931  1.00  0.00     0.007 C 
BRANCH  25  26
HETATM   26  C13 UNL     1      -6.463 -29.162   9.540  1.00  0.00     0.038 C 
BRANCH  26  27
HETATM   27  C14 UNL     1      -7.378 -29.431  10.651  1.00  0.00    -0.058 A 
HETATM   28  C15 UNL     1      -7.858 -30.751  10.731  1.00  0.00     0.008 A 
HETATM   29  C16 UNL     1      -8.852 -31.093  11.620  1.00  0.00     0.017 A 
HETATM   30  C17 UNL     1      -9.421 -30.144  12.477  1.00  0.00     0.047 A 
HETATM   31  C19 UNL     1      -8.933 -28.865  12.387  1.00  0.00     0.017 A 
HETATM   32  C20 UNL     1      -7.925 -28.481  11.500  1.00  0.00     0.008 A 
BRANCH  30  33
HETATM   33  C18 UNL     1     -10.528 -30.512  13.422  1.00  0.00     0.417 C 
HETATM   34  F1  UNL     1     -10.104 -31.536  14.227  1.00  0.00    -0.166 F 
HETATM   35  F2  UNL     1     -10.809 -29.439  14.283  1.00  0.00    -0.166 F 
HETATM   36  F3  UNL     1     -11.692 -30.775  12.766  1.00  0.00    -0.166 F 
ENDBRANCH  30  33
ENDBRANCH  26  27
ENDBRANCH  25  26
ENDBRANCH  24  25
ENDBRANCH   5  24
TORSDOF 8
ENDMDL
MODEL 2
REMARK VINA RESULT: -9.892252089      1.483      2.153
REMARK  8 active torsions:
REMARK  status: ('A' for Active; 'I' for Inactive)
REMARK    1  A    between atoms: C5_5  and  C6_6 
REMARK    2  A    between atoms: C9_9  and  O1_10 
REMARK    3  A    between atoms: C10_12  and  C11_13 
REMARK    4  A    between atoms: C11_13  and  C12_14 
REMARK    5  A    between atoms: C12_14  and  C13_15 
REMARK    6  A    between atoms: C13_15  and  C14_16 
REMARK    7  A    between atoms: C17_19  and  C18_20 
REMARK    8  A    between atoms: C23_29  and  C24_30 
ROOT
HETATM    1  C6  UNL     1      -1.733 -29.360   7.649  1.00  0.00     0.032 C 
HETATM    2  C7  UNL     1      -2.901 -29.531   7.062  1.00  0.00     0.049 C 
HETATM    3  C8  UNL     1      -3.187 -29.404   5.579  1.00  0.00     0.098 C 
HETATM    4  C9  UNL     1      -4.436 -30.438   5.593  1.00  0.00     0.153 C 
HETATM    5  C10 UNL     1      -5.172 -29.679   6.589  1.00  0.00     0.157 C 
HETATM    6  O2  UNL     1      -4.079 -29.827   7.681  1.00  0.00    -0.347 OA
ENDROOT
BRANCH   1   7
HETATM    7  C5  UNL     1      -0.507 -28.962   6.901  1.00  0.00     0.006 C 
HETATM    8  C4  UNL     1       0.639 -28.807   7.486  1.00  0.00    -0.071 C 
HETATM    9  C2  UNL     1       1.941 -28.387   6.913  1.00  0.00    -0.019 C 
HETATM   10  C21 UNL     1       0.962 -29.301   8.876  1.00  0.00     0.035 C 
HETATM   11  C1  UNL     1       1.799 -28.159   5.452  1.00  0.00     0.020 C 
HETATM   12  C3  UNL     1       2.332 -27.075   7.578  1.00  0.00     0.020 C 
HETATM   13  C23 UNL     1       2.823 -29.519   7.331  1.00  0.00     0.028 C 
HETATM   14  C22 UNL     1       2.272 -29.979   8.692  1.00  0.00     0.012 C 
BRANCH  13  15
HETATM   15  C24 UNL     1       4.256 -29.150   7.617  1.00  0.00     0.191 C 
HETATM   16  C25 UNL     1       5.259 -29.433   6.565  1.00  0.00     0.035 C 
HETATM   17  C26 UNL     1       5.991 -30.693   6.983  1.00  0.00     0.029 C 
HETATM   18  C27 UNL     1       5.907 -30.590   8.471  1.00  0.00     0.233 C 
HETATM   19  N1  UNL     1       4.629 -30.034   8.759  1.00  0.00    -0.070 N 
ATOM     20  H12 UNL     1       4.597 -29.556   9.659  1.00  0.00     0.277 HD
ATOM     21  H11 UNL     1       3.923 -30.743   8.959  1.00  0.00     0.277 HD
ENDBRANCH  13  15
ENDBRANCH   1   7
BRANCH   4  22
HETATM   22  O1  UNL     1      -4.974 -30.367   4.315  1.00  0.00    -0.393 OA
ATOM     23  H1  UNL     1      -5.405 -31.204   4.184  1.00  0.00     0.210 HD
ENDBRANCH   4  22
BRANCH   5  24
HETATM   24  C11 UNL     1      -6.346 -30.113   7.364  1.00  0.00     0.035 C 
BRANCH  24  25
HETATM   25  C12 UNL     1      -5.670 -30.328   8.816  1.00  0.00     0.007 C 
BRANCH  25  26
HETATM   26  C13 UNL     1      -6.246 -29.218   9.697  1.00  0.00     0.038 C 
BRANCH  26  27
HETATM   27  C14 UNL     1      -7.398 -29.621  10.505  1.00  0.00    -0.058 A 
HETATM   28  C15 UNL     1      -7.928 -28.621  11.340  1.00  0.00     0.008 A 
HETATM   29  C16 UNL     1      -8.898 -28.914  12.272  1.00  0.00     0.017 A 
HETATM   30  C17 UNL     1      -9.394 -30.214  12.424  1.00  0.00     0.047 A 
HETATM   31  C19 UNL     1      -8.867 -31.172  11.595  1.00  0.00     0.017 A 
HETATM   32  C20 UNL     1      -7.885 -30.912  10.637  1.00  0.00     0.008 A 
BRANCH  30  33
HETATM   33  C18 UNL     1     -10.427 -30.538  13.465  1.00  0.00     0.417 C 
HETATM   34  F1  UNL     1     -10.705 -29.405  14.183  1.00  0.00    -0.166 F 
HETATM   35  F2  UNL     1     -11.634 -30.908  12.851  1.00  0.00    -0.166 F 
HETATM   36  F3  UNL     1     -10.060 -31.600  14.233  1.00  0.00    -0.166 F 
ENDBRANCH  30  33
ENDBRANCH  26  27
ENDBRANCH  25  26
ENDBRANCH  24  25
ENDBRANCH   5  24
TORSDOF 8
ENDMDL
MODEL 3
REMARK VINA RESULT: -9.610458572      6.655     11.842
REMARK  8 active torsions:
REMARK  status: ('A' for Active; 'I' for Inactive)
REMARK    1  A    between atoms: C5_5  and  C6_6 
REMARK    2  A    between atoms: C9_9  and  O1_10 
REMARK    3  A    between atoms: C10_12  and  C11_13 
REMARK    4  A    between atoms: C11_13  and  C12_14 
REMARK    5  A    between atoms: C12_14  and  C13_15 
REMARK    6  A    between atoms: C13_15  and  C14_16 
REMARK    7  A    between atoms: C17_19  and  C18_20 
REMARK    8  A    between atoms: C23_29  and  C24_30 
ROOT
HETATM    1  C6  UNL     1      -3.767 -26.244   7.170  1.00  0.00     0.032 C 
HETATM    2  C7  UNL     1      -3.102 -27.335   6.843  1.00  0.00     0.049 C 
HETATM    3  C8  UNL     1      -3.477 -28.757   7.207  1.00  0.00     0.098 C 
HETATM    4  C9  UNL     1      -2.752 -29.421   5.917  1.00  0.00     0.153 C 
HETATM    5  C10 UNL     1      -1.453 -28.858   6.242  1.00  0.00     0.157 C 
HETATM    6  O2  UNL     1      -1.935 -27.386   6.142  1.00  0.00    -0.347 OA
ENDROOT
BRANCH   1   7
HETATM    7  C5  UNL     1      -4.999 -26.275   8.009  1.00  0.00     0.006 C 
HETATM    8  C4  UNL     1      -5.608 -25.192   8.381  1.00  0.00    -0.071 C 
HETATM    9  C2  UNL     1      -6.812 -25.033   9.233  1.00  0.00    -0.019 C 
HETATM   10  C21 UNL     1      -5.369 -23.827   7.781  1.00  0.00     0.035 C 
HETATM   11  C1  UNL     1      -7.319 -26.368   9.643  1.00  0.00     0.020 C 
HETATM   12  C3  UNL     1      -6.393 -24.264  10.477  1.00  0.00     0.020 C 
HETATM   13  C23 UNL     1      -7.699 -24.227   8.339  1.00  0.00     0.028 C 
HETATM   14  C22 UNL     1      -6.746 -23.326   7.533  1.00  0.00     0.012 C 
BRANCH  13  15
HETATM   15  C24 UNL     1      -8.615 -23.258   9.042  1.00  0.00     0.191 C 
HETATM   16  C25 UNL     1     -10.004 -23.700   9.304  1.00  0.00     0.035 C 
HETATM   17  C26 UNL     1     -10.881 -23.043   8.257  1.00  0.00     0.029 C 
HETATM   18  C27 UNL     1     -10.121 -21.782   8.001  1.00  0.00     0.233 C 
HETATM   19  N1  UNL     1      -8.742 -22.127   8.079  1.00  0.00    -0.070 N 
ATOM     20  H12 UNL     1      -8.147 -21.334   8.316  1.00  0.00     0.277 HD
ATOM     21  H11 UNL     1      -8.332 -22.333   7.168  1.00  0.00     0.277 HD
ENDBRANCH  13  15
ENDBRANCH   1   7
BRANCH   4  22
HETATM   22  O1  UNL     1      -2.843 -30.791   6.121  1.00  0.00    -0.393 OA
ATOM     23  H1  UNL     1      -2.185 -31.169   5.548  1.00  0.00     0.210 HD
ENDBRANCH   4  22
BRANCH   5  24
HETATM   24  C11 UNL     1      -0.264 -28.781   5.377  1.00  0.00     0.035 C 
BRANCH  24  25
HETATM   25  C12 UNL     1       0.632 -27.727   6.211  1.00  0.00     0.007 C 
BRANCH  25  26
HETATM   26  C13 UNL     1       0.877 -28.389   7.567  1.00  0.00     0.038 C 
BRANCH  26  27
HETATM   27  C14 UNL     1       2.233 -28.910   7.753  1.00  0.00    -0.058 A 
HETATM   28  C15 UNL     1       3.159 -28.548   6.757  1.00  0.00     0.008 A 
HETATM   29  C16 UNL     1       4.416 -29.108   6.719  1.00  0.00     0.017 A 
HETATM   30  C17 UNL     1       4.820 -30.055   7.667  1.00  0.00     0.047 A 
HETATM   31  C19 UNL     1       3.904 -30.388   8.632  1.00  0.00     0.017 A 
HETATM   32  C20 UNL     1       2.621 -29.840   8.704  1.00  0.00     0.008 A 
BRANCH  30  33
HETATM   33  C18 UNL     1       6.180 -30.690   7.604  1.00  0.00     0.417 C 
HETATM   34  F1  UNL     1       6.700 -30.755   8.869  1.00  0.00    -0.166 F 
HETATM   35  F2  UNL     1       6.075 -32.019   7.163  1.00  0.00    -0.166 F 
HETATM   36  F3  UNL     1       6.992 -30.065   6.707  1.00  0.00    -0.166 F 
ENDBRANCH  30  33
ENDBRANCH  26  27
ENDBRANCH  25  26
ENDBRANCH  24  25
ENDBRANCH   5  24
TORSDOF 8
ENDMDL
MODEL 4
REMARK VINA RESULT: -9.382311943      3.609      5.226
REMARK  8 active torsions:
REMARK  status: ('A' for Active; 'I' for Inactive)
REMARK    1  A    between atoms: C5_5  and  C6_6 
REMARK    2  A    between atoms: C9_9  and  O1_10 
REMARK    3  A    between atoms: C10_12  and  C11_13 
REMARK    4  A    between atoms: C11_13  and  C12_14 
REMARK    5  A    between atoms: C12_14  and  C13_15 
REMARK    6  A    between atoms: C13_15  and  C14_16 
REMARK    7  A    between atoms: C17_19  and  C18_20 
REMARK    8  A    between atoms: C23_29  and  C24_30 
ROOT
HETATM    1  C6  UNL     1      -5.515 -26.102   7.749  1.00  0.00     0.032 C 
HETATM    2  C7  UNL     1      -6.363 -25.226   8.254  1.00  0.00     0.049 C 
HETATM    3  C8  UNL     1      -6.124 -24.338   9.458  1.00  0.00     0.098 C 
HETATM    4  C9  UNL     1      -7.129 -23.166   8.963  1.00  0.00     0.153 C 
HETATM    5  C10 UNL     1      -8.273 -24.058   8.876  1.00  0.00     0.157 C 
HETATM    6  O2  UNL     1      -7.625 -24.976   7.805  1.00  0.00    -0.347 OA
ENDROOT
BRANCH   1   7
HETATM    7  C5  UNL     1      -4.178 -26.367   8.352  1.00  0.00     0.006 C 
HETATM    8  C4  UNL     1      -3.379 -27.276   7.887  1.00  0.00    -0.071 C 
HETATM    9  C2  UNL     1      -2.042 -27.694   8.374  1.00  0.00    -0.019 C 
HETATM   10  C21 UNL     1      -3.531 -27.938   6.538  1.00  0.00     0.035 C 
HETATM   11  C1  UNL     1      -1.655 -26.876   9.552  1.00  0.00     0.020 C 
HETATM   12  C3  UNL     1      -2.147 -29.150   8.802  1.00  0.00     0.020 C 
HETATM   13  C23 UNL     1      -1.214 -27.524   7.141  1.00  0.00     0.028 C 
HETATM   14  C22 UNL     1      -2.158 -27.860   5.972  1.00  0.00     0.012 C 
BRANCH  13  15
HETATM   15  C24 UNL     1      -0.075 -28.499   6.987  1.00  0.00     0.191 C 
HETATM   16  C25 UNL     1       1.301 -27.957   7.049  1.00  0.00     0.035 C 
HETATM   17  C26 UNL     1       1.803 -27.867   5.621  1.00  0.00     0.029 C 
HETATM   18  C27 UNL     1       1.055 -28.994   4.986  1.00  0.00     0.233 C 
HETATM   19  N1  UNL     1      -0.231 -29.010   5.595  1.00  0.00    -0.070 N 
ATOM     20  H12 UNL     1      -0.678 -29.925   5.555  1.00  0.00     0.277 HD
ATOM     21  H11 UNL     1      -0.931 -28.497   5.059  1.00  0.00     0.277 HD
ENDBRANCH  13  15
ENDBRANCH   1   7
BRANCH   4  22
HETATM   22  O1  UNL     1      -7.187 -22.272  10.023  1.00  0.00    -0.393 OA
ATOM     23  H1  UNL     1      -6.281 -22.049  10.205  1.00  0.00     0.210 HD
ENDBRANCH   4  22
BRANCH   5  24
HETATM   24  C11 UNL     1      -9.566 -23.801   8.221  1.00  0.00     0.035 C 
BRANCH  24  25
HETATM   25  C12 UNL     1     -10.242 -22.805   9.298  1.00  0.00     0.007 C 
BRANCH  25  26
HETATM   26  C13 UNL     1     -11.707 -23.234   9.382  1.00  0.00     0.038 C 
BRANCH  26  27
HETATM   27  C14 UNL     1     -11.954 -24.382  10.256  1.00  0.00    -0.058 A 
HETATM   28  C15 UNL     1     -11.339 -24.321  11.520  1.00  0.00     0.008 A 
HETATM   29  C16 UNL     1     -11.349 -25.406  12.367  1.00  0.00     0.017 A 
HETATM   30  C17 UNL     1     -11.971 -26.607  12.007  1.00  0.00     0.047 A 
HETATM   31  C19 UNL     1     -12.570 -26.641  10.773  1.00  0.00     0.017 A 
HETATM   32  C20 UNL     1     -12.583 -25.561   9.888  1.00  0.00     0.008 A 
BRANCH  30  33
HETATM   33  C18 UNL     1     -11.951 -27.799  12.920  1.00  0.00     0.417 C 
HETATM   34  F1  UNL     1     -12.992 -28.627  12.593  1.00  0.00    -0.166 F 
HETATM   35  F2  UNL     1     -10.784 -28.551  12.711  1.00  0.00    -0.166 F 
HETATM   36  F3  UNL     1     -11.928 -27.436  14.231  1.00  0.00    -0.166 F 
ENDBRANCH  30  33
ENDBRANCH  26  27
ENDBRANCH  25  26
ENDBRANCH  24  25
ENDBRANCH   5  24
TORSDOF 8
ENDMDL
MODEL 5
REMARK VINA RESULT: -9.381705927      7.462     12.501
REMARK  8 active torsions:
REMARK  status: ('A' for Active; 'I' for Inactive)
REMARK    1  A    between atoms: C5_5  and  C6_6 
REMARK    2  A    between atoms: C9_9  and  O1_10 
REMARK    3  A    between atoms: C10_12  and  C11_13 
REMARK    4  A    between atoms: C11_13  and  C12_14 
REMARK    5  A    between atoms: C12_14  and  C13_15 
REMARK    6  A    between atoms: C13_15  and  C14_16 
REMARK    7  A    between atoms: C17_19  and  C18_20 
REMARK    8  A    between atoms: C23_29  and  C24_30 
ROOT
HETATM    1  C6  UNL     1      -5.963 -24.243   7.924  1.00  0.00     0.032 C 
HETATM    2  C7  UNL     1      -5.222 -25.311   8.141  1.00  0.00     0.049 C 
HETATM    3  C8  UNL     1      -5.688 -26.618   8.750  1.00  0.00     0.098 C 
HETATM    4  C9  UNL     1      -4.577 -27.524   7.994  1.00  0.00     0.153 C 
HETATM    5  C10 UNL     1      -3.459 -26.773   8.539  1.00  0.00     0.157 C 
HETATM    6  O2  UNL     1      -3.888 -25.432   7.886  1.00  0.00    -0.347 OA
ENDROOT
BRANCH   1   7
HETATM    7  C5  UNL     1      -7.402 -24.171   8.305  1.00  0.00     0.006 C 
HETATM    8  C4  UNL     1      -8.155 -23.170   7.972  1.00  0.00    -0.071 C 
HETATM    9  C2  UNL     1      -9.583 -22.917   8.289  1.00  0.00    -0.019 C 
HETATM   10  C21 UNL     1      -7.799 -22.143   6.923  1.00  0.00     0.035 C 
HETATM   11  C1  UNL     1     -10.129 -24.045   9.087  1.00  0.00     0.020 C 
HETATM   12  C3  UNL     1      -9.647 -21.648   9.125  1.00  0.00     0.020 C 
HETATM   13  C23 UNL     1     -10.157 -22.726   6.922  1.00  0.00     0.028 C 
HETATM   14  C22 UNL     1      -9.036 -22.060   6.104  1.00  0.00     0.012 C 
BRANCH  13  15
HETATM   15  C24 UNL     1     -11.305 -21.754   6.834  1.00  0.00     0.191 C 
HETATM   16  C25 UNL     1     -12.676 -22.314   6.832  1.00  0.00     0.035 C 
HETATM   17  C26 UNL     1     -13.159 -22.290   5.395  1.00  0.00     0.029 C 
HETATM   18  C27 UNL     1     -12.416 -21.107   4.866  1.00  0.00     0.233 C 
HETATM   19  N1  UNL     1     -11.138 -21.127   5.491  1.00  0.00    -0.070 N 
ATOM     20  H12 UNL     1     -10.701 -20.207   5.533  1.00  0.00     0.277 HD
ATOM     21  H11 UNL     1     -10.425 -21.587   4.925  1.00  0.00     0.277 HD
ENDBRANCH  13  15
ENDBRANCH   1   7
BRANCH   4  22
HETATM   22  O1  UNL     1      -4.723 -28.795   8.533  1.00  0.00    -0.393 OA
ATOM     23  H1  UNL     1      -3.903 -29.237   8.344  1.00  0.00     0.210 HD
ENDBRANCH   4  22
BRANCH   5  24
HETATM   24  C11 UNL     1      -2.053 -26.812   8.107  1.00  0.00     0.035 C 
BRANCH  24  25
HETATM   25  C12 UNL     1      -2.237 -27.264   6.567  1.00  0.00     0.007 C 
BRANCH  25  26
HETATM   26  C13 UNL     1      -1.471 -28.582   6.439  1.00  0.00     0.038 C 
BRANCH  26  27
HETATM   27  C14 UNL     1      -0.031 -28.474   6.682  1.00  0.00    -0.058 A 
HETATM   28  C15 UNL     1       0.725 -27.970   5.607  1.00  0.00     0.008 A 
HETATM   29  C16 UNL     1       2.101 -27.978   5.642  1.00  0.00     0.017 A 
HETATM   30  C17 UNL     1       2.799 -28.485   6.745  1.00  0.00     0.047 A 
HETATM   31  C19 UNL     1       2.041 -28.964   7.783  1.00  0.00     0.017 A 
HETATM   32  C20 UNL     1       0.645 -28.970   7.785  1.00  0.00     0.008 A 
BRANCH  30  33
HETATM   33  C18 UNL     1       4.300 -28.524   6.766  1.00  0.00     0.417 C 
HETATM   34  F1  UNL     1       4.783 -27.328   6.303  1.00  0.00    -0.166 F 
HETATM   35  F2  UNL     1       4.764 -28.640   8.086  1.00  0.00    -0.166 F 
HETATM   36  F3  UNL     1       4.791 -29.608   6.104  1.00  0.00    -0.166 F 
ENDBRANCH  30  33
ENDBRANCH  26  27
ENDBRANCH  25  26
ENDBRANCH  24  25
ENDBRANCH   5  24
TORSDOF 8
ENDMDL
