MODEL 1
REMARK VINA RESULT: -8.669636046      0.000      0.000
REMARK  14 active torsions:
REMARK  status: ('A' for Active; 'I' for Inactive)
REMARK    1  A    between atoms: C3_3  and  C5_5 
REMARK    2  A    between atoms: C5_5  and  C6_6 
REMARK    3  A    between atoms: C6_6  and  C7_7 
REMARK    4  A    between atoms: C7_7  and  O2_9 
REMARK    5  A    between atoms: O2_9  and  C8_10 
REMARK    6  A    between atoms: C10_12  and  O3_13 
REMARK    7  A    between atoms: C10_12  and  C11_15 
REMARK    8  A    between atoms: C11_15  and  O5_17 
REMARK    9  A    between atoms: O5_17  and  C12_18 
REMARK   10  A    between atoms: C12_18  and  C13_19 
REMARK   11  A    between atoms: C15_21  and  O6_22 
REMARK   12  A    between atoms: C15_21  and  N1_24 
REMARK   13  A    between atoms: N1_24  and  O7_26 
REMARK   14  A    between atoms: C18_30  and  O8_31 
ROOT
HETATM    1  C8  UNL     1      18.617  -7.270 -29.787  1.00  0.00     0.164 C 
HETATM    2  C9  UNL     1      19.702  -6.327 -29.328  1.00  0.00     0.089 C 
HETATM    3  C10 UNL     1      19.583  -4.951 -29.883  1.00  0.00     0.200 C 
HETATM    4  C15 UNL     1      18.811  -4.844 -31.170  1.00  0.00     0.196 C 
HETATM    5  C16 UNL     1      17.519  -5.571 -31.206  1.00  0.00     0.074 C 
HETATM    6  C17 UNL     1      16.351  -4.617 -31.323  1.00  0.00     0.018 C 
HETATM    7  C18 UNL     1      17.315  -6.557 -30.074  1.00  0.00     0.159 C 
ENDROOT
BRANCH   1   8
HETATM    8  O2  UNL     1      18.507  -8.370 -28.956  1.00  0.00    -0.313 OA
BRANCH   8   9
HETATM    9  C7  UNL     1      18.987  -9.642 -29.142  1.00  0.00     0.259 C 
HETATM   10  O1  UNL     1      18.095 -10.532 -29.149  1.00  0.00    -0.265 OA
BRANCH   9  11
HETATM   11  C6  UNL     1      20.393 -10.001 -29.322  1.00  0.00     0.115 C 
BRANCH  11  12
HETATM   12  C5  UNL     1      21.353  -9.509 -28.306  1.00  0.00     0.043 C 
BRANCH  12  13
HETATM   13  C3  UNL     1      22.595 -10.274 -28.144  1.00  0.00    -0.087 C 
HETATM   14  C2  UNL     1      23.775  -9.637 -28.233  1.00  0.00    -0.029 C 
HETATM   15  C1  UNL     1      23.834  -8.166 -28.465  1.00  0.00     0.036 C 
HETATM   16  C4  UNL     1      22.594 -11.739 -27.914  1.00  0.00     0.043 C 
ENDBRANCH  12  13
ENDBRANCH  11  12
ENDBRANCH   9  11
ENDBRANCH   8   9
ENDBRANCH   1   8
BRANCH   7  17
HETATM   17  O8  UNL     1      16.434  -7.586 -30.418  1.00  0.00    -0.388 OA
HETATM   18  C19 UNL     1      16.123  -7.641 -31.762  1.00  0.00     0.202 C 
ENDBRANCH   7  17
BRANCH   3  19
HETATM   19  O3  UNL     1      18.994  -4.156 -28.897  1.00  0.00    -0.375 OA
ATOM     20  H3  UNL     1      18.986  -3.263 -29.222  1.00  0.00     0.211 HD
ENDBRANCH   3  19
BRANCH   3  21
HETATM   21  C11 UNL     1      20.944  -4.366 -30.159  1.00  0.00     0.298 C 
HETATM   22  O4  UNL     1      21.335  -4.164 -31.338  1.00  0.00    -0.262 OA
BRANCH  21  23
HETATM   23  O5  UNL     1      21.810  -4.034 -29.137  1.00  0.00    -0.319 OA
BRANCH  23  24
HETATM   24  C12 UNL     1      23.181  -4.332 -29.132  1.00  0.00     0.178 C 
BRANCH  24  25
HETATM   25  C13 UNL     1      23.808  -4.445 -27.781  1.00  0.00     0.022 C 
HETATM   26  C14 UNL     1      24.241  -3.061 -27.283  1.00  0.00     0.007 C 
ENDBRANCH  24  25
ENDBRANCH  23  24
ENDBRANCH  21  23
ENDBRANCH   3  21
BRANCH   4  27
HETATM   27  O6  UNL     1      19.674  -5.349 -32.180  1.00  0.00    -0.366 OA
ATOM     28  H6  UNL     1      19.312  -5.045 -33.004  1.00  0.00     0.212 HD
ENDBRANCH   4  27
BRANCH   4  29
HETATM   29  N1  UNL     1      18.658  -3.456 -31.509  1.00  0.00    -0.266 N 
ATOM     30  H1  UNL     1      18.326  -2.773 -30.827  1.00  0.00     0.191 HD
BRANCH  29  31
HETATM   31  O7  UNL     1      18.968  -3.104 -32.747  1.00  0.00    -0.292 OA
ATOM     32  H7  UNL     1      18.680  -2.246 -33.033  1.00  0.00     0.244 HD
ENDBRANCH  29  31
ENDBRANCH   4  29
TORSDOF 14
ENDMDL
MODEL 2
REMARK VINA RESULT: -8.404524816      0.384      1.079
REMARK  14 active torsions:
REMARK  status: ('A' for Active; 'I' for Inactive)
REMARK    1  A    between atoms: C3_3  and  C5_5 
REMARK    2  A    between atoms: C5_5  and  C6_6 
REMARK    3  A    between atoms: C6_6  and  C7_7 
REMARK    4  A    between atoms: C7_7  and  O2_9 
REMARK    5  A    between atoms: O2_9  and  C8_10 
REMARK    6  A    between atoms: C10_12  and  O3_13 
REMARK    7  A    between atoms: C10_12  and  C11_15 
REMARK    8  A    between atoms: C11_15  and  O5_17 
REMARK    9  A    between atoms: O5_17  and  C12_18 
REMARK   10  A    between atoms: C12_18  and  C13_19 
REMARK   11  A    between atoms: C15_21  and  O6_22 
REMARK   12  A    between atoms: C15_21  and  N1_24 
REMARK   13  A    between atoms: N1_24  and  O7_26 
REMARK   14  A    between atoms: C18_30  and  O8_31 
ROOT
HETATM    1  C8  UNL     1      18.437  -7.140 -29.889  1.00  0.00     0.164 C 
HETATM    2  C9  UNL     1      19.549  -6.252 -29.389  1.00  0.00     0.089 C 
HETATM    3  C10 UNL     1      19.509  -4.867 -29.933  1.00  0.00     0.200 C 
HETATM    4  C15 UNL     1      18.783  -4.714 -31.242  1.00  0.00     0.196 C 
HETATM    5  C16 UNL     1      17.461  -5.381 -31.324  1.00  0.00     0.074 C 
HETATM    6  C17 UNL     1      16.341  -4.374 -31.467  1.00  0.00     0.018 C 
HETATM    7  C18 UNL     1      17.177  -6.366 -30.208  1.00  0.00     0.159 C 
ENDROOT
BRANCH   1   8
HETATM    8  O2  UNL     1      18.251  -8.241 -29.073  1.00  0.00    -0.313 OA
BRANCH   8   9
HETATM    9  C7  UNL     1      18.746  -9.512 -29.215  1.00  0.00     0.259 C 
HETATM   10  O1  UNL     1      17.863 -10.412 -29.209  1.00  0.00    -0.265 OA
BRANCH   9  11
HETATM   11  C6  UNL     1      20.158  -9.863 -29.365  1.00  0.00     0.115 C 
BRANCH  11  12
HETATM   12  C5  UNL     1      21.026  -9.701 -28.174  1.00  0.00     0.043 C 
BRANCH  12  13
HETATM   13  C3  UNL     1      22.474  -9.684 -28.408  1.00  0.00    -0.087 C 
HETATM   14  C2  UNL     1      23.193 -10.792 -28.160  1.00  0.00    -0.029 C 
HETATM   15  C1  UNL     1      22.533 -12.039 -27.677  1.00  0.00     0.036 C 
HETATM   16  C4  UNL     1      23.182  -8.472 -28.886  1.00  0.00     0.043 C 
ENDBRANCH  12  13
ENDBRANCH  11  12
ENDBRANCH   9  11
ENDBRANCH   8   9
ENDBRANCH   1   8
BRANCH   7  17
HETATM   17  O8  UNL     1      16.262  -7.351 -30.589  1.00  0.00    -0.388 OA
HETATM   18  C19 UNL     1      16.084  -7.464 -31.953  1.00  0.00     0.202 C 
ENDBRANCH   7  17
BRANCH   3  19
HETATM   19  O3  UNL     1      18.928  -4.054 -28.957  1.00  0.00    -0.375 OA
ATOM     20  H3  UNL     1      19.355  -4.253 -28.133  1.00  0.00     0.211 HD
ENDBRANCH   3  19
BRANCH   3  21
HETATM   21  C11 UNL     1      20.904  -4.343 -30.162  1.00  0.00     0.298 C 
HETATM   22  O4  UNL     1      21.349  -4.176 -31.328  1.00  0.00    -0.262 OA
BRANCH  21  23
HETATM   23  O5  UNL     1      21.741  -4.029 -29.112  1.00  0.00    -0.319 OA
BRANCH  23  24
HETATM   24  C12 UNL     1      23.141  -4.108 -29.164  1.00  0.00     0.178 C 
BRANCH  24  25
HETATM   25  C13 UNL     1      23.815  -4.415 -27.867  1.00  0.00     0.022 C 
HETATM   26  C14 UNL     1      24.191  -3.115 -27.146  1.00  0.00     0.007 C 
ENDBRANCH  24  25
ENDBRANCH  23  24
ENDBRANCH  21  23
ENDBRANCH   3  21
BRANCH   4  27
HETATM   27  O6  UNL     1      19.652  -5.249 -32.231  1.00  0.00    -0.366 OA
ATOM     28  H6  UNL     1      20.427  -5.539 -31.763  1.00  0.00     0.212 HD
ENDBRANCH   4  27
BRANCH   4  29
HETATM   29  N1  UNL     1      18.703  -3.318 -31.572  1.00  0.00    -0.266 N 
ATOM     30  H1  UNL     1      18.399  -2.624 -30.888  1.00  0.00     0.191 HD
BRANCH  29  31
HETATM   31  O7  UNL     1      19.043  -2.974 -32.803  1.00  0.00    -0.292 OA
ATOM     32  H7  UNL     1      18.486  -3.287 -33.506  1.00  0.00     0.244 HD
ENDBRANCH  29  31
ENDBRANCH   4  29
TORSDOF 14
ENDMDL
MODEL 3
REMARK VINA RESULT: -8.256667243      2.691      6.290
REMARK  14 active torsions:
REMARK  status: ('A' for Active; 'I' for Inactive)
REMARK    1  A    between atoms: C3_3  and  C5_5 
REMARK    2  A    between atoms: C5_5  and  C6_6 
REMARK    3  A    between atoms: C6_6  and  C7_7 
REMARK    4  A    between atoms: C7_7  and  O2_9 
REMARK    5  A    between atoms: O2_9  and  C8_10 
REMARK    6  A    between atoms: C10_12  and  O3_13 
REMARK    7  A    between atoms: C10_12  and  C11_15 
REMARK    8  A    between atoms: C11_15  and  O5_17 
REMARK    9  A    between atoms: O5_17  and  C12_18 
REMARK   10  A    between atoms: C12_18  and  C13_19 
REMARK   11  A    between atoms: C15_21  and  O6_22 
REMARK   12  A    between atoms: C15_21  and  N1_24 
REMARK   13  A    between atoms: N1_24  and  O7_26 
REMARK   14  A    between atoms: C18_30  and  O8_31 
ROOT
HETATM    1  C8  UNL     1      16.688  -6.112 -31.561  1.00  0.00     0.164 C 
HETATM    2  C9  UNL     1      17.463  -6.829 -30.485  1.00  0.00     0.089 C 
HETATM    3  C10 UNL     1      18.439  -5.966 -29.764  1.00  0.00     0.200 C 
HETATM    4  C15 UNL     1      18.904  -4.753 -30.523  1.00  0.00     0.196 C 
HETATM    5  C16 UNL     1      17.837  -3.959 -31.178  1.00  0.00     0.074 C 
HETATM    6  C17 UNL     1      17.721  -2.579 -30.567  1.00  0.00     0.018 C 
HETATM    7  C18 UNL     1      16.488  -4.645 -31.250  1.00  0.00     0.159 C 
ENDROOT
BRANCH   1   8
HETATM    8  O2  UNL     1      15.535  -6.794 -31.906  1.00  0.00    -0.313 OA
BRANCH   8   9
HETATM    9  C7  UNL     1      15.368  -7.790 -32.834  1.00  0.00     0.259 C 
HETATM   10  O1  UNL     1      14.896  -8.859 -32.362  1.00  0.00    -0.265 OA
BRANCH   9  11
HETATM   11  C6  UNL     1      15.688  -7.688 -34.257  1.00  0.00     0.115 C 
BRANCH  11  12
HETATM   12  C5  UNL     1      15.022  -6.609 -35.025  1.00  0.00     0.043 C 
BRANCH  12  13
HETATM   13  C3  UNL     1      15.574  -6.302 -36.350  1.00  0.00    -0.087 C 
HETATM   14  C2  UNL     1      15.022  -5.318 -37.080  1.00  0.00    -0.029 C 
HETATM   15  C1  UNL     1      13.878  -4.522 -36.549  1.00  0.00     0.036 C 
HETATM   16  C4  UNL     1      16.709  -7.062 -36.926  1.00  0.00     0.043 C 
ENDBRANCH  12  13
ENDBRANCH  11  12
ENDBRANCH   9  11
ENDBRANCH   8   9
ENDBRANCH   1   8
BRANCH   7  17
HETATM   17  O8  UNL     1      15.710  -4.176 -32.313  1.00  0.00    -0.388 OA
HETATM   18  C19 UNL     1      16.436  -3.804 -33.427  1.00  0.00     0.202 C 
ENDBRANCH   7  17
BRANCH   3  19
HETATM   19  O3  UNL     1      17.845  -5.586 -28.558  1.00  0.00    -0.375 OA
ATOM     20  H3  UNL     1      18.545  -5.372 -27.954  1.00  0.00     0.211 HD
ENDBRANCH   3  19
BRANCH   3  21
HETATM   21  C11 UNL     1      19.681  -6.744 -29.411  1.00  0.00     0.298 C 
HETATM   22  O4  UNL     1      20.541  -6.267 -28.625  1.00  0.00    -0.262 OA
BRANCH  21  23
HETATM   23  O5  UNL     1      19.924  -7.997 -29.933  1.00  0.00    -0.319 OA
BRANCH  23  24
HETATM   24  C12 UNL     1      19.865  -9.188 -29.194  1.00  0.00     0.178 C 
BRANCH  24  25
HETATM   25  C13 UNL     1      20.843 -10.242 -29.595  1.00  0.00     0.022 C 
HETATM   26  C14 UNL     1      21.917 -10.407 -28.513  1.00  0.00     0.007 C 
ENDBRANCH  24  25
ENDBRANCH  23  24
ENDBRANCH  21  23
ENDBRANCH   3  21
BRANCH   4  27
HETATM   27  O6  UNL     1      19.813  -5.237 -31.503  1.00  0.00    -0.366 OA
ATOM     28  H6  UNL     1      19.560  -6.138 -31.666  1.00  0.00     0.212 HD
ENDBRANCH   4  27
BRANCH   4  29
HETATM   29  N1  UNL     1      19.723  -3.948 -29.660  1.00  0.00    -0.266 N 
ATOM     30  H1  UNL     1      19.368  -3.579 -28.778  1.00  0.00     0.191 HD
BRANCH  29  31
HETATM   31  O7  UNL     1      20.961  -3.707 -30.064  1.00  0.00    -0.292 OA
ATOM     32  H7  UNL     1      21.298  -2.832 -29.913  1.00  0.00     0.244 HD
ENDBRANCH  29  31
ENDBRANCH   4  29
TORSDOF 14
ENDMDL
MODEL 4
REMARK VINA RESULT: -8.246174206      2.792      6.053
REMARK  14 active torsions:
REMARK  status: ('A' for Active; 'I' for Inactive)
REMARK    1  A    between atoms: C3_3  and  C5_5 
REMARK    2  A    between atoms: C5_5  and  C6_6 
REMARK    3  A    between atoms: C6_6  and  C7_7 
REMARK    4  A    between atoms: C7_7  and  O2_9 
REMARK    5  A    between atoms: O2_9  and  C8_10 
REMARK    6  A    between atoms: C10_12  and  O3_13 
REMARK    7  A    between atoms: C10_12  and  C11_15 
REMARK    8  A    between atoms: C11_15  and  O5_17 
REMARK    9  A    between atoms: O5_17  and  C12_18 
REMARK   10  A    between atoms: C12_18  and  C13_19 
REMARK   11  A    between atoms: C15_21  and  O6_22 
REMARK   12  A    between atoms: C15_21  and  N1_24 
REMARK   13  A    between atoms: N1_24  and  O7_26 
REMARK   14  A    between atoms: C18_30  and  O8_31 
ROOT
HETATM    1  C8  UNL     1      16.691  -5.996 -31.620  1.00  0.00     0.164 C 
HETATM    2  C9  UNL     1      17.454  -6.785 -30.585  1.00  0.00     0.089 C 
HETATM    3  C10 UNL     1      18.445  -5.980 -29.820  1.00  0.00     0.200 C 
HETATM    4  C15 UNL     1      18.932  -4.736 -30.514  1.00  0.00     0.196 C 
HETATM    5  C16 UNL     1      17.880  -3.888 -31.123  1.00  0.00     0.074 C 
HETATM    6  C17 UNL     1      17.789  -2.543 -30.438  1.00  0.00     0.018 C 
HETATM    7  C18 UNL     1      16.519  -4.545 -31.230  1.00  0.00     0.159 C 
ENDROOT
BRANCH   1   8
HETATM    8  O2  UNL     1      15.526  -6.638 -32.000  1.00  0.00    -0.313 OA
BRANCH   8   9
HETATM    9  C7  UNL     1      15.353  -7.630 -32.932  1.00  0.00     0.259 C 
HETATM   10  O1  UNL     1      14.925  -8.715 -32.454  1.00  0.00    -0.265 OA
BRANCH   9  11
HETATM   11  C6  UNL     1      15.620  -7.506 -34.364  1.00  0.00     0.115 C 
BRANCH  11  12
HETATM   12  C5  UNL     1      14.876  -6.458 -35.104  1.00  0.00     0.043 C 
BRANCH  12  13
HETATM   13  C3  UNL     1      15.396  -6.085 -36.424  1.00  0.00    -0.087 C 
HETATM   14  C2  UNL     1      14.838  -5.055 -37.082  1.00  0.00    -0.029 C 
HETATM   15  C1  UNL     1      13.721  -4.275 -36.476  1.00  0.00     0.036 C 
HETATM   16  C4  UNL     1      16.503  -6.827 -37.073  1.00  0.00     0.043 C 
ENDBRANCH  12  13
ENDBRANCH  11  12
ENDBRANCH   9  11
ENDBRANCH   8   9
ENDBRANCH   1   8
BRANCH   7  17
HETATM   17  O8  UNL     1      15.748  -4.006 -32.264  1.00  0.00    -0.388 OA
HETATM   18  C19 UNL     1      16.466  -3.688 -33.400  1.00  0.00     0.202 C 
ENDBRANCH   7  17
BRANCH   3  19
HETATM   19  O3  UNL     1      17.859  -5.655 -28.595  1.00  0.00    -0.375 OA
ATOM     20  H3  UNL     1      17.565  -4.754 -28.653  1.00  0.00     0.211 HD
ENDBRANCH   3  19
BRANCH   3  21
HETATM   21  C11 UNL     1      19.674  -6.798 -29.512  1.00  0.00     0.298 C 
HETATM   22  O4  UNL     1      19.800  -7.969 -29.956  1.00  0.00    -0.262 OA
BRANCH  21  23
HETATM   23  O5  UNL     1      20.699  -6.300 -28.735  1.00  0.00    -0.319 OA
BRANCH  23  24
HETATM   24  C12 UNL     1      21.892  -6.987 -28.461  1.00  0.00     0.178 C 
BRANCH  24  25
HETATM   25  C13 UNL     1      23.146  -6.272 -28.842  1.00  0.00     0.022 C 
HETATM   26  C14 UNL     1      24.343  -6.872 -28.094  1.00  0.00     0.007 C 
ENDBRANCH  24  25
ENDBRANCH  23  24
ENDBRANCH  21  23
ENDBRANCH   3  21
BRANCH   4  27
HETATM   27  O6  UNL     1      19.831  -5.183 -31.520  1.00  0.00    -0.366 OA
ATOM     28  H6  UNL     1      19.616  -4.682 -32.298  1.00  0.00     0.212 HD
ENDBRANCH   4  27
BRANCH   4  29
HETATM   29  N1  UNL     1      19.766  -3.994 -29.610  1.00  0.00    -0.266 N 
ATOM     30  H1  UNL     1      19.440  -3.723 -28.682  1.00  0.00     0.191 HD
BRANCH  29  31
HETATM   31  O7  UNL     1      20.979  -3.678 -30.037  1.00  0.00    -0.292 OA
ATOM     32  H7  UNL     1      21.632  -3.492 -29.373  1.00  0.00     0.244 HD
ENDBRANCH  29  31
ENDBRANCH   4  29
TORSDOF 14
ENDMDL
MODEL 5
REMARK VINA RESULT: -8.211645800      2.449      5.679
REMARK  14 active torsions:
REMARK  status: ('A' for Active; 'I' for Inactive)
REMARK    1  A    between atoms: C3_3  and  C5_5 
REMARK    2  A    between atoms: C5_5  and  C6_6 
REMARK    3  A    between atoms: C6_6  and  C7_7 
REMARK    4  A    between atoms: C7_7  and  O2_9 
REMARK    5  A    between atoms: O2_9  and  C8_10 
REMARK    6  A    between atoms: C10_12  and  O3_13 
REMARK    7  A    between atoms: C10_12  and  C11_15 
REMARK    8  A    between atoms: C11_15  and  O5_17 
REMARK    9  A    between atoms: O5_17  and  C12_18 
REMARK   10  A    between atoms: C12_18  and  C13_19 
REMARK   11  A    between atoms: C15_21  and  O6_22 
REMARK   12  A    between atoms: C15_21  and  N1_24 
REMARK   13  A    between atoms: N1_24  and  O7_26 
REMARK   14  A    between atoms: C18_30  and  O8_31 
ROOT
HETATM    1  C8  UNL     1      20.630  -7.831 -29.034  1.00  0.00     0.164 C 
HETATM    2  C9  UNL     1      21.247  -6.517 -29.441  1.00  0.00     0.089 C 
HETATM    3  C10 UNL     1      22.636  -6.320 -28.941  1.00  0.00     0.200 C 
HETATM    4  C15 UNL     1      22.996  -7.119 -27.719  1.00  0.00     0.196 C 
HETATM    5  C16 UNL     1      22.617  -8.552 -27.755  1.00  0.00     0.074 C 
HETATM    6  C17 UNL     1      23.837  -9.447 -27.756  1.00  0.00     0.018 C 
HETATM    7  C18 UNL     1      21.659  -8.927 -28.868  1.00  0.00     0.159 C 
ENDROOT
BRANCH   1   8
HETATM    8  O2  UNL     1      19.551  -8.163 -29.835  1.00  0.00    -0.313 OA
BRANCH   8   9
HETATM    9  C7  UNL     1      18.234  -8.316 -29.486  1.00  0.00     0.259 C 
HETATM   10  O1  UNL     1      17.873  -9.517 -29.354  1.00  0.00    -0.265 OA
BRANCH   9  11
HETATM   11  C6  UNL     1      17.280  -7.229 -29.271  1.00  0.00     0.115 C 
BRANCH  11  12
HETATM   12  C5  UNL     1      17.054  -6.293 -30.399  1.00  0.00     0.043 C 
BRANCH  12  13
HETATM   13  C3  UNL     1      17.201  -4.862 -30.110  1.00  0.00    -0.087 C 
HETATM   14  C2  UNL     1      16.706  -3.963 -30.976  1.00  0.00    -0.029 C 
HETATM   15  C1  UNL     1      15.988  -4.402 -32.208  1.00  0.00     0.036 C 
HETATM   16  C4  UNL     1      17.907  -4.370 -28.902  1.00  0.00     0.043 C 
ENDBRANCH  12  13
ENDBRANCH  11  12
ENDBRANCH   9  11
ENDBRANCH   8   9
ENDBRANCH   1   8
BRANCH   7  17
HETATM   17  O8  UNL     1      20.900 -10.059 -28.556  1.00  0.00    -0.388 OA
HETATM   18  C19 UNL     1      21.020 -11.091 -29.466  1.00  0.00     0.202 C 
ENDBRANCH   7  17
BRANCH   3  19
HETATM   19  O3  UNL     1      23.503  -6.624 -29.994  1.00  0.00    -0.375 OA
ATOM     20  H3  UNL     1      24.362  -6.299 -29.754  1.00  0.00     0.211 HD
ENDBRANCH   3  19
BRANCH   3  21
HETATM   21  C11 UNL     1      22.875  -4.875 -28.584  1.00  0.00     0.298 C 
HETATM   22  O4  UNL     1      21.982  -4.007 -28.767  1.00  0.00    -0.262 OA
BRANCH  21  23
HETATM   23  O5  UNL     1      24.073  -4.450 -28.050  1.00  0.00    -0.319 OA
BRANCH  23  24
HETATM   24  C12 UNL     1      24.227  -3.296 -27.266  1.00  0.00     0.178 C 
BRANCH  24  25
HETATM   25  C13 UNL     1      23.794  -3.424 -25.843  1.00  0.00     0.022 C 
HETATM   26  C14 UNL     1      23.428  -2.048 -25.276  1.00  0.00     0.007 C 
ENDBRANCH  24  25
ENDBRANCH  23  24
ENDBRANCH  21  23
ENDBRANCH   3  21
BRANCH   4  27
HETATM   27  O6  UNL     1      22.342  -6.478 -26.632  1.00  0.00    -0.366 OA
ATOM     28  H6  UNL     1      22.908  -5.757 -26.381  1.00  0.00     0.212 HD
ENDBRANCH   4  27
BRANCH   4  29
HETATM   29  N1  UNL     1      24.393  -6.938 -27.437  1.00  0.00    -0.266 N 
ATOM     30  H1  UNL     1      24.721  -6.673 -26.509  1.00  0.00     0.191 HD
BRANCH  29  31
HETATM   31  O7  UNL     1      25.235  -7.133 -28.440  1.00  0.00    -0.292 OA
ATOM     32  H7  UNL     1      26.084  -7.499 -28.222  1.00  0.00     0.244 HD
ENDBRANCH  29  31
ENDBRANCH   4  29
TORSDOF 14
ENDMDL
