MODEL 1
REMARK VINA RESULT: -8.931586805      0.000      0.000
REMARK  9 active torsions:
REMARK  status: ('A' for Active; 'I' for Inactive)
REMARK    1  A    between atoms: C2_2  and  C3_3 
REMARK    2  A    between atoms: C2_2  and  C12_22 
REMARK    3  A    between atoms: C3_3  and  C4_4 
REMARK       I    between atoms: C4_4  and  N1_6 
REMARK    4  A    between atoms: N1_6  and  C5_8 
REMARK    5  A    between atoms: C8_13  and  S1_14 
REMARK    6  A    between atoms: S1_14  and  C9_15 
REMARK    7  A    between atoms: C12_22  and  O3_23 
REMARK    8  A    between atoms: C12_22  and  N6_25 
REMARK    9  A    between atoms: N6_25  and  C13_27 
ROOT
HETATM    1  C9  UNL     1      22.391 -10.901 -28.758  1.00  0.00     0.206 C 
HETATM    2  C10 UNL     1      22.450 -11.920 -27.735  1.00  0.00     0.069 C 
HETATM    3  N4  UNL     1      22.486 -12.757 -26.927  1.00  0.00    -0.197 NA
ENDROOT
BRANCH   1   4
HETATM    4  S1  UNL     1      22.846  -9.253 -28.092  1.00  0.00    -0.079 SA
BRANCH   4   5
HETATM    5  C8  UNL     1      21.644  -8.108 -28.746  1.00  0.00     0.151 A 
HETATM    6  N3  UNL     1      21.999  -6.819 -28.875  1.00  0.00    -0.318 N 
HETATM    7  C6  UNL     1      21.165  -5.877 -29.337  1.00  0.00     0.152 A 
HETATM    8  C7  UNL     1      23.338  -6.434 -28.506  1.00  0.00     0.159 C 
HETATM    9  C5  UNL     1      19.884  -6.305 -29.686  1.00  0.00     0.145 A 
HETATM   10  N2  UNL     1      21.578  -4.516 -29.450  1.00  0.00    -0.080 NA
HETATM   11  C11 UNL     1      19.501  -7.629 -29.561  1.00  0.00     0.277 A 
HETATM   12  N5  UNL     1      20.399  -8.511 -29.087  1.00  0.00    -0.302 N 
HETATM   13  O2  UNL     1      18.339  -8.014 -29.880  1.00  0.00    -0.266 OA
ATOM     14  H5  UNL     1      20.140  -9.492 -28.985  1.00  0.00     0.171 HD
BRANCH   9  15
HETATM   15  N1  UNL     1      18.952  -5.355 -30.173  1.00  0.00    -0.320 N 
HETATM   16  C4  UNL     1      18.042  -4.719 -29.254  1.00  0.00     0.222 C 
HETATM   17  O1  UNL     1      18.102  -5.015 -28.049  1.00  0.00    -0.273 OA
ATOM     18  H1  UNL     1      18.925  -5.124 -31.166  1.00  0.00     0.169 HD
BRANCH  16  19
HETATM   19  C3  UNL     1      17.090  -3.751 -29.783  1.00  0.00     0.111 C 
BRANCH  19  20
HETATM   20  C2  UNL     1      17.623  -2.943 -30.922  1.00  0.00     0.038 C 
HETATM   21  C1  UNL     1      17.328  -1.470 -30.529  1.00  0.00     0.015 C 
BRANCH  20  22
HETATM   22  C12 UNL     1      16.835  -3.192 -32.213  1.00  0.00     0.217 C 
BRANCH  22  23
HETATM   23  O3  UNL     1      16.184  -2.020 -32.597  1.00  0.00    -0.377 OA
ATOM     24  H3  UNL     1      16.796  -1.446 -33.043  1.00  0.00     0.212 HD
ENDBRANCH  22  23
BRANCH  22  25
HETATM   25  N6  UNL     1      15.971  -4.297 -32.157  1.00  0.00    -0.392 N 
ATOM     26  H6  UNL     1      15.212  -4.279 -31.477  1.00  0.00     0.156 HD
BRANCH  25  27
HETATM   27  C13 UNL     1      16.090  -5.415 -32.974  1.00  0.00     0.079 C 
HETATM   28  C14 UNL     1      16.101  -6.695 -32.106  1.00  0.00     0.025 C 
HETATM   29  C15 UNL     1      15.361  -7.744 -32.859  1.00  0.00     0.002 C 
HETATM   30  C16 UNL     1      14.933  -7.147 -34.178  1.00  0.00     0.002 C 
HETATM   31  C17 UNL     1      15.000  -5.631 -33.964  1.00  0.00     0.025 C 
ENDBRANCH  25  27
ENDBRANCH  22  25
ENDBRANCH  20  22
ENDBRANCH  19  20
ENDBRANCH  16  19
ENDBRANCH   9  15
ENDBRANCH   4   5
ENDBRANCH   1   4
TORSDOF 9
ENDMDL
MODEL 2
REMARK VINA RESULT: -8.766688016      1.791      1.976
REMARK  9 active torsions:
REMARK  status: ('A' for Active; 'I' for Inactive)
REMARK    1  A    between atoms: C2_2  and  C3_3 
REMARK    2  A    between atoms: C2_2  and  C12_22 
REMARK    3  A    between atoms: C3_3  and  C4_4 
REMARK       I    between atoms: C4_4  and  N1_6 
REMARK    4  A    between atoms: N1_6  and  C5_8 
REMARK    5  A    between atoms: C8_13  and  S1_14 
REMARK    6  A    between atoms: S1_14  and  C9_15 
REMARK    7  A    between atoms: C12_22  and  O3_23 
REMARK    8  A    between atoms: C12_22  and  N6_25 
REMARK    9  A    between atoms: N6_25  and  C13_27 
ROOT
HETATM    1  C9  UNL     1      22.061 -10.920 -28.690  1.00  0.00     0.206 C 
HETATM    2  C10 UNL     1      22.375 -11.936 -27.712  1.00  0.00     0.069 C 
HETATM    3  N4  UNL     1      22.612 -12.771 -26.936  1.00  0.00    -0.197 NA
ENDROOT
BRANCH   1   4
HETATM    4  S1  UNL     1      22.616  -9.261 -28.138  1.00  0.00    -0.079 SA
BRANCH   4   5
HETATM    5  C8  UNL     1      21.433  -8.100 -28.798  1.00  0.00     0.151 A 
HETATM    6  N3  UNL     1      21.805  -6.815 -28.921  1.00  0.00    -0.318 N 
HETATM    7  C6  UNL     1      20.985  -5.862 -29.387  1.00  0.00     0.152 A 
HETATM    8  C7  UNL     1      23.145  -6.447 -28.542  1.00  0.00     0.159 C 
HETATM    9  C5  UNL     1      19.701  -6.274 -29.746  1.00  0.00     0.145 A 
HETATM   10  N2  UNL     1      21.416  -4.506 -29.494  1.00  0.00    -0.080 NA
HETATM   11  C11 UNL     1      19.302  -7.594 -29.627  1.00  0.00     0.277 A 
HETATM   12  N5  UNL     1      20.186  -8.487 -29.149  1.00  0.00    -0.302 N 
HETATM   13  O2  UNL     1      18.137  -7.963 -29.955  1.00  0.00    -0.266 OA
ATOM     14  H5  UNL     1      19.914  -9.465 -29.051  1.00  0.00     0.171 HD
BRANCH   9  15
HETATM   15  N1  UNL     1      18.785  -5.312 -30.238  1.00  0.00    -0.320 N 
HETATM   16  C4  UNL     1      17.901  -4.641 -29.318  1.00  0.00     0.222 C 
HETATM   17  O1  UNL     1      17.969  -4.918 -28.109  1.00  0.00    -0.273 OA
ATOM     18  H1  UNL     1      18.750  -5.096 -31.234  1.00  0.00     0.169 HD
BRANCH  16  19
HETATM   19  C3  UNL     1      16.963  -3.660 -29.852  1.00  0.00     0.111 C 
BRANCH  19  20
HETATM   20  C2  UNL     1      17.619  -2.423 -30.375  1.00  0.00     0.038 C 
HETATM   21  C1  UNL     1      17.127  -1.290 -29.434  1.00  0.00     0.015 C 
BRANCH  20  22
HETATM   22  C12 UNL     1      17.104  -2.053 -31.771  1.00  0.00     0.217 C 
BRANCH  22  23
HETATM   23  O3  UNL     1      15.803  -2.529 -31.932  1.00  0.00    -0.377 OA
ATOM     24  H3  UNL     1      15.481  -2.292 -32.794  1.00  0.00     0.212 HD
ENDBRANCH  22  23
BRANCH  22  25
HETATM   25  N6  UNL     1      17.954  -2.439 -32.819  1.00  0.00    -0.392 N 
ATOM     26  H6  UNL     1      18.624  -1.754 -33.171  1.00  0.00     0.156 HD
BRANCH  25  27
HETATM   27  C13 UNL     1      17.938  -3.698 -33.406  1.00  0.00     0.079 C 
HETATM   28  C14 UNL     1      17.420  -3.587 -34.860  1.00  0.00     0.025 C 
HETATM   29  C15 UNL     1      18.187  -4.567 -35.676  1.00  0.00     0.002 C 
HETATM   30  C16 UNL     1      19.132  -5.296 -34.751  1.00  0.00     0.002 C 
HETATM   31  C17 UNL     1      19.248  -4.394 -33.518  1.00  0.00     0.025 C 
ENDBRANCH  25  27
ENDBRANCH  22  25
ENDBRANCH  20  22
ENDBRANCH  19  20
ENDBRANCH  16  19
ENDBRANCH   9  15
ENDBRANCH   4   5
ENDBRANCH   1   4
TORSDOF 9
ENDMDL
MODEL 3
REMARK VINA RESULT: -8.646070348      3.068      8.527
REMARK  9 active torsions:
REMARK  status: ('A' for Active; 'I' for Inactive)
REMARK    1  A    between atoms: C2_2  and  C3_3 
REMARK    2  A    between atoms: C2_2  and  C12_22 
REMARK    3  A    between atoms: C3_3  and  C4_4 
REMARK       I    between atoms: C4_4  and  N1_6 
REMARK    4  A    between atoms: N1_6  and  C5_8 
REMARK    5  A    between atoms: C8_13  and  S1_14 
REMARK    6  A    between atoms: S1_14  and  C9_15 
REMARK    7  A    between atoms: C12_22  and  O3_23 
REMARK    8  A    between atoms: C12_22  and  N6_25 
REMARK    9  A    between atoms: N6_25  and  C13_27 
ROOT
HETATM    1  C9  UNL     1      14.623  -3.009 -33.543  1.00  0.00     0.206 C 
HETATM    2  C10 UNL     1      13.450  -2.195 -33.320  1.00  0.00     0.069 C 
HETATM    3  N4  UNL     1      12.495  -1.548 -33.162  1.00  0.00    -0.197 NA
ENDROOT
BRANCH   1   4
HETATM    4  S1  UNL     1      15.981  -2.559 -32.394  1.00  0.00    -0.079 SA
BRANCH   4   5
HETATM    5  C8  UNL     1      16.391  -4.053 -31.507  1.00  0.00     0.151 A 
HETATM    6  N3  UNL     1      17.038  -3.938 -30.336  1.00  0.00    -0.318 N 
HETATM    7  C6  UNL     1      17.408  -4.998 -29.603  1.00  0.00     0.152 A 
HETATM    8  C7  UNL     1      17.342  -2.619 -29.843  1.00  0.00     0.159 C 
HETATM    9  C5  UNL     1      17.084  -6.251 -30.122  1.00  0.00     0.145 A 
HETATM   10  N2  UNL     1      18.103  -4.833 -28.367  1.00  0.00    -0.080 NA
HETATM   11  C11 UNL     1      16.417  -6.387 -31.327  1.00  0.00     0.277 A 
HETATM   12  N5  UNL     1      16.082  -5.273 -32.001  1.00  0.00    -0.302 N 
HETATM   13  O2  UNL     1      16.123  -7.526 -31.793  1.00  0.00    -0.266 OA
ATOM     14  H5  UNL     1      15.591  -5.348 -32.891  1.00  0.00     0.171 HD
BRANCH   9  15
HETATM   15  N1  UNL     1      17.456  -7.411 -29.398  1.00  0.00    -0.320 N 
HETATM   16  C4  UNL     1      18.801  -7.916 -29.512  1.00  0.00     0.222 C 
HETATM   17  O1  UNL     1      19.608  -7.316 -30.241  1.00  0.00    -0.273 OA
ATOM     18  H1  UNL     1      16.778  -7.885 -28.801  1.00  0.00     0.169 HD
BRANCH  16  19
HETATM   19  C3  UNL     1      19.155  -9.115 -28.761  1.00  0.00     0.111 C 
BRANCH  19  20
HETATM   20  C2  UNL     1      19.810 -10.172 -29.589  1.00  0.00     0.038 C 
HETATM   21  C1  UNL     1      19.407 -11.509 -28.909  1.00  0.00     0.015 C 
BRANCH  20  22
HETATM   22  C12 UNL     1      21.339 -10.105 -29.493  1.00  0.00     0.217 C 
BRANCH  22  23
HETATM   23  O3  UNL     1      21.847 -11.374 -29.218  1.00  0.00    -0.377 OA
ATOM     24  H3  UNL     1      22.160 -11.405 -28.322  1.00  0.00     0.212 HD
ENDBRANCH  22  23
BRANCH  22  25
HETATM   25  N6  UNL     1      21.817  -9.127 -28.607  1.00  0.00    -0.392 N 
ATOM     26  H6  UNL     1      21.325  -8.998 -27.723  1.00  0.00     0.156 HD
BRANCH  25  27
HETATM   27  C13 UNL     1      22.921  -8.323 -28.863  1.00  0.00     0.079 C 
HETATM   28  C14 UNL     1      22.608  -6.864 -28.454  1.00  0.00     0.025 C 
HETATM   29  C15 UNL     1      23.859  -6.288 -27.890  1.00  0.00     0.002 C 
HETATM   30  C16 UNL     1      24.934  -7.344 -27.980  1.00  0.00     0.002 C 
HETATM   31  C17 UNL     1      24.174  -8.666 -28.137  1.00  0.00     0.025 C 
ENDBRANCH  25  27
ENDBRANCH  22  25
ENDBRANCH  20  22
ENDBRANCH  19  20
ENDBRANCH  16  19
ENDBRANCH   9  15
ENDBRANCH   4   5
ENDBRANCH   1   4
TORSDOF 9
ENDMDL
MODEL 4
REMARK VINA RESULT: -8.447876388      1.159      1.502
REMARK  9 active torsions:
REMARK  status: ('A' for Active; 'I' for Inactive)
REMARK    1  A    between atoms: C2_2  and  C3_3 
REMARK    2  A    between atoms: C2_2  and  C12_22 
REMARK    3  A    between atoms: C3_3  and  C4_4 
REMARK       I    between atoms: C4_4  and  N1_6 
REMARK    4  A    between atoms: N1_6  and  C5_8 
REMARK    5  A    between atoms: C8_13  and  S1_14 
REMARK    6  A    between atoms: S1_14  and  C9_15 
REMARK    7  A    between atoms: C12_22  and  O3_23 
REMARK    8  A    between atoms: C12_22  and  N6_25 
REMARK    9  A    between atoms: N6_25  and  C13_27 
ROOT
HETATM    1  C9  UNL     1      22.434 -10.734 -28.763  1.00  0.00     0.206 C 
HETATM    2  C10 UNL     1      22.528 -11.771 -27.762  1.00  0.00     0.069 C 
HETATM    3  N4  UNL     1      22.590 -12.623 -26.971  1.00  0.00    -0.197 NA
ENDROOT
BRANCH   1   4
HETATM    4  S1  UNL     1      22.959  -9.107 -28.096  1.00  0.00    -0.079 SA
BRANCH   4   5
HETATM    5  C8  UNL     1      21.805  -7.912 -28.747  1.00  0.00     0.151 A 
HETATM    6  N3  UNL     1      22.193  -6.627 -28.815  1.00  0.00    -0.318 N 
HETATM    7  C6  UNL     1      21.395  -5.650 -29.269  1.00  0.00     0.152 A 
HETATM    8  C7  UNL     1      23.526  -6.287 -28.388  1.00  0.00     0.159 C 
HETATM    9  C5  UNL     1      20.118  -6.035 -29.676  1.00  0.00     0.145 A 
HETATM   10  N2  UNL     1      21.842  -4.295 -29.317  1.00  0.00    -0.080 NA
HETATM   11  C11 UNL     1      19.703  -7.354 -29.613  1.00  0.00     0.277 A 
HETATM   12  N5  UNL     1      20.565  -8.273 -29.144  1.00  0.00    -0.302 N 
HETATM   13  O2  UNL     1      18.544  -7.700 -29.985  1.00  0.00    -0.266 OA
ATOM     14  H5  UNL     1      20.281  -9.251 -29.087  1.00  0.00     0.171 HD
BRANCH   9  15
HETATM   15  N1  UNL     1      19.224  -5.047 -30.158  1.00  0.00    -0.320 N 
HETATM   16  C4  UNL     1      18.207  -4.524 -29.282  1.00  0.00     0.222 C 
HETATM   17  O1  UNL     1      18.142  -4.948 -28.116  1.00  0.00    -0.273 OA
ATOM     18  H1  UNL     1      19.300  -4.709 -31.118  1.00  0.00     0.169 HD
BRANCH  16  19
HETATM   19  C3  UNL     1      17.297  -3.513 -29.805  1.00  0.00     0.111 C 
BRANCH  19  20
HETATM   20  C2  UNL     1      17.237  -3.472 -31.298  1.00  0.00     0.038 C 
HETATM   21  C1  UNL     1      16.652  -2.072 -31.629  1.00  0.00     0.015 C 
BRANCH  20  22
HETATM   22  C12 UNL     1      16.229  -4.483 -31.856  1.00  0.00     0.217 C 
BRANCH  22  23
HETATM   23  O3  UNL     1      16.281  -5.658 -31.106  1.00  0.00    -0.377 OA
ATOM     24  H3  UNL     1      16.745  -5.497 -30.292  1.00  0.00     0.212 HD
ENDBRANCH  22  23
BRANCH  22  25
HETATM   25  N6  UNL     1      16.351  -4.717 -33.235  1.00  0.00    -0.392 N 
ATOM     26  H6  UNL     1      17.274  -4.942 -33.604  1.00  0.00     0.156 HD
BRANCH  25  27
HETATM   27  C13 UNL     1      15.287  -4.658 -34.127  1.00  0.00     0.079 C 
HETATM   28  C14 UNL     1      14.558  -6.021 -34.157  1.00  0.00     0.025 C 
HETATM   29  C15 UNL     1      13.104  -5.740 -34.311  1.00  0.00     0.002 C 
HETATM   30  C16 UNL     1      12.934  -4.243 -34.412  1.00  0.00     0.002 C 
HETATM   31  C17 UNL     1      14.224  -3.660 -33.825  1.00  0.00     0.025 C 
ENDBRANCH  25  27
ENDBRANCH  22  25
ENDBRANCH  20  22
ENDBRANCH  19  20
ENDBRANCH  16  19
ENDBRANCH   9  15
ENDBRANCH   4   5
ENDBRANCH   1   4
TORSDOF 9
ENDMDL
MODEL 5
REMARK VINA RESULT: -8.435129242      2.429      4.417
REMARK  9 active torsions:
REMARK  status: ('A' for Active; 'I' for Inactive)
REMARK    1  A    between atoms: C2_2  and  C3_3 
REMARK    2  A    between atoms: C2_2  and  C12_22 
REMARK    3  A    between atoms: C3_3  and  C4_4 
REMARK       I    between atoms: C4_4  and  N1_6 
REMARK    4  A    between atoms: N1_6  and  C5_8 
REMARK    5  A    between atoms: C8_13  and  S1_14 
REMARK    6  A    between atoms: S1_14  and  C9_15 
REMARK    7  A    between atoms: C12_22  and  O3_23 
REMARK    8  A    between atoms: C12_22  and  N6_25 
REMARK    9  A    between atoms: N6_25  and  C13_27 
ROOT
HETATM    1  C9  UNL     1      23.763  -4.097 -26.754  1.00  0.00     0.206 C 
HETATM    2  C10 UNL     1      24.606  -3.034 -27.251  1.00  0.00     0.069 C 
HETATM    3  N4  UNL     1      25.272  -2.161 -27.637  1.00  0.00    -0.197 NA
ENDROOT
BRANCH   1   4
HETATM    4  S1  UNL     1      24.025  -5.655 -27.688  1.00  0.00    -0.079 SA
BRANCH   4   5
HETATM    5  C8  UNL     1      22.489  -5.987 -28.532  1.00  0.00     0.151 A 
HETATM    6  N3  UNL     1      22.024  -7.247 -28.531  1.00  0.00    -0.318 N 
HETATM    7  C6  UNL     1      20.891  -7.604 -29.153  1.00  0.00     0.152 A 
HETATM    8  C7  UNL     1      22.771  -8.257 -27.826  1.00  0.00     0.159 C 
HETATM    9  C5  UNL     1      20.202  -6.587 -29.814  1.00  0.00     0.145 A 
HETATM   10  N2  UNL     1      20.435  -8.957 -29.136  1.00  0.00    -0.080 NA
HETATM   11  C11 UNL     1      20.667  -5.284 -29.825  1.00  0.00     0.277 A 
HETATM   12  N5  UNL     1      21.813  -5.009 -29.177  1.00  0.00    -0.302 N 
HETATM   13  O2  UNL     1      20.039  -4.364 -30.424  1.00  0.00    -0.266 OA
ATOM     14  H5  UNL     1      22.176  -4.056 -29.172  1.00  0.00     0.171 HD
BRANCH   9  15
HETATM   15  N1  UNL     1      19.002  -6.903 -30.497  1.00  0.00    -0.320 N 
HETATM   16  C4  UNL     1      17.745  -6.815 -29.798  1.00  0.00     0.222 C 
HETATM   17  O1  UNL     1      17.742  -6.456 -28.609  1.00  0.00    -0.273 OA
ATOM     18  H1  UNL     1      19.027  -7.190 -31.476  1.00  0.00     0.169 HD
BRANCH  16  19
HETATM   19  C3  UNL     1      16.525  -7.152 -30.523  1.00  0.00     0.111 C 
BRANCH  19  20
HETATM   20  C2  UNL     1      16.533  -6.710 -31.950  1.00  0.00     0.038 C 
HETATM   21  C1  UNL     1      16.204  -5.193 -31.893  1.00  0.00     0.015 C 
BRANCH  20  22
HETATM   22  C12 UNL     1      15.393  -7.350 -32.750  1.00  0.00     0.217 C 
BRANCH  22  23
HETATM   23  O3  UNL     1      15.101  -8.609 -32.225  1.00  0.00    -0.377 OA
ATOM     24  H3  UNL     1      15.073  -9.249 -32.927  1.00  0.00     0.212 HD
ENDBRANCH  22  23
BRANCH  22  25
HETATM   25  N6  UNL     1      15.609  -7.379 -34.137  1.00  0.00    -0.392 N 
ATOM     26  H6  UNL     1      16.333  -8.001 -34.497  1.00  0.00     0.156 HD
BRANCH  25  27
HETATM   27  C13 UNL     1      14.894  -6.611 -35.049  1.00  0.00     0.079 C 
HETATM   28  C14 UNL     1      13.683  -5.958 -34.342  1.00  0.00     0.025 C 
HETATM   29  C15 UNL     1      13.511  -4.601 -34.928  1.00  0.00     0.002 C 
HETATM   30  C16 UNL     1      14.562  -4.425 -35.998  1.00  0.00     0.002 C 
HETATM   31  C17 UNL     1      15.627  -5.480 -35.679  1.00  0.00     0.025 C 
ENDBRANCH  25  27
ENDBRANCH  22  25
ENDBRANCH  20  22
ENDBRANCH  19  20
ENDBRANCH  16  19
ENDBRANCH   9  15
ENDBRANCH   4   5
ENDBRANCH   1   4
TORSDOF 9
ENDMDL
