MODEL 1
REMARK VINA RESULT: -9.632561936      0.000      0.000
REMARK  9 active torsions:
REMARK  status: ('A' for Active; 'I' for Inactive)
REMARK    1  A    between atoms: C1_2  and  C2_3 
REMARK    2  A    between atoms: C1_2  and  C14_29 
REMARK    3  A    between atoms: C2_3  and  N1_4 
REMARK    4  A    between atoms: N1_4  and  N2_6 
REMARK    5  A    between atoms: N4_10  and  O2_12 
REMARK    6  A    between atoms: C6_18  and  N6_19 
REMARK    7  A    between atoms: N6_19  and  C7_22 
REMARK    8  A    between atoms: C14_29  and  O3_30 
REMARK    9  A    between atoms: O3_30  and  C15_31 
ROOT
HETATM    1  N2  UNL     1      21.241  -7.448 -28.702  1.00  0.00    -0.185 N 
HETATM    2  N3  UNL     1      22.192  -8.487 -28.793  1.00  0.00    -0.267 N 
ATOM      3  H3  UNL     1      23.146  -8.164 -28.633  1.00  0.00     0.190 HD
HETATM    4  C3  UNL     1      22.122  -9.865 -29.055  1.00  0.00     0.121 C 
HETATM    5  N4  UNL     1      22.994 -10.607 -28.526  1.00  0.00    -0.255 N 
ATOM      6  H4  UNL     1      23.709 -10.183 -27.936  1.00  0.00     0.195 HD
HETATM    7  C4  UNL     1      21.072 -10.549 -29.849  1.00  0.00     0.124 C 
HETATM    8  C5  UNL     1      19.787 -10.088 -29.142  1.00  0.00     0.067 C 
HETATM    9  N5  UNL     1      19.442  -8.878 -29.013  1.00  0.00    -0.357 N 
ATOM     10  H5  UNL     1      18.560  -8.748 -28.518  1.00  0.00     0.162 HD
HETATM   11  C6  UNL     1      20.072  -7.639 -29.442  1.00  0.00     0.426 C 
ENDROOT
BRANCH   1  12
HETATM   12  N1  UNL     1      21.954  -6.339 -28.702  1.00  0.00    -0.309 N 
ATOM     13  H1  UNL     1      21.486  -5.433 -28.715  1.00  0.00     0.182 HD
BRANCH  12  14
HETATM   14  C2  UNL     1      23.418  -6.408 -28.683  1.00  0.00     0.221 C 
BRANCH  14  15
HETATM   15  C1  UNL     1      23.771  -5.555 -27.478  1.00  0.00     0.169 C 
HETATM   16  O1  UNL     1      24.559  -4.595 -27.620  1.00  0.00    -0.294 OA
BRANCH  15  17
HETATM   17  C14 UNL     1      23.282  -5.786 -26.124  1.00  0.00     0.248 C 
BRANCH  17  18
HETATM   18  O3  UNL     1      23.497  -4.511 -25.510  1.00  0.00    -0.378 OA
BRANCH  18  19
HETATM   19  C15 UNL     1      22.820  -4.402 -24.295  1.00  0.00     0.125 C 
HETATM   20  C16 UNL     1      23.235  -2.996 -23.795  1.00  0.00     0.059 C 
HETATM   21  C17 UNL     1      24.049  -2.980 -22.586  1.00  0.00     0.235 C 
HETATM   22  N7  UNL     1      23.738  -4.041 -21.648  1.00  0.00    -0.075 N 
HETATM   23  C18 UNL     1      24.128  -5.276 -22.321  1.00  0.00     0.235 C 
ATOM     24  H72 UNL     1      24.168  -3.919 -20.731  1.00  0.00     0.277 HD
ATOM     25  H71 UNL     1      22.769  -4.036 -21.327  1.00  0.00     0.277 HD
HETATM   26  C19 UNL     1      23.093  -5.511 -23.406  1.00  0.00     0.059 C 
ENDBRANCH  18  19
ENDBRANCH  17  18
ENDBRANCH  15  17
ENDBRANCH  14  15
ENDBRANCH  12  14
ENDBRANCH   1  12
BRANCH  11  27
HETATM   27  N6  UNL     1      19.087  -6.578 -29.223  1.00  0.00    -0.029 N 
ATOM     28  H62 UNL     1      18.366  -6.820 -28.543  1.00  0.00     0.282 HD
ATOM     29  H61 UNL     1      19.457  -5.771 -28.721  1.00  0.00     0.282 HD
BRANCH  27  30
HETATM   30  C7  UNL     1      18.571  -6.264 -30.532  1.00  0.00     0.190 C 
HETATM   31  C8  UNL     1      19.197  -4.954 -30.934  1.00  0.00     0.033 C 
HETATM   32  C9  UNL     1      19.267  -4.746 -32.399  1.00  0.00     0.002 C 
HETATM   33  C10 UNL     1      18.560  -5.784 -33.221  1.00  0.00     0.000 C 
HETATM   34  C11 UNL     1      17.075  -5.762 -33.052  1.00  0.00     0.000 C 
HETATM   35  C12 UNL     1      16.597  -5.318 -31.711  1.00  0.00     0.002 C 
HETATM   36  C13 UNL     1      17.088  -6.318 -30.675  1.00  0.00     0.033 C 
ENDBRANCH  27  30
ENDBRANCH  11  27
BRANCH   5  37
HETATM   37  O2  UNL     1      23.014 -11.948 -28.715  1.00  0.00    -0.288 OA
ATOM     38  H2  UNL     1      23.208 -12.557 -28.013  1.00  0.00     0.244 HD
ENDBRANCH   5  37
TORSDOF 9
ENDMDL
MODEL 2
REMARK VINA RESULT: -9.582489498      1.262      1.837
REMARK  9 active torsions:
REMARK  status: ('A' for Active; 'I' for Inactive)
REMARK    1  A    between atoms: C1_2  and  C2_3 
REMARK    2  A    between atoms: C1_2  and  C14_29 
REMARK    3  A    between atoms: C2_3  and  N1_4 
REMARK    4  A    between atoms: N1_4  and  N2_6 
REMARK    5  A    between atoms: N4_10  and  O2_12 
REMARK    6  A    between atoms: C6_18  and  N6_19 
REMARK    7  A    between atoms: N6_19  and  C7_22 
REMARK    8  A    between atoms: C14_29  and  O3_30 
REMARK    9  A    between atoms: O3_30  and  C15_31 
ROOT
HETATM    1  N2  UNL     1      20.874  -7.530 -28.756  1.00  0.00    -0.185 N 
HETATM    2  N3  UNL     1      21.915  -8.481 -28.824  1.00  0.00    -0.267 N 
ATOM      3  H3  UNL     1      22.832  -8.077 -28.632  1.00  0.00     0.190 HD
HETATM    4  C3  UNL     1      21.976  -9.858 -29.095  1.00  0.00     0.121 C 
HETATM    5  N4  UNL     1      22.893 -10.525 -28.544  1.00  0.00    -0.255 N 
ATOM      6  H4  UNL     1      23.550 -10.044 -27.929  1.00  0.00     0.195 HD
HETATM    7  C4  UNL     1      21.014 -10.625 -29.924  1.00  0.00     0.124 C 
HETATM    8  C5  UNL     1      19.673 -10.284 -29.255  1.00  0.00     0.067 C 
HETATM    9  N5  UNL     1      19.218  -9.111 -29.130  1.00  0.00    -0.357 N 
ATOM     10  H5  UNL     1      18.314  -9.062 -28.661  1.00  0.00     0.162 HD
HETATM   11  C6  UNL     1      19.750  -7.818 -29.533  1.00  0.00     0.426 C 
ENDROOT
BRANCH   1  12
HETATM   12  N1  UNL     1      21.486  -6.363 -28.728  1.00  0.00    -0.309 N 
ATOM     13  H1  UNL     1      21.005  -5.545 -28.356  1.00  0.00     0.182 HD
BRANCH  12  14
HETATM   14  C2  UNL     1      22.858  -6.241 -29.231  1.00  0.00     0.221 C 
BRANCH  14  15
HETATM   15  C1  UNL     1      22.928  -4.782 -29.643  1.00  0.00     0.169 C 
HETATM   16  O1  UNL     1      22.400  -4.426 -30.719  1.00  0.00    -0.294 OA
BRANCH  15  17
HETATM   17  C14 UNL     1      23.605  -3.736 -28.885  1.00  0.00     0.248 C 
BRANCH  17  18
HETATM   18  O3  UNL     1      22.959  -3.828 -27.611  1.00  0.00    -0.378 OA
BRANCH  18  19
HETATM   19  C15 UNL     1      23.876  -3.768 -26.562  1.00  0.00     0.125 C 
HETATM   20  C16 UNL     1      23.404  -4.908 -25.626  1.00  0.00     0.059 C 
HETATM   21  C17 UNL     1      22.895  -4.480 -24.329  1.00  0.00     0.235 C 
HETATM   22  N7  UNL     1      23.553  -3.303 -23.794  1.00  0.00    -0.075 N 
HETATM   23  C18 UNL     1      23.186  -2.216 -24.695  1.00  0.00     0.235 C 
ATOM     24  H72 UNL     1      23.333  -3.119 -22.816  1.00  0.00     0.277 HD
ATOM     25  H71 UNL     1      24.559  -3.414 -23.671  1.00  0.00     0.277 HD
HETATM   26  C19 UNL     1      23.965  -2.447 -25.977  1.00  0.00     0.059 C 
ENDBRANCH  18  19
ENDBRANCH  17  18
ENDBRANCH  15  17
ENDBRANCH  14  15
ENDBRANCH  12  14
ENDBRANCH   1  12
BRANCH  11  27
HETATM   27  N6  UNL     1      18.669  -6.850 -29.338  1.00  0.00    -0.029 N 
ATOM     28  H62 UNL     1      17.899  -7.201 -28.769  1.00  0.00     0.282 HD
ATOM     29  H61 UNL     1      18.920  -6.070 -28.730  1.00  0.00     0.282 HD
BRANCH  27  30
HETATM   30  C7  UNL     1      18.275  -6.449 -30.666  1.00  0.00     0.190 C 
HETATM   31  C8  UNL     1      18.951  -5.129 -30.931  1.00  0.00     0.033 C 
HETATM   32  C9  UNL     1      19.154  -4.835 -32.368  1.00  0.00     0.002 C 
HETATM   33  C10 UNL     1      18.510  -5.810 -33.311  1.00  0.00     0.000 C 
HETATM   34  C11 UNL     1      17.017  -5.772 -33.274  1.00  0.00     0.000 C 
HETATM   35  C12 UNL     1      16.427  -5.400 -31.956  1.00  0.00     0.002 C 
HETATM   36  C13 UNL     1      16.810  -6.468 -30.942  1.00  0.00     0.033 C 
ENDBRANCH  27  30
ENDBRANCH  11  27
BRANCH   5  37
HETATM   37  O2  UNL     1      23.037 -11.857 -28.739  1.00  0.00    -0.288 OA
ATOM     38  H2  UNL     1      23.805 -12.333 -28.447  1.00  0.00     0.244 HD
ENDBRANCH   5  37
TORSDOF 9
ENDMDL
MODEL 3
REMARK VINA RESULT: -9.443359992      4.532      7.170
REMARK  9 active torsions:
REMARK  status: ('A' for Active; 'I' for Inactive)
REMARK    1  A    between atoms: C1_2  and  C2_3 
REMARK    2  A    between atoms: C1_2  and  C14_29 
REMARK    3  A    between atoms: C2_3  and  N1_4 
REMARK    4  A    between atoms: N1_4  and  N2_6 
REMARK    5  A    between atoms: N4_10  and  O2_12 
REMARK    6  A    between atoms: C6_18  and  N6_19 
REMARK    7  A    between atoms: N6_19  and  C7_22 
REMARK    8  A    between atoms: C14_29  and  O3_30 
REMARK    9  A    between atoms: O3_30  and  C15_31 
ROOT
HETATM    1  N2  UNL     1      17.378  -5.357 -30.486  1.00  0.00    -0.185 N 
HETATM    2  N3  UNL     1      17.512  -4.106 -29.846  1.00  0.00    -0.267 N 
ATOM      3  H3  UNL     1      17.899  -4.183 -28.906  1.00  0.00     0.190 HD
HETATM    4  C3  UNL     1      17.232  -2.779 -30.210  1.00  0.00     0.121 C 
HETATM    5  N4  UNL     1      17.951  -1.870 -29.712  1.00  0.00    -0.255 N 
ATOM      6  H4  UNL     1      18.699  -2.131 -29.070  1.00  0.00     0.195 HD
HETATM    7  C4  UNL     1      16.205  -2.341 -31.187  1.00  0.00     0.124 C 
HETATM    8  C5  UNL     1      16.584  -3.155 -32.435  1.00  0.00     0.067 C 
HETATM    9  N5  UNL     1      16.634  -4.418 -32.472  1.00  0.00    -0.357 N 
ATOM     10  H5  UNL     1      16.903  -4.797 -33.380  1.00  0.00     0.162 HD
HETATM   11  C6  UNL     1      16.377  -5.428 -31.458  1.00  0.00     0.426 C 
ENDROOT
BRANCH   1  12
HETATM   12  N1  UNL     1      17.557  -6.245 -29.529  1.00  0.00    -0.309 N 
ATOM     13  H1  UNL     1      16.847  -6.366 -28.807  1.00  0.00     0.182 HD
BRANCH  12  14
HETATM   14  C2  UNL     1      18.777  -7.059 -29.501  1.00  0.00     0.221 C 
BRANCH  14  15
HETATM   15  C1  UNL     1      18.228  -8.468 -29.368  1.00  0.00     0.169 C 
HETATM   16  O1  UNL     1      17.029  -8.684 -29.648  1.00  0.00    -0.294 OA
BRANCH  15  17
HETATM   17  C14 UNL     1      18.992  -9.617 -28.896  1.00  0.00     0.248 C 
BRANCH  17  18
HETATM   18  O3  UNL     1      20.265  -9.028 -28.611  1.00  0.00    -0.378 OA
BRANCH  18  19
HETATM   19  C15 UNL     1      21.297  -9.680 -29.286  1.00  0.00     0.125 C 
HETATM   20  C16 UNL     1      21.160 -11.142 -28.795  1.00  0.00     0.059 C 
HETATM   21  C17 UNL     1      22.268 -11.636 -27.987  1.00  0.00     0.235 C 
HETATM   22  N7  UNL     1      23.561 -11.095 -28.363  1.00  0.00    -0.075 N 
HETATM   23  C18 UNL     1      23.492  -9.674 -28.040  1.00  0.00     0.235 C 
ATOM     24  H72 UNL     1      24.349 -11.577 -27.932  1.00  0.00     0.277 HD
ATOM     25  H71 UNL     1      23.821 -11.285 -29.331  1.00  0.00     0.277 HD
HETATM   26  C19 UNL     1      22.582  -9.047 -29.081  1.00  0.00     0.059 C 
ENDBRANCH  18  19
ENDBRANCH  17  18
ENDBRANCH  15  17
ENDBRANCH  14  15
ENDBRANCH  12  14
ENDBRANCH   1  12
BRANCH  11  27
HETATM   27  N6  UNL     1      16.359  -6.716 -32.154  1.00  0.00    -0.029 N 
ATOM     28  H62 UNL     1      17.222  -7.250 -32.053  1.00  0.00     0.282 HD
ATOM     29  H61 UNL     1      15.743  -7.407 -31.726  1.00  0.00     0.282 HD
BRANCH  27  30
HETATM   30  C7  UNL     1      16.024  -6.403 -33.521  1.00  0.00     0.190 C 
HETATM   31  C8  UNL     1      14.563  -6.732 -33.687  1.00  0.00     0.033 C 
HETATM   32  C9  UNL     1      13.898  -5.980 -34.776  1.00  0.00     0.002 C 
HETATM   33  C10 UNL     1      14.817  -5.153 -35.628  1.00  0.00     0.000 C 
HETATM   34  C11 UNL     1      15.758  -5.972 -36.451  1.00  0.00     0.000 C 
HETATM   35  C12 UNL     1      16.158  -7.274 -35.845  1.00  0.00     0.002 C 
HETATM   36  C13 UNL     1      16.919  -6.990 -34.559  1.00  0.00     0.033 C 
ENDBRANCH  27  30
ENDBRANCH  11  27
BRANCH   5  37
HETATM   37  O2  UNL     1      17.764  -0.560 -30.000  1.00  0.00    -0.288 OA
ATOM     38  H2  UNL     1      18.468  -0.002 -30.307  1.00  0.00     0.244 HD
ENDBRANCH   5  37
TORSDOF 9
ENDMDL
MODEL 4
REMARK VINA RESULT: -9.265284532      1.075      1.200
REMARK  9 active torsions:
REMARK  status: ('A' for Active; 'I' for Inactive)
REMARK    1  A    between atoms: C1_2  and  C2_3 
REMARK    2  A    between atoms: C1_2  and  C14_29 
REMARK    3  A    between atoms: C2_3  and  N1_4 
REMARK    4  A    between atoms: N1_4  and  N2_6 
REMARK    5  A    between atoms: N4_10  and  O2_12 
REMARK    6  A    between atoms: C6_18  and  N6_19 
REMARK    7  A    between atoms: N6_19  and  C7_22 
REMARK    8  A    between atoms: C14_29  and  O3_30 
REMARK    9  A    between atoms: O3_30  and  C15_31 
ROOT
HETATM    1  N2  UNL     1      22.320  -7.032 -28.623  1.00  0.00    -0.185 N 
HETATM    2  N3  UNL     1      23.012  -8.253 -28.774  1.00  0.00    -0.267 N 
ATOM      3  H3  UNL     1      24.022  -8.149 -28.671  1.00  0.00     0.190 HD
HETATM    4  C3  UNL     1      22.627  -9.578 -29.033  1.00  0.00     0.121 C 
HETATM    5  N4  UNL     1      23.344 -10.501 -28.559  1.00  0.00    -0.255 N 
ATOM      6  H4  UNL     1      24.169 -10.252 -28.012  1.00  0.00     0.195 HD
HETATM    7  C4  UNL     1      21.407 -10.004 -29.761  1.00  0.00     0.124 C 
HETATM    8  C5  UNL     1      20.299  -9.283 -28.977  1.00  0.00     0.067 C 
HETATM    9  N5  UNL     1      20.236  -8.030 -28.826  1.00  0.00    -0.357 N 
ATOM     10  H5  UNL     1      19.435  -7.716 -28.278  1.00  0.00     0.162 HD
HETATM   11  C6  UNL     1      21.096  -6.952 -29.291  1.00  0.00     0.426 C 
ENDROOT
BRANCH   1  12
HETATM   12  N1  UNL     1      23.257  -6.107 -28.664  1.00  0.00    -0.309 N 
ATOM     13  H1  UNL     1      23.559  -5.727 -29.562  1.00  0.00     0.182 HD
BRANCH  12  14
HETATM   14  C2  UNL     1      23.867  -5.622 -27.421  1.00  0.00     0.221 C 
BRANCH  14  15
HETATM   15  C1  UNL     1      23.864  -4.118 -27.620  1.00  0.00     0.169 C 
HETATM   16  O1  UNL     1      24.231  -3.646 -28.717  1.00  0.00    -0.294 OA
BRANCH  15  17
HETATM   17  C14 UNL     1      23.490  -3.145 -26.599  1.00  0.00     0.248 C 
BRANCH  17  18
HETATM   18  O3  UNL     1      24.050  -3.727 -25.417  1.00  0.00    -0.378 OA
BRANCH  18  19
HETATM   19  C15 UNL     1      23.137  -3.730 -24.361  1.00  0.00     0.125 C 
HETATM   20  C16 UNL     1      23.664  -2.594 -23.450  1.00  0.00     0.059 C 
HETATM   21  C17 UNL     1      24.163  -3.020 -22.148  1.00  0.00     0.235 C 
HETATM   22  N7  UNL     1      23.459  -4.158 -21.588  1.00  0.00    -0.075 N 
HETATM   23  C18 UNL     1      23.772  -5.276 -22.470  1.00  0.00     0.235 C 
ATOM     24  H72 UNL     1      23.677  -4.334 -20.607  1.00  0.00     0.277 HD
ATOM     25  H71 UNL     1      22.459  -4.002 -21.461  1.00  0.00     0.277 HD
HETATM   26  C19 UNL     1      22.996  -5.035 -23.752  1.00  0.00     0.059 C 
ENDBRANCH  18  19
ENDBRANCH  17  18
ENDBRANCH  15  17
ENDBRANCH  14  15
ENDBRANCH  12  14
ENDBRANCH   1  12
BRANCH  11  27
HETATM   27  N6  UNL     1      20.382  -5.705 -29.010  1.00  0.00    -0.029 N 
ATOM     28  H62 UNL     1      20.149  -5.577 -28.026  1.00  0.00     0.282 HD
ATOM     29  H61 UNL     1      20.961  -4.870 -29.105  1.00  0.00     0.282 HD
BRANCH  27  30
HETATM   30  C7  UNL     1      19.235  -5.720 -29.884  1.00  0.00     0.190 C 
HETATM   31  C8  UNL     1      19.632  -4.960 -31.122  1.00  0.00     0.033 C 
HETATM   32  C9  UNL     1      18.860  -5.332 -32.330  1.00  0.00     0.002 C 
HETATM   33  C10 UNL     1      17.712  -6.270 -32.084  1.00  0.00     0.000 C 
HETATM   34  C11 UNL     1      16.611  -5.659 -31.281  1.00  0.00     0.000 C 
HETATM   35  C12 UNL     1      17.043  -4.623 -30.299  1.00  0.00     0.002 C 
HETATM   36  C13 UNL     1      17.947  -5.287 -29.271  1.00  0.00     0.033 C 
ENDBRANCH  27  30
ENDBRANCH  11  27
BRANCH   5  37
HETATM   37  O2  UNL     1      23.058 -11.811 -28.750  1.00  0.00    -0.288 OA
ATOM     38  H2  UNL     1      22.598 -12.123 -29.520  1.00  0.00     0.244 HD
ENDBRANCH   5  37
TORSDOF 9
ENDMDL
MODEL 5
REMARK VINA RESULT: -9.241414480      3.424      6.461
REMARK  9 active torsions:
REMARK  status: ('A' for Active; 'I' for Inactive)
REMARK    1  A    between atoms: C1_2  and  C2_3 
REMARK    2  A    between atoms: C1_2  and  C14_29 
REMARK    3  A    between atoms: C2_3  and  N1_4 
REMARK    4  A    between atoms: N1_4  and  N2_6 
REMARK    5  A    between atoms: N4_10  and  O2_12 
REMARK    6  A    between atoms: C6_18  and  N6_19 
REMARK    7  A    between atoms: N6_19  and  C7_22 
REMARK    8  A    between atoms: C14_29  and  O3_30 
REMARK    9  A    between atoms: O3_30  and  C15_31 
ROOT
HETATM    1  N2  UNL     1      18.536  -4.021 -30.646  1.00  0.00    -0.185 N 
HETATM    2  N3  UNL     1      17.984  -3.132 -29.699  1.00  0.00    -0.267 N 
ATOM      3  H3  UNL     1      18.192  -3.400 -28.738  1.00  0.00     0.190 HD
HETATM    4  C3  UNL     1      17.212  -1.961 -29.781  1.00  0.00     0.121 C 
HETATM    5  N4  UNL     1      17.350  -1.103 -28.867  1.00  0.00    -0.255 N 
ATOM      6  H4  UNL     1      18.009  -1.290 -28.111  1.00  0.00     0.195 HD
HETATM    7  C4  UNL     1      16.289  -1.602 -30.884  1.00  0.00     0.124 C 
HETATM    8  C5  UNL     1      17.205  -1.708 -32.114  1.00  0.00     0.067 C 
HETATM    9  N5  UNL     1      17.817  -2.760 -32.456  1.00  0.00    -0.357 N 
ATOM     10  H5  UNL     1      18.382  -2.659 -33.298  1.00  0.00     0.162 HD
HETATM   11  C6  UNL     1      17.861  -4.090 -31.867  1.00  0.00     0.426 C 
ENDROOT
BRANCH   1  12
HETATM   12  N1  UNL     1      18.919  -5.067 -29.942  1.00  0.00    -0.309 N 
ATOM     13  H1  UNL     1      19.910  -5.296 -29.867  1.00  0.00     0.182 HD
BRANCH  12  14
HETATM   14  C2  UNL     1      17.921  -5.902 -29.266  1.00  0.00     0.221 C 
BRANCH  14  15
HETATM   15  C1  UNL     1      18.627  -7.242 -29.168  1.00  0.00     0.169 C 
HETATM   16  O1  UNL     1      18.020  -8.217 -28.674  1.00  0.00    -0.294 OA
BRANCH  15  17
HETATM   17  C14 UNL     1      20.004  -7.489 -29.583  1.00  0.00     0.248 C 
BRANCH  17  18
HETATM   18  O3  UNL     1      20.743  -6.732 -28.618  1.00  0.00    -0.378 OA
BRANCH  18  19
HETATM   19  C15 UNL     1      22.103  -6.694 -28.926  1.00  0.00     0.125 C 
HETATM   20  C16 UNL     1      22.772  -7.030 -27.570  1.00  0.00     0.059 C 
HETATM   21  C17 UNL     1      23.552  -5.952 -26.975  1.00  0.00     0.235 C 
HETATM   22  N7  UNL     1      24.218  -5.100 -27.942  1.00  0.00    -0.075 N 
HETATM   23  C18 UNL     1      23.144  -4.411 -28.650  1.00  0.00     0.235 C 
ATOM     24  H72 UNL     1      24.908  -4.472 -27.530  1.00  0.00     0.277 HD
ATOM     25  H71 UNL     1      24.862  -5.598 -28.556  1.00  0.00     0.277 HD
HETATM   26  C19 UNL     1      22.497  -5.448 -29.550  1.00  0.00     0.059 C 
ENDBRANCH  18  19
ENDBRANCH  17  18
ENDBRANCH  15  17
ENDBRANCH  14  15
ENDBRANCH  12  14
ENDBRANCH   1  12
BRANCH  11  27
HETATM   27  N6  UNL     1      18.542  -4.949 -32.838  1.00  0.00    -0.029 N 
ATOM     28  H62 UNL     1      19.084  -4.435 -33.533  1.00  0.00     0.282 HD
ATOM     29  H61 UNL     1      19.323  -5.475 -32.446  1.00  0.00     0.282 HD
BRANCH  27  30
HETATM   30  C7  UNL     1      17.506  -5.777 -33.404  1.00  0.00     0.190 C 
HETATM   31  C8  UNL     1      17.249  -5.249 -34.791  1.00  0.00     0.033 C 
HETATM   32  C9  UNL     1      16.678  -6.253 -35.720  1.00  0.00     0.002 C 
HETATM   33  C10 UNL     1      16.301  -7.560 -35.085  1.00  0.00     0.000 C 
HETATM   34  C11 UNL     1      15.156  -7.447 -34.131  1.00  0.00     0.000 C 
HETATM   35  C12 UNL     1      15.046  -6.136 -33.428  1.00  0.00     0.002 C 
HETATM   36  C13 UNL     1      16.286  -5.952 -32.565  1.00  0.00     0.033 C 
ENDBRANCH  27  30
ENDBRANCH  11  27
BRANCH   5  37
HETATM   37  O2  UNL     1      16.654   0.059 -28.854  1.00  0.00    -0.288 OA
ATOM     38  H2  UNL     1      16.444   0.516 -28.049  1.00  0.00     0.244 HD
ENDBRANCH   5  37
TORSDOF 9
ENDMDL
