MODEL 1
REMARK VINA RESULT: -7.781621407      0.000      0.000
REMARK  13 active torsions:
REMARK  status: ('A' for Active; 'I' for Inactive)
REMARK    1  A    between atoms: C2_2  and  C12_30 
REMARK    2  A    between atoms: N1_3  and  N2_5 
REMARK    3  A    between atoms: N2_5  and  C3_7 
REMARK    4  A    between atoms: C3_7  and  C4_8 
REMARK    5  A    between atoms: C3_7  and  N3_25 
REMARK    6  A    between atoms: C4_8  and  C5_9 
REMARK    7  A    between atoms: C5_9  and  C6_10 
REMARK    8  A    between atoms: C6_10  and  O1_12 
REMARK    9  A    between atoms: O1_12  and  C7_13 
REMARK   10  A    between atoms: C9_16  and  O2_17 
REMARK   11  A    between atoms: C10_19  and  O3_20 
REMARK   12  A    between atoms: C11_22  and  O4_23 
REMARK   13  A    between atoms: N3_25  and  N4_27 
ROOT
HETATM    1  C4  UNL     1      17.168  -3.500 -29.791  1.00  0.00     0.057 C 
ENDROOT
BRANCH   1   2
HETATM    2  C3  UNL     1      17.746  -2.112 -29.714  1.00  0.00     0.219 C 
BRANCH   2   3
HETATM    3  N2  UNL     1      17.433  -1.414 -30.986  1.00  0.00    -0.312 N 
ATOM      4  H2  UNL     1      17.143  -0.436 -31.002  1.00  0.00     0.182 HD
BRANCH   3   5
HETATM    5  N1  UNL     1      17.552  -2.152 -32.147  1.00  0.00    -0.311 N 
HETATM    6  C2  UNL     1      16.631  -2.374 -32.988  1.00  0.00     0.003 C 
HETATM    7  C1  UNL     1      15.286  -1.794 -32.719  1.00  0.00     0.065 C 
ATOM      8  H1  UNL     1      18.467  -2.558 -32.346  1.00  0.00     0.186 HD
BRANCH   6   9
HETATM    9  C12 UNL     1      16.902  -3.184 -34.189  1.00  0.00     0.024 C 
HETATM   10  C13 UNL     1      16.233  -2.538 -35.379  1.00  0.00     0.016 C 
HETATM   11  C14 UNL     1      16.370  -4.588 -33.995  1.00  0.00     0.016 C 
ENDBRANCH   6   9
ENDBRANCH   3   5
ENDBRANCH   2   3
BRANCH   2  12
HETATM   12  N3  UNL     1      17.073  -1.346 -28.701  1.00  0.00    -0.253 N 
ATOM     13  H3  UNL     1      17.227  -1.629 -27.734  1.00  0.00     0.189 HD
BRANCH  12  14
HETATM   14  N4  UNL     1      16.230  -0.250 -28.909  1.00  0.00    -0.042 N 
HETATM   15  O5  UNL     1      15.183  -0.352 -29.570  1.00  0.00    -0.517 OA
HETATM   16  O6  UNL     1      16.583   0.954 -28.349  1.00  0.00    -0.517 OA
ENDBRANCH  12  14
ENDBRANCH   2  12
ENDBRANCH   1   2
BRANCH   1  17
HETATM   17  C5  UNL     1      17.940  -4.470 -28.989  1.00  0.00     0.081 C 
BRANCH  17  18
HETATM   18  C6  UNL     1      19.131  -5.001 -29.743  1.00  0.00     0.114 C 
HETATM   19  S1  UNL     1      18.848  -5.570 -31.236  1.00  0.00    -0.058 SA
BRANCH  18  20
HETATM   20  O1  UNL     1      20.387  -5.021 -29.237  1.00  0.00    -0.326 OA
BRANCH  20  21
HETATM   21  C7  UNL     1      21.546  -5.615 -29.695  1.00  0.00     0.222 C 
HETATM   22  S2  UNL     1      22.720  -4.260 -30.096  1.00  0.00    -0.132 SA
HETATM   23  C8  UNL     1      23.553  -3.776 -28.589  1.00  0.00     0.111 C 
HETATM   24  C9  UNL     1      23.899  -4.957 -27.708  1.00  0.00     0.159 C 
HETATM   25  C10 UNL     1      22.702  -5.862 -27.503  1.00  0.00     0.179 C 
HETATM   26  C11 UNL     1      22.253  -6.532 -28.753  1.00  0.00     0.188 C 
BRANCH  24  27
HETATM   27  O2  UNL     1      25.013  -5.638 -28.173  1.00  0.00    -0.392 OA
ATOM     28  H2  UNL     1      25.821  -5.238 -27.874  1.00  0.00     0.210 HD
ENDBRANCH  24  27
BRANCH  25  29
HETATM   29  O3  UNL     1      23.122  -6.860 -26.601  1.00  0.00    -0.390 OA
ATOM     30  H3  UNL     1      23.034  -6.482 -25.734  1.00  0.00     0.210 HD
ENDBRANCH  25  29
BRANCH  26  31
HETATM   31  O4  UNL     1      23.387  -7.024 -29.412  1.00  0.00    -0.389 OA
ATOM     32  H4  UNL     1      23.184  -7.901 -29.716  1.00  0.00     0.210 HD
ENDBRANCH  26  31
ENDBRANCH  20  21
ENDBRANCH  18  20
ENDBRANCH  17  18
ENDBRANCH   1  17
TORSDOF 13
ENDMDL
MODEL 2
REMARK VINA RESULT: -7.734849136      0.929      1.186
REMARK  13 active torsions:
REMARK  status: ('A' for Active; 'I' for Inactive)
REMARK    1  A    between atoms: C2_2  and  C12_30 
REMARK    2  A    between atoms: N1_3  and  N2_5 
REMARK    3  A    between atoms: N2_5  and  C3_7 
REMARK    4  A    between atoms: C3_7  and  C4_8 
REMARK    5  A    between atoms: C3_7  and  N3_25 
REMARK    6  A    between atoms: C4_8  and  C5_9 
REMARK    7  A    between atoms: C5_9  and  C6_10 
REMARK    8  A    between atoms: C6_10  and  O1_12 
REMARK    9  A    between atoms: O1_12  and  C7_13 
REMARK   10  A    between atoms: C9_16  and  O2_17 
REMARK   11  A    between atoms: C10_19  and  O3_20 
REMARK   12  A    between atoms: C11_22  and  O4_23 
REMARK   13  A    between atoms: N3_25  and  N4_27 
ROOT
HETATM    1  C4  UNL     1      17.207  -3.518 -29.898  1.00  0.00     0.057 C 
ENDROOT
BRANCH   1   2
HETATM    2  C3  UNL     1      17.913  -2.209 -30.136  1.00  0.00     0.219 C 
BRANCH   2   3
HETATM    3  N2  UNL     1      17.840  -1.907 -31.588  1.00  0.00    -0.312 N 
ATOM      4  H2  UNL     1      17.652  -0.964 -31.929  1.00  0.00     0.182 HD
BRANCH   3   5
HETATM    5  N1  UNL     1      18.041  -2.963 -32.455  1.00  0.00    -0.311 N 
HETATM    6  C2  UNL     1      17.435  -3.152 -33.551  1.00  0.00     0.003 C 
HETATM    7  C1  UNL     1      16.405  -2.158 -33.961  1.00  0.00     0.065 C 
ATOM      8  H1  UNL     1      18.742  -3.654 -32.188  1.00  0.00     0.186 HD
BRANCH   6   9
HETATM    9  C12 UNL     1      17.752  -4.330 -34.380  1.00  0.00     0.024 C 
HETATM   10  C13 UNL     1      19.182  -4.743 -34.118  1.00  0.00     0.016 C 
HETATM   11  C14 UNL     1      17.571  -3.994 -35.845  1.00  0.00     0.016 C 
ENDBRANCH   6   9
ENDBRANCH   3   5
ENDBRANCH   2   3
BRANCH   2  12
HETATM   12  N3  UNL     1      17.201  -1.134 -29.503  1.00  0.00    -0.253 N 
ATOM     13  H3  UNL     1      17.711  -0.595 -28.803  1.00  0.00     0.189 HD
BRANCH  12  14
HETATM   14  N4  UNL     1      15.879  -0.751 -29.749  1.00  0.00    -0.042 N 
HETATM   15  O5  UNL     1      15.289  -1.084 -30.791  1.00  0.00    -0.517 OA
HETATM   16  O6  UNL     1      15.234   0.000 -28.797  1.00  0.00    -0.517 OA
ENDBRANCH  12  14
ENDBRANCH   2  12
ENDBRANCH   1   2
BRANCH   1  17
HETATM   17  C5  UNL     1      17.914  -4.361 -28.915  1.00  0.00     0.081 C 
BRANCH  17  18
HETATM   18  C6  UNL     1      19.037  -5.141 -29.546  1.00  0.00     0.114 C 
HETATM   19  S1  UNL     1      18.618  -6.222 -30.682  1.00  0.00    -0.058 SA
BRANCH  18  20
HETATM   20  O1  UNL     1      20.339  -4.978 -29.214  1.00  0.00    -0.326 OA
BRANCH  20  21
HETATM   21  C7  UNL     1      21.486  -5.572 -29.700  1.00  0.00     0.222 C 
HETATM   22  S2  UNL     1      22.668  -4.220 -30.086  1.00  0.00    -0.132 SA
HETATM   23  C8  UNL     1      23.525  -3.778 -28.580  1.00  0.00     0.111 C 
HETATM   24  C9  UNL     1      23.871  -4.981 -27.730  1.00  0.00     0.159 C 
HETATM   25  C10 UNL     1      22.669  -5.879 -27.530  1.00  0.00     0.179 C 
HETATM   26  C11 UNL     1      22.197  -6.517 -28.788  1.00  0.00     0.188 C 
BRANCH  24  27
HETATM   27  O2  UNL     1      24.972  -5.661 -28.224  1.00  0.00    -0.392 OA
ATOM     28  H2  UNL     1      24.880  -6.601 -28.125  1.00  0.00     0.210 HD
ENDBRANCH  24  27
BRANCH  25  29
HETATM   29  O3  UNL     1      23.091  -6.902 -26.656  1.00  0.00    -0.390 OA
ATOM     30  H3  UNL     1      22.817  -7.718 -27.058  1.00  0.00     0.210 HD
ENDBRANCH  25  29
BRANCH  26  31
HETATM   31  O4  UNL     1      23.317  -7.004 -29.473  1.00  0.00    -0.389 OA
ATOM     32  H4  UNL     1      24.038  -7.041 -28.856  1.00  0.00     0.210 HD
ENDBRANCH  26  31
ENDBRANCH  20  21
ENDBRANCH  18  20
ENDBRANCH  17  18
ENDBRANCH   1  17
TORSDOF 13
ENDMDL
MODEL 3
REMARK VINA RESULT: -7.508116494      4.095      8.250
REMARK  13 active torsions:
REMARK  status: ('A' for Active; 'I' for Inactive)
REMARK    1  A    between atoms: C2_2  and  C12_30 
REMARK    2  A    between atoms: N1_3  and  N2_5 
REMARK    3  A    between atoms: N2_5  and  C3_7 
REMARK    4  A    between atoms: C3_7  and  C4_8 
REMARK    5  A    between atoms: C3_7  and  N3_25 
REMARK    6  A    between atoms: C4_8  and  C5_9 
REMARK    7  A    between atoms: C5_9  and  C6_10 
REMARK    8  A    between atoms: C6_10  and  O1_12 
REMARK    9  A    between atoms: O1_12  and  C7_13 
REMARK   10  A    between atoms: C9_16  and  O2_17 
REMARK   11  A    between atoms: C10_19  and  O3_20 
REMARK   12  A    between atoms: C11_22  and  O4_23 
REMARK   13  A    between atoms: N3_25  and  N4_27 
ROOT
HETATM    1  C4  UNL     1      22.683  -5.421 -29.603  1.00  0.00     0.057 C 
ENDROOT
BRANCH   1   2
HETATM    2  C3  UNL     1      23.134  -5.274 -28.174  1.00  0.00     0.219 C 
BRANCH   2   3
HETATM    3  N2  UNL     1      23.652  -6.590 -27.720  1.00  0.00    -0.312 N 
ATOM      4  H2  UNL     1      24.626  -6.715 -27.444  1.00  0.00     0.182 HD
BRANCH   3   5
HETATM    5  N1  UNL     1      22.751  -7.636 -27.688  1.00  0.00    -0.311 N 
HETATM    6  C2  UNL     1      23.014  -8.853 -27.919  1.00  0.00     0.003 C 
HETATM    7  C1  UNL     1      24.419  -9.212 -28.259  1.00  0.00     0.065 C 
ATOM      8  H1  UNL     1      21.784  -7.407 -27.458  1.00  0.00     0.186 HD
BRANCH   6   9
HETATM    9  C12 UNL     1      21.947  -9.869 -27.849  1.00  0.00     0.024 C 
HETATM   10  C13 UNL     1      22.571 -11.218 -27.581  1.00  0.00     0.016 C 
HETATM   11  C14 UNL     1      21.182  -9.903 -29.154  1.00  0.00     0.016 C 
ENDBRANCH   6   9
ENDBRANCH   3   5
ENDBRANCH   2   3
BRANCH   2  12
HETATM   12  N3  UNL     1      24.264  -4.390 -28.094  1.00  0.00    -0.253 N 
ATOM     13  H3  UNL     1      25.027  -4.560 -28.748  1.00  0.00     0.189 HD
BRANCH  12  14
HETATM   14  N4  UNL     1      24.423  -3.319 -27.210  1.00  0.00    -0.042 N 
HETATM   15  O5  UNL     1      23.456  -2.829 -26.602  1.00  0.00    -0.517 OA
HETATM   16  O6  UNL     1      25.688  -2.821 -27.016  1.00  0.00    -0.517 OA
ENDBRANCH  12  14
ENDBRANCH   2  12
ENDBRANCH   1   2
BRANCH   1  17
HETATM   17  C5  UNL     1      21.685  -4.401 -29.978  1.00  0.00     0.081 C 
BRANCH  17  18
HETATM   18  C6  UNL     1      20.340  -5.011 -30.275  1.00  0.00     0.114 C 
HETATM   19  S1  UNL     1      20.060  -6.483 -29.652  1.00  0.00    -0.058 SA
BRANCH  18  20
HETATM   20  O1  UNL     1      19.388  -4.397 -31.017  1.00  0.00    -0.326 OA
BRANCH  20  21
HETATM   21  C7  UNL     1      18.012  -4.495 -30.998  1.00  0.00     0.222 C 
HETATM   22  S2  UNL     1      17.436  -3.669 -29.462  1.00  0.00    -0.132 SA
HETATM   23  C8  UNL     1      17.314  -1.914 -29.782  1.00  0.00     0.111 C 
HETATM   24  C9  UNL     1      16.765  -1.608 -31.159  1.00  0.00     0.159 C 
HETATM   25  C10 UNL     1      17.492  -2.394 -32.229  1.00  0.00     0.179 C 
HETATM   26  C11 UNL     1      17.273  -3.862 -32.130  1.00  0.00     0.188 C 
BRANCH  24  27
HETATM   27  O2  UNL     1      15.391  -1.771 -31.213  1.00  0.00    -0.392 OA
ATOM     28  H2  UNL     1      15.136  -2.675 -31.065  1.00  0.00     0.210 HD
ENDBRANCH  24  27
BRANCH  25  29
HETATM   29  O3  UNL     1      16.959  -1.957 -33.459  1.00  0.00    -0.390 OA
ATOM     30  H3  UNL     1      16.057  -2.255 -33.473  1.00  0.00     0.210 HD
ENDBRANCH  25  29
BRANCH  26  31
HETATM   31  O4  UNL     1      15.905  -4.082 -31.918  1.00  0.00    -0.389 OA
ATOM     32  H4  UNL     1      15.469  -4.009 -32.759  1.00  0.00     0.210 HD
ENDBRANCH  26  31
ENDBRANCH  20  21
ENDBRANCH  18  20
ENDBRANCH  17  18
ENDBRANCH   1  17
TORSDOF 13
ENDMDL
MODEL 4
REMARK VINA RESULT: -7.500427487      3.948      7.585
REMARK  13 active torsions:
REMARK  status: ('A' for Active; 'I' for Inactive)
REMARK    1  A    between atoms: C2_2  and  C12_30 
REMARK    2  A    between atoms: N1_3  and  N2_5 
REMARK    3  A    between atoms: N2_5  and  C3_7 
REMARK    4  A    between atoms: C3_7  and  C4_8 
REMARK    5  A    between atoms: C3_7  and  N3_25 
REMARK    6  A    between atoms: C4_8  and  C5_9 
REMARK    7  A    between atoms: C5_9  and  C6_10 
REMARK    8  A    between atoms: C6_10  and  O1_12 
REMARK    9  A    between atoms: O1_12  and  C7_13 
REMARK   10  A    between atoms: C9_16  and  O2_17 
REMARK   11  A    between atoms: C10_19  and  O3_20 
REMARK   12  A    between atoms: C11_22  and  O4_23 
REMARK   13  A    between atoms: N3_25  and  N4_27 
ROOT
HETATM    1  C4  UNL     1      17.373  -6.937 -29.842  1.00  0.00     0.057 C 
ENDROOT
BRANCH   1   2
HETATM    2  C3  UNL     1      18.800  -7.406 -29.938  1.00  0.00     0.219 C 
BRANCH   2   3
HETATM    3  N2  UNL     1      19.676  -6.311 -29.447  1.00  0.00    -0.312 N 
ATOM      4  H2  UNL     1      19.358  -5.341 -29.426  1.00  0.00     0.182 HD
BRANCH   3   5
HETATM    5  N1  UNL     1      20.939  -6.668 -29.020  1.00  0.00    -0.311 N 
HETATM    6  C2  UNL     1      21.991  -5.972 -29.140  1.00  0.00     0.003 C 
HETATM    7  C1  UNL     1      21.877  -4.643 -29.801  1.00  0.00     0.065 C 
ATOM      8  H1  UNL     1      21.035  -7.577 -28.566  1.00  0.00     0.186 HD
BRANCH   6   9
HETATM    9  C12 UNL     1      23.279  -6.482 -28.636  1.00  0.00     0.024 C 
HETATM   10  C13 UNL     1      23.307  -7.985 -28.792  1.00  0.00     0.016 C 
HETATM   11  C14 UNL     1      23.446  -6.110 -27.177  1.00  0.00     0.016 C 
ENDBRANCH   6   9
ENDBRANCH   3   5
ENDBRANCH   2   3
BRANCH   2  12
HETATM   12  N3  UNL     1      19.032  -8.494 -29.028  1.00  0.00    -0.253 N 
ATOM     13  H3  UNL     1      19.307  -8.247 -28.078  1.00  0.00     0.189 HD
BRANCH  12  14
HETATM   14  N4  UNL     1      18.918  -9.858 -29.315  1.00  0.00    -0.042 N 
HETATM   15  O5  UNL     1      17.850 -10.470 -29.145  1.00  0.00    -0.517 OA
HETATM   16  O6  UNL     1      20.023 -10.511 -29.805  1.00  0.00    -0.517 OA
ENDBRANCH  12  14
ENDBRANCH   2  12
ENDBRANCH   1   2
BRANCH   1  17
HETATM   17  C5  UNL     1      16.489  -7.651 -30.784  1.00  0.00     0.081 C 
BRANCH  17  18
HETATM   18  C6  UNL     1      16.045  -6.767 -31.920  1.00  0.00     0.114 C 
HETATM   19  S1  UNL     1      15.578  -7.517 -33.281  1.00  0.00    -0.058 SA
BRANCH  18  20
HETATM   20  O1  UNL     1      16.020  -5.415 -31.848  1.00  0.00    -0.326 OA
BRANCH  20  21
HETATM   21  C7  UNL     1      16.789  -4.454 -32.472  1.00  0.00     0.222 C 
HETATM   22  S2  UNL     1      15.701  -3.002 -32.763  1.00  0.00    -0.132 SA
HETATM   23  C8  UNL     1      15.669  -2.019 -31.269  1.00  0.00     0.111 C 
HETATM   24  C9  UNL     1      17.022  -1.936 -30.595  1.00  0.00     0.159 C 
HETATM   25  C10 UNL     1      17.642  -3.308 -30.432  1.00  0.00     0.179 C 
HETATM   26  C11 UNL     1      17.982  -3.955 -31.728  1.00  0.00     0.188 C 
BRANCH  24  27
HETATM   27  O2  UNL     1      17.862  -1.040 -31.235  1.00  0.00    -0.392 OA
ATOM     28  H2  UNL     1      18.716  -1.419 -31.409  1.00  0.00     0.210 HD
ENDBRANCH  24  27
BRANCH  25  29
HETATM   29  O3  UNL     1      18.840  -3.108 -29.717  1.00  0.00    -0.390 OA
ATOM     30  H3  UNL     1      19.437  -3.784 -30.016  1.00  0.00     0.210 HD
ENDBRANCH  25  29
BRANCH  26  31
HETATM   31  O4  UNL     1      18.616  -3.001 -32.535  1.00  0.00    -0.389 OA
ATOM     32  H4  UNL     1      19.539  -3.225 -32.574  1.00  0.00     0.210 HD
ENDBRANCH  26  31
ENDBRANCH  20  21
ENDBRANCH  18  20
ENDBRANCH  17  18
ENDBRANCH   1  17
TORSDOF 13
ENDMDL
MODEL 5
REMARK VINA RESULT: -7.442924903      1.700      2.353
REMARK  13 active torsions:
REMARK  status: ('A' for Active; 'I' for Inactive)
REMARK    1  A    between atoms: C2_2  and  C12_30 
REMARK    2  A    between atoms: N1_3  and  N2_5 
REMARK    3  A    between atoms: N2_5  and  C3_7 
REMARK    4  A    between atoms: C3_7  and  C4_8 
REMARK    5  A    between atoms: C3_7  and  N3_25 
REMARK    6  A    between atoms: C4_8  and  C5_9 
REMARK    7  A    between atoms: C5_9  and  C6_10 
REMARK    8  A    between atoms: C6_10  and  O1_12 
REMARK    9  A    between atoms: O1_12  and  C7_13 
REMARK   10  A    between atoms: C9_16  and  O2_17 
REMARK   11  A    between atoms: C10_19  and  O3_20 
REMARK   12  A    between atoms: C11_22  and  O4_23 
REMARK   13  A    between atoms: N3_25  and  N4_27 
ROOT
HETATM    1  C4  UNL     1      17.109  -4.443 -30.269  1.00  0.00     0.057 C 
ENDROOT
BRANCH   1   2
HETATM    2  C3  UNL     1      17.412  -3.687 -31.536  1.00  0.00     0.219 C 
BRANCH   2   3
HETATM    3  N2  UNL     1      16.280  -3.895 -32.475  1.00  0.00    -0.312 N 
ATOM      4  H2  UNL     1      15.698  -3.118 -32.790  1.00  0.00     0.182 HD
BRANCH   3   5
HETATM    5  N1  UNL     1      16.054  -5.188 -32.901  1.00  0.00    -0.311 N 
HETATM    6  C2  UNL     1      15.093  -5.575 -33.630  1.00  0.00     0.003 C 
HETATM    7  C1  UNL     1      14.103  -4.558 -34.079  1.00  0.00     0.065 C 
ATOM      8  H1  UNL     1      16.723  -5.898 -32.602  1.00  0.00     0.186 HD
BRANCH   6   9
HETATM    9  C12 UNL     1      14.976  -6.996 -34.010  1.00  0.00     0.024 C 
HETATM   10  C13 UNL     1      15.273  -7.853 -32.802  1.00  0.00     0.016 C 
HETATM   11  C14 UNL     1      15.951  -7.314 -35.123  1.00  0.00     0.016 C 
ENDBRANCH   6   9
ENDBRANCH   3   5
ENDBRANCH   2   3
BRANCH   2  12
HETATM   12  N3  UNL     1      17.423  -2.272 -31.284  1.00  0.00    -0.253 N 
ATOM     13  H3  UNL     1      18.230  -1.752 -31.627  1.00  0.00     0.189 HD
BRANCH  12  14
HETATM   14  N4  UNL     1      16.439  -1.538 -30.616  1.00  0.00    -0.042 N 
HETATM   15  O5  UNL     1      15.263  -1.512 -31.016  1.00  0.00    -0.517 OA
HETATM   16  O6  UNL     1      16.803  -0.846 -29.486  1.00  0.00    -0.517 OA
ENDBRANCH  12  14
ENDBRANCH   2  12
ENDBRANCH   1   2
BRANCH   1  17
HETATM   17  C5  UNL     1      18.238  -4.414 -29.320  1.00  0.00     0.081 C 
BRANCH  17  18
HETATM   18  C6  UNL     1      18.990  -5.719 -29.299  1.00  0.00     0.114 C 
HETATM   19  S1  UNL     1      18.219  -7.008 -29.912  1.00  0.00    -0.058 SA
BRANCH  18  20
HETATM   20  O1  UNL     1      20.243  -5.852 -28.804  1.00  0.00    -0.326 OA
BRANCH  20  21
HETATM   21  C7  UNL     1      21.425  -6.239 -29.404  1.00  0.00     0.222 C 
HETATM   22  S2  UNL     1      22.279  -4.705 -29.945  1.00  0.00    -0.132 SA
HETATM   23  C8  UNL     1      23.191  -4.051 -28.552  1.00  0.00     0.111 C 
HETATM   24  C9  UNL     1      23.848  -5.134 -27.724  1.00  0.00     0.159 C 
HETATM   25  C10 UNL     1      22.867  -6.233 -27.374  1.00  0.00     0.179 C 
HETATM   26  C11 UNL     1      22.395  -6.997 -28.560  1.00  0.00     0.188 C 
BRANCH  24  27
HETATM   27  O2  UNL     1      25.000  -5.615 -28.325  1.00  0.00    -0.392 OA
ATOM     28  H2  UNL     1      25.379  -4.979 -28.921  1.00  0.00     0.210 HD
ENDBRANCH  24  27
BRANCH  25  29
HETATM   29  O3  UNL     1      23.567  -7.123 -26.534  1.00  0.00    -0.390 OA
ATOM     30  H3  UNL     1      24.215  -7.546 -27.084  1.00  0.00     0.210 HD
ENDBRANCH  25  29
BRANCH  26  31
HETATM   31  O4  UNL     1      23.509  -7.292 -29.357  1.00  0.00    -0.389 OA
ATOM     32  H4  UNL     1      24.262  -6.864 -28.967  1.00  0.00     0.210 HD
ENDBRANCH  26  31
ENDBRANCH  20  21
ENDBRANCH  18  20
ENDBRANCH  17  18
ENDBRANCH   1  17
TORSDOF 13
ENDMDL
