MODEL 1
REMARK VINA RESULT: -8.027375279      0.000      0.000
REMARK  15 active torsions:
REMARK  status: ('A' for Active; 'I' for Inactive)
REMARK    1  A    between atoms: C2_2  and  O1_3 
REMARK    2  A    between atoms: O1_3  and  C3_4 
REMARK    3  A    between atoms: C3_4  and  C4_6 
REMARK    4  A    between atoms: C4_6  and  C5_7 
REMARK    5  A    between atoms: C5_7  and  C6_8 
REMARK    6  A    between atoms: C6_8  and  S1_10 
REMARK    7  A    between atoms: S1_10  and  C7_11 
REMARK    8  A    between atoms: C10_15  and  C11_16 
REMARK    9  A    between atoms: C11_16  and  C12_17 
REMARK   10  A    between atoms: C13_18  and  C14_19 
REMARK   11  A    between atoms: C14_19  and  C15_20 
REMARK   12  A    between atoms: C15_20  and  C16_21 
REMARK   13  A    between atoms: C16_21  and  C17_22 
REMARK   14  A    between atoms: C17_22  and  O6_24 
REMARK   15  A    between atoms: C22_30  and  O8_31 
ROOT
HETATM    1  C4  UNL     1      18.271  -4.638  19.859  1.00  0.00     0.164 C 
HETATM    2  O4  UNL     1      18.417  -4.825  18.511  1.00  0.00    -0.366 OA
HETATM    3  C9  UNL     1      18.425  -3.765  17.680  1.00  0.00     0.201 C 
HETATM    4  C10 UNL     1      17.265  -3.804  16.676  1.00  0.00     0.151 C 
HETATM    5  O7  UNL     1      16.190  -4.518  17.137  1.00  0.00    -0.353 OA
HETATM    6  C19 UNL     1      15.614  -4.080  18.298  1.00  0.00     0.264 C 
HETATM    7  C20 UNL     1      15.886  -5.076  19.391  1.00  0.00     0.074 C 
HETATM    8  C21 UNL     1      16.861  -4.314  20.274  1.00  0.00     0.090 C 
HETATM    9  C22 UNL     1      16.404  -2.922  20.031  1.00  0.00     0.267 C 
HETATM   10  O9  UNL     1      16.089  -2.844  18.675  1.00  0.00    -0.331 OA
ENDROOT
BRANCH   1  11
HETATM   11  C3  UNL     1      19.252  -3.717  20.463  1.00  0.00     0.294 C 
HETATM   12  O2  UNL     1      20.081  -3.005  19.861  1.00  0.00    -0.262 OA
BRANCH  11  13
HETATM   13  O1  UNL     1      19.263  -3.627  21.841  1.00  0.00    -0.319 OA
BRANCH  13  14
HETATM   14  C2  UNL     1      20.005  -2.649  22.551  1.00  0.00     0.174 C 
HETATM   15  C1  UNL     1      21.223  -3.360  23.116  1.00  0.00     0.034 C 
ENDBRANCH  13  14
ENDBRANCH  11  13
ENDBRANCH   1  11
BRANCH   1  16
HETATM   16  C5  UNL     1      18.560  -6.003  20.492  1.00  0.00     0.140 C 
BRANCH  16  17
HETATM   17  C6  UNL     1      19.831  -6.591  20.032  1.00  0.00     0.189 C 
HETATM   18  O3  UNL     1      19.972  -7.141  18.946  1.00  0.00    -0.285 OA
BRANCH  17  19
HETATM   19  S1  UNL     1      21.307  -6.544  21.057  1.00  0.00    -0.093 SA
BRANCH  19  20
HETATM   20  C7  UNL     1      20.997  -7.272  22.687  1.00  0.00     0.077 C 
HETATM   21  C8  UNL     1      20.316  -8.601  22.567  1.00  0.00     0.016 C 
ENDBRANCH  19  20
ENDBRANCH  17  19
ENDBRANCH  16  17
ENDBRANCH   1  16
BRANCH   9  22
HETATM   22  O8  UNL     1      17.175  -1.910  20.511  1.00  0.00    -0.371 OA
ATOM     23  H8  UNL     1      17.078  -1.053  20.113  1.00  0.00     0.212 HD
ENDBRANCH   9  22
BRANCH   4  24
HETATM   24  C11 UNL     1      17.721  -4.535  15.399  1.00  0.00     0.061 C 
BRANCH  24  25
HETATM   25  C12 UNL     1      17.352  -3.647  14.278  1.00  0.00    -0.028 C 
HETATM   26  C13 UNL     1      16.311  -3.753  13.482  1.00  0.00    -0.031 C 
BRANCH  26  27
HETATM   27  C14 UNL     1      15.288  -4.798  13.549  1.00  0.00     0.027 C 
BRANCH  27  28
HETATM   28  C15 UNL     1      14.584  -5.030  12.222  1.00  0.00     0.013 C 
BRANCH  28  29
HETATM   29  C16 UNL     1      14.863  -3.902  11.251  1.00  0.00     0.111 C 
BRANCH  29  30
HETATM   30  C17 UNL     1      15.526  -4.441  10.036  1.00  0.00     0.258 C 
HETATM   31  O5  UNL     1      16.613  -5.062  10.121  1.00  0.00    -0.265 OA
BRANCH  30  32
HETATM   32  O6  UNL     1      14.990  -4.287   8.767  1.00  0.00    -0.326 OA
HETATM   33  C18 UNL     1      14.074  -3.248   8.458  1.00  0.00     0.213 C 
ENDBRANCH  30  32
ENDBRANCH  29  30
ENDBRANCH  28  29
ENDBRANCH  27  28
ENDBRANCH  26  27
ENDBRANCH  24  25
ENDBRANCH   4  24
TORSDOF 15
ENDMDL
MODEL 2
REMARK VINA RESULT: -8.011067993      0.943      1.418
REMARK  15 active torsions:
REMARK  status: ('A' for Active; 'I' for Inactive)
REMARK    1  A    between atoms: C2_2  and  O1_3 
REMARK    2  A    between atoms: O1_3  and  C3_4 
REMARK    3  A    between atoms: C3_4  and  C4_6 
REMARK    4  A    between atoms: C4_6  and  C5_7 
REMARK    5  A    between atoms: C5_7  and  C6_8 
REMARK    6  A    between atoms: C6_8  and  S1_10 
REMARK    7  A    between atoms: S1_10  and  C7_11 
REMARK    8  A    between atoms: C10_15  and  C11_16 
REMARK    9  A    between atoms: C11_16  and  C12_17 
REMARK   10  A    between atoms: C13_18  and  C14_19 
REMARK   11  A    between atoms: C14_19  and  C15_20 
REMARK   12  A    between atoms: C15_20  and  C16_21 
REMARK   13  A    between atoms: C16_21  and  C17_22 
REMARK   14  A    between atoms: C17_22  and  O6_24 
REMARK   15  A    between atoms: C22_30  and  O8_31 
ROOT
HETATM    1  C4  UNL     1      18.411  -4.551  20.028  1.00  0.00     0.164 C 
HETATM    2  O4  UNL     1      18.601  -4.792  18.694  1.00  0.00    -0.366 OA
HETATM    3  C9  UNL     1      18.550  -3.776  17.812  1.00  0.00     0.201 C 
HETATM    4  C10 UNL     1      17.419  -3.949  16.789  1.00  0.00     0.151 C 
HETATM    5  O7  UNL     1      16.389  -4.717  17.264  1.00  0.00    -0.353 OA
HETATM    6  C19 UNL     1      15.757  -4.267  18.391  1.00  0.00     0.264 C 
HETATM    7  C20 UNL     1      16.076  -5.186  19.536  1.00  0.00     0.074 C 
HETATM    8  C21 UNL     1      16.972  -4.313  20.399  1.00  0.00     0.090 C 
HETATM    9  C22 UNL     1      16.420  -2.972  20.078  1.00  0.00     0.267 C 
HETATM   10  O9  UNL     1      16.132  -2.984  18.714  1.00  0.00    -0.331 OA
ENDROOT
BRANCH   1  11
HETATM   11  C3  UNL     1      19.307  -3.532  20.604  1.00  0.00     0.294 C 
HETATM   12  O2  UNL     1      19.985  -2.690  19.980  1.00  0.00    -0.262 OA
BRANCH  11  13
HETATM   13  O1  UNL     1      19.418  -3.497  21.981  1.00  0.00    -0.319 OA
BRANCH  13  14
HETATM   14  C2  UNL     1      20.086  -2.462  22.682  1.00  0.00     0.174 C 
HETATM   15  C1  UNL     1      19.007  -1.524  23.194  1.00  0.00     0.034 C 
ENDBRANCH  13  14
ENDBRANCH  11  13
ENDBRANCH   1  11
BRANCH   1  16
HETATM   16  C5  UNL     1      18.784  -5.858  20.734  1.00  0.00     0.140 C 
BRANCH  16  17
HETATM   17  C6  UNL     1      19.941  -6.533  20.118  1.00  0.00     0.189 C 
HETATM   18  O3  UNL     1      19.842  -7.477  19.341  1.00  0.00    -0.285 OA
BRANCH  17  19
HETATM   19  S1  UNL     1      21.624  -6.010  20.467  1.00  0.00    -0.093 SA
BRANCH  19  20
HETATM   20  C7  UNL     1      22.343  -5.129  19.056  1.00  0.00     0.077 C 
HETATM   21  C8  UNL     1      22.840  -6.084  18.015  1.00  0.00     0.016 C 
ENDBRANCH  19  20
ENDBRANCH  17  19
ENDBRANCH  16  17
ENDBRANCH   1  16
BRANCH   9  22
HETATM   22  O8  UNL     1      17.103  -1.884  20.522  1.00  0.00    -0.371 OA
ATOM     23  H8  UNL     1      17.342  -1.221  19.884  1.00  0.00     0.212 HD
ENDBRANCH   9  22
BRANCH   4  24
HETATM   24  C11 UNL     1      17.958  -4.705  15.559  1.00  0.00     0.061 C 
BRANCH  24  25
HETATM   25  C12 UNL     1      17.668  -3.838  14.400  1.00  0.00    -0.028 C 
HETATM   26  C13 UNL     1      16.661  -3.936  13.559  1.00  0.00    -0.031 C 
BRANCH  26  27
HETATM   27  C14 UNL     1      15.605  -4.948  13.605  1.00  0.00     0.027 C 
BRANCH  27  28
HETATM   28  C15 UNL     1      14.960  -5.200  12.252  1.00  0.00     0.013 C 
BRANCH  28  29
HETATM   29  C16 UNL     1      15.119  -4.003  11.339  1.00  0.00     0.111 C 
BRANCH  29  30
HETATM   30  C17 UNL     1      15.720  -4.432  10.051  1.00  0.00     0.258 C 
HETATM   31  O5  UNL     1      16.902  -4.849  10.001  1.00  0.00    -0.265 OA
BRANCH  30  32
HETATM   32  O6  UNL     1      15.018  -4.396   8.856  1.00  0.00    -0.326 OA
HETATM   33  C18 UNL     1      14.131  -3.335   8.536  1.00  0.00     0.213 C 
ENDBRANCH  30  32
ENDBRANCH  29  30
ENDBRANCH  28  29
ENDBRANCH  27  28
ENDBRANCH  26  27
ENDBRANCH  24  25
ENDBRANCH   4  24
TORSDOF 15
ENDMDL
MODEL 3
REMARK VINA RESULT: -7.999663693      1.201      1.792
REMARK  15 active torsions:
REMARK  status: ('A' for Active; 'I' for Inactive)
REMARK    1  A    between atoms: C2_2  and  O1_3 
REMARK    2  A    between atoms: O1_3  and  C3_4 
REMARK    3  A    between atoms: C3_4  and  C4_6 
REMARK    4  A    between atoms: C4_6  and  C5_7 
REMARK    5  A    between atoms: C5_7  and  C6_8 
REMARK    6  A    between atoms: C6_8  and  S1_10 
REMARK    7  A    between atoms: S1_10  and  C7_11 
REMARK    8  A    between atoms: C10_15  and  C11_16 
REMARK    9  A    between atoms: C11_16  and  C12_17 
REMARK   10  A    between atoms: C13_18  and  C14_19 
REMARK   11  A    between atoms: C14_19  and  C15_20 
REMARK   12  A    between atoms: C15_20  and  C16_21 
REMARK   13  A    between atoms: C16_21  and  C17_22 
REMARK   14  A    between atoms: C17_22  and  O6_24 
REMARK   15  A    between atoms: C22_30  and  O8_31 
ROOT
HETATM    1  C4  UNL     1      18.803  -4.572  19.821  1.00  0.00     0.164 C 
HETATM    2  O4  UNL     1      18.751  -4.789  18.471  1.00  0.00    -0.366 OA
HETATM    3  C9  UNL     1      18.539  -3.758  17.630  1.00  0.00     0.201 C 
HETATM    4  C10 UNL     1      17.243  -3.921  16.824  1.00  0.00     0.151 C 
HETATM    5  O7  UNL     1      16.318  -4.704  17.462  1.00  0.00    -0.353 OA
HETATM    6  C19 UNL     1      15.897  -4.278  18.693  1.00  0.00     0.264 C 
HETATM    7  C20 UNL     1      16.420  -5.214  19.745  1.00  0.00     0.074 C 
HETATM    8  C21 UNL     1      17.453  -4.350  20.449  1.00  0.00     0.090 C 
HETATM    9  C22 UNL     1      16.848  -3.007  20.257  1.00  0.00     0.267 C 
HETATM   10  O9  UNL     1      16.319  -2.998  18.967  1.00  0.00    -0.331 OA
ENDROOT
BRANCH   1  11
HETATM   11  C3  UNL     1      19.785  -3.557  20.245  1.00  0.00     0.294 C 
HETATM   12  O2  UNL     1      20.486  -2.839  19.505  1.00  0.00    -0.262 OA
BRANCH  11  13
HETATM   13  O1  UNL     1      19.956  -3.377  21.604  1.00  0.00    -0.319 OA
BRANCH  13  14
HETATM   14  C2  UNL     1      21.212  -3.104  22.201  1.00  0.00     0.174 C 
HETATM   15  C1  UNL     1      21.691  -4.411  22.810  1.00  0.00     0.034 C 
ENDBRANCH  13  14
ENDBRANCH  11  13
ENDBRANCH   1  11
BRANCH   1  16
HETATM   16  C5  UNL     1      19.301  -5.889  20.425  1.00  0.00     0.140 C 
BRANCH  16  17
HETATM   17  C6  UNL     1      20.475  -6.436  19.719  1.00  0.00     0.189 C 
HETATM   18  O3  UNL     1      21.622  -6.047  19.907  1.00  0.00    -0.285 OA
BRANCH  17  19
HETATM   19  S1  UNL     1      20.307  -7.746  18.501  1.00  0.00    -0.093 SA
BRANCH  19  20
HETATM   20  C7  UNL     1      20.954  -7.230  16.889  1.00  0.00     0.077 C 
HETATM   21  C8  UNL     1      19.945  -7.446  15.804  1.00  0.00     0.016 C 
ENDBRANCH  19  20
ENDBRANCH  17  19
ENDBRANCH  16  17
ENDBRANCH   1  16
BRANCH   9  22
HETATM   22  O8  UNL     1      17.597  -1.923  20.590  1.00  0.00    -0.371 OA
ATOM     23  H8  UNL     1      17.146  -1.168  20.951  1.00  0.00     0.212 HD
ENDBRANCH   9  22
BRANCH   4  24
HETATM   24  C11 UNL     1      17.554  -4.653  15.504  1.00  0.00     0.061 C 
BRANCH  24  25
HETATM   25  C12 UNL     1      17.229  -3.692  14.431  1.00  0.00    -0.028 C 
HETATM   26  C13 UNL     1      16.228  -3.753  13.579  1.00  0.00    -0.031 C 
BRANCH  26  27
HETATM   27  C14 UNL     1      15.217  -4.809  13.522  1.00  0.00     0.027 C 
BRANCH  27  28
HETATM   28  C15 UNL     1      14.533  -4.909  12.169  1.00  0.00     0.013 C 
BRANCH  28  29
HETATM   29  C16 UNL     1      15.004  -3.814  11.236  1.00  0.00     0.111 C 
BRANCH  29  30
HETATM   30  C17 UNL     1      15.641  -4.416  10.038  1.00  0.00     0.258 C 
HETATM   31  O5  UNL     1      16.719  -5.050  10.135  1.00  0.00    -0.265 OA
BRANCH  30  32
HETATM   32  O6  UNL     1      15.089  -4.309   8.771  1.00  0.00    -0.326 OA
HETATM   33  C18 UNL     1      14.092  -3.348   8.463  1.00  0.00     0.213 C 
ENDBRANCH  30  32
ENDBRANCH  29  30
ENDBRANCH  28  29
ENDBRANCH  27  28
ENDBRANCH  26  27
ENDBRANCH  24  25
ENDBRANCH   4  24
TORSDOF 15
ENDMDL
MODEL 4
REMARK VINA RESULT: -7.925459154      1.334      1.788
REMARK  15 active torsions:
REMARK  status: ('A' for Active; 'I' for Inactive)
REMARK    1  A    between atoms: C2_2  and  O1_3 
REMARK    2  A    between atoms: O1_3  and  C3_4 
REMARK    3  A    between atoms: C3_4  and  C4_6 
REMARK    4  A    between atoms: C4_6  and  C5_7 
REMARK    5  A    between atoms: C5_7  and  C6_8 
REMARK    6  A    between atoms: C6_8  and  S1_10 
REMARK    7  A    between atoms: S1_10  and  C7_11 
REMARK    8  A    between atoms: C10_15  and  C11_16 
REMARK    9  A    between atoms: C11_16  and  C12_17 
REMARK   10  A    between atoms: C13_18  and  C14_19 
REMARK   11  A    between atoms: C14_19  and  C15_20 
REMARK   12  A    between atoms: C15_20  and  C16_21 
REMARK   13  A    between atoms: C16_21  and  C17_22 
REMARK   14  A    between atoms: C17_22  and  O6_24 
REMARK   15  A    between atoms: C22_30  and  O8_31 
ROOT
HETATM    1  C4  UNL     1      18.782  -4.637  20.153  1.00  0.00     0.164 C 
HETATM    2  O4  UNL     1      18.879  -4.834  18.801  1.00  0.00    -0.366 OA
HETATM    3  C9  UNL     1      18.834  -3.782  17.962  1.00  0.00     0.201 C 
HETATM    4  C10 UNL     1      17.637  -3.853  17.004  1.00  0.00     0.151 C 
HETATM    5  O7  UNL     1      16.595  -4.583  17.512  1.00  0.00    -0.353 OA
HETATM    6  C19 UNL     1      16.057  -4.145  18.692  1.00  0.00     0.264 C 
HETATM    7  C20 UNL     1      16.390  -5.125  19.781  1.00  0.00     0.074 C 
HETATM    8  C21 UNL     1      17.383  -4.337  20.619  1.00  0.00     0.090 C 
HETATM    9  C22 UNL     1      16.890  -2.956  20.382  1.00  0.00     0.267 C 
HETATM   10  O9  UNL     1      16.521  -2.898  19.038  1.00  0.00    -0.331 OA
ENDROOT
BRANCH   1  11
HETATM   11  C3  UNL     1      19.767  -3.692  20.710  1.00  0.00     0.294 C 
HETATM   12  O2  UNL     1      20.074  -3.551  21.911  1.00  0.00    -0.262 OA
BRANCH  11  13
HETATM   13  O1  UNL     1      20.424  -2.869  19.815  1.00  0.00    -0.319 OA
BRANCH  13  14
HETATM   14  C2  UNL     1      21.528  -2.055  20.174  1.00  0.00     0.174 C 
HETATM   15  C1  UNL     1      22.244  -1.707  18.879  1.00  0.00     0.034 C 
ENDBRANCH  13  14
ENDBRANCH  11  13
ENDBRANCH   1  11
BRANCH   1  16
HETATM   16  C5  UNL     1      19.122  -5.990  20.786  1.00  0.00     0.140 C 
BRANCH  16  17
HETATM   17  C6  UNL     1      20.184  -6.712  20.062  1.00  0.00     0.189 C 
HETATM   18  O3  UNL     1      19.966  -7.556  19.200  1.00  0.00    -0.285 OA
BRANCH  17  19
HETATM   19  S1  UNL     1      21.922  -6.401  20.397  1.00  0.00    -0.093 SA
BRANCH  19  20
HETATM   20  C7  UNL     1      22.677  -5.410  19.080  1.00  0.00     0.077 C 
HETATM   21  C8  UNL     1      22.920  -6.234  17.853  1.00  0.00     0.016 C 
ENDBRANCH  19  20
ENDBRANCH  17  19
ENDBRANCH  16  17
ENDBRANCH   1  16
BRANCH   9  22
HETATM   22  O8  UNL     1      17.658  -1.925  20.823  1.00  0.00    -0.371 OA
ATOM     23  H8  UNL     1      17.589  -1.681  21.739  1.00  0.00     0.212 HD
ENDBRANCH   9  22
BRANCH   4  24
HETATM   24  C11 UNL     1      18.059  -4.588  15.716  1.00  0.00     0.061 C 
BRANCH  24  25
HETATM   25  C12 UNL     1      17.697  -3.684  14.606  1.00  0.00    -0.028 C 
HETATM   26  C13 UNL     1      16.691  -3.809  13.768  1.00  0.00    -0.031 C 
BRANCH  26  27
HETATM   27  C14 UNL     1      15.709  -4.894  13.767  1.00  0.00     0.027 C 
BRANCH  27  28
HETATM   28  C15 UNL     1      15.283  -5.313  12.370  1.00  0.00     0.013 C 
BRANCH  28  29
HETATM   29  C16 UNL     1      15.223  -4.122  11.437  1.00  0.00     0.111 C 
BRANCH  29  30
HETATM   30  C17 UNL     1      15.834  -4.479  10.131  1.00  0.00     0.258 C 
HETATM   31  O5  UNL     1      17.042  -4.806  10.056  1.00  0.00    -0.265 OA
BRANCH  30  32
HETATM   32  O6  UNL     1      15.113  -4.467   8.947  1.00  0.00    -0.326 OA
HETATM   33  C18 UNL     1      14.249  -3.396   8.602  1.00  0.00     0.213 C 
ENDBRANCH  30  32
ENDBRANCH  29  30
ENDBRANCH  28  29
ENDBRANCH  27  28
ENDBRANCH  26  27
ENDBRANCH  24  25
ENDBRANCH   4  24
TORSDOF 15
ENDMDL
MODEL 5
REMARK VINA RESULT: -7.847720872      1.273      1.548
REMARK  15 active torsions:
REMARK  status: ('A' for Active; 'I' for Inactive)
REMARK    1  A    between atoms: C2_2  and  O1_3 
REMARK    2  A    between atoms: O1_3  and  C3_4 
REMARK    3  A    between atoms: C3_4  and  C4_6 
REMARK    4  A    between atoms: C4_6  and  C5_7 
REMARK    5  A    between atoms: C5_7  and  C6_8 
REMARK    6  A    between atoms: C6_8  and  S1_10 
REMARK    7  A    between atoms: S1_10  and  C7_11 
REMARK    8  A    between atoms: C10_15  and  C11_16 
REMARK    9  A    between atoms: C11_16  and  C12_17 
REMARK   10  A    between atoms: C13_18  and  C14_19 
REMARK   11  A    between atoms: C14_19  and  C15_20 
REMARK   12  A    between atoms: C15_20  and  C16_21 
REMARK   13  A    between atoms: C16_21  and  C17_22 
REMARK   14  A    between atoms: C17_22  and  O6_24 
REMARK   15  A    between atoms: C22_30  and  O8_31 
ROOT
HETATM    1  C4  UNL     1      18.597  -4.531  20.296  1.00  0.00     0.164 C 
HETATM    2  O4  UNL     1      18.833  -4.853  18.987  1.00  0.00    -0.366 OA
HETATM    3  C9  UNL     1      18.815  -3.892  18.043  1.00  0.00     0.201 C 
HETATM    4  C10 UNL     1      17.720  -4.128  16.993  1.00  0.00     0.151 C 
HETATM    5  O7  UNL     1      16.672  -4.866  17.478  1.00  0.00    -0.353 OA
HETATM    6  C19 UNL     1      16.002  -4.348  18.553  1.00  0.00     0.264 C 
HETATM    7  C20 UNL     1      16.279  -5.195  19.763  1.00  0.00     0.074 C 
HETATM    8  C21 UNL     1      17.146  -4.271  20.602  1.00  0.00     0.090 C 
HETATM    9  C22 UNL     1      16.609  -2.951  20.180  1.00  0.00     0.267 C 
HETATM   10  O9  UNL     1      16.368  -3.047  18.811  1.00  0.00    -0.331 OA
ENDROOT
BRANCH   1  11
HETATM   11  C3  UNL     1      19.475  -3.478  20.840  1.00  0.00     0.294 C 
HETATM   12  O2  UNL     1      19.575  -3.128  22.033  1.00  0.00    -0.262 OA
BRANCH  11  13
HETATM   13  O1  UNL     1      20.275  -2.801  19.940  1.00  0.00    -0.319 OA
BRANCH  13  14
HETATM   14  C2  UNL     1      21.555  -2.288  20.270  1.00  0.00     0.174 C 
HETATM   15  C1  UNL     1      22.274  -2.049  18.953  1.00  0.00     0.034 C 
ENDBRANCH  13  14
ENDBRANCH  11  13
ENDBRANCH   1  11
BRANCH   1  16
HETATM   16  C5  UNL     1      18.943  -5.793  21.093  1.00  0.00     0.140 C 
BRANCH  16  17
HETATM   17  C6  UNL     1      20.091  -6.528  20.533  1.00  0.00     0.189 C 
HETATM   18  O3  UNL     1      19.981  -7.474  19.761  1.00  0.00    -0.285 OA
BRANCH  17  19
HETATM   19  S1  UNL     1      21.781  -6.083  20.952  1.00  0.00    -0.093 SA
BRANCH  19  20
HETATM   20  C7  UNL     1      21.927  -5.639  22.704  1.00  0.00     0.077 C 
HETATM   21  C8  UNL     1      21.638  -6.814  23.587  1.00  0.00     0.016 C 
ENDBRANCH  19  20
ENDBRANCH  17  19
ENDBRANCH  16  17
ENDBRANCH   1  16
BRANCH   9  22
HETATM   22  O8  UNL     1      17.279  -1.839  20.581  1.00  0.00    -0.371 OA
ATOM     23  H8  UNL     1      18.036  -1.571  20.072  1.00  0.00     0.212 HD
ENDBRANCH   9  22
BRANCH   4  24
HETATM   24  C11 UNL     1      18.299  -4.958  15.831  1.00  0.00     0.061 C 
BRANCH  24  25
HETATM   25  C12 UNL     1      18.001  -4.189  14.606  1.00  0.00    -0.028 C 
HETATM   26  C13 UNL     1      16.976  -4.339  13.797  1.00  0.00    -0.031 C 
BRANCH  26  27
HETATM   27  C14 UNL     1      15.902  -5.322  13.951  1.00  0.00     0.027 C 
BRANCH  27  28
HETATM   28  C15 UNL     1      14.954  -5.362  12.764  1.00  0.00     0.013 C 
BRANCH  28  29
HETATM   29  C16 UNL     1      15.550  -4.657  11.564  1.00  0.00     0.111 C 
BRANCH  29  30
HETATM   30  C17 UNL     1      14.592  -3.645  11.052  1.00  0.00     0.258 C 
HETATM   31  O5  UNL     1      14.370  -2.589  11.694  1.00  0.00    -0.265 OA
BRANCH  30  32
HETATM   32  O6  UNL     1      13.905  -3.810   9.860  1.00  0.00    -0.326 OA
HETATM   33  C18 UNL     1      14.228  -3.067   8.695  1.00  0.00     0.213 C 
ENDBRANCH  30  32
ENDBRANCH  29  30
ENDBRANCH  28  29
ENDBRANCH  27  28
ENDBRANCH  26  27
ENDBRANCH  24  25
ENDBRANCH   4  24
TORSDOF 15
ENDMDL
