MODEL 1
REMARK VINA RESULT: -7.930657964      0.000      0.000
REMARK  14 active torsions:
REMARK  status: ('A' for Active; 'I' for Inactive)
REMARK    1  A    between atoms: O1_2  and  C2_3 
REMARK    2  A    between atoms: C2_3  and  C3_4 
REMARK    3  A    between atoms: C9_12  and  C10_13 
REMARK    4  A    between atoms: C10_13  and  S2_14 
REMARK    5  A    between atoms: S2_14  and  C11_15 
REMARK    6  A    between atoms: C11_15  and  C12_17 
REMARK    7  A    between atoms: C12_17  and  C13_18 
REMARK    8  A    between atoms: C13_18  and  C14_19 
REMARK    9  A    between atoms: C14_19  and  C15_20 
REMARK   10  A    between atoms: C15_20  and  O4_21 
REMARK   11  A    between atoms: O4_21  and  C16_22 
REMARK   12  A    between atoms: C16_22  and  C17_23 
REMARK   13  A    between atoms: C17_23  and  N1_24 
REMARK   14  A    between atoms: C20_33  and  O5_34 
ROOT
HETATM    1  C16 UNL     1      14.847  -3.882  10.183  1.00  0.00     0.152 C 
HETATM    2  N2  UNL     1      16.034  -4.231  10.099  1.00  0.00    -0.276 N 
ATOM      3  H2  UNL     1      16.512  -3.739   9.344  1.00  0.00     0.180 HD
HETATM    4  C18 UNL     1      16.861  -5.076  10.728  1.00  0.00     0.183 C 
HETATM    5  N3  UNL     1      17.596  -5.803  11.249  1.00  0.00    -0.172 NA
ENDROOT
BRANCH   1   6
HETATM    6  O4  UNL     1      13.986  -4.395  11.124  1.00  0.00    -0.337 OA
BRANCH   6   7
HETATM    7  C15 UNL     1      13.730  -3.784  12.348  1.00  0.00     0.177 C 
BRANCH   7   8
HETATM    8  C14 UNL     1      14.383  -4.578  13.496  1.00  0.00     0.027 C 
BRANCH   8   9
HETATM    9  C13 UNL     1      15.577  -3.782  13.910  1.00  0.00     0.010 C 
BRANCH   9  10
HETATM   10  C12 UNL     1      16.232  -4.230  15.188  1.00  0.00     0.091 C 
BRANCH  10  11
HETATM   11  C11 UNL     1      15.722  -3.600  16.406  1.00  0.00     0.186 C 
HETATM   12  O3  UNL     1      14.813  -2.787  16.341  1.00  0.00    -0.286 OA
BRANCH  11  13
HETATM   13  S2  UNL     1      16.370  -3.959  18.008  1.00  0.00    -0.089 SA
BRANCH  13  14
HETATM   14  C10 UNL     1      17.972  -4.725  18.032  1.00  0.00     0.109 C 
BRANCH  14  15
HETATM   15  C9  UNL     1      18.384  -5.206  19.366  1.00  0.00    -0.011 C 
HETATM   16  C8  UNL     1      19.274  -4.536  20.131  1.00  0.00    -0.055 C 
HETATM   17  C5  UNL     1      19.669  -5.044  21.463  1.00  0.00     0.027 C 
HETATM   18  C19 UNL     1      19.889  -3.306  19.724  1.00  0.00     0.086 C 
HETATM   19  S1  UNL     1      20.639  -3.711  22.160  1.00  0.00    -0.123 SA
HETATM   20  C6  UNL     1      18.384  -5.187  22.282  1.00  0.00     0.031 C 
HETATM   21  C7  UNL     1      20.360  -6.360  21.446  1.00  0.00     0.031 C 
HETATM   22  C4  UNL     1      20.326  -2.451  20.860  1.00  0.00     0.195 C 
HETATM   23  O2  UNL     1      21.569  -1.909  20.544  1.00  0.00    -0.365 OA
HETATM   24  C3  UNL     1      21.704  -1.992  19.163  1.00  0.00     0.176 C 
HETATM   25  C20 UNL     1      21.155  -3.413  18.905  1.00  0.00     0.163 C 
BRANCH  24  26
HETATM   26  C2  UNL     1      23.112  -1.872  18.700  1.00  0.00     0.201 C 
BRANCH  26  27
HETATM   27  O1  UNL     1      23.373  -0.565  18.324  1.00  0.00    -0.393 OA
HETATM   28  C1  UNL     1      24.196  -0.458  17.210  1.00  0.00     0.201 C 
ENDBRANCH  26  27
ENDBRANCH  24  26
BRANCH  25  29
HETATM   29  O5  UNL     1      22.091  -4.276  19.426  1.00  0.00    -0.387 OA
HETATM   30  C21 UNL     1      22.401  -5.321  18.556  1.00  0.00     0.202 C 
ENDBRANCH  25  29
ENDBRANCH  14  15
ENDBRANCH  13  14
ENDBRANCH  11  13
ENDBRANCH  10  11
ENDBRANCH   9  10
ENDBRANCH   8   9
ENDBRANCH   7   8
ENDBRANCH   6   7
ENDBRANCH   1   6
BRANCH   1  31
HETATM   31  C17 UNL     1      14.352  -2.840   9.188  1.00  0.00     0.314 C 
BRANCH  31  32
HETATM   32  N1  UNL     1      14.310  -3.448   7.877  1.00  0.00    -0.072 N 
ATOM     33  H13 UNL     1      15.051  -3.109   7.262  1.00  0.00     0.274 HD
ATOM     34  H12 UNL     1      14.581  -4.431   7.891  1.00  0.00     0.274 HD
ATOM     35  H11 UNL     1      13.378  -3.303   7.486  1.00  0.00     0.274 HD
ENDBRANCH  31  32
ENDBRANCH   1  31
TORSDOF 14
ENDMDL
MODEL 2
REMARK VINA RESULT: -7.834061900      1.210      2.052
REMARK  14 active torsions:
REMARK  status: ('A' for Active; 'I' for Inactive)
REMARK    1  A    between atoms: O1_2  and  C2_3 
REMARK    2  A    between atoms: C2_3  and  C3_4 
REMARK    3  A    between atoms: C9_12  and  C10_13 
REMARK    4  A    between atoms: C10_13  and  S2_14 
REMARK    5  A    between atoms: S2_14  and  C11_15 
REMARK    6  A    between atoms: C11_15  and  C12_17 
REMARK    7  A    between atoms: C12_17  and  C13_18 
REMARK    8  A    between atoms: C13_18  and  C14_19 
REMARK    9  A    between atoms: C14_19  and  C15_20 
REMARK   10  A    between atoms: C15_20  and  O4_21 
REMARK   11  A    between atoms: O4_21  and  C16_22 
REMARK   12  A    between atoms: C16_22  and  C17_23 
REMARK   13  A    between atoms: C17_23  and  N1_24 
REMARK   14  A    between atoms: C20_33  and  O5_34 
ROOT
HETATM    1  C16 UNL     1      14.694  -4.469  11.397  1.00  0.00     0.152 C 
HETATM    2  N2  UNL     1      14.071  -3.814  10.548  1.00  0.00    -0.276 N 
ATOM      3  H2  UNL     1      13.153  -3.536  10.895  1.00  0.00     0.180 HD
HETATM    4  C18 UNL     1      14.273  -3.370   9.301  1.00  0.00     0.183 C 
HETATM    5  N3  UNL     1      14.417  -2.979   8.220  1.00  0.00    -0.172 NA
ENDROOT
BRANCH   1   6
HETATM    6  O4  UNL     1      15.960  -4.958  11.176  1.00  0.00    -0.337 OA
BRANCH   6   7
HETATM    7  C15 UNL     1      17.037  -4.720  12.026  1.00  0.00     0.177 C 
BRANCH   7   8
HETATM    8  C14 UNL     1      17.439  -6.012  12.762  1.00  0.00     0.027 C 
BRANCH   8   9
HETATM    9  C13 UNL     1      17.346  -5.692  14.218  1.00  0.00     0.010 C 
BRANCH   9  10
HETATM   10  C12 UNL     1      17.171  -4.234  14.543  1.00  0.00     0.091 C 
BRANCH  10  11
HETATM   11  C11 UNL     1      16.277  -3.948  15.666  1.00  0.00     0.186 C 
HETATM   12  O3  UNL     1      15.218  -3.370  15.475  1.00  0.00    -0.286 OA
BRANCH  11  13
HETATM   13  S2  UNL     1      16.659  -4.402  17.328  1.00  0.00    -0.089 SA
BRANCH  13  14
HETATM   14  C10 UNL     1      18.335  -4.914  17.617  1.00  0.00     0.109 C 
BRANCH  14  15
HETATM   15  C9  UNL     1      18.607  -5.311  19.012  1.00  0.00    -0.011 C 
HETATM   16  C8  UNL     1      19.387  -4.575  19.833  1.00  0.00    -0.055 C 
HETATM   17  C5  UNL     1      19.642  -5.000  21.227  1.00  0.00     0.027 C 
HETATM   18  C19 UNL     1      20.012  -3.348  19.430  1.00  0.00     0.086 C 
HETATM   19  S1  UNL     1      20.493  -3.602  21.952  1.00  0.00    -0.123 SA
HETATM   20  C6  UNL     1      18.278  -5.141  21.905  1.00  0.00     0.031 C 
HETATM   21  C7  UNL     1      20.365  -6.292  21.359  1.00  0.00     0.031 C 
HETATM   22  C4  UNL     1      20.296  -2.422  20.558  1.00  0.00     0.195 C 
HETATM   23  O2  UNL     1      21.552  -1.857  20.353  1.00  0.00    -0.365 OA
HETATM   24  C3  UNL     1      21.843  -2.008  19.001  1.00  0.00     0.176 C 
HETATM   25  C20 UNL     1      21.365  -3.458  18.763  1.00  0.00     0.163 C 
BRANCH  24  26
HETATM   26  C2  UNL     1      23.291  -1.867  18.691  1.00  0.00     0.201 C 
BRANCH  26  27
HETATM   27  O1  UNL     1      23.579  -0.548  18.383  1.00  0.00    -0.393 OA
HETATM   28  C1  UNL     1      24.165  -0.383  17.134  1.00  0.00     0.201 C 
ENDBRANCH  26  27
ENDBRANCH  24  26
BRANCH  25  29
HETATM   29  O5  UNL     1      22.258  -4.262  19.432  1.00  0.00    -0.387 OA
HETATM   30  C21 UNL     1      22.712  -5.325  18.652  1.00  0.00     0.202 C 
ENDBRANCH  25  29
ENDBRANCH  14  15
ENDBRANCH  13  14
ENDBRANCH  11  13
ENDBRANCH  10  11
ENDBRANCH   9  10
ENDBRANCH   8   9
ENDBRANCH   7   8
ENDBRANCH   6   7
ENDBRANCH   1   6
BRANCH   1  31
HETATM   31  C17 UNL     1      14.002  -4.727  12.728  1.00  0.00     0.314 C 
BRANCH  31  32
HETATM   32  N1  UNL     1      13.333  -3.512  13.136  1.00  0.00    -0.072 N 
ATOM     33  H13 UNL     1      13.484  -2.742  12.483  1.00  0.00     0.274 HD
ATOM     34  H12 UNL     1      12.319  -3.573  13.044  1.00  0.00     0.274 HD
ATOM     35  H11 UNL     1      13.629  -3.286  14.086  1.00  0.00     0.274 HD
ENDBRANCH  31  32
ENDBRANCH   1  31
TORSDOF 14
ENDMDL
MODEL 3
REMARK VINA RESULT: -7.830288237      1.495      1.933
REMARK  14 active torsions:
REMARK  status: ('A' for Active; 'I' for Inactive)
REMARK    1  A    between atoms: O1_2  and  C2_3 
REMARK    2  A    between atoms: C2_3  and  C3_4 
REMARK    3  A    between atoms: C9_12  and  C10_13 
REMARK    4  A    between atoms: C10_13  and  S2_14 
REMARK    5  A    between atoms: S2_14  and  C11_15 
REMARK    6  A    between atoms: C11_15  and  C12_17 
REMARK    7  A    between atoms: C12_17  and  C13_18 
REMARK    8  A    between atoms: C13_18  and  C14_19 
REMARK    9  A    between atoms: C14_19  and  C15_20 
REMARK   10  A    between atoms: C15_20  and  O4_21 
REMARK   11  A    between atoms: O4_21  and  C16_22 
REMARK   12  A    between atoms: C16_22  and  C17_23 
REMARK   13  A    between atoms: C17_23  and  N1_24 
REMARK   14  A    between atoms: C20_33  and  O5_34 
ROOT
HETATM    1  C16 UNL     1      15.149  -4.110  10.236  1.00  0.00     0.152 C 
HETATM    2  N2  UNL     1      14.106  -3.766  10.811  1.00  0.00    -0.276 N 
ATOM      3  H2  UNL     1      13.363  -3.564  10.141  1.00  0.00     0.180 HD
HETATM    4  C18 UNL     1      13.686  -3.586  12.070  1.00  0.00     0.183 C 
HETATM    5  N3  UNL     1      13.297  -3.417  13.147  1.00  0.00    -0.172 NA
ENDROOT
BRANCH   1   6
HETATM    6  O4  UNL     1      16.298  -4.441  10.916  1.00  0.00    -0.337 OA
BRANCH   6   7
HETATM    7  C15 UNL     1      16.544  -5.705  11.443  1.00  0.00     0.177 C 
BRANCH   7   8
HETATM    8  C14 UNL     1      17.568  -5.622  12.591  1.00  0.00     0.027 C 
BRANCH   8   9
HETATM    9  C13 UNL     1      16.792  -5.202  13.796  1.00  0.00     0.010 C 
BRANCH   9  10
HETATM   10  C12 UNL     1      17.024  -3.785  14.244  1.00  0.00     0.091 C 
BRANCH  10  11
HETATM   11  C11 UNL     1      17.988  -3.624  15.332  1.00  0.00     0.186 C 
HETATM   12  O3  UNL     1      18.802  -2.715  15.301  1.00  0.00    -0.286 OA
BRANCH  11  13
HETATM   13  S2  UNL     1      18.043  -4.707  16.725  1.00  0.00    -0.089 SA
BRANCH  13  14
HETATM   14  C10 UNL     1      17.462  -4.017  18.255  1.00  0.00     0.109 C 
BRANCH  14  15
HETATM   15  C9  UNL     1      17.926  -4.746  19.453  1.00  0.00    -0.011 C 
HETATM   16  C8  UNL     1      18.968  -4.318  20.199  1.00  0.00    -0.055 C 
HETATM   17  C5  UNL     1      19.410  -5.070  21.393  1.00  0.00     0.027 C 
HETATM   18  C19 UNL     1      19.709  -3.126  19.902  1.00  0.00     0.086 C 
HETATM   19  S1  UNL     1      20.618  -3.992  22.156  1.00  0.00    -0.123 SA
HETATM   20  C6  UNL     1      18.200  -5.177  22.324  1.00  0.00     0.031 C 
HETATM   21  C7  UNL     1      19.906  -6.444  21.114  1.00  0.00     0.031 C 
HETATM   22  C4  UNL     1      20.365  -2.518  21.090  1.00  0.00     0.195 C 
HETATM   23  O2  UNL     1      21.636  -2.092  20.716  1.00  0.00    -0.365 OA
HETATM   24  C3  UNL     1      21.629  -1.977  19.330  1.00  0.00     0.176 C 
HETATM   25  C20 UNL     1      20.866  -3.263  18.938  1.00  0.00     0.163 C 
BRANCH  24  26
HETATM   26  C2  UNL     1      22.990  -1.963  18.732  1.00  0.00     0.201 C 
BRANCH  26  27
HETATM   27  O1  UNL     1      23.414  -0.656  18.558  1.00  0.00    -0.393 OA
HETATM   28  C1  UNL     1      24.107  -0.448  17.372  1.00  0.00     0.201 C 
ENDBRANCH  26  27
ENDBRANCH  24  26
BRANCH  25  29
HETATM   29  O5  UNL     1      21.716  -4.305  19.224  1.00  0.00    -0.387 OA
HETATM   30  C21 UNL     1      21.702  -5.294  18.241  1.00  0.00     0.202 C 
ENDBRANCH  25  29
ENDBRANCH  14  15
ENDBRANCH  13  14
ENDBRANCH  11  13
ENDBRANCH  10  11
ENDBRANCH   9  10
ENDBRANCH   8   9
ENDBRANCH   7   8
ENDBRANCH   6   7
ENDBRANCH   1   6
BRANCH   1  31
HETATM   31  C17 UNL     1      15.126  -4.158   8.714  1.00  0.00     0.314 C 
BRANCH  31  32
HETATM   32  N1  UNL     1      14.023  -3.348   8.250  1.00  0.00    -0.072 N 
ATOM     33  H13 UNL     1      13.116  -3.783   8.423  1.00  0.00     0.274 HD
ATOM     34  H12 UNL     1      13.885  -2.511   8.816  1.00  0.00     0.274 HD
ATOM     35  H11 UNL     1      14.174  -3.135   7.263  1.00  0.00     0.274 HD
ENDBRANCH  31  32
ENDBRANCH   1  31
TORSDOF 14
ENDMDL
MODEL 4
REMARK VINA RESULT: -7.655609690      2.527      3.756
REMARK  14 active torsions:
REMARK  status: ('A' for Active; 'I' for Inactive)
REMARK    1  A    between atoms: O1_2  and  C2_3 
REMARK    2  A    between atoms: C2_3  and  C3_4 
REMARK    3  A    between atoms: C9_12  and  C10_13 
REMARK    4  A    between atoms: C10_13  and  S2_14 
REMARK    5  A    between atoms: S2_14  and  C11_15 
REMARK    6  A    between atoms: C11_15  and  C12_17 
REMARK    7  A    between atoms: C12_17  and  C13_18 
REMARK    8  A    between atoms: C13_18  and  C14_19 
REMARK    9  A    between atoms: C14_19  and  C15_20 
REMARK   10  A    between atoms: C15_20  and  O4_21 
REMARK   11  A    between atoms: O4_21  and  C16_22 
REMARK   12  A    between atoms: C16_22  and  C17_23 
REMARK   13  A    between atoms: C17_23  and  N1_24 
REMARK   14  A    between atoms: C20_33  and  O5_34 
ROOT
HETATM    1  C16 UNL     1      14.806  -4.298  11.791  1.00  0.00     0.152 C 
HETATM    2  N2  UNL     1      14.121  -3.830  10.869  1.00  0.00    -0.276 N 
ATOM      3  H2  UNL     1      13.138  -3.763  11.136  1.00  0.00     0.180 HD
HETATM    4  C18 UNL     1      14.316  -3.389   9.620  1.00  0.00     0.183 C 
HETATM    5  N3  UNL     1      14.454  -3.007   8.535  1.00  0.00    -0.172 NA
ENDROOT
BRANCH   1   6
HETATM    6  O4  UNL     1      16.164  -4.486  11.685  1.00  0.00    -0.337 OA
BRANCH   6   7
HETATM    7  C15 UNL     1      16.745  -5.662  11.218  1.00  0.00     0.177 C 
BRANCH   7   8
HETATM    8  C14 UNL     1      18.243  -5.703  11.573  1.00  0.00     0.027 C 
BRANCH   8   9
HETATM    9  C13 UNL     1      18.386  -6.788  12.591  1.00  0.00     0.010 C 
BRANCH   9  10
HETATM   10  C12 UNL     1      18.776  -6.326  13.968  1.00  0.00     0.091 C 
BRANCH  10  11
HETATM   11  C11 UNL     1      17.824  -5.423  14.616  1.00  0.00     0.186 C 
HETATM   12  O3  UNL     1      16.677  -5.787  14.823  1.00  0.00    -0.286 OA
BRANCH  11  13
HETATM   13  S2  UNL     1      18.256  -3.789  15.127  1.00  0.00    -0.089 SA
BRANCH  13  14
HETATM   14  C10 UNL     1      18.913  -3.649  16.770  1.00  0.00     0.109 C 
BRANCH  14  15
HETATM   15  C9  UNL     1      17.901  -3.797  17.834  1.00  0.00    -0.011 C 
HETATM   16  C8  UNL     1      18.213  -3.708  19.146  1.00  0.00    -0.055 C 
HETATM   17  C5  UNL     1      17.176  -3.863  20.189  1.00  0.00     0.027 C 
HETATM   18  C19 UNL     1      19.544  -3.457  19.620  1.00  0.00     0.086 C 
HETATM   19  S1  UNL     1      18.021  -3.417  21.702  1.00  0.00    -0.123 SA
HETATM   20  C6  UNL     1      16.101  -2.811  19.906  1.00  0.00     0.031 C 
HETATM   21  C7  UNL     1      16.524  -5.199  20.222  1.00  0.00     0.031 C 
HETATM   22  C4  UNL     1      19.590  -2.815  20.960  1.00  0.00     0.195 C 
HETATM   23  O2  UNL     1      20.614  -3.410  21.693  1.00  0.00    -0.365 OA
HETATM   24  C3  UNL     1      21.463  -4.018  20.775  1.00  0.00     0.176 C 
HETATM   25  C20 UNL     1      20.438  -4.661  19.815  1.00  0.00     0.163 C 
BRANCH  24  26
HETATM   26  C2  UNL     1      22.346  -5.049  21.381  1.00  0.00     0.201 C 
BRANCH  26  27
HETATM   27  O1  UNL     1      22.268  -4.982  22.762  1.00  0.00    -0.393 OA
HETATM   28  C1  UNL     1      21.898  -6.180  23.359  1.00  0.00     0.201 C 
ENDBRANCH  26  27
ENDBRANCH  24  26
BRANCH  25  29
HETATM   29  O5  UNL     1      19.854  -5.686  20.522  1.00  0.00    -0.387 OA
HETATM   30  C21 UNL     1      19.820  -6.882  19.806  1.00  0.00     0.202 C 
ENDBRANCH  25  29
ENDBRANCH  14  15
ENDBRANCH  13  14
ENDBRANCH  11  13
ENDBRANCH  10  11
ENDBRANCH   9  10
ENDBRANCH   8   9
ENDBRANCH   7   8
ENDBRANCH   6   7
ENDBRANCH   1   6
BRANCH   1  31
HETATM   31  C17 UNL     1      14.086  -4.670  13.079  1.00  0.00     0.314 C 
BRANCH  31  32
HETATM   32  N1  UNL     1      14.535  -3.779  14.125  1.00  0.00    -0.072 N 
ATOM     33  H13 UNL     1      13.831  -3.640  14.851  1.00  0.00     0.274 HD
ATOM     34  H12 UNL     1      15.258  -4.196  14.711  1.00  0.00     0.274 HD
ATOM     35  H11 UNL     1      14.833  -2.904  13.694  1.00  0.00     0.274 HD
ENDBRANCH  31  32
ENDBRANCH   1  31
TORSDOF 14
ENDMDL
MODEL 5
REMARK VINA RESULT: -7.650330474      1.406      1.979
REMARK  14 active torsions:
REMARK  status: ('A' for Active; 'I' for Inactive)
REMARK    1  A    between atoms: O1_2  and  C2_3 
REMARK    2  A    between atoms: C2_3  and  C3_4 
REMARK    3  A    between atoms: C9_12  and  C10_13 
REMARK    4  A    between atoms: C10_13  and  S2_14 
REMARK    5  A    between atoms: S2_14  and  C11_15 
REMARK    6  A    between atoms: C11_15  and  C12_17 
REMARK    7  A    between atoms: C12_17  and  C13_18 
REMARK    8  A    between atoms: C13_18  and  C14_19 
REMARK    9  A    between atoms: C14_19  and  C15_20 
REMARK   10  A    between atoms: C15_20  and  O4_21 
REMARK   11  A    between atoms: O4_21  and  C16_22 
REMARK   12  A    between atoms: C16_22  and  C17_23 
REMARK   13  A    between atoms: C17_23  and  N1_24 
REMARK   14  A    between atoms: C20_33  and  O5_34 
ROOT
HETATM    1  C16 UNL     1      15.411  -4.361  12.193  1.00  0.00     0.152 C 
HETATM    2  N2  UNL     1      15.626  -4.620  10.999  1.00  0.00    -0.276 N 
ATOM      3  H2  UNL     1      14.801  -5.023  10.554  1.00  0.00     0.180 HD
HETATM    4  C18 UNL     1      16.643  -4.516  10.135  1.00  0.00     0.183 C 
HETATM    5  N3  UNL     1      17.507  -4.443   9.367  1.00  0.00    -0.172 NA
ENDROOT
BRANCH   1   6
HETATM    6  O4  UNL     1      16.362  -3.806  13.016  1.00  0.00    -0.337 OA
BRANCH   6   7
HETATM    7  C15 UNL     1      16.762  -4.372  14.223  1.00  0.00     0.177 C 
BRANCH   7   8
HETATM    8  C14 UNL     1      18.044  -3.692  14.741  1.00  0.00     0.027 C 
BRANCH   8   9
HETATM    9  C13 UNL     1      17.718  -3.212  16.117  1.00  0.00     0.010 C 
BRANCH   9  10
HETATM   10  C12 UNL     1      16.298  -3.441  16.555  1.00  0.00     0.091 C 
BRANCH  10  11
HETATM   11  C11 UNL     1      16.054  -3.286  17.990  1.00  0.00     0.186 C 
HETATM   12  O3  UNL     1      15.524  -2.272  18.416  1.00  0.00    -0.286 OA
BRANCH  11  13
HETATM   13  S2  UNL     1      16.499  -4.520  19.171  1.00  0.00    -0.089 SA
BRANCH  13  14
HETATM   14  C10 UNL     1      18.105  -5.245  18.952  1.00  0.00     0.109 C 
BRANCH  14  15
HETATM   15  C9  UNL     1      18.761  -5.637  20.216  1.00  0.00    -0.011 C 
HETATM   16  C8  UNL     1      19.694  -4.865  20.814  1.00  0.00    -0.055 C 
HETATM   17  C5  UNL     1      20.335  -5.285  22.079  1.00  0.00     0.027 C 
HETATM   18  C19 UNL     1      20.125  -3.602  20.284  1.00  0.00     0.086 C 
HETATM   19  S1  UNL     1      21.277  -3.847  22.580  1.00  0.00    -0.123 SA
HETATM   20  C6  UNL     1      19.211  -5.505  23.094  1.00  0.00     0.031 C 
HETATM   21  C7  UNL     1      21.132  -6.536  21.986  1.00  0.00     0.031 C 
HETATM   22  C4  UNL     1      20.653  -2.670  21.315  1.00  0.00     0.195 C 
HETATM   23  O2  UNL     1      21.778  -2.036  20.794  1.00  0.00    -0.365 OA
HETATM   24  C3  UNL     1      21.704  -2.161  19.411  1.00  0.00     0.176 C 
HETATM   25  C20 UNL     1      21.253  -3.633  19.278  1.00  0.00     0.163 C 
BRANCH  24  26
HETATM   26  C2  UNL     1      23.006  -1.939  18.729  1.00  0.00     0.201 C 
BRANCH  26  27
HETATM   27  O1  UNL     1      23.100  -0.621  18.313  1.00  0.00    -0.393 OA
HETATM   28  C1  UNL     1      24.053  -0.415  17.323  1.00  0.00     0.201 C 
ENDBRANCH  26  27
ENDBRANCH  24  26
BRANCH  25  29
HETATM   29  O5  UNL     1      22.333  -4.392  19.667  1.00  0.00    -0.387 OA
HETATM   30  C21 UNL     1      22.615  -5.422  18.771  1.00  0.00     0.202 C 
ENDBRANCH  25  29
ENDBRANCH  14  15
ENDBRANCH  13  14
ENDBRANCH  11  13
ENDBRANCH  10  11
ENDBRANCH   9  10
ENDBRANCH   8   9
ENDBRANCH   7   8
ENDBRANCH   6   7
ENDBRANCH   1   6
BRANCH   1  31
HETATM   31  C17 UNL     1      14.027  -4.684  12.741  1.00  0.00     0.314 C 
BRANCH  31  32
HETATM   32  N1  UNL     1      13.250  -3.466  12.758  1.00  0.00    -0.072 N 
ATOM     33  H13 UNL     1      13.366  -2.937  13.624  1.00  0.00     0.274 HD
ATOM     34  H12 UNL     1      13.611  -2.761  12.116  1.00  0.00     0.274 HD
ATOM     35  H11 UNL     1      12.275  -3.704  12.572  1.00  0.00     0.274 HD
ENDBRANCH  31  32
ENDBRANCH   1  31
TORSDOF 14
ENDMDL
