MODEL 1
REMARK VINA RESULT: -9.028303940      0.000      0.000
REMARK  14 active torsions:
REMARK  status: ('A' for Active; 'I' for Inactive)
REMARK    1  A    between atoms: C2_2  and  C3_3 
REMARK    2  A    between atoms: C4_4  and  C5_5 
REMARK    3  A    between atoms: C6_6  and  C7_7 
REMARK    4  A    between atoms: C7_7  and  C8_8 
REMARK    5  A    between atoms: C8_8  and  C9_9 
REMARK    6  A    between atoms: C11_11  and  C12_12 
REMARK    7  A    between atoms: C12_12  and  C13_13 
REMARK    8  A    between atoms: C13_13  and  O1_14 
REMARK    9  A    between atoms: C13_13  and  C16_18 
REMARK   10  A    between atoms: O1_14  and  C14_15 
REMARK   11  A    between atoms: C18_22  and  C19_23 
REMARK   12  A    between atoms: C19_23  and  O5_24 
REMARK   13  A    between atoms: C20_26  and  O6_27 
REMARK   14  A    between atoms: O6_27  and  C21_28 
ROOT
HETATM    1  C13 UNL     1      18.519  -4.417  18.482  1.00  0.00     0.190 C 
ENDROOT
BRANCH   1   2
HETATM    2  C12 UNL     1      18.867  -4.639  17.025  1.00  0.00     0.070 C 
BRANCH   2   3
HETATM    3  C11 UNL     1      17.891  -3.873  16.199  1.00  0.00     0.135 C 
HETATM    4  C10 UNL     1      18.079  -4.009  14.725  1.00  0.00     0.047 C 
HETATM    5  C9  UNL     1      16.748  -3.439  14.211  1.00  0.00     0.088 C 
HETATM    6  C23 UNL     1      15.835  -3.784  15.324  1.00  0.00     0.263 C 
HETATM    7  O9  UNL     1      16.571  -4.429  16.340  1.00  0.00    -0.316 OA
HETATM    8  O10 UNL     1      14.594  -3.577  15.434  1.00  0.00    -0.265 OA
BRANCH   5   9
HETATM    9  C8  UNL     1      16.379  -4.057  12.896  1.00  0.00     0.018 C 
BRANCH   9  10
HETATM   10  C7  UNL     1      16.414  -5.569  12.920  1.00  0.00     0.028 C 
BRANCH  10  11
HETATM   11  C6  UNL     1      17.231  -6.057  11.798  1.00  0.00    -0.027 C 
HETATM   12  C5  UNL     1      18.349  -6.710  11.939  1.00  0.00    -0.004 C 
BRANCH  12  13
HETATM   13  C4  UNL     1      18.970  -7.063  13.189  1.00  0.00    -0.004 C 
HETATM   14  C3  UNL     1      19.882  -8.002  13.334  1.00  0.00    -0.027 C 
BRANCH  14  15
HETATM   15  C2  UNL     1      20.431  -8.856  12.264  1.00  0.00     0.022 C 
HETATM   16  C1  UNL     1      21.147 -10.053  12.891  1.00  0.00     0.009 C 
ENDBRANCH  14  15
ENDBRANCH  12  13
ENDBRANCH  10  11
ENDBRANCH   9  10
ENDBRANCH   5   9
ENDBRANCH   2   3
ENDBRANCH   1   2
BRANCH   1  17
HETATM   17  O1  UNL     1      17.695  -3.290  18.663  1.00  0.00    -0.311 OA
BRANCH  17  18
HETATM   18  C14 UNL     1      16.660  -3.283  19.558  1.00  0.00     0.255 C 
HETATM   19  C15 UNL     1      15.908  -4.568  19.751  1.00  0.00     0.126 C 
HETATM   20  O2  UNL     1      16.383  -2.243  20.170  1.00  0.00    -0.266 OA
ENDBRANCH  17  18
ENDBRANCH   1  17
BRANCH   1  21
HETATM   21  C16 UNL     1      19.750  -4.370  19.358  1.00  0.00     0.302 C 
HETATM   22  O3  UNL     1      20.501  -3.201  19.178  1.00  0.00    -0.286 OA
HETATM   23  C17 UNL     1      21.033  -2.526  20.269  1.00  0.00     0.272 C 
HETATM   24  O4  UNL     1      21.698  -1.467  20.136  1.00  0.00    -0.265 OA
HETATM   25  C18 UNL     1      20.842  -3.025  21.664  1.00  0.00     0.165 C 
HETATM   26  C20 UNL     1      20.403  -4.474  21.544  1.00  0.00     0.288 C 
HETATM   27  O8  UNL     1      19.304  -4.501  20.680  1.00  0.00    -0.327 OA
BRANCH  25  28
HETATM   28  C19 UNL     1      19.785  -2.224  22.391  1.00  0.00     0.183 C 
BRANCH  28  29
HETATM   29  O5  UNL     1      18.993  -1.554  21.476  1.00  0.00    -0.400 OA
ATOM     30  H5  UNL     1      18.350  -1.027  21.933  1.00  0.00     0.209 HD
ENDBRANCH  28  29
ENDBRANCH  25  28
BRANCH  26  31
HETATM   31  O6  UNL     1      20.150  -5.074  22.778  1.00  0.00    -0.289 OA
BRANCH  31  32
HETATM   32  C21 UNL     1      20.319  -6.445  22.953  1.00  0.00     0.257 C 
HETATM   33  C22 UNL     1      21.551  -7.003  23.596  1.00  0.00     0.126 C 
HETATM   34  O7  UNL     1      19.396  -7.194  22.548  1.00  0.00    -0.266 OA
ENDBRANCH  31  32
ENDBRANCH  26  31
ENDBRANCH   1  21
TORSDOF 14
ENDMDL
MODEL 2
REMARK VINA RESULT: -8.894471760      4.178      8.430
REMARK  14 active torsions:
REMARK  status: ('A' for Active; 'I' for Inactive)
REMARK    1  A    between atoms: C2_2  and  C3_3 
REMARK    2  A    between atoms: C4_4  and  C5_5 
REMARK    3  A    between atoms: C6_6  and  C7_7 
REMARK    4  A    between atoms: C7_7  and  C8_8 
REMARK    5  A    between atoms: C8_8  and  C9_9 
REMARK    6  A    between atoms: C11_11  and  C12_12 
REMARK    7  A    between atoms: C12_12  and  C13_13 
REMARK    8  A    between atoms: C13_13  and  O1_14 
REMARK    9  A    between atoms: C13_13  and  C16_18 
REMARK   10  A    between atoms: O1_14  and  C14_15 
REMARK   11  A    between atoms: C18_22  and  C19_23 
REMARK   12  A    between atoms: C19_23  and  O5_24 
REMARK   13  A    between atoms: C20_26  and  O6_27 
REMARK   14  A    between atoms: O6_27  and  C21_28 
ROOT
HETATM    1  C13 UNL     1      17.228  -4.228  14.636  1.00  0.00     0.190 C 
ENDROOT
BRANCH   1   2
HETATM    2  C12 UNL     1      18.682  -4.627  14.780  1.00  0.00     0.070 C 
BRANCH   2   3
HETATM    3  C11 UNL     1      18.786  -6.086  14.495  1.00  0.00     0.135 C 
HETATM    4  C10 UNL     1      19.080  -6.424  13.072  1.00  0.00     0.047 C 
HETATM    5  C9  UNL     1      19.480  -7.901  13.203  1.00  0.00     0.088 C 
HETATM    6  C23 UNL     1      20.054  -7.927  14.567  1.00  0.00     0.263 C 
HETATM    7  O9  UNL     1      19.951  -6.639  15.134  1.00  0.00    -0.316 OA
HETATM    8  O10 UNL     1      20.569  -8.891  15.200  1.00  0.00    -0.265 OA
BRANCH   5   9
HETATM    9  C8  UNL     1      20.444  -8.288  12.121  1.00  0.00     0.018 C 
BRANCH   9  10
HETATM   10  C7  UNL     1      20.413  -7.350  10.935  1.00  0.00     0.028 C 
BRANCH  10  11
HETATM   11  C6  UNL     1      21.066  -7.994   9.785  1.00  0.00    -0.027 C 
HETATM   12  C5  UNL     1      21.977  -7.424   9.049  1.00  0.00    -0.004 C 
BRANCH  12  13
HETATM   13  C4  UNL     1      22.496  -6.093   9.225  1.00  0.00    -0.004 C 
HETATM   14  C3  UNL     1      21.979  -5.009   8.684  1.00  0.00    -0.027 C 
BRANCH  14  15
HETATM   15  C2  UNL     1      20.793  -4.953   7.810  1.00  0.00     0.022 C 
HETATM   16  C1  UNL     1      19.572  -4.555   8.641  1.00  0.00     0.009 C 
ENDBRANCH  14  15
ENDBRANCH  12  13
ENDBRANCH  10  11
ENDBRANCH   9  10
ENDBRANCH   5   9
ENDBRANCH   2   3
ENDBRANCH   1   2
BRANCH   1  17
HETATM   17  O1  UNL     1      16.477  -4.542  15.785  1.00  0.00    -0.311 OA
BRANCH  17  18
HETATM   18  C14 UNL     1      16.208  -3.613  16.753  1.00  0.00     0.255 C 
HETATM   19  C15 UNL     1      14.809  -3.076  16.822  1.00  0.00     0.126 C 
HETATM   20  O2  UNL     1      17.107  -3.251  17.525  1.00  0.00    -0.266 OA
ENDBRANCH  17  18
ENDBRANCH   1  17
BRANCH   1  21
HETATM   21  C16 UNL     1      16.608  -4.788  13.377  1.00  0.00     0.302 C 
HETATM   22  O3  UNL     1      15.612  -5.739  13.640  1.00  0.00    -0.286 OA
HETATM   23  C17 UNL     1      14.424  -5.737  12.920  1.00  0.00     0.272 C 
HETATM   24  O4  UNL     1      13.508  -6.568  13.144  1.00  0.00    -0.265 OA
HETATM   25  C18 UNL     1      14.170  -4.742  11.835  1.00  0.00     0.165 C 
HETATM   26  C20 UNL     1      15.522  -4.151  11.471  1.00  0.00     0.288 C 
HETATM   27  O8  UNL     1      16.105  -3.696  12.658  1.00  0.00    -0.327 OA
BRANCH  25  28
HETATM   28  C19 UNL     1      13.238  -3.647  12.304  1.00  0.00     0.183 C 
BRANCH  28  29
HETATM   29  O5  UNL     1      13.371  -3.473  13.670  1.00  0.00    -0.400 OA
ATOM     30  H5  UNL     1      13.700  -4.271  14.065  1.00  0.00     0.209 HD
ENDBRANCH  28  29
ENDBRANCH  25  28
BRANCH  26  31
HETATM   31  O6  UNL     1      15.443  -3.169  10.484  1.00  0.00    -0.289 OA
BRANCH  31  32
HETATM   32  C21 UNL     1      15.054  -3.491   9.186  1.00  0.00     0.257 C 
HETATM   33  C22 UNL     1      13.879  -2.826   8.537  1.00  0.00     0.126 C 
HETATM   34  O7  UNL     1      15.728  -4.362   8.584  1.00  0.00    -0.266 OA
ENDBRANCH  31  32
ENDBRANCH  26  31
ENDBRANCH   1  21
TORSDOF 14
ENDMDL
MODEL 3
REMARK VINA RESULT: -8.859579325      2.646      4.915
REMARK  14 active torsions:
REMARK  status: ('A' for Active; 'I' for Inactive)
REMARK    1  A    between atoms: C2_2  and  C3_3 
REMARK    2  A    between atoms: C4_4  and  C5_5 
REMARK    3  A    between atoms: C6_6  and  C7_7 
REMARK    4  A    between atoms: C7_7  and  C8_8 
REMARK    5  A    between atoms: C8_8  and  C9_9 
REMARK    6  A    between atoms: C11_11  and  C12_12 
REMARK    7  A    between atoms: C12_12  and  C13_13 
REMARK    8  A    between atoms: C13_13  and  O1_14 
REMARK    9  A    between atoms: C13_13  and  C16_18 
REMARK   10  A    between atoms: O1_14  and  C14_15 
REMARK   11  A    between atoms: C18_22  and  C19_23 
REMARK   12  A    between atoms: C19_23  and  O5_24 
REMARK   13  A    between atoms: C20_26  and  O6_27 
REMARK   14  A    between atoms: O6_27  and  C21_28 
ROOT
HETATM    1  C13 UNL     1      18.908  -5.384  16.514  1.00  0.00     0.190 C 
ENDROOT
BRANCH   1   2
HETATM    2  C12 UNL     1      17.831  -5.979  15.630  1.00  0.00     0.070 C 
BRANCH   2   3
HETATM    3  C11 UNL     1      18.241  -5.781  14.212  1.00  0.00     0.135 C 
HETATM    4  C10 UNL     1      19.134  -6.844  13.666  1.00  0.00     0.047 C 
HETATM    5  C9  UNL     1      19.050  -6.547  12.161  1.00  0.00     0.088 C 
HETATM    6  C23 UNL     1      17.689  -5.975  12.053  1.00  0.00     0.263 C 
HETATM    7  O9  UNL     1      17.107  -5.927  13.337  1.00  0.00    -0.316 OA
HETATM    8  O10 UNL     1      17.070  -5.571  11.029  1.00  0.00    -0.265 OA
BRANCH   5   9
HETATM    9  C8  UNL     1      19.259  -7.797  11.360  1.00  0.00     0.018 C 
BRANCH   9  10
HETATM   10  C7  UNL     1      20.720  -8.140  11.165  1.00  0.00     0.028 C 
BRANCH  10  11
HETATM   11  C6  UNL     1      20.977  -8.387   9.737  1.00  0.00    -0.027 C 
HETATM   12  C5  UNL     1      21.656  -7.585   8.968  1.00  0.00    -0.004 C 
BRANCH  12  13
HETATM   13  C4  UNL     1      22.263  -6.341   9.368  1.00  0.00    -0.004 C 
HETATM   14  C3  UNL     1      21.892  -5.153   8.937  1.00  0.00    -0.027 C 
BRANCH  14  15
HETATM   15  C2  UNL     1      20.805  -4.875   7.981  1.00  0.00     0.022 C 
HETATM   16  C1  UNL     1      19.514  -4.593   8.751  1.00  0.00     0.009 C 
ENDBRANCH  14  15
ENDBRANCH  12  13
ENDBRANCH  10  11
ENDBRANCH   9  10
ENDBRANCH   5   9
ENDBRANCH   2   3
ENDBRANCH   1   2
BRANCH   1  17
HETATM   17  O1  UNL     1      19.495  -6.348  17.354  1.00  0.00    -0.311 OA
BRANCH  17  18
HETATM   18  C14 UNL     1      20.808  -6.715  17.232  1.00  0.00     0.255 C 
HETATM   19  C15 UNL     1      21.097  -8.017  16.545  1.00  0.00     0.126 C 
HETATM   20  O2  UNL     1      21.697  -5.979  17.682  1.00  0.00    -0.266 OA
ENDBRANCH  17  18
ENDBRANCH   1  17
BRANCH   1  21
HETATM   21  C16 UNL     1      18.410  -4.183  17.283  1.00  0.00     0.302 C 
HETATM   22  O3  UNL     1      17.140  -3.760  16.867  1.00  0.00    -0.286 OA
HETATM   23  C17 UNL     1      16.177  -3.388  17.796  1.00  0.00     0.272 C 
HETATM   24  O4  UNL     1      15.026  -3.019  17.451  1.00  0.00    -0.265 OA
HETATM   25  C18 UNL     1      16.460  -3.408  19.263  1.00  0.00     0.165 C 
HETATM   26  C20 UNL     1      17.971  -3.465  19.407  1.00  0.00     0.288 C 
HETATM   27  O8  UNL     1      18.417  -4.544  18.637  1.00  0.00    -0.327 OA
BRANCH  25  28
HETATM   28  C19 UNL     1      15.833  -4.614  19.926  1.00  0.00     0.183 C 
BRANCH  28  29
HETATM   29  O5  UNL     1      15.478  -5.544  18.965  1.00  0.00    -0.400 OA
ATOM     30  H5  UNL     1      16.165  -6.194  18.878  1.00  0.00     0.209 HD
ENDBRANCH  28  29
ENDBRANCH  25  28
BRANCH  26  31
HETATM   31  O6  UNL     1      18.394  -3.524  20.735  1.00  0.00    -0.289 OA
BRANCH  31  32
HETATM   32  C21 UNL     1      18.821  -2.377  21.400  1.00  0.00     0.257 C 
HETATM   33  C22 UNL     1      19.813  -2.447  22.520  1.00  0.00     0.126 C 
HETATM   34  O7  UNL     1      18.338  -1.281  21.021  1.00  0.00    -0.266 OA
ENDBRANCH  31  32
ENDBRANCH  26  31
ENDBRANCH   1  21
TORSDOF 14
ENDMDL
MODEL 4
REMARK VINA RESULT: -8.822037963      2.627      5.272
REMARK  14 active torsions:
REMARK  status: ('A' for Active; 'I' for Inactive)
REMARK    1  A    between atoms: C2_2  and  C3_3 
REMARK    2  A    between atoms: C4_4  and  C5_5 
REMARK    3  A    between atoms: C6_6  and  C7_7 
REMARK    4  A    between atoms: C7_7  and  C8_8 
REMARK    5  A    between atoms: C8_8  and  C9_9 
REMARK    6  A    between atoms: C11_11  and  C12_12 
REMARK    7  A    between atoms: C12_12  and  C13_13 
REMARK    8  A    between atoms: C13_13  and  O1_14 
REMARK    9  A    between atoms: C13_13  and  C16_18 
REMARK   10  A    between atoms: O1_14  and  C14_15 
REMARK   11  A    between atoms: C18_22  and  C19_23 
REMARK   12  A    between atoms: C19_23  and  O5_24 
REMARK   13  A    between atoms: C20_26  and  O6_27 
REMARK   14  A    between atoms: O6_27  and  C21_28 
ROOT
HETATM    1  C13 UNL     1      16.639  -4.575  14.995  1.00  0.00     0.190 C 
ENDROOT
BRANCH   1   2
HETATM    2  C12 UNL     1      17.650  -4.707  13.874  1.00  0.00     0.070 C 
BRANCH   2   3
HETATM    3  C11 UNL     1      18.112  -6.124  13.839  1.00  0.00     0.135 C 
HETATM    4  C10 UNL     1      18.583  -6.593  12.503  1.00  0.00     0.047 C 
HETATM    5  C9  UNL     1      19.305  -7.892  12.892  1.00  0.00     0.088 C 
HETATM    6  C23 UNL     1      19.764  -7.571  14.262  1.00  0.00     0.263 C 
HETATM    7  O9  UNL     1      19.322  -6.275  14.604  1.00  0.00    -0.316 OA
HETATM    8  O10 UNL     1      20.440  -8.273  15.065  1.00  0.00    -0.265 OA
BRANCH   5   9
HETATM    9  C8  UNL     1      20.411  -8.194  11.926  1.00  0.00     0.018 C 
BRANCH   9  10
HETATM   10  C7  UNL     1      20.475  -7.218  10.772  1.00  0.00     0.028 C 
BRANCH  10  11
HETATM   11  C6  UNL     1      21.119  -7.866   9.619  1.00  0.00    -0.027 C 
HETATM   12  C5  UNL     1      21.983  -7.280   8.841  1.00  0.00    -0.004 C 
BRANCH  12  13
HETATM   13  C4  UNL     1      22.452  -5.924   8.967  1.00  0.00    -0.004 C 
HETATM   14  C3  UNL     1      21.840  -4.870   8.468  1.00  0.00    -0.027 C 
BRANCH  14  15
HETATM   15  C2  UNL     1      20.582  -4.876   7.699  1.00  0.00     0.022 C 
HETATM   16  C1  UNL     1      19.422  -4.512   8.626  1.00  0.00     0.009 C 
ENDBRANCH  14  15
ENDBRANCH  12  13
ENDBRANCH  10  11
ENDBRANCH   9  10
ENDBRANCH   5   9
ENDBRANCH   2   3
ENDBRANCH   1   2
BRANCH   1  17
HETATM   17  O1  UNL     1      15.483  -3.884  14.585  1.00  0.00    -0.311 OA
BRANCH  17  18
HETATM   18  C14 UNL     1      14.883  -4.124  13.379  1.00  0.00     0.255 C 
HETATM   19  C15 UNL     1      14.383  -5.516  13.124  1.00  0.00     0.126 C 
HETATM   20  O2  UNL     1      14.773  -3.208  12.553  1.00  0.00    -0.266 OA
ENDBRANCH  17  18
ENDBRANCH   1  17
BRANCH   1  21
HETATM   21  C16 UNL     1      17.250  -3.978  16.241  1.00  0.00     0.302 C 
HETATM   22  O3  UNL     1      16.439  -2.997  16.827  1.00  0.00    -0.286 OA
HETATM   23  C17 UNL     1      16.268  -2.949  18.204  1.00  0.00     0.272 C 
HETATM   24  O4  UNL     1      15.535  -2.088  18.754  1.00  0.00    -0.265 OA
HETATM   25  C18 UNL     1      16.950  -3.922  19.110  1.00  0.00     0.165 C 
HETATM   26  C20 UNL     1      18.065  -4.556  18.296  1.00  0.00     0.288 C 
HETATM   27  O8  UNL     1      17.489  -5.044  17.119  1.00  0.00    -0.327 OA
BRANCH  25  28
HETATM   28  C19 UNL     1      15.991  -4.989  19.588  1.00  0.00     0.183 C 
BRANCH  28  29
HETATM   29  O5  UNL     1      14.856  -4.987  18.796  1.00  0.00    -0.400 OA
ATOM     30  H5  UNL     1      14.082  -4.949  19.344  1.00  0.00     0.209 HD
ENDBRANCH  28  29
ENDBRANCH  25  28
BRANCH  26  31
HETATM   31  O6  UNL     1      18.779  -5.523  19.003  1.00  0.00    -0.289 OA
BRANCH  31  32
HETATM   32  C21 UNL     1      20.168  -5.467  19.084  1.00  0.00     0.257 C 
HETATM   33  C22 UNL     1      21.035  -5.859  17.927  1.00  0.00     0.126 C 
HETATM   34  O7  UNL     1      20.664  -5.075  20.170  1.00  0.00    -0.266 OA
ENDBRANCH  31  32
ENDBRANCH  26  31
ENDBRANCH   1  21
TORSDOF 14
ENDMDL
MODEL 5
REMARK VINA RESULT: -8.793944876      2.448      4.249
REMARK  14 active torsions:
REMARK  status: ('A' for Active; 'I' for Inactive)
REMARK    1  A    between atoms: C2_2  and  C3_3 
REMARK    2  A    between atoms: C4_4  and  C5_5 
REMARK    3  A    between atoms: C6_6  and  C7_7 
REMARK    4  A    between atoms: C7_7  and  C8_8 
REMARK    5  A    between atoms: C8_8  and  C9_9 
REMARK    6  A    between atoms: C11_11  and  C12_12 
REMARK    7  A    between atoms: C12_12  and  C13_13 
REMARK    8  A    between atoms: C13_13  and  O1_14 
REMARK    9  A    between atoms: C13_13  and  C16_18 
REMARK   10  A    between atoms: O1_14  and  C14_15 
REMARK   11  A    between atoms: C18_22  and  C19_23 
REMARK   12  A    between atoms: C19_23  and  O5_24 
REMARK   13  A    between atoms: C20_26  and  O6_27 
REMARK   14  A    between atoms: O6_27  and  C21_28 
ROOT
HETATM    1  C13 UNL     1      20.565  -3.354  18.873  1.00  0.00     0.190 C 
ENDROOT
BRANCH   1   2
HETATM    2  C12 UNL     1      20.075  -4.326  17.820  1.00  0.00     0.070 C 
BRANCH   2   3
HETATM    3  C11 UNL     1      18.995  -3.654  17.044  1.00  0.00     0.135 C 
HETATM    4  C10 UNL     1      18.460  -4.449  15.901  1.00  0.00     0.047 C 
HETATM    5  C9  UNL     1      17.176  -3.669  15.581  1.00  0.00     0.088 C 
HETATM    6  C23 UNL     1      16.824  -3.130  16.914  1.00  0.00     0.263 C 
HETATM    7  O9  UNL     1      17.805  -3.530  17.846  1.00  0.00    -0.316 OA
HETATM    8  O10 UNL     1      15.834  -2.424  17.256  1.00  0.00    -0.265 OA
BRANCH   5   9
HETATM    9  C8  UNL     1      16.139  -4.573  14.987  1.00  0.00     0.018 C 
BRANCH   9  10
HETATM   10  C7  UNL     1      16.370  -4.859  13.519  1.00  0.00     0.028 C 
BRANCH  10  11
HETATM   11  C6  UNL     1      15.239  -5.636  12.988  1.00  0.00    -0.027 C 
HETATM   12  C5  UNL     1      14.216  -5.110  12.377  1.00  0.00    -0.004 C 
BRANCH  12  13
HETATM   13  C4  UNL     1      14.014  -3.709  12.117  1.00  0.00    -0.004 C 
HETATM   14  C3  UNL     1      14.338  -3.100  10.995  1.00  0.00    -0.027 C 
BRANCH  14  15
HETATM   15  C2  UNL     1      14.960  -3.725   9.813  1.00  0.00     0.022 C 
HETATM   16  C1  UNL     1      14.163  -3.345   8.564  1.00  0.00     0.009 C 
ENDBRANCH  14  15
ENDBRANCH  12  13
ENDBRANCH  10  11
ENDBRANCH   9  10
ENDBRANCH   5   9
ENDBRANCH   2   3
ENDBRANCH   1   2
BRANCH   1  17
HETATM   17  O1  UNL     1      21.928  -3.039  18.708  1.00  0.00    -0.311 OA
BRANCH  17  18
HETATM   18  C14 UNL     1      22.435  -1.812  19.039  1.00  0.00     0.255 C 
HETATM   19  C15 UNL     1      23.351  -1.156  18.049  1.00  0.00     0.126 C 
HETATM   20  O2  UNL     1      22.128  -1.291  20.120  1.00  0.00    -0.266 OA
ENDBRANCH  17  18
ENDBRANCH   1  17
BRANCH   1  21
HETATM   21  C16 UNL     1      20.254  -3.830  20.272  1.00  0.00     0.302 C 
HETATM   22  O3  UNL     1      19.275  -3.052  20.905  1.00  0.00    -0.286 OA
HETATM   23  C17 UNL     1      18.267  -3.651  21.650  1.00  0.00     0.272 C 
HETATM   24  O4  UNL     1      17.368  -2.978  22.216  1.00  0.00    -0.265 OA
HETATM   25  C18 UNL     1      18.197  -5.134  21.819  1.00  0.00     0.165 C 
HETATM   26  C20 UNL     1      19.562  -5.674  21.430  1.00  0.00     0.288 C 
HETATM   27  O8  UNL     1      19.858  -5.169  20.160  1.00  0.00    -0.327 OA
BRANCH  25  28
HETATM   28  C19 UNL     1      17.132  -5.736  20.929  1.00  0.00     0.183 C 
BRANCH  28  29
HETATM   29  O5  UNL     1      16.739  -4.811  19.978  1.00  0.00    -0.400 OA
ATOM     30  H5  UNL     1      16.067  -5.187  19.422  1.00  0.00     0.209 HD
ENDBRANCH  28  29
ENDBRANCH  25  28
BRANCH  26  31
HETATM   31  O6  UNL     1      19.644  -7.065  21.504  1.00  0.00    -0.289 OA
BRANCH  31  32
HETATM   32  C21 UNL     1      20.314  -7.685  22.555  1.00  0.00     0.257 C 
HETATM   33  C22 UNL     1      21.397  -6.982  23.314  1.00  0.00     0.126 C 
HETATM   34  O7  UNL     1      19.973  -8.860  22.840  1.00  0.00    -0.266 OA
ENDBRANCH  31  32
ENDBRANCH  26  31
ENDBRANCH   1  21
TORSDOF 14
ENDMDL
