MODEL 1
REMARK VINA RESULT: -9.223751507      0.000      0.000
REMARK  7 active torsions:
REMARK  status: ('A' for Active; 'I' for Inactive)
REMARK    1  A    between atoms: C2_2  and  N2_6 
REMARK    2  A    between atoms: N3_11  and  C6_12 
REMARK    3  A    between atoms: C6_12  and  C7_13 
REMARK       I    between atoms: C7_13  and  N4_15 
REMARK    4  A    between atoms: N4_15  and  C8_17 
REMARK    5  A    between atoms: C8_17  and  C9_18 
REMARK    6  A    between atoms: C16_26  and  C17_27 
REMARK    7  A    between atoms: C18_28  and  C19_29 
ROOT
HETATM    1  C9  UNL     1      11.586  22.106   6.250  1.00  0.00    -0.005 C 
HETATM    2  C10 UNL     1      11.045  20.720   6.407  1.00  0.00     0.021 C 
HETATM    3  C11 UNL     1      10.768  22.716   5.113  1.00  0.00     0.015 C 
HETATM    4  C12 UNL     1      11.627  23.779   4.471  1.00  0.00     0.004 C 
HETATM    5  C13 UNL     1      12.608  22.934   3.639  1.00  0.00     0.038 C 
HETATM    6  C14 UNL     1      13.526  22.169   4.582  1.00  0.00     0.064 C 
HETATM    7  C15 UNL     1      14.869  22.917   4.526  1.00  0.00     0.046 C 
HETATM    8  O2  UNL     1      13.744  20.939   3.993  1.00  0.00    -0.363 OA
HETATM    9  C16 UNL     1      14.786  20.228   4.574  1.00  0.00     0.214 C 
HETATM   10  C23 UNL     1      14.965  20.619   5.994  1.00  0.00     0.159 C 
HETATM   11  O3  UNL     1      16.034  20.652   6.548  1.00  0.00    -0.295 OA
HETATM   12  C24 UNL     1      13.712  20.983   6.730  1.00  0.00     0.090 C 
HETATM   13  C25 UNL     1      13.065  22.124   5.975  1.00  0.00     0.040 C 
ENDROOT
BRANCH   1  14
HETATM   14  C8  UNL     1      11.301  22.952   7.445  1.00  0.00     0.073 C 
BRANCH  14  15
HETATM   15  N4  UNL     1      10.472  24.063   7.417  1.00  0.00    -0.339 N 
HETATM   16  C7  UNL     1      10.547  25.300   8.023  1.00  0.00     0.249 C 
HETATM   17  O1  UNL     1      11.450  25.748   8.796  1.00  0.00    -0.271 OA
ATOM     18  H4  UNL     1       9.644  23.941   6.834  1.00  0.00     0.167 HD
BRANCH  16  19
HETATM   19  C6  UNL     1       9.449  26.340   7.804  1.00  0.00     0.378 C 
BRANCH  19  20
HETATM   20  N3  UNL     1       8.428  25.837   6.897  1.00  0.00     0.132 N 
HETATM   21  C5  UNL     1       7.147  25.785   7.594  1.00  0.00     0.407 C 
HETATM   22  C4  UNL     1       6.528  27.095   7.896  1.00  0.00     0.089 C 
HETATM   23  F1  UNL     1       7.311  25.055   8.770  1.00  0.00    -0.216 F 
HETATM   24  C3  UNL     1       5.655  27.571   6.742  1.00  0.00     0.129 C 
HETATM   25  N2  UNL     1       5.892  26.799   5.548  1.00  0.00    -0.370 N 
HETATM   26  C27 UNL     1       7.189  26.592   4.910  1.00  0.00     0.154 C 
HETATM   27  C26 UNL     1       8.279  26.901   5.888  1.00  0.00     0.296 C 
BRANCH  25  28
HETATM   28  C2  UNL     1       4.810  26.174   4.903  1.00  0.00     0.068 C 
HETATM   29  C1  UNL     1       3.510  26.905   4.790  1.00  0.00     0.088 C 
HETATM   30  N1  UNL     1       4.843  25.004   4.394  1.00  0.00    -0.389 N 
ATOM     31  H12 UNL     1       4.058  24.551   3.926  1.00  0.00     0.157 HD
ATOM     32  H11 UNL     1       5.729  24.505   4.471  1.00  0.00     0.157 HD
ENDBRANCH  25  28
ENDBRANCH  19  20
ENDBRANCH  16  19
ENDBRANCH  14  15
ENDBRANCH   1  14
BRANCH   9  33
HETATM   33  C17 UNL     1      14.346  18.786   4.581  1.00  0.00     0.009 C 
HETATM   34  C18 UNL     1      14.949  17.869   3.852  1.00  0.00    -0.023 C 
BRANCH  34  35
HETATM   35  C19 UNL     1      16.107  18.165   2.965  1.00  0.00     0.012 A 
HETATM   36  C20 UNL     1      16.676  17.028   2.184  1.00  0.00     0.013 A 
HETATM   37  C21 UNL     1      17.399  17.554   3.365  1.00  0.00    -0.010 A 
HETATM   38  C22 UNL     1      17.471  16.765   4.643  1.00  0.00     0.010 C 
ENDBRANCH  34  35
ENDBRANCH   9  33
TORSDOF 7
ENDMDL
MODEL 2
REMARK VINA RESULT: -9.200910137      4.046     10.715
REMARK  7 active torsions:
REMARK  status: ('A' for Active; 'I' for Inactive)
REMARK    1  A    between atoms: C2_2  and  N2_6 
REMARK    2  A    between atoms: N3_11  and  C6_12 
REMARK    3  A    between atoms: C6_12  and  C7_13 
REMARK       I    between atoms: C7_13  and  N4_15 
REMARK    4  A    between atoms: N4_15  and  C8_17 
REMARK    5  A    between atoms: C8_17  and  C9_18 
REMARK    6  A    between atoms: C16_26  and  C17_27 
REMARK    7  A    between atoms: C18_28  and  C19_29 
ROOT
HETATM    1  C9  UNL     1      12.002  21.360   5.727  1.00  0.00    -0.005 C 
HETATM    2  C10 UNL     1      10.928  20.700   6.535  1.00  0.00     0.021 C 
HETATM    3  C11 UNL     1      13.280  21.150   6.537  1.00  0.00     0.015 C 
HETATM    4  C12 UNL     1      14.219  22.278   6.181  1.00  0.00     0.004 C 
HETATM    5  C13 UNL     1      13.619  23.453   6.974  1.00  0.00     0.038 C 
HETATM    6  C14 UNL     1      12.272  23.824   6.367  1.00  0.00     0.064 C 
HETATM    7  C15 UNL     1      12.534  25.115   5.574  1.00  0.00     0.046 C 
HETATM    8  O2  UNL     1      11.459  24.177   7.424  1.00  0.00    -0.363 OA
HETATM    9  C16 UNL     1      10.291  24.817   7.030  1.00  0.00     0.214 C 
HETATM   10  C23 UNL     1       9.901  24.405   5.659  1.00  0.00     0.159 C 
HETATM   11  O3  UNL     1       9.359  25.136   4.869  1.00  0.00    -0.295 OA
HETATM   12  C24 UNL     1      10.223  22.989   5.289  1.00  0.00     0.090 C 
HETATM   13  C25 UNL     1      11.717  22.812   5.459  1.00  0.00     0.040 C 
ENDROOT
BRANCH   1  14
HETATM   14  C8  UNL     1      12.232  20.659   4.431  1.00  0.00     0.073 C 
BRANCH  14  15
HETATM   15  N4  UNL     1      13.364  19.908   4.156  1.00  0.00    -0.339 N 
HETATM   16  C7  UNL     1      14.351  20.021   3.199  1.00  0.00     0.249 C 
HETATM   17  O1  UNL     1      14.469  20.897   2.286  1.00  0.00    -0.271 OA
ATOM     18  H4  UNL     1      13.492  19.116   4.786  1.00  0.00     0.167 HD
BRANCH  16  19
HETATM   19  C6  UNL     1      15.495  19.011   3.139  1.00  0.00     0.378 C 
BRANCH  19  20
HETATM   20  N3  UNL     1      15.969  18.680   4.476  1.00  0.00     0.132 N 
HETATM   21  C5  UNL     1      16.182  17.240   4.568  1.00  0.00     0.407 C 
HETATM   22  C4  UNL     1      17.333  16.711   3.805  1.00  0.00     0.089 C 
HETATM   23  F1  UNL     1      15.012  16.593   4.175  1.00  0.00    -0.216 F 
HETATM   24  C3  UNL     1      18.610  16.751   4.633  1.00  0.00     0.129 C 
HETATM   25  N2  UNL     1      18.449  17.565   5.812  1.00  0.00    -0.370 N 
HETATM   26  C27 UNL     1      18.002  18.955   5.834  1.00  0.00     0.154 C 
HETATM   27  C26 UNL     1      17.316  19.277   4.543  1.00  0.00     0.296 C 
BRANCH  25  28
HETATM   28  C2  UNL     1      18.736  17.016   7.075  1.00  0.00     0.068 C 
HETATM   29  C1  UNL     1      19.602  15.800   7.159  1.00  0.00     0.088 C 
HETATM   30  N1  UNL     1      18.309  17.480   8.184  1.00  0.00    -0.389 N 
ATOM     31  H12 UNL     1      18.518  17.082   9.100  1.00  0.00     0.157 HD
ATOM     32  H11 UNL     1      17.718  18.310   8.127  1.00  0.00     0.157 HD
ENDBRANCH  25  28
ENDBRANCH  19  20
ENDBRANCH  16  19
ENDBRANCH  14  15
ENDBRANCH   1  14
BRANCH   9  33
HETATM   33  C17 UNL     1       9.211  24.309   7.951  1.00  0.00     0.009 C 
HETATM   34  C18 UNL     1       8.559  25.109   8.769  1.00  0.00    -0.023 C 
BRANCH  34  35
HETATM   35  C19 UNL     1       8.820  26.571   8.859  1.00  0.00     0.012 A 
HETATM   36  C20 UNL     1       7.773  27.412   9.511  1.00  0.00     0.013 A 
HETATM   37  C21 UNL     1       7.936  27.436   8.039  1.00  0.00    -0.010 A 
HETATM   38  C22 UNL     1       6.917  26.796   7.136  1.00  0.00     0.010 C 
ENDBRANCH  34  35
ENDBRANCH   9  33
TORSDOF 7
ENDMDL
MODEL 3
REMARK VINA RESULT: -9.104473836      3.310     10.767
REMARK  7 active torsions:
REMARK  status: ('A' for Active; 'I' for Inactive)
REMARK    1  A    between atoms: C2_2  and  N2_6 
REMARK    2  A    between atoms: N3_11  and  C6_12 
REMARK    3  A    between atoms: C6_12  and  C7_13 
REMARK       I    between atoms: C7_13  and  N4_15 
REMARK    4  A    between atoms: N4_15  and  C8_17 
REMARK    5  A    between atoms: C8_17  and  C9_18 
REMARK    6  A    between atoms: C16_26  and  C17_27 
REMARK    7  A    between atoms: C18_28  and  C19_29 
ROOT
HETATM    1  C9  UNL     1       9.863  24.897   6.356  1.00  0.00    -0.005 C 
HETATM    2  C10 UNL     1       8.883  24.240   5.435  1.00  0.00     0.021 C 
HETATM    3  C11 UNL     1      10.251  23.806   7.352  1.00  0.00     0.015 C 
HETATM    4  C12 UNL     1      10.670  24.499   8.626  1.00  0.00     0.004 C 
HETATM    5  C13 UNL     1       9.313  24.906   9.227  1.00  0.00     0.038 C 
HETATM    6  C14 UNL     1       8.686  25.983   8.353  1.00  0.00     0.064 C 
HETATM    7  C15 UNL     1       8.885  27.295   9.130  1.00  0.00     0.046 C 
HETATM    8  O2  UNL     1       7.328  25.736   8.351  1.00  0.00    -0.363 OA
HETATM    9  C16 UNL     1       6.578  26.787   7.842  1.00  0.00     0.214 C 
HETATM   10  C23 UNL     1       7.374  27.585   6.877  1.00  0.00     0.159 C 
HETATM   11  O3  UNL     1       7.256  28.776   6.737  1.00  0.00    -0.295 OA
HETATM   12  C24 UNL     1       8.364  26.815   6.059  1.00  0.00     0.090 C 
HETATM   13  C25 UNL     1       9.299  26.121   7.025  1.00  0.00     0.040 C 
ENDROOT
BRANCH   1  14
HETATM   14  C8  UNL     1      11.126  25.263   5.652  1.00  0.00     0.073 C 
BRANCH  14  15
HETATM   15  N4  UNL     1      11.866  24.370   4.892  1.00  0.00    -0.339 N 
HETATM   16  C7  UNL     1      12.919  23.532   5.197  1.00  0.00     0.249 C 
HETATM   17  O1  UNL     1      13.497  23.365   6.316  1.00  0.00    -0.271 OA
ATOM     18  H4  UNL     1      11.574  24.324   3.916  1.00  0.00     0.167 HD
BRANCH  16  19
HETATM   19  C6  UNL     1      13.549  22.652   4.118  1.00  0.00     0.378 C 
BRANCH  19  20
HETATM   20  N3  UNL     1      13.866  21.331   4.643  1.00  0.00     0.132 N 
HETATM   21  C5  UNL     1      13.352  20.316   3.731  1.00  0.00     0.407 C 
HETATM   22  C4  UNL     1      14.059  20.199   2.436  1.00  0.00     0.089 C 
HETATM   23  F1  UNL     1      11.997  20.560   3.512  1.00  0.00    -0.216 F 
HETATM   24  C3  UNL     1      15.232  19.232   2.534  1.00  0.00     0.129 C 
HETATM   25  N2  UNL     1      15.546  18.921   3.906  1.00  0.00    -0.370 N 
HETATM   26  C27 UNL     1      15.836  19.893   4.956  1.00  0.00     0.154 C 
HETATM   27  C26 UNL     1      15.333  21.240   4.540  1.00  0.00     0.296 C 
BRANCH  25  28
HETATM   28  C2  UNL     1      15.590  17.576   4.316  1.00  0.00     0.068 C 
HETATM   29  C1  UNL     1      16.919  16.907   4.471  1.00  0.00     0.088 C 
HETATM   30  N1  UNL     1      14.566  16.859   4.573  1.00  0.00    -0.389 N 
ATOM     31  H12 UNL     1      14.598  15.885   4.871  1.00  0.00     0.157 HD
ATOM     32  H11 UNL     1      13.659  17.316   4.467  1.00  0.00     0.157 HD
ENDBRANCH  25  28
ENDBRANCH  19  20
ENDBRANCH  16  19
ENDBRANCH  14  15
ENDBRANCH   1  14
BRANCH   9  33
HETATM   33  C17 UNL     1       5.462  26.152   7.052  1.00  0.00     0.009 C 
HETATM   34  C18 UNL     1       4.233  26.626   7.075  1.00  0.00    -0.023 C 
BRANCH  34  35
HETATM   35  C19 UNL     1       3.835  27.818   7.871  1.00  0.00     0.012 A 
HETATM   36  C20 UNL     1       2.376  28.024   8.108  1.00  0.00     0.013 A 
HETATM   37  C21 UNL     1       3.096  28.872   7.130  1.00  0.00    -0.010 A 
HETATM   38  C22 UNL     1       2.874  28.707   5.651  1.00  0.00     0.010 C 
ENDBRANCH  34  35
ENDBRANCH   9  33
TORSDOF 7
ENDMDL
MODEL 4
REMARK VINA RESULT: -9.016304005      4.449     10.797
REMARK  7 active torsions:
REMARK  status: ('A' for Active; 'I' for Inactive)
REMARK    1  A    between atoms: C2_2  and  N2_6 
REMARK    2  A    between atoms: N3_11  and  C6_12 
REMARK    3  A    between atoms: C6_12  and  C7_13 
REMARK       I    between atoms: C7_13  and  N4_15 
REMARK    4  A    between atoms: N4_15  and  C8_17 
REMARK    5  A    between atoms: C8_17  and  C9_18 
REMARK    6  A    between atoms: C16_26  and  C17_27 
REMARK    7  A    between atoms: C18_28  and  C19_29 
ROOT
HETATM    1  C9  UNL     1      11.215  22.696   4.513  1.00  0.00    -0.005 C 
HETATM    2  C10 UNL     1      10.701  21.518   3.746  1.00  0.00     0.021 C 
HETATM    3  C11 UNL     1      11.135  22.269   5.978  1.00  0.00     0.015 C 
HETATM    4  C12 UNL     1      10.993  23.529   6.798  1.00  0.00     0.004 C 
HETATM    5  C13 UNL     1       9.514  23.891   6.569  1.00  0.00     0.038 C 
HETATM    6  C14 UNL     1       9.326  24.314   5.119  1.00  0.00     0.064 C 
HETATM    7  C15 UNL     1       9.200  25.846   5.163  1.00  0.00     0.046 C 
HETATM    8  O2  UNL     1       8.090  23.834   4.736  1.00  0.00    -0.363 OA
HETATM    9  C16 UNL     1       7.636  24.375   3.540  1.00  0.00     0.214 C 
HETATM   10  C23 UNL     1       8.774  24.790   2.683  1.00  0.00     0.159 C 
HETATM   11  O3  UNL     1       8.743  25.742   1.945  1.00  0.00    -0.295 OA
HETATM   12  C24 UNL     1      10.005  23.942   2.783  1.00  0.00     0.090 C 
HETATM   13  C25 UNL     1      10.440  23.954   4.232  1.00  0.00     0.040 C 
ENDROOT
BRANCH   1  14
HETATM   14  C8  UNL     1      12.661  22.942   4.247  1.00  0.00     0.073 C 
BRANCH  14  15
HETATM   15  N4  UNL     1      13.554  21.945   3.885  1.00  0.00    -0.339 N 
HETATM   16  C7  UNL     1      14.314  21.058   4.621  1.00  0.00     0.249 C 
HETATM   17  O1  UNL     1      14.379  20.931   5.883  1.00  0.00    -0.271 OA
ATOM     18  H4  UNL     1      13.673  21.849   2.877  1.00  0.00     0.167 HD
BRANCH  16  19
HETATM   19  C6  UNL     1      15.234  20.059   3.922  1.00  0.00     0.378 C 
BRANCH  19  20
HETATM   20  N3  UNL     1      15.819  19.131   4.880  1.00  0.00     0.132 N 
HETATM   21  C5  UNL     1      15.603  17.764   4.419  1.00  0.00     0.407 C 
HETATM   22  C4  UNL     1      16.386  17.356   3.231  1.00  0.00     0.089 C 
HETATM   23  F1  UNL     1      14.242  17.588   4.174  1.00  0.00    -0.216 F 
HETATM   24  C3  UNL     1      17.744  16.795   3.633  1.00  0.00     0.129 C 
HETATM   25  N2  UNL     1      18.048  17.083   5.012  1.00  0.00    -0.370 N 
HETATM   26  C27 UNL     1      18.049  18.409   5.625  1.00  0.00     0.154 C 
HETATM   27  C26 UNL     1      17.271  19.355   4.765  1.00  0.00     0.296 C 
BRANCH  25  28
HETATM   28  C2  UNL     1      18.379  16.029   5.882  1.00  0.00     0.068 C 
HETATM   29  C1  UNL     1      18.901  14.750   5.308  1.00  0.00     0.088 C 
HETATM   30  N1  UNL     1      18.268  16.072   7.152  1.00  0.00    -0.389 N 
ATOM     31  H12 UNL     1      18.509  15.307   7.783  1.00  0.00     0.157 HD
ATOM     32  H11 UNL     1      17.912  16.944   7.544  1.00  0.00     0.157 HD
ENDBRANCH  25  28
ENDBRANCH  19  20
ENDBRANCH  16  19
ENDBRANCH  14  15
ENDBRANCH   1  14
BRANCH   9  33
HETATM   33  C17 UNL     1       6.944  23.249   2.815  1.00  0.00     0.009 C 
HETATM   34  C18 UNL     1       5.721  23.372   2.340  1.00  0.00    -0.023 C 
BRANCH  34  35
HETATM   35  C19 UNL     1       4.918  24.618   2.473  1.00  0.00     0.012 A 
HETATM   36  C20 UNL     1       3.451  24.513   2.218  1.00  0.00     0.013 A 
HETATM   37  C21 UNL     1       4.336  25.147   1.213  1.00  0.00    -0.010 A 
HETATM   38  C22 UNL     1       4.652  24.458  -0.086  1.00  0.00     0.010 C 
ENDBRANCH  34  35
ENDBRANCH   9  33
TORSDOF 7
ENDMDL
MODEL 5
REMARK VINA RESULT: -8.992516194      2.519      3.973
REMARK  7 active torsions:
REMARK  status: ('A' for Active; 'I' for Inactive)
REMARK    1  A    between atoms: C2_2  and  N2_6 
REMARK    2  A    between atoms: N3_11  and  C6_12 
REMARK    3  A    between atoms: C6_12  and  C7_13 
REMARK       I    between atoms: C7_13  and  N4_15 
REMARK    4  A    between atoms: N4_15  and  C8_17 
REMARK    5  A    between atoms: C8_17  and  C9_18 
REMARK    6  A    between atoms: C16_26  and  C17_27 
REMARK    7  A    between atoms: C18_28  and  C19_29 
ROOT
HETATM    1  C9  UNL     1      11.753  24.378   5.751  1.00  0.00    -0.005 C 
HETATM    2  C10 UNL     1      12.729  24.826   4.708  1.00  0.00     0.021 C 
HETATM    3  C11 UNL     1      12.495  24.549   7.076  1.00  0.00     0.015 C 
HETATM    4  C12 UNL     1      11.897  23.560   8.048  1.00  0.00     0.004 C 
HETATM    5  C13 UNL     1      12.530  22.236   7.584  1.00  0.00     0.038 C 
HETATM    6  C14 UNL     1      11.968  21.870   6.217  1.00  0.00     0.064 C 
HETATM    7  C15 UNL     1      10.961  20.740   6.490  1.00  0.00     0.046 C 
HETATM    8  O2  UNL     1      13.009  21.299   5.513  1.00  0.00    -0.363 OA
HETATM    9  C16 UNL     1      12.599  20.647   4.357  1.00  0.00     0.214 C 
HETATM   10  C23 UNL     1      11.343  21.239   3.835  1.00  0.00     0.159 C 
HETATM   11  O3  UNL     1      10.486  20.603   3.275  1.00  0.00    -0.295 OA
HETATM   12  C24 UNL     1      11.184  22.714   4.042  1.00  0.00     0.090 C 
HETATM   13  C25 UNL     1      11.275  22.968   5.531  1.00  0.00     0.040 C 
ENDROOT
BRANCH   1  14
HETATM   14  C8  UNL     1      10.574  25.286   5.834  1.00  0.00     0.073 C 
BRANCH  14  15
HETATM   15  N4  UNL     1       9.541  25.286   4.909  1.00  0.00    -0.339 N 
HETATM   16  C7  UNL     1       8.570  26.215   4.592  1.00  0.00     0.249 C 
HETATM   17  O1  UNL     1       8.379  27.363   5.100  1.00  0.00    -0.271 OA
ATOM     18  H4  UNL     1       9.488  24.432   4.354  1.00  0.00     0.167 HD
BRANCH  16  19
HETATM   19  C6  UNL     1       7.537  25.918   3.506  1.00  0.00     0.378 C 
BRANCH  19  20
HETATM   20  N3  UNL     1       6.549  24.956   3.974  1.00  0.00     0.132 N 
HETATM   21  C5  UNL     1       5.216  25.536   3.851  1.00  0.00     0.407 C 
HETATM   22  C4  UNL     1       4.711  25.695   2.469  1.00  0.00     0.089 C 
HETATM   23  F1  UNL     1       5.205  26.767   4.505  1.00  0.00    -0.216 F 
HETATM   24  C3  UNL     1       3.991  24.438   1.998  1.00  0.00     0.129 C 
HETATM   25  N2  UNL     1       4.247  23.323   2.875  1.00  0.00    -0.370 N 
HETATM   26  C27 UNL     1       5.565  22.821   3.253  1.00  0.00     0.154 C 
HETATM   27  C26 UNL     1       6.595  23.871   2.978  1.00  0.00     0.296 C 
BRANCH  25  28
HETATM   28  C2  UNL     1       3.164  22.625   3.439  1.00  0.00     0.068 C 
HETATM   29  C1  UNL     1       3.426  21.354   4.182  1.00  0.00     0.088 C 
HETATM   30  N1  UNL     1       1.944  22.993   3.367  1.00  0.00    -0.389 N 
ATOM     31  H12 UNL     1       1.159  22.487   3.776  1.00  0.00     0.157 HD
ATOM     32  H11 UNL     1       1.765  23.860   2.860  1.00  0.00     0.157 HD
ENDBRANCH  25  28
ENDBRANCH  19  20
ENDBRANCH  16  19
ENDBRANCH  14  15
ENDBRANCH   1  14
BRANCH   9  33
HETATM   33  C17 UNL     1      13.664  20.928   3.327  1.00  0.00     0.009 C 
HETATM   34  C18 UNL     1      14.567  20.028   2.995  1.00  0.00    -0.023 C 
BRANCH  34  35
HETATM   35  C19 UNL     1      14.622  18.668   3.596  1.00  0.00     0.012 A 
HETATM   36  C20 UNL     1      15.821  18.334   4.420  1.00  0.00     0.013 A 
HETATM   37  C21 UNL     1      15.673  17.767   3.060  1.00  0.00    -0.010 A 
HETATM   38  C22 UNL     1      16.536  18.244   1.924  1.00  0.00     0.010 C 
ENDBRANCH  34  35
ENDBRANCH   9  33
TORSDOF 7
ENDMDL
