MODEL 1
REMARK VINA RESULT: -10.256594414      0.000      0.000
REMARK  6 active torsions:
REMARK  status: ('A' for Active; 'I' for Inactive)
REMARK    1  A    between atoms: C6_7  and  N1_8 
REMARK    2  A    between atoms: N2_11  and  C9_12 
REMARK    3  A    between atoms: C9_12  and  C10_13 
REMARK    4  A    between atoms: C10_13  and  C11_14 
REMARK    5  A    between atoms: C14_17  and  N3_18 
REMARK       I    between atoms: N3_18  and  C15_20 
REMARK    6  A    between atoms: C15_20  and  C16_22 
ROOT
HETATM    1  C11 UNL     1       9.990  26.107   8.979  1.00  0.00    -0.010 C 
HETATM    2  C12 UNL     1       9.396  27.461   8.544  1.00  0.00     0.007 C 
HETATM    3  C13 UNL     1       8.327  27.303   7.522  1.00  0.00     0.025 C 
HETATM    4  C14 UNL     1       7.158  26.456   8.035  1.00  0.00     0.084 C 
HETATM    5  C23 UNL     1       7.725  25.153   8.522  1.00  0.00     0.025 C 
HETATM    6  C24 UNL     1       8.839  25.334   9.536  1.00  0.00     0.007 C 
ENDROOT
BRANCH   1   7
HETATM    7  C10 UNL     1      10.703  25.459   7.868  1.00  0.00     0.049 C 
BRANCH   7   8
HETATM    8  C9  UNL     1      10.951  24.009   7.868  1.00  0.00     0.058 C 
BRANCH   8   9
HETATM    9  N2  UNL     1      11.791  23.385   6.960  1.00  0.00    -0.390 N 
HETATM   10  C8  UNL     1      12.137  24.047   5.778  1.00  0.00     0.141 C 
HETATM   11  C7  UNL     1      13.373  23.383   5.112  1.00  0.00     0.143 C 
HETATM   12  N1  UNL     1      13.096  21.978   4.968  1.00  0.00    -0.376 N 
HETATM   13  C26 UNL     1      11.728  21.559   5.328  1.00  0.00     0.143 C 
HETATM   14  C25 UNL     1      11.589  21.954   6.803  1.00  0.00     0.141 C 
BRANCH  12  15
HETATM   15  C6  UNL     1      14.055  21.056   4.525  1.00  0.00     0.052 A 
HETATM   16  C5  UNL     1      15.065  20.625   5.349  1.00  0.00     0.060 A 
HETATM   17  C4  UNL     1      16.006  19.716   4.890  1.00  0.00     0.026 A 
HETATM   18 CL1  UNL     1      15.250  21.195   7.016  1.00  0.00    -0.082 Cl
HETATM   19  C3  UNL     1      15.954  19.233   3.624  1.00  0.00     0.008 A 
HETATM   20  C2  UNL     1      14.950  19.647   2.763  1.00  0.00    -0.060 A 
HETATM   21  C1  UNL     1      14.907  19.112   1.379  1.00  0.00     0.048 C 
HETATM   22  C27 UNL     1      14.022  20.544   3.222  1.00  0.00     0.037 A 
ENDBRANCH  12  15
ENDBRANCH   8   9
ENDBRANCH   7   8
ENDBRANCH   1   7
BRANCH   4  23
HETATM   23  N3  UNL     1       6.334  26.220   6.864  1.00  0.00    -0.355 N 
HETATM   24  C15 UNL     1       4.959  26.556   6.810  1.00  0.00     0.248 C 
HETATM   25  O1  UNL     1       4.358  27.083   7.778  1.00  0.00    -0.271 OA
ATOM     26  H3  UNL     1       6.764  25.793   6.043  1.00  0.00     0.162 HD
BRANCH  24  27
HETATM   27  C16 UNL     1       4.190  26.281   5.570  1.00  0.00     0.280 C 
HETATM   28  C17 UNL     1       2.927  25.443   5.826  1.00  0.00     0.082 C 
HETATM   29  C18 UNL     1       3.351  24.733   4.586  1.00  0.00     0.133 C 
HETATM   30  C19 UNL     1       3.093  23.254   4.671  1.00  0.00     0.065 C 
HETATM   31  C22 UNL     1       2.790  25.280   3.294  1.00  0.00     0.065 C 
HETATM   32  N4  UNL     1       4.701  25.156   4.812  1.00  0.00    -0.053 N 
HETATM   33  C20 UNL     1       3.427  22.545   3.378  1.00  0.00     0.170 C 
HETATM   34  O2  UNL     1       2.903  23.182   2.273  1.00  0.00    -0.391 OA
HETATM   35  C21 UNL     1       3.391  24.470   2.167  1.00  0.00     0.170 C 
ATOM     36  H42 UNL     1       5.336  25.305   4.027  1.00  0.00     0.279 HD
ATOM     37  H41 UNL     1       5.382  24.518   5.226  1.00  0.00     0.279 HD
ENDBRANCH  24  27
ENDBRANCH   4  23
TORSDOF 6
ENDMDL
MODEL 2
REMARK VINA RESULT: -10.107911989      5.816     12.632
REMARK  6 active torsions:
REMARK  status: ('A' for Active; 'I' for Inactive)
REMARK    1  A    between atoms: C6_7  and  N1_8 
REMARK    2  A    between atoms: N2_11  and  C9_12 
REMARK    3  A    between atoms: C9_12  and  C10_13 
REMARK    4  A    between atoms: C10_13  and  C11_14 
REMARK    5  A    between atoms: C14_17  and  N3_18 
REMARK       I    between atoms: N3_18  and  C15_20 
REMARK    6  A    between atoms: C15_20  and  C16_22 
ROOT
HETATM    1  C11 UNL     1      15.440  18.495   2.393  1.00  0.00    -0.010 C 
HETATM    2  C12 UNL     1      16.963  18.358   2.204  1.00  0.00     0.007 C 
HETATM    3  C13 UNL     1      17.686  18.278   3.502  1.00  0.00     0.025 C 
HETATM    4  C14 UNL     1      17.238  17.075   4.338  1.00  0.00     0.084 C 
HETATM    5  C23 UNL     1      15.744  17.157   4.483  1.00  0.00     0.025 C 
HETATM    6  C24 UNL     1      15.027  17.276   3.152  1.00  0.00     0.007 C 
ENDROOT
BRANCH   1   7
HETATM    7  C10 UNL     1      15.098  19.776   3.030  1.00  0.00     0.049 C 
BRANCH   7   8
HETATM    8  C9  UNL     1      13.747  20.346   2.911  1.00  0.00     0.058 C 
BRANCH   8   9
HETATM    9  N2  UNL     1      13.278  21.359   3.731  1.00  0.00    -0.390 N 
HETATM   10  C8  UNL     1      14.184  22.096   4.499  1.00  0.00     0.141 C 
HETATM   11  C7  UNL     1      13.537  23.411   5.012  1.00  0.00     0.143 C 
HETATM   12  N1  UNL     1      12.308  23.068   5.679  1.00  0.00    -0.376 N 
HETATM   13  C26 UNL     1      12.052  21.623   5.835  1.00  0.00     0.143 C 
HETATM   14  C25 UNL     1      12.015  21.089   4.398  1.00  0.00     0.141 C 
BRANCH  12  15
HETATM   15  C6  UNL     1      11.402  24.030   6.145  1.00  0.00     0.052 A 
HETATM   16  C5  UNL     1      10.419  24.538   5.332  1.00  0.00     0.060 A 
HETATM   17  C4  UNL     1       9.536  25.493   5.811  1.00  0.00     0.026 A 
HETATM   18 CL1  UNL     1      10.219  24.039   3.644  1.00  0.00    -0.082 Cl
HETATM   19  C3  UNL     1       9.618  25.948   7.087  1.00  0.00     0.008 A 
HETATM   20  C2  UNL     1      10.599  25.458   7.935  1.00  0.00    -0.060 A 
HETATM   21  C1  UNL     1      10.680  25.967   9.327  1.00  0.00     0.048 C 
HETATM   22  C27 UNL     1      11.468  24.514   7.457  1.00  0.00     0.037 A 
ENDBRANCH  12  15
ENDBRANCH   8   9
ENDBRANCH   7   8
ENDBRANCH   1   7
BRANCH   4  23
HETATM   23  N3  UNL     1      17.862  17.276   5.634  1.00  0.00    -0.355 N 
HETATM   24  C15 UNL     1      18.351  16.208   6.426  1.00  0.00     0.248 C 
HETATM   25  O1  UNL     1      18.275  15.009   6.058  1.00  0.00    -0.271 OA
ATOM     26  H3  UNL     1      17.953  18.227   5.989  1.00  0.00     0.162 HD
BRANCH  24  27
HETATM   27  C16 UNL     1      18.979  16.502   7.739  1.00  0.00     0.280 C 
HETATM   28  C17 UNL     1      18.290  15.776   8.905  1.00  0.00     0.082 C 
HETATM   29  C18 UNL     1      18.462  17.083   9.600  1.00  0.00     0.133 C 
HETATM   30  C19 UNL     1      17.281  17.415  10.471  1.00  0.00     0.065 C 
HETATM   31  C22 UNL     1      19.743  17.241  10.386  1.00  0.00     0.065 C 
HETATM   32  N4  UNL     1      18.521  17.744   8.331  1.00  0.00    -0.053 N 
HETATM   33  C20 UNL     1      17.497  18.689  11.255  1.00  0.00     0.170 C 
HETATM   34  O2  UNL     1      18.727  18.729  11.875  1.00  0.00    -0.391 OA
HETATM   35  C21 UNL     1      19.750  18.645  10.950  1.00  0.00     0.170 C 
ATOM     36  H42 UNL     1      19.062  18.602   8.218  1.00  0.00     0.279 HD
ATOM     37  H41 UNL     1      17.701  18.225   7.958  1.00  0.00     0.279 HD
ENDBRANCH  24  27
ENDBRANCH   4  23
TORSDOF 6
ENDMDL
MODEL 3
REMARK VINA RESULT: -10.045767485      4.477      9.215
REMARK  6 active torsions:
REMARK  status: ('A' for Active; 'I' for Inactive)
REMARK    1  A    between atoms: C6_7  and  N1_8 
REMARK    2  A    between atoms: N2_11  and  C9_12 
REMARK    3  A    between atoms: C9_12  and  C10_13 
REMARK    4  A    between atoms: C10_13  and  C11_14 
REMARK    5  A    between atoms: C14_17  and  N3_18 
REMARK       I    between atoms: N3_18  and  C15_20 
REMARK    6  A    between atoms: C15_20  and  C16_22 
ROOT
HETATM    1  C11 UNL     1      16.049  17.944   2.283  1.00  0.00    -0.010 C 
HETATM    2  C12 UNL     1      15.217  17.247   3.378  1.00  0.00     0.007 C 
HETATM    3  C13 UNL     1      14.684  18.211   4.378  1.00  0.00     0.025 C 
HETATM    4  C14 UNL     1      13.774  19.263   3.738  1.00  0.00     0.084 C 
HETATM    5  C23 UNL     1      14.547  19.913   2.625  1.00  0.00     0.025 C 
HETATM    6  C24 UNL     1      15.114  18.913   1.636  1.00  0.00     0.007 C 
ENDROOT
BRANCH   1   7
HETATM    7  C10 UNL     1      17.274  18.533   2.844  1.00  0.00     0.049 C 
BRANCH   7   8
HETATM    8  C9  UNL     1      18.231  17.714   3.605  1.00  0.00     0.058 C 
BRANCH   8   9
HETATM    9  N2  UNL     1      18.466  17.887   4.959  1.00  0.00    -0.390 N 
HETATM   10  C8  UNL     1      18.254  16.818   5.835  1.00  0.00     0.141 C 
HETATM   11  C7  UNL     1      18.948  17.073   7.200  1.00  0.00     0.143 C 
HETATM   12  N1  UNL     1      18.512  18.356   7.685  1.00  0.00    -0.376 N 
HETATM   13  C26 UNL     1      17.458  19.012   6.887  1.00  0.00     0.143 C 
HETATM   14  C25 UNL     1      18.087  19.182   5.499  1.00  0.00     0.141 C 
BRANCH  12  15
HETATM   15  C6  UNL     1      19.049  18.958   8.831  1.00  0.00     0.052 A 
HETATM   16  C5  UNL     1      18.970  18.352  10.060  1.00  0.00     0.060 A 
HETATM   17  C4  UNL     1      19.504  18.966  11.182  1.00  0.00     0.026 A 
HETATM   18 CL1  UNL     1      18.183  16.784  10.305  1.00  0.00    -0.082 Cl
HETATM   19  C3  UNL     1      20.115  20.174  11.096  1.00  0.00     0.008 A 
HETATM   20  C2  UNL     1      20.213  20.816   9.872  1.00  0.00    -0.060 A 
HETATM   21  C1  UNL     1      20.881  22.139   9.792  1.00  0.00     0.048 C 
HETATM   22  C27 UNL     1      19.684  20.205   8.766  1.00  0.00     0.037 A 
ENDBRANCH  12  15
ENDBRANCH   8   9
ENDBRANCH   7   8
ENDBRANCH   1   7
BRANCH   4  23
HETATM   23  N3  UNL     1      13.534  20.232   4.792  1.00  0.00    -0.355 N 
HETATM   24  C15 UNL     1      12.302  20.916   4.943  1.00  0.00     0.248 C 
HETATM   25  O1  UNL     1      11.331  20.729   4.169  1.00  0.00    -0.271 OA
ATOM     26  H3  UNL     1      14.285  20.429   5.454  1.00  0.00     0.162 HD
BRANCH  24  27
HETATM   27  C16 UNL     1      12.141  21.890   6.053  1.00  0.00     0.280 C 
HETATM   28  C17 UNL     1      10.742  21.844   6.687  1.00  0.00     0.082 C 
HETATM   29  C18 UNL     1      10.869  23.328   6.669  1.00  0.00     0.133 C 
HETATM   30  C19 UNL     1       9.563  23.999   6.341  1.00  0.00     0.065 C 
HETATM   31  C22 UNL     1      11.469  23.949   7.910  1.00  0.00     0.065 C 
HETATM   32  N4  UNL     1      11.818  23.230   5.601  1.00  0.00    -0.053 N 
HETATM   33  C20 UNL     1       9.664  25.506   6.422  1.00  0.00     0.170 C 
HETATM   34  O2  UNL     1      10.284  25.934   7.577  1.00  0.00    -0.391 OA
HETATM   35  C21 UNL     1      11.570  25.437   7.662  1.00  0.00     0.170 C 
ATOM     36  H42 UNL     1      12.552  23.931   5.492  1.00  0.00     0.279 HD
ATOM     37  H41 UNL     1      11.532  23.396   4.635  1.00  0.00     0.279 HD
ENDBRANCH  24  27
ENDBRANCH   4  23
TORSDOF 6
ENDMDL
MODEL 4
REMARK VINA RESULT: -9.990212095      2.146      3.475
REMARK  6 active torsions:
REMARK  status: ('A' for Active; 'I' for Inactive)
REMARK    1  A    between atoms: C6_7  and  N1_8 
REMARK    2  A    between atoms: N2_11  and  C9_12 
REMARK    3  A    between atoms: C9_12  and  C10_13 
REMARK    4  A    between atoms: C10_13  and  C11_14 
REMARK    5  A    between atoms: C14_17  and  N3_18 
REMARK       I    between atoms: N3_18  and  C15_20 
REMARK    6  A    between atoms: C15_20  and  C16_22 
ROOT
HETATM    1  C11 UNL     1      11.440  23.693   6.477  1.00  0.00    -0.010 C 
HETATM    2  C12 UNL     1      11.344  25.057   5.765  1.00  0.00     0.007 C 
HETATM    3  C13 UNL     1       9.953  25.583   5.746  1.00  0.00     0.025 C 
HETATM    4  C14 UNL     1       9.392  25.783   7.157  1.00  0.00     0.084 C 
HETATM    5  C23 UNL     1       9.533  24.478   7.888  1.00  0.00     0.025 C 
HETATM    6  C24 UNL     1      10.950  23.938   7.866  1.00  0.00     0.007 C 
ENDROOT
BRANCH   1   7
HETATM    7  C10 UNL     1      10.715  22.654   5.729  1.00  0.00     0.049 C 
BRANCH   7   8
HETATM    8  C9  UNL     1      11.247  22.115   4.468  1.00  0.00     0.058 C 
BRANCH   8   9
HETATM    9  N2  UNL     1      12.301  21.218   4.412  1.00  0.00    -0.390 N 
HETATM   10  C8  UNL     1      12.518  20.347   5.485  1.00  0.00     0.141 C 
HETATM   11  C7  UNL     1      13.452  19.178   5.070  1.00  0.00     0.143 C 
HETATM   12  N1  UNL     1      14.642  19.746   4.493  1.00  0.00    -0.376 N 
HETATM   13  C26 UNL     1      14.746  21.216   4.569  1.00  0.00     0.143 C 
HETATM   14  C25 UNL     1      13.519  21.720   3.799  1.00  0.00     0.141 C 
BRANCH  12  15
HETATM   15  C6  UNL     1      15.640  18.969   3.889  1.00  0.00     0.052 A 
HETATM   16  C5  UNL     1      15.670  18.777   2.530  1.00  0.00     0.060 A 
HETATM   17  C4  UNL     1      16.663  18.000   1.953  1.00  0.00     0.026 A 
HETATM   18 CL1  UNL     1      14.463  19.474   1.437  1.00  0.00    -0.082 Cl
HETATM   19  C3  UNL     1      17.624  17.414   2.710  1.00  0.00     0.008 A 
HETATM   20  C2  UNL     1      17.624  17.585   4.085  1.00  0.00    -0.060 A 
HETATM   21  C1  UNL     1      18.679  16.935   4.902  1.00  0.00     0.048 C 
HETATM   22  C27 UNL     1      16.642  18.354   4.650  1.00  0.00     0.037 A 
ENDBRANCH  12  15
ENDBRANCH   8   9
ENDBRANCH   7   8
ENDBRANCH   1   7
BRANCH   4  23
HETATM   23  N3  UNL     1       7.984  26.076   6.954  1.00  0.00    -0.355 N 
HETATM   24  C15 UNL     1       7.439  27.376   7.101  1.00  0.00     0.248 C 
HETATM   25  O1  UNL     1       8.143  28.367   7.419  1.00  0.00    -0.271 OA
ATOM     26  H3  UNL     1       7.360  25.313   6.694  1.00  0.00     0.162 HD
BRANCH  24  27
HETATM   27  C16 UNL     1       5.988  27.587   6.872  1.00  0.00     0.280 C 
HETATM   28  C17 UNL     1       5.141  26.360   7.242  1.00  0.00     0.082 C 
HETATM   29  C18 UNL     1       4.420  26.686   5.980  1.00  0.00     0.133 C 
HETATM   30  C19 UNL     1       4.013  25.447   5.230  1.00  0.00     0.065 C 
HETATM   31  C22 UNL     1       3.235  27.613   6.125  1.00  0.00     0.065 C 
HETATM   32  N4  UNL     1       5.583  27.367   5.497  1.00  0.00    -0.053 N 
HETATM   33  C20 UNL     1       3.192  25.772   4.002  1.00  0.00     0.170 C 
HETATM   34  O2  UNL     1       2.182  26.673   4.262  1.00  0.00    -0.391 OA
HETATM   35  C21 UNL     1       2.693  27.867   4.735  1.00  0.00     0.170 C 
ATOM     36  H42 UNL     1       5.494  28.152   4.851  1.00  0.00     0.279 HD
ATOM     37  H41 UNL     1       6.215  26.911   4.837  1.00  0.00     0.279 HD
ENDBRANCH  24  27
ENDBRANCH   4  23
TORSDOF 6
ENDMDL
MODEL 5
REMARK VINA RESULT: -9.931517774      5.619     12.574
REMARK  6 active torsions:
REMARK  status: ('A' for Active; 'I' for Inactive)
REMARK    1  A    between atoms: C6_7  and  N1_8 
REMARK    2  A    between atoms: N2_11  and  C9_12 
REMARK    3  A    between atoms: C9_12  and  C10_13 
REMARK    4  A    between atoms: C10_13  and  C11_14 
REMARK    5  A    between atoms: C14_17  and  N3_18 
REMARK       I    between atoms: N3_18  and  C15_20 
REMARK    6  A    between atoms: C15_20  and  C16_22 
ROOT
HETATM    1  C11 UNL     1      15.219  18.589   2.447  1.00  0.00    -0.010 C 
HETATM    2  C12 UNL     1      16.736  18.463   2.202  1.00  0.00     0.007 C 
HETATM    3  C13 UNL     1      17.503  18.347   3.471  1.00  0.00     0.025 C 
HETATM    4  C14 UNL     1      17.086  17.120   4.287  1.00  0.00     0.084 C 
HETATM    5  C23 UNL     1      15.599  17.193   4.486  1.00  0.00     0.025 C 
HETATM    6  C24 UNL     1      14.835  17.348   3.184  1.00  0.00     0.007 C 
ENDROOT
BRANCH   1   7
HETATM    7  C10 UNL     1      14.897  19.850   3.131  1.00  0.00     0.049 C 
BRANCH   7   8
HETATM    8  C9  UNL     1      13.569  20.469   2.997  1.00  0.00     0.058 C 
BRANCH   8   9
HETATM    9  N2  UNL     1      12.904  21.072   4.052  1.00  0.00    -0.390 N 
HETATM   10  C8  UNL     1      12.159  20.283   4.934  1.00  0.00     0.141 C 
HETATM   11  C7  UNL     1      11.845  21.058   6.242  1.00  0.00     0.143 C 
HETATM   12  N1  UNL     1      11.236  22.311   5.878  1.00  0.00    -0.376 N 
HETATM   13  C26 UNL     1      10.938  22.479   4.443  1.00  0.00     0.143 C 
HETATM   14  C25 UNL     1      12.305  22.363   3.758  1.00  0.00     0.141 C 
BRANCH  12  15
HETATM   15  C6  UNL     1      10.948  23.316   6.812  1.00  0.00     0.052 A 
HETATM   16  C5  UNL     1      11.949  24.012   7.443  1.00  0.00     0.060 A 
HETATM   17  C4  UNL     1      11.644  24.999   8.367  1.00  0.00     0.026 A 
HETATM   18 CL1  UNL     1      13.668  23.700   7.145  1.00  0.00    -0.082 Cl
HETATM   19  C3  UNL     1      10.356  25.301   8.671  1.00  0.00     0.008 A 
HETATM   20  C2  UNL     1       9.320  24.617   8.055  1.00  0.00    -0.060 A 
HETATM   21  C1  UNL     1       7.916  24.955   8.399  1.00  0.00     0.048 C 
HETATM   22  C27 UNL     1       9.627  23.644   7.142  1.00  0.00     0.037 A 
ENDBRANCH  12  15
ENDBRANCH   8   9
ENDBRANCH   7   8
ENDBRANCH   1   7
BRANCH   4  23
HETATM   23  N3  UNL     1      17.755  17.285   5.566  1.00  0.00    -0.355 N 
HETATM   24  C15 UNL     1      18.293  16.199   6.299  1.00  0.00     0.248 C 
HETATM   25  O1  UNL     1      18.227  15.014   5.889  1.00  0.00    -0.271 OA
ATOM     26  H3  UNL     1      17.841  18.225   5.953  1.00  0.00     0.162 HD
BRANCH  24  27
HETATM   27  C16 UNL     1      18.964  16.458   7.598  1.00  0.00     0.280 C 
HETATM   28  C17 UNL     1      18.316  15.696   8.764  1.00  0.00     0.082 C 
HETATM   29  C18 UNL     1      18.508  16.983   9.491  1.00  0.00     0.133 C 
HETATM   30  C19 UNL     1      17.356  17.285  10.410  1.00  0.00     0.065 C 
HETATM   31  C22 UNL     1      19.814  17.123  10.239  1.00  0.00     0.065 C 
HETATM   32  N4  UNL     1      18.523  17.681   8.240  1.00  0.00    -0.053 N 
HETATM   33  C20 UNL     1      17.594  18.537  11.224  1.00  0.00     0.170 C 
HETATM   34  O2  UNL     1      18.845  18.563  11.803  1.00  0.00    -0.391 OA
HETATM   35  C21 UNL     1      19.837  18.510  10.842  1.00  0.00     0.170 C 
ATOM     36  H42 UNL     1      19.057  18.544   8.135  1.00  0.00     0.279 HD
ATOM     37  H41 UNL     1      17.690  18.169   7.910  1.00  0.00     0.279 HD
ENDBRANCH  24  27
ENDBRANCH   4  23
TORSDOF 6
ENDMDL
