MODEL 1
REMARK VINA RESULT: -8.639626236      0.000      0.000
REMARK  6 active torsions:
REMARK  status: ('A' for Active; 'I' for Inactive)
REMARK    1  A    between atoms: C1_2  and  C2_4 
REMARK    2  A    between atoms: C3_5  and  C4_6 
REMARK    3  A    between atoms: N3_15  and  C9_17 
REMARK    4  A    between atoms: C9_17  and  C10_18 
REMARK    5  A    between atoms: C10_18  and  C11_19 
REMARK    6  A    between atoms: C11_19  and  N4_20 
ROOT
HETATM    1  C2  UNL     1      12.873  21.658   6.085  1.00  0.00     0.064 A 
HETATM    2  C3  UNL     1      12.712  21.024   4.905  1.00  0.00     0.067 A 
HETATM    3  N2  UNL     1      11.574  21.260   4.176  1.00  0.00    -0.340 N 
ATOM      4  H2  UNL     1      11.458  20.781   3.283  1.00  0.00     0.167 HD
HETATM    5  C8  UNL     1      10.608  22.094   4.588  1.00  0.00     0.108 A 
HETATM    6  N3  UNL     1       9.536  22.325   3.925  1.00  0.00    -0.376 N 
ATOM      7  H3  UNL     1       8.877  22.980   4.347  1.00  0.00     0.161 HD
HETATM    8  C16 UNL     1      10.756  22.746   5.796  1.00  0.00    -0.007 A 
HETATM    9  C17 UNL     1      11.877  22.548   6.566  1.00  0.00    -0.030 A 
HETATM   10  C18 UNL     1      12.316  23.093   7.861  1.00  0.00     0.040 C 
HETATM   11  C19 UNL     1      11.533  24.322   8.261  1.00  0.00     0.005 C 
HETATM   12  C20 UNL     1      11.359  25.169   7.016  1.00  0.00     0.001 C 
HETATM   13  C21 UNL     1       9.937  24.987   6.569  1.00  0.00     0.005 C 
HETATM   14  C22 UNL     1       9.591  23.622   6.095  1.00  0.00     0.043 C 
ENDROOT
BRANCH   6  15
HETATM   15  C9  UNL     1       9.159  21.778   2.681  1.00  0.00     0.123 C 
BRANCH  15  16
HETATM   16  C10 UNL     1       8.148  22.692   1.974  1.00  0.00     0.050 C 
BRANCH  16  17
HETATM   17  C11 UNL     1       7.149  23.239   2.962  1.00  0.00     0.274 C 
BRANCH  17  18
HETATM   18  N4  UNL     1       7.357  24.655   3.138  1.00  0.00     0.092 N 
HETATM   19  C12 UNL     1       8.167  25.175   2.063  1.00  0.00     0.298 C 
HETATM   20  C13 UNL     1       7.351  26.165   1.242  1.00  0.00     0.198 C 
HETATM   21  O2  UNL     1       6.097  25.660   0.940  1.00  0.00    -0.388 OA
HETATM   22  C14 UNL     1       5.333  25.298   2.020  1.00  0.00     0.198 C 
HETATM   23  C15 UNL     1       6.111  25.333   3.314  1.00  0.00     0.298 C 
ENDBRANCH  17  18
ENDBRANCH  16  17
ENDBRANCH  15  16
ENDBRANCH   6  15
BRANCH   2  24
HETATM   24  C4  UNL     1      13.612  19.995   4.406  1.00  0.00     0.034 A 
HETATM   25  C5  UNL     1      13.758  18.705   4.880  1.00  0.00     0.023 A 
HETATM   26  C6  UNL     1      14.648  17.924   4.255  1.00  0.00     0.028 A 
HETATM   27  C7  UNL     1      15.345  18.442   3.208  1.00  0.00     0.052 A 
HETATM   28 BR1  UNL     1      16.677  17.573   2.122  1.00  0.00    -0.043 Br
HETATM   29  S1  UNL     1      14.732  20.025   3.120  1.00  0.00    -0.081 SA
ENDBRANCH   2  24
BRANCH   1  30
HETATM   30  C1  UNL     1      14.113  21.551   6.834  1.00  0.00     0.267 C 
HETATM   31  N1  UNL     1      15.153  22.497   6.494  1.00  0.00    -0.057 NA
HETATM   32  O1  UNL     1      14.333  20.712   7.747  1.00  0.00    -0.271 OA
ENDBRANCH   1  30
TORSDOF 6
ENDMDL
MODEL 2
REMARK VINA RESULT: -8.617360733      0.767      1.140
REMARK  6 active torsions:
REMARK  status: ('A' for Active; 'I' for Inactive)
REMARK    1  A    between atoms: C1_2  and  C2_4 
REMARK    2  A    between atoms: C3_5  and  C4_6 
REMARK    3  A    between atoms: N3_15  and  C9_17 
REMARK    4  A    between atoms: C9_17  and  C10_18 
REMARK    5  A    between atoms: C10_18  and  C11_19 
REMARK    6  A    between atoms: C11_19  and  N4_20 
ROOT
HETATM    1  C2  UNL     1      12.846  21.702   6.081  1.00  0.00     0.064 A 
HETATM    2  C3  UNL     1      12.711  21.082   4.890  1.00  0.00     0.067 A 
HETATM    3  N2  UNL     1      11.599  21.343   4.129  1.00  0.00    -0.340 N 
ATOM      4  H2  UNL     1      11.503  20.873   3.229  1.00  0.00     0.167 HD
HETATM    5  C8  UNL     1      10.635  22.189   4.520  1.00  0.00     0.108 A 
HETATM    6  N3  UNL     1       9.587  22.443   3.827  1.00  0.00    -0.376 N 
ATOM      7  H3  UNL     1       8.927  23.105   4.235  1.00  0.00     0.161 HD
HETATM    8  C16 UNL     1      10.757  22.828   5.738  1.00  0.00    -0.007 A 
HETATM    9  C17 UNL     1      11.851  22.604   6.539  1.00  0.00    -0.030 A 
HETATM   10  C18 UNL     1      12.259  23.131   7.852  1.00  0.00     0.040 C 
HETATM   11  C19 UNL     1      11.484  24.368   8.240  1.00  0.00     0.005 C 
HETATM   12  C20 UNL     1      11.362  25.230   6.997  1.00  0.00     0.001 C 
HETATM   13  C21 UNL     1       9.952  25.074   6.506  1.00  0.00     0.005 C 
HETATM   14  C22 UNL     1       9.598  23.720   6.010  1.00  0.00     0.043 C 
ENDROOT
BRANCH   6  15
HETATM   15  C9  UNL     1       9.240  21.914   2.567  1.00  0.00     0.123 C 
BRANCH  15  16
HETATM   16  C10 UNL     1       7.802  22.302   2.196  1.00  0.00     0.050 C 
BRANCH  16  17
HETATM   17  C11 UNL     1       7.379  23.542   2.943  1.00  0.00     0.274 C 
BRANCH  17  18
HETATM   18  N4  UNL     1       6.195  24.101   2.337  1.00  0.00     0.092 N 
HETATM   19  C12 UNL     1       5.210  24.392   3.350  1.00  0.00     0.298 C 
HETATM   20  C13 UNL     1       4.969  25.894   3.410  1.00  0.00     0.198 C 
HETATM   21  O2  UNL     1       6.162  26.598   3.427  1.00  0.00    -0.388 OA
HETATM   22  C14 UNL     1       6.999  26.361   2.367  1.00  0.00     0.198 C 
HETATM   23  C15 UNL     1       6.528  25.214   1.505  1.00  0.00     0.298 C 
ENDBRANCH  17  18
ENDBRANCH  16  17
ENDBRANCH  15  16
ENDBRANCH   6  15
BRANCH   2  24
HETATM   24  C4  UNL     1      13.609  20.042   4.409  1.00  0.00     0.034 A 
HETATM   25  C5  UNL     1      13.724  18.748   4.880  1.00  0.00     0.023 A 
HETATM   26  C6  UNL     1      14.619  17.957   4.274  1.00  0.00     0.028 A 
HETATM   27  C7  UNL     1      15.350  18.471   3.248  1.00  0.00     0.052 A 
HETATM   28 BR1  UNL     1      16.697  17.588   2.191  1.00  0.00    -0.043 Br
HETATM   29  S1  UNL     1      14.762  20.063   3.152  1.00  0.00    -0.081 SA
ENDBRANCH   2  24
BRANCH   1  30
HETATM   30  C1  UNL     1      14.061  21.568   6.865  1.00  0.00     0.267 C 
HETATM   31  N1  UNL     1      15.134  22.486   6.550  1.00  0.00    -0.057 NA
HETATM   32  O1  UNL     1      14.233  20.729   7.789  1.00  0.00    -0.271 OA
ENDBRANCH   1  30
TORSDOF 6
ENDMDL
MODEL 3
REMARK VINA RESULT: -8.545307707      5.485      9.386
REMARK  6 active torsions:
REMARK  status: ('A' for Active; 'I' for Inactive)
REMARK    1  A    between atoms: C1_2  and  C2_4 
REMARK    2  A    between atoms: C3_5  and  C4_6 
REMARK    3  A    between atoms: N3_15  and  C9_17 
REMARK    4  A    between atoms: C9_17  and  C10_18 
REMARK    5  A    between atoms: C10_18  and  C11_19 
REMARK    6  A    between atoms: C11_19  and  N4_20 
ROOT
HETATM    1  C2  UNL     1      15.324  20.791   7.265  1.00  0.00     0.064 A 
HETATM    2  C3  UNL     1      16.571  20.312   7.076  1.00  0.00     0.067 A 
HETATM    3  N2  UNL     1      16.878  19.716   5.879  1.00  0.00    -0.340 N 
ATOM      4  H2  UNL     1      17.823  19.358   5.740  1.00  0.00     0.167 HD
HETATM    5  C8  UNL     1      15.988  19.585   4.885  1.00  0.00     0.108 A 
HETATM    6  N3  UNL     1      16.253  19.027   3.761  1.00  0.00    -0.376 N 
ATOM      7  H3  UNL     1      15.489  18.989   3.086  1.00  0.00     0.161 HD
HETATM    8  C16 UNL     1      14.707  20.065   5.064  1.00  0.00    -0.007 A 
HETATM    9  C17 UNL     1      14.345  20.673   6.243  1.00  0.00    -0.030 A 
HETATM   10  C18 UNL     1      13.092  21.280   6.718  1.00  0.00     0.040 C 
HETATM   11  C19 UNL     1      12.125  21.556   5.590  1.00  0.00     0.005 C 
HETATM   12  C20 UNL     1      12.932  22.108   4.431  1.00  0.00     0.001 C 
HETATM   13  C21 UNL     1      13.053  20.999   3.426  1.00  0.00     0.005 C 
HETATM   14  C22 UNL     1      13.857  19.829   3.866  1.00  0.00     0.043 C 
ENDROOT
BRANCH   6  15
HETATM   15  C9  UNL     1      17.477  18.461   3.350  1.00  0.00     0.123 C 
BRANCH  15  16
HETATM   16  C10 UNL     1      17.369  16.931   3.288  1.00  0.00     0.050 C 
BRANCH  16  17
HETATM   17  C11 UNL     1      17.408  16.341   4.674  1.00  0.00     0.274 C 
BRANCH  17  18
HETATM   18  N4  UNL     1      18.744  16.436   5.211  1.00  0.00     0.092 N 
HETATM   19  C12 UNL     1      18.696  16.879   6.584  1.00  0.00     0.298 C 
HETATM   20  C13 UNL     1      19.224  15.779   7.494  1.00  0.00     0.198 C 
HETATM   21  O2  UNL     1      18.668  14.550   7.177  1.00  0.00    -0.388 OA
HETATM   22  C14 UNL     1      18.857  14.135   5.883  1.00  0.00     0.198 C 
HETATM   23  C15 UNL     1      19.459  15.214   5.014  1.00  0.00     0.298 C 
ENDBRANCH  17  18
ENDBRANCH  16  17
ENDBRANCH  15  16
ENDBRANCH   6  15
BRANCH   2  24
HETATM   24  C4  UNL     1      17.589  20.266   8.116  1.00  0.00     0.034 A 
HETATM   25  C5  UNL     1      18.693  21.088   8.248  1.00  0.00     0.023 A 
HETATM   26  C6  UNL     1      19.496  20.865   9.296  1.00  0.00     0.028 A 
HETATM   27  C7  UNL     1      19.180  19.856  10.152  1.00  0.00     0.052 A 
HETATM   28 BR1  UNL     1      20.130  19.301  11.734  1.00  0.00    -0.043 Br
HETATM   29  S1  UNL     1      17.753  19.237   9.467  1.00  0.00    -0.081 SA
ENDBRANCH   2  24
BRANCH   1  30
HETATM   30  C1  UNL     1      14.981  21.548   8.456  1.00  0.00     0.267 C 
HETATM   31  N1  UNL     1      14.303  20.821   9.507  1.00  0.00    -0.057 NA
HETATM   32  O1  UNL     1      15.238  22.768   8.633  1.00  0.00    -0.271 OA
ENDBRANCH   1  30
TORSDOF 6
ENDMDL
MODEL 4
REMARK VINA RESULT: -8.353838514      4.281      6.610
REMARK  6 active torsions:
REMARK  status: ('A' for Active; 'I' for Inactive)
REMARK    1  A    between atoms: C1_2  and  C2_4 
REMARK    2  A    between atoms: C3_5  and  C4_6 
REMARK    3  A    between atoms: N3_15  and  C9_17 
REMARK    4  A    between atoms: C9_17  and  C10_18 
REMARK    5  A    between atoms: C10_18  and  C11_19 
REMARK    6  A    between atoms: C11_19  and  N4_20 
ROOT
HETATM    1  C2  UNL     1       9.503  23.590   4.405  1.00  0.00     0.064 A 
HETATM    2  C3  UNL     1       8.702  24.665   4.253  1.00  0.00     0.067 A 
HETATM    3  N2  UNL     1       8.590  25.560   5.287  1.00  0.00    -0.340 N 
ATOM      4  H2  UNL     1       7.986  26.373   5.167  1.00  0.00     0.167 HD
HETATM    5  C8  UNL     1       9.242  25.411   6.449  1.00  0.00     0.108 A 
HETATM    6  N3  UNL     1       9.149  26.232   7.429  1.00  0.00    -0.376 N 
ATOM      7  H3  UNL     1       9.696  26.006   8.260  1.00  0.00     0.161 HD
HETATM    8  C16 UNL     1      10.062  24.313   6.622  1.00  0.00    -0.007 A 
HETATM    9  C17 UNL     1      10.212  23.386   5.618  1.00  0.00    -0.030 A 
HETATM   10  C18 UNL     1      11.002  22.150   5.501  1.00  0.00     0.040 C 
HETATM   11  C19 UNL     1      12.074  22.052   6.561  1.00  0.00     0.005 C 
HETATM   12  C20 UNL     1      12.695  23.429   6.700  1.00  0.00     0.001 C 
HETATM   13  C21 UNL     1      12.154  24.016   7.971  1.00  0.00     0.005 C 
HETATM   14  C22 UNL     1      10.697  24.306   7.967  1.00  0.00     0.043 C 
ENDROOT
BRANCH   6  15
HETATM   15  C9  UNL     1       8.377  27.410   7.492  1.00  0.00     0.123 C 
BRANCH  15  16
HETATM   16  C10 UNL     1       7.206  27.236   8.469  1.00  0.00     0.050 C 
BRANCH  16  17
HETATM   17  C11 UNL     1       6.101  26.432   7.833  1.00  0.00     0.274 C 
BRANCH  17  18
HETATM   18  N4  UNL     1       5.414  27.233   6.849  1.00  0.00     0.092 N 
HETATM   19  C12 UNL     1       5.314  26.512   5.603  1.00  0.00     0.298 C 
HETATM   20  C13 UNL     1       3.851  26.231   5.292  1.00  0.00     0.198 C 
HETATM   21  O2  UNL     1       3.184  25.732   6.399  1.00  0.00    -0.388 OA
HETATM   22  C14 UNL     1       3.218  26.530   7.514  1.00  0.00     0.198 C 
HETATM   23  C15 UNL     1       4.162  27.698   7.359  1.00  0.00     0.298 C 
ENDBRANCH  17  18
ENDBRANCH  16  17
ENDBRANCH  15  16
ENDBRANCH   6  15
BRANCH   2  24
HETATM   24  C4  UNL     1       7.835  24.876   3.103  1.00  0.00     0.034 A 
HETATM   25  C5  UNL     1       7.994  25.803   2.090  1.00  0.00     0.023 A 
HETATM   26  C6  UNL     1       7.069  25.811   1.121  1.00  0.00     0.028 A 
HETATM   27  C7  UNL     1       6.044  24.920   1.195  1.00  0.00     0.052 A 
HETATM   28 BR1  UNL     1       4.579  24.690  -0.035  1.00  0.00    -0.043 Br
HETATM   29  S1  UNL     1       6.401  24.081   2.630  1.00  0.00    -0.081 SA
ENDBRANCH   2  24
BRANCH   1  30
HETATM   30  C1  UNL     1       9.763  22.684   3.300  1.00  0.00     0.267 C 
HETATM   31  N1  UNL     1      10.727  23.129   2.317  1.00  0.00    -0.057 NA
HETATM   32  O1  UNL     1       9.223  21.556   3.151  1.00  0.00    -0.271 OA
ENDBRANCH   1  30
TORSDOF 6
ENDMDL
MODEL 5
REMARK VINA RESULT: -8.350130790      1.316      1.637
REMARK  6 active torsions:
REMARK  status: ('A' for Active; 'I' for Inactive)
REMARK    1  A    between atoms: C1_2  and  C2_4 
REMARK    2  A    between atoms: C3_5  and  C4_6 
REMARK    3  A    between atoms: N3_15  and  C9_17 
REMARK    4  A    between atoms: C9_17  and  C10_18 
REMARK    5  A    between atoms: C10_18  and  C11_19 
REMARK    6  A    between atoms: C11_19  and  N4_20 
ROOT
HETATM    1  C2  UNL     1      12.543  22.234   6.256  1.00  0.00     0.064 A 
HETATM    2  C3  UNL     1      12.384  21.663   5.044  1.00  0.00     0.067 A 
HETATM    3  N2  UNL     1      11.251  21.944   4.323  1.00  0.00    -0.340 N 
ATOM      4  H2  UNL     1      11.136  21.512   3.406  1.00  0.00     0.167 HD
HETATM    5  C8  UNL     1      10.287  22.760   4.774  1.00  0.00     0.108 A 
HETATM    6  N3  UNL     1       9.219  23.031   4.120  1.00  0.00    -0.376 N 
ATOM      7  H3  UNL     1       8.563  23.668   4.572  1.00  0.00     0.161 HD
HETATM    8  C16 UNL     1      10.433  23.348   6.015  1.00  0.00    -0.007 A 
HETATM    9  C17 UNL     1      11.550  23.103   6.779  1.00  0.00    -0.030 A 
HETATM   10  C18 UNL     1      11.986  23.578   8.102  1.00  0.00     0.040 C 
HETATM   11  C19 UNL     1      11.208  24.788   8.562  1.00  0.00     0.005 C 
HETATM   12  C20 UNL     1      11.045  25.700   7.362  1.00  0.00     0.001 C 
HETATM   13  C21 UNL     1       9.624  25.549   6.900  1.00  0.00     0.005 C 
HETATM   14  C22 UNL     1       9.272  24.213   6.354  1.00  0.00     0.043 C 
ENDROOT
BRANCH   6  15
HETATM   15  C9  UNL     1       8.846  22.553   2.847  1.00  0.00     0.123 C 
BRANCH  15  16
HETATM   16  C10 UNL     1       7.821  23.492   2.197  1.00  0.00     0.050 C 
BRANCH  16  17
HETATM   17  C11 UNL     1       8.323  24.914   2.209  1.00  0.00     0.274 C 
BRANCH  17  18
HETATM   18  N4  UNL     1       7.210  25.829   2.131  1.00  0.00     0.092 N 
HETATM   19  C12 UNL     1       6.042  25.242   2.742  1.00  0.00     0.298 C 
HETATM   20  C13 UNL     1       5.646  26.054   3.968  1.00  0.00     0.198 C 
HETATM   21  O2  UNL     1       6.742  26.330   4.769  1.00  0.00    -0.388 OA
HETATM   22  C14 UNL     1       7.767  26.999   4.151  1.00  0.00     0.198 C 
HETATM   23  C15 UNL     1       7.568  27.108   2.658  1.00  0.00     0.298 C 
ENDBRANCH  17  18
ENDBRANCH  16  17
ENDBRANCH  15  16
ENDBRANCH   6  15
BRANCH   2  24
HETATM   24  C4  UNL     1      13.281  20.656   4.496  1.00  0.00     0.034 A 
HETATM   25  C5  UNL     1      13.418  19.343   4.903  1.00  0.00     0.023 A 
HETATM   26  C6  UNL     1      14.307  18.590   4.242  1.00  0.00     0.028 A 
HETATM   27  C7  UNL     1      15.011  19.158   3.225  1.00  0.00     0.052 A 
HETATM   28 BR1  UNL     1      16.342  18.340   2.100  1.00  0.00    -0.043 Br
HETATM   29  S1  UNL     1      14.406  20.747   3.216  1.00  0.00    -0.081 SA
ENDBRANCH   2  24
BRANCH   1  30
HETATM   30  C1  UNL     1      13.779  22.081   7.003  1.00  0.00     0.267 C 
HETATM   31  N1  UNL     1      13.779  21.080   8.049  1.00  0.00    -0.057 NA
HETATM   32  O1  UNL     1      14.832  22.741   6.798  1.00  0.00    -0.271 OA
ENDBRANCH   1  30
TORSDOF 6
ENDMDL
