MODEL 1
REMARK VINA RESULT: -9.354997160      0.000      0.000
REMARK  11 active torsions:
REMARK  status: ('A' for Active; 'I' for Inactive)
REMARK    1  A    between atoms: C2_2  and  N1_3 
REMARK    2  A    between atoms: C2_2  and  C3_7 
REMARK    3  A    between atoms: C3_7  and  O1_8 
REMARK    4  A    between atoms: C3_7  and  N2_10 
REMARK    5  A    between atoms: N2_10  and  C4_12 
REMARK    6  A    between atoms: C5_17  and  N5_18 
REMARK    7  A    between atoms: C7_22  and  N6_23 
REMARK       I    between atoms: N6_23  and  C8_25 
REMARK    8  A    between atoms: C8_25  and  C9_27 
REMARK    9  A    between atoms: N9_32  and  C10_33 
REMARK   10  A    between atoms: C12_38  and  N12_39 
REMARK   11  A    between atoms: C13_44  and  N14_45 
ROOT
HETATM    1  N6  UNL     1      36.993   0.623 -15.342  1.00  0.00    -0.317 N 
ATOM      2  H6  UNL     1      36.297  -0.121 -15.292  1.00  0.00     0.169 HD
HETATM    3  C8  UNL     1      37.349   1.180 -14.103  1.00  0.00     0.293 C 
HETATM    4  O4  UNL     1      38.175   2.095 -13.967  1.00  0.00    -0.264 OA
ENDROOT
BRANCH   3   5
HETATM    5  C9  UNL     1      36.717   0.666 -12.858  1.00  0.00     0.207 A 
HETATM    6  N7  UNL     1      36.250   1.455 -11.885  1.00  0.00    -0.264 N 
HETATM    7  N8  UNL     1      35.761   0.651 -10.941  1.00  0.00    -0.219 N 
ATOM      8  H7  UNL     1      36.265   2.475 -11.868  1.00  0.00     0.190 HD
HETATM    9  N9  UNL     1      35.908  -0.606 -11.293  1.00  0.00    -0.173 N 
ATOM     10  H8  UNL     1      35.333   0.966 -10.070  1.00  0.00     0.210 HD
HETATM   11  N15 UNL     1      36.504  -0.587 -12.487  1.00  0.00    -0.257 N 
ATOM     12  H15 UNL     1      36.758  -1.412 -13.030  1.00  0.00     0.191 HD
BRANCH   9  13
HETATM   13  C10 UNL     1      35.503  -1.731 -10.529  1.00  0.00     0.162 A 
HETATM   14  C11 UNL     1      36.383  -2.281  -9.619  1.00  0.00     0.166 A 
HETATM   15  N10 UNL     1      37.662  -1.694  -9.488  1.00  0.00    -0.079 NA
HETATM   16  N11 UNL     1      36.015  -3.354  -8.880  1.00  0.00    -0.177 N 
HETATM   17  C12 UNL     1      34.801  -3.922  -8.996  1.00  0.00     0.678 A 
ATOM     18  H11 UNL     1      36.681  -3.745  -8.214  1.00  0.00     0.185 HD
HETATM   19  N13 UNL     1      33.944  -3.386  -9.883  1.00  0.00    -0.175 N 
HETATM   20  C13 UNL     1      34.260  -2.318 -10.642  1.00  0.00     0.148 A 
ATOM     21  H13 UNL     1      33.019  -3.804  -9.985  1.00  0.00     0.186 HD
BRANCH  17  22
HETATM   22  N12 UNL     1      34.458  -4.955  -8.280  1.00  0.00    -0.234 N 
ATOM     23 2H12 UNL     1      34.824  -5.080  -7.337  1.00  0.00     0.174 HD
ATOM     24 1H12 UNL     1      33.818  -5.664  -8.636  1.00  0.00     0.174 HD
ENDBRANCH  17  22
BRANCH  20  25
HETATM   25  N14 UNL     1      33.413  -1.853 -11.463  1.00  0.00    -0.383 N 
ATOM     26 2H14 UNL     1      33.728  -1.311 -12.268  1.00  0.00     0.157 HD
ATOM     27 1H14 UNL     1      32.417  -2.021 -11.316  1.00  0.00     0.157 HD
ENDBRANCH  20  25
ENDBRANCH   9  13
ENDBRANCH   3   5
BRANCH   1  28
HETATM   28  C7  UNL     1      37.437   0.923 -16.630  1.00  0.00     0.085 A 
HETATM   29  C4  UNL     1      36.692   1.774 -17.486  1.00  0.00     0.149 A 
HETATM   30  N3  UNL     1      37.157   1.987 -18.734  1.00  0.00    -0.282 N 
HETATM   31  N4  UNL     1      38.261   1.441 -19.174  1.00  0.00    -0.279 N 
ATOM     32  H3  UNL     1      36.628   2.597 -19.358  1.00  0.00     0.188 HD
HETATM   33  C5  UNL     1      39.013   0.634 -18.429  1.00  0.00     0.190 A 
ATOM     34  H4  UNL     1      38.558   1.642 -20.129  1.00  0.00     0.189 HD
HETATM   35  C6  UNL     1      38.592   0.369 -17.132  1.00  0.00     0.089 A 
BRANCH  29  36
HETATM   36  N2  UNL     1      35.534   2.430 -17.020  1.00  0.00    -0.322 N 
ATOM     37  H2  UNL     1      35.573   2.811 -16.076  1.00  0.00     0.169 HD
BRANCH  36  38
HETATM   38  C3  UNL     1      34.343   2.611 -17.720  1.00  0.00     0.147 C 
BRANCH  38  39
HETATM   39  C2  UNL     1      33.438   3.759 -17.643  1.00  0.00     0.253 C 
HETATM   40  C1  UNL     1      32.923   3.897 -16.216  1.00  0.00     0.049 C 
BRANCH  39  41
HETATM   41  N1  UNL     1      32.315   3.526 -18.556  1.00  0.00    -0.068 N 
ATOM     42  H13 UNL     1      31.711   2.769 -18.236  1.00  0.00     0.275 HD
ATOM     43  H12 UNL     1      31.632   4.283 -18.525  1.00  0.00     0.275 HD
ATOM     44  H11 UNL     1      32.666   3.365 -19.500  1.00  0.00     0.275 HD
ENDBRANCH  39  41
ENDBRANCH  38  39
BRANCH  38  45
HETATM   45  O1  UNL     1      34.024   1.637 -18.521  1.00  0.00    -0.348 OA
ATOM     46  H1  UNL     1      34.509   1.555 -19.335  1.00  0.00     0.219 HD
ENDBRANCH  38  45
ENDBRANCH  36  38
ENDBRANCH  29  36
BRANCH  33  47
HETATM   47  N5  UNL     1      40.214   0.053 -18.939  1.00  0.00    -0.097 N 
HETATM   48  O2  UNL     1      41.005  -0.513 -18.160  1.00  0.00    -0.530 OA
HETATM   49  O3  UNL     1      40.536   0.095 -20.269  1.00  0.00    -0.530 OA
ENDBRANCH  33  47
ENDBRANCH   1  28
TORSDOF 11
ENDMDL
MODEL 2
REMARK VINA RESULT: -9.341276847      2.642      5.381
REMARK  11 active torsions:
REMARK  status: ('A' for Active; 'I' for Inactive)
REMARK    1  A    between atoms: C2_2  and  N1_3 
REMARK    2  A    between atoms: C2_2  and  C3_7 
REMARK    3  A    between atoms: C3_7  and  O1_8 
REMARK    4  A    between atoms: C3_7  and  N2_10 
REMARK    5  A    between atoms: N2_10  and  C4_12 
REMARK    6  A    between atoms: C5_17  and  N5_18 
REMARK    7  A    between atoms: C7_22  and  N6_23 
REMARK       I    between atoms: N6_23  and  C8_25 
REMARK    8  A    between atoms: C8_25  and  C9_27 
REMARK    9  A    between atoms: N9_32  and  C10_33 
REMARK   10  A    between atoms: C12_38  and  N12_39 
REMARK   11  A    between atoms: C13_44  and  N14_45 
ROOT
HETATM    1  N6  UNL     1      33.961   1.533 -13.462  1.00  0.00    -0.317 N 
ATOM      2  H6  UNL     1      33.418   0.838 -12.950  1.00  0.00     0.169 HD
HETATM    3  C8  UNL     1      35.347   1.474 -13.245  1.00  0.00     0.293 C 
HETATM    4  O4  UNL     1      36.165   2.239 -13.777  1.00  0.00    -0.264 OA
ENDROOT
BRANCH   3   5
HETATM    5  C9  UNL     1      35.902   0.443 -12.327  1.00  0.00     0.207 A 
HETATM    6  N7  UNL     1      37.187   0.071 -12.323  1.00  0.00    -0.264 N 
HETATM    7  N8  UNL     1      37.313  -0.862 -11.379  1.00  0.00    -0.219 N 
ATOM      8  H7  UNL     1      37.927   0.430 -12.926  1.00  0.00     0.190 HD
HETATM    9  N9  UNL     1      36.154  -1.082 -10.799  1.00  0.00    -0.173 N 
ATOM     10  H8  UNL     1      38.183  -1.337 -11.141  1.00  0.00     0.210 HD
HETATM   11  N15 UNL     1      35.283  -0.266 -11.396  1.00  0.00    -0.257 N 
ATOM     12  H15 UNL     1      34.291  -0.198 -11.169  1.00  0.00     0.191 HD
BRANCH   9  13
HETATM   13  C10 UNL     1      35.917  -2.009  -9.752  1.00  0.00     0.162 A 
HETATM   14  C11 UNL     1      35.711  -1.540  -8.470  1.00  0.00     0.166 A 
HETATM   15  N10 UNL     1      35.745  -0.144  -8.257  1.00  0.00    -0.079 NA
HETATM   16  N11 UNL     1      35.482  -2.408  -7.457  1.00  0.00    -0.177 N 
HETATM   17  C12 UNL     1      35.447  -3.739  -7.647  1.00  0.00     0.678 A 
ATOM     18  H11 UNL     1      35.332  -2.041  -6.517  1.00  0.00     0.185 HD
HETATM   19  N13 UNL     1      35.649  -4.196  -8.896  1.00  0.00    -0.175 N 
HETATM   20  C13 UNL     1      35.880  -3.375  -9.940  1.00  0.00     0.148 A 
ATOM     21  H13 UNL     1      35.627  -5.203  -9.060  1.00  0.00     0.186 HD
BRANCH  17  22
HETATM   22  N12 UNL     1      35.227  -4.566  -6.665  1.00  0.00    -0.234 N 
ATOM     23 2H12 UNL     1      35.103  -4.222  -5.713  1.00  0.00     0.174 HD
ATOM     24 1H12 UNL     1      35.172  -5.573  -6.814  1.00  0.00     0.174 HD
ENDBRANCH  17  22
BRANCH  20  25
HETATM   25  N14 UNL     1      36.064  -3.859 -11.097  1.00  0.00    -0.383 N 
ATOM     26 2H14 UNL     1      35.982  -3.260 -11.919  1.00  0.00     0.157 HD
ATOM     27 1H14 UNL     1      36.293  -4.847 -11.205  1.00  0.00     0.157 HD
ENDBRANCH  20  25
ENDBRANCH   9  13
ENDBRANCH   3   5
BRANCH   1  28
HETATM   28  C7  UNL     1      33.208   2.391 -14.264  1.00  0.00     0.085 A 
HETATM   29  C4  UNL     1      33.424   2.469 -15.664  1.00  0.00     0.149 A 
HETATM   30  N3  UNL     1      32.691   3.351 -16.374  1.00  0.00    -0.282 N 
HETATM   31  N4  UNL     1      31.797   4.127 -15.819  1.00  0.00    -0.279 N 
ATOM     32  H3  UNL     1      32.840   3.415 -17.381  1.00  0.00     0.188 HD
HETATM   33  C5  UNL     1      31.538   4.110 -14.513  1.00  0.00     0.190 A 
ATOM     34  H4  UNL     1      31.276   4.774 -16.411  1.00  0.00     0.189 HD
HETATM   35  C6  UNL     1      32.258   3.225 -13.721  1.00  0.00     0.089 A 
BRANCH  29  36
HETATM   36  N2  UNL     1      34.332   1.600 -16.302  1.00  0.00    -0.322 N 
ATOM     37  H2  UNL     1      34.416   0.660 -15.914  1.00  0.00     0.169 HD
BRANCH  36  38
HETATM   38  C3  UNL     1      35.127   1.893 -17.408  1.00  0.00     0.147 C 
BRANCH  38  39
HETATM   39  C2  UNL     1      36.547   2.250 -17.407  1.00  0.00     0.253 C 
HETATM   40  C1  UNL     1      37.121   2.027 -18.800  1.00  0.00     0.049 C 
BRANCH  39  41
HETATM   41  N1  UNL     1      37.240   1.392 -16.441  1.00  0.00    -0.068 N 
ATOM     42  H13 UNL     1      36.732   0.525 -16.264  1.00  0.00     0.275 HD
ATOM     43  H12 UNL     1      38.092   0.987 -16.829  1.00  0.00     0.275 HD
ATOM     44  H11 UNL     1      37.420   1.914 -15.583  1.00  0.00     0.275 HD
ENDBRANCH  39  41
ENDBRANCH  38  39
BRANCH  38  45
HETATM   45  O1  UNL     1      34.515   1.837 -18.554  1.00  0.00    -0.348 OA
ATOM     46  H1  UNL     1      34.852   1.236 -19.209  1.00  0.00     0.219 HD
ENDBRANCH  38  45
ENDBRANCH  36  38
ENDBRANCH  29  36
BRANCH  33  47
HETATM   47  N5  UNL     1      30.554   4.971 -13.937  1.00  0.00    -0.097 N 
HETATM   48  O2  UNL     1      30.265   6.043 -14.503  1.00  0.00    -0.530 OA
HETATM   49  O3  UNL     1      29.907   4.660 -12.772  1.00  0.00    -0.530 OA
ENDBRANCH  33  47
ENDBRANCH   1  28
TORSDOF 11
ENDMDL
MODEL 3
REMARK VINA RESULT: -9.292870500      4.320     10.375
REMARK  11 active torsions:
REMARK  status: ('A' for Active; 'I' for Inactive)
REMARK    1  A    between atoms: C2_2  and  N1_3 
REMARK    2  A    between atoms: C2_2  and  C3_7 
REMARK    3  A    between atoms: C3_7  and  O1_8 
REMARK    4  A    between atoms: C3_7  and  N2_10 
REMARK    5  A    between atoms: N2_10  and  C4_12 
REMARK    6  A    between atoms: C5_17  and  N5_18 
REMARK    7  A    between atoms: C7_22  and  N6_23 
REMARK       I    between atoms: N6_23  and  C8_25 
REMARK    8  A    between atoms: C8_25  and  C9_27 
REMARK    9  A    between atoms: N9_32  and  C10_33 
REMARK   10  A    between atoms: C12_38  and  N12_39 
REMARK   11  A    between atoms: C13_44  and  N14_45 
ROOT
HETATM    1  N6  UNL     1      35.153   4.541 -17.767  1.00  0.00    -0.317 N 
ATOM      2  H6  UNL     1      35.641   5.397 -18.032  1.00  0.00     0.169 HD
HETATM    3  C8  UNL     1      33.763   4.676 -17.623  1.00  0.00     0.293 C 
HETATM    4  O4  UNL     1      33.005   3.748 -17.304  1.00  0.00    -0.264 OA
ENDROOT
BRANCH   3   5
HETATM    5  C9  UNL     1      33.126   6.000 -17.861  1.00  0.00     0.207 A 
HETATM    6  N7  UNL     1      32.590   6.748 -16.890  1.00  0.00    -0.264 N 
HETATM    7  N8  UNL     1      32.120   7.852 -17.472  1.00  0.00    -0.219 N 
ATOM      8  H7  UNL     1      32.549   6.519 -15.897  1.00  0.00     0.190 HD
HETATM    9  N9  UNL     1      32.344   7.814 -18.766  1.00  0.00    -0.173 N 
ATOM     10  H8  UNL     1      31.654   8.616 -16.983  1.00  0.00     0.210 HD
HETATM   11  N15 UNL     1      32.970   6.658 -18.998  1.00  0.00    -0.257 N 
ATOM     12  H15 UNL     1      33.280   6.332 -19.914  1.00  0.00     0.191 HD
BRANCH   9  13
HETATM   13  C10 UNL     1      31.979   8.821 -19.697  1.00  0.00     0.162 A 
HETATM   14  C11 UNL     1      32.873   9.834 -19.980  1.00  0.00     0.166 A 
HETATM   15  N10 UNL     1      34.124   9.823 -19.323  1.00  0.00    -0.079 NA
HETATM   16  N11 UNL     1      32.544  10.804 -20.866  1.00  0.00    -0.177 N 
HETATM   17  C12 UNL     1      31.357  10.825 -21.497  1.00  0.00     0.678 A 
ATOM     18  H11 UNL     1      33.219  11.543 -21.060  1.00  0.00     0.185 HD
HETATM   19  N13 UNL     1      30.486   9.838 -21.220  1.00  0.00    -0.175 N 
HETATM   20  C13 UNL     1      30.764   8.849 -20.348  1.00  0.00     0.148 A 
ATOM     21  H13 UNL     1      29.580   9.838 -21.689  1.00  0.00     0.186 HD
BRANCH  17  22
HETATM   22  N12 UNL     1      31.051  11.763 -22.347  1.00  0.00    -0.234 N 
ATOM     23 2H12 UNL     1      30.948  11.553 -23.339  1.00  0.00     0.174 HD
ATOM     24 1H12 UNL     1      30.905  12.728 -22.050  1.00  0.00     0.174 HD
ENDBRANCH  17  22
BRANCH  20  25
HETATM   25  N14 UNL     1      29.906   7.943 -20.125  1.00  0.00    -0.383 N 
ATOM     26 2H14 UNL     1      29.902   7.094 -20.691  1.00  0.00     0.157 HD
ATOM     27 1H14 UNL     1      29.221   8.063 -19.379  1.00  0.00     0.157 HD
ENDBRANCH  20  25
ENDBRANCH   9  13
ENDBRANCH   3   5
BRANCH   1  28
HETATM   28  C7  UNL     1      35.974   3.425 -17.606  1.00  0.00     0.085 A 
HETATM   29  C4  UNL     1      36.106   2.783 -16.348  1.00  0.00     0.149 A 
HETATM   30  N3  UNL     1      36.950   1.736 -16.253  1.00  0.00    -0.282 N 
HETATM   31  N4  UNL     1      37.643   1.298 -17.272  1.00  0.00    -0.279 N 
ATOM     32  H3  UNL     1      37.053   1.268 -15.351  1.00  0.00     0.188 HD
HETATM   33  C5  UNL     1      37.571   1.847 -18.482  1.00  0.00     0.190 A 
ATOM     34  H4  UNL     1      38.265   0.502 -17.133  1.00  0.00     0.189 HD
HETATM   35  C6  UNL     1      36.720   2.932 -18.652  1.00  0.00     0.089 A 
BRANCH  29  36
HETATM   36  N2  UNL     1      35.324   3.189 -15.247  1.00  0.00    -0.322 N 
ATOM     37  H2  UNL     1      34.894   4.111 -15.307  1.00  0.00     0.169 HD
BRANCH  36  38
HETATM   38  C3  UNL     1      35.079   2.458 -14.087  1.00  0.00     0.147 C 
BRANCH  38  39
HETATM   39  C2  UNL     1      33.946   1.570 -13.823  1.00  0.00     0.253 C 
HETATM   40  C1  UNL     1      34.463   0.163 -13.553  1.00  0.00     0.049 C 
BRANCH  39  41
HETATM   41  N1  UNL     1      33.079   1.561 -15.006  1.00  0.00    -0.068 N 
ATOM     42  H13 UNL     1      33.133   0.679 -15.515  1.00  0.00     0.275 HD
ATOM     43  H12 UNL     1      32.090   1.528 -14.756  1.00  0.00     0.275 HD
ATOM     44  H11 UNL     1      33.298   2.362 -15.600  1.00  0.00     0.275 HD
ENDBRANCH  39  41
ENDBRANCH  38  39
BRANCH  38  45
HETATM   45  O1  UNL     1      35.972   2.599 -13.151  1.00  0.00    -0.348 OA
ATOM     46  H1  UNL     1      36.410   3.440 -13.078  1.00  0.00     0.219 HD
ENDBRANCH  38  45
ENDBRANCH  36  38
ENDBRANCH  29  36
BRANCH  33  47
HETATM   47  N5  UNL     1      38.340   1.345 -19.575  1.00  0.00    -0.097 N 
HETATM   48  O2  UNL     1      38.032   1.658 -20.741  1.00  0.00    -0.530 OA
HETATM   49  O3  UNL     1      39.418   0.523 -19.390  1.00  0.00    -0.530 OA
ENDBRANCH  33  47
ENDBRANCH   1  28
TORSDOF 11
ENDMDL
MODEL 4
REMARK VINA RESULT: -9.206864225      1.337      1.740
REMARK  11 active torsions:
REMARK  status: ('A' for Active; 'I' for Inactive)
REMARK    1  A    between atoms: C2_2  and  N1_3 
REMARK    2  A    between atoms: C2_2  and  C3_7 
REMARK    3  A    between atoms: C3_7  and  O1_8 
REMARK    4  A    between atoms: C3_7  and  N2_10 
REMARK    5  A    between atoms: N2_10  and  C4_12 
REMARK    6  A    between atoms: C5_17  and  N5_18 
REMARK    7  A    between atoms: C7_22  and  N6_23 
REMARK       I    between atoms: N6_23  and  C8_25 
REMARK    8  A    between atoms: C8_25  and  C9_27 
REMARK    9  A    between atoms: N9_32  and  C10_33 
REMARK   10  A    between atoms: C12_38  and  N12_39 
REMARK   11  A    between atoms: C13_44  and  N14_45 
ROOT
HETATM    1  N6  UNL     1      36.044   1.347 -14.977  1.00  0.00    -0.317 N 
ATOM      2  H6  UNL     1      35.154   0.867 -14.841  1.00  0.00     0.169 HD
HETATM    3  C8  UNL     1      36.871   1.387 -13.844  1.00  0.00     0.293 C 
HETATM    4  O4  UNL     1      37.986   1.929 -13.819  1.00  0.00    -0.264 OA
ENDROOT
BRANCH   3   5
HETATM    5  C9  UNL     1      36.414   0.752 -12.579  1.00  0.00     0.207 A 
HETATM    6  N7  UNL     1      36.142   1.437 -11.463  1.00  0.00    -0.264 N 
HETATM    7  N8  UNL     1      35.765   0.543 -10.547  1.00  0.00    -0.219 N 
ATOM      8  H7  UNL     1      36.211   2.446 -11.336  1.00  0.00     0.190 HD
HETATM    9  N9  UNL     1      35.794  -0.668 -11.055  1.00  0.00    -0.173 N 
ATOM     10  H8  UNL     1      35.493   0.769  -9.590  1.00  0.00     0.210 HD
HETATM   11  N15 UNL     1      36.199  -0.528 -12.319  1.00  0.00    -0.257 N 
ATOM     12  H15 UNL     1      36.324  -1.292 -12.984  1.00  0.00     0.191 HD
BRANCH   9  13
HETATM   13  C10 UNL     1      35.455  -1.861 -10.365  1.00  0.00     0.162 A 
HETATM   14  C11 UNL     1      36.398  -2.463  -9.557  1.00  0.00     0.166 A 
HETATM   15  N10 UNL     1      37.671  -1.859  -9.452  1.00  0.00    -0.079 NA
HETATM   16  N11 UNL     1      36.094  -3.602  -8.890  1.00  0.00    -0.177 N 
HETATM   17  C12 UNL     1      34.886  -4.186  -8.982  1.00  0.00     0.678 A 
ATOM     18  H11 UNL     1      36.805  -4.030  -8.298  1.00  0.00     0.185 HD
HETATM   19  N13 UNL     1      33.968  -3.599  -9.770  1.00  0.00    -0.175 N 
HETATM   20  C13 UNL     1      34.219  -2.465 -10.455  1.00  0.00     0.148 A 
ATOM     21  H13 UNL     1      33.046  -4.028  -9.853  1.00  0.00     0.186 HD
BRANCH  17  22
HETATM   22  N12 UNL     1      34.605  -5.282  -8.336  1.00  0.00    -0.234 N 
ATOM     23 2H12 UNL     1      33.889  -5.920  -8.680  1.00  0.00     0.174 HD
ATOM     24 1H12 UNL     1      35.088  -5.534  -7.474  1.00  0.00     0.174 HD
ENDBRANCH  17  22
BRANCH  20  25
HETATM   25  N14 UNL     1      33.316  -1.954 -11.183  1.00  0.00    -0.383 N 
ATOM     26 2H14 UNL     1      32.973  -1.013 -10.985  1.00  0.00     0.157 HD
ATOM     27 1H14 UNL     1      32.933  -2.483 -11.967  1.00  0.00     0.157 HD
ENDBRANCH  20  25
ENDBRANCH   9  13
ENDBRANCH   3   5
BRANCH   1  28
HETATM   28  C7  UNL     1      36.243   1.857 -16.261  1.00  0.00     0.085 A 
HETATM   29  C4  UNL     1      35.423   2.894 -16.776  1.00  0.00     0.149 A 
HETATM   30  N3  UNL     1      35.642   3.310 -18.040  1.00  0.00    -0.282 N 
HETATM   31  N4  UNL     1      36.576   2.795 -18.797  1.00  0.00    -0.279 N 
ATOM     32  H3  UNL     1      35.057   4.055 -18.420  1.00  0.00     0.188 HD
HETATM   33  C5  UNL     1      37.384   1.822 -18.383  1.00  0.00     0.190 A 
ATOM     34  H4  UNL     1      36.690   3.154 -19.744  1.00  0.00     0.189 HD
HETATM   35  C6  UNL     1      37.213   1.343 -17.089  1.00  0.00     0.089 A 
BRANCH  29  36
HETATM   36  N2  UNL     1      34.452   3.516 -15.965  1.00  0.00    -0.322 N 
ATOM     37  H2  UNL     1      34.793   4.189 -15.279  1.00  0.00     0.169 HD
BRANCH  36  38
HETATM   38  C3  UNL     1      33.076   3.304 -16.004  1.00  0.00     0.147 C 
BRANCH  38  39
HETATM   39  C2  UNL     1      32.203   2.950 -14.884  1.00  0.00     0.253 C 
HETATM   40  C1  UNL     1      31.387   4.171 -14.478  1.00  0.00     0.049 C 
BRANCH  39  41
HETATM   41  N1  UNL     1      33.042   2.519 -13.761  1.00  0.00    -0.068 N 
ATOM     42  H13 UNL     1      33.737   3.221 -13.509  1.00  0.00     0.275 HD
ATOM     43  H12 UNL     1      32.526   2.501 -12.881  1.00  0.00     0.275 HD
ATOM     44  H11 UNL     1      33.466   1.616 -13.974  1.00  0.00     0.275 HD
ENDBRANCH  39  41
ENDBRANCH  38  39
BRANCH  38  45
HETATM   45  O1  UNL     1      32.533   3.442 -17.178  1.00  0.00    -0.348 OA
ATOM     46  H1  UNL     1      32.771   2.817 -17.854  1.00  0.00     0.219 HD
ENDBRANCH  38  45
ENDBRANCH  36  38
ENDBRANCH  29  36
BRANCH  33  47
HETATM   47  N5  UNL     1      38.395   1.280 -19.233  1.00  0.00    -0.097 N 
HETATM   48  O2  UNL     1      39.256   0.515 -18.758  1.00  0.00    -0.530 OA
HETATM   49  O3  UNL     1      38.456   1.571 -20.569  1.00  0.00    -0.530 OA
ENDBRANCH  33  47
ENDBRANCH   1  28
TORSDOF 11
ENDMDL
MODEL 5
REMARK VINA RESULT: -9.132619108      3.360      9.220
REMARK  11 active torsions:
REMARK  status: ('A' for Active; 'I' for Inactive)
REMARK    1  A    between atoms: C2_2  and  N1_3 
REMARK    2  A    between atoms: C2_2  and  C3_7 
REMARK    3  A    between atoms: C3_7  and  O1_8 
REMARK    4  A    between atoms: C3_7  and  N2_10 
REMARK    5  A    between atoms: N2_10  and  C4_12 
REMARK    6  A    between atoms: C5_17  and  N5_18 
REMARK    7  A    between atoms: C7_22  and  N6_23 
REMARK       I    between atoms: N6_23  and  C8_25 
REMARK    8  A    between atoms: C8_25  and  C9_27 
REMARK    9  A    between atoms: N9_32  and  C10_33 
REMARK   10  A    between atoms: C12_38  and  N12_39 
REMARK   11  A    between atoms: C13_44  and  N14_45 
ROOT
HETATM    1  N6  UNL     1      36.114   2.619 -18.112  1.00  0.00    -0.317 N 
ATOM      2  H6  UNL     1      36.400   3.573 -18.329  1.00  0.00     0.169 HD
HETATM    3  C8  UNL     1      34.729   2.392 -18.164  1.00  0.00     0.293 C 
HETATM    4  O4  UNL     1      34.197   1.297 -17.929  1.00  0.00    -0.264 OA
ENDROOT
BRANCH   3   5
HETATM    5  C9  UNL     1      33.816   3.511 -18.521  1.00  0.00     0.207 A 
HETATM    6  N7  UNL     1      32.513   3.350 -18.776  1.00  0.00    -0.264 N 
HETATM    7  N8  UNL     1      32.025   4.559 -19.054  1.00  0.00    -0.219 N 
ATOM      8  H7  UNL     1      31.994   2.473 -18.761  1.00  0.00     0.190 HD
HETATM    9  N9  UNL     1      32.976   5.462 -18.981  1.00  0.00    -0.173 N 
ATOM     10  H8  UNL     1      31.052   4.755 -19.290  1.00  0.00     0.210 HD
HETATM   11  N15 UNL     1      34.087   4.800 -18.649  1.00  0.00    -0.257 N 
ATOM     12  H15 UNL     1      35.005   5.224 -18.515  1.00  0.00     0.191 HD
BRANCH   9  13
HETATM   13  C10 UNL     1      32.816   6.852 -19.216  1.00  0.00     0.162 A 
HETATM   14  C11 UNL     1      32.512   7.684 -18.156  1.00  0.00     0.166 A 
HETATM   15  N10 UNL     1      32.373   7.107 -16.874  1.00  0.00    -0.079 NA
HETATM   16  N11 UNL     1      32.356   9.013 -18.359  1.00  0.00    -0.177 N 
HETATM   17  C12 UNL     1      32.485   9.573 -19.575  1.00  0.00     0.678 A 
ATOM     18  H11 UNL     1      32.131   9.610 -17.563  1.00  0.00     0.185 HD
HETATM   19  N13 UNL     1      32.781   8.763 -20.606  1.00  0.00    -0.175 N 
HETATM   20  C13 UNL     1      32.948   7.433 -20.459  1.00  0.00     0.148 A 
ATOM     21  H13 UNL     1      32.882   9.169 -21.537  1.00  0.00     0.186 HD
BRANCH  17  22
HETATM   22  N12 UNL     1      32.332  10.854 -19.759  1.00  0.00    -0.234 N 
ATOM     23 2H12 UNL     1      33.014  11.388 -20.297  1.00  0.00     0.174 HD
ATOM     24 1H12 UNL     1      31.533  11.358 -19.374  1.00  0.00     0.174 HD
ENDBRANCH  17  22
BRANCH  20  25
HETATM   25  N14 UNL     1      33.226   6.715 -21.467  1.00  0.00    -0.383 N 
ATOM     26 2H14 UNL     1      33.594   5.773 -21.335  1.00  0.00     0.157 HD
ATOM     27 1H14 UNL     1      33.082   7.081 -22.408  1.00  0.00     0.157 HD
ENDBRANCH  20  25
ENDBRANCH   9  13
ENDBRANCH   3   5
BRANCH   1  28
HETATM   28  C7  UNL     1      37.162   1.748 -17.812  1.00  0.00     0.085 A 
HETATM   29  C4  UNL     1      37.329   1.220 -16.505  1.00  0.00     0.149 A 
HETATM   30  N3  UNL     1      38.388   0.418 -16.273  1.00  0.00    -0.282 N 
HETATM   31  N4  UNL     1      39.256   0.116 -17.203  1.00  0.00    -0.279 N 
ATOM     32  H3  UNL     1      38.517   0.034 -15.336  1.00  0.00     0.188 HD
HETATM   33  C5  UNL     1      39.166   0.571 -18.450  1.00  0.00     0.190 A 
ATOM     34  H4  UNL     1      40.037  -0.495 -16.962  1.00  0.00     0.189 HD
HETATM   35  C6  UNL     1      38.097   1.404 -18.760  1.00  0.00     0.089 A 
BRANCH  29  36
HETATM   36  N2  UNL     1      36.374   1.473 -15.499  1.00  0.00    -0.322 N 
ATOM     37  H2  UNL     1      35.420   1.166 -15.686  1.00  0.00     0.169 HD
BRANCH  36  38
HETATM   38  C3  UNL     1      36.602   2.099 -14.275  1.00  0.00     0.147 C 
BRANCH  38  39
HETATM   39  C2  UNL     1      35.764   2.031 -13.078  1.00  0.00     0.253 C 
HETATM   40  C1  UNL     1      36.287   0.934 -12.160  1.00  0.00     0.049 C 
BRANCH  39  41
HETATM   41  N1  UNL     1      34.391   1.722 -13.489  1.00  0.00    -0.068 N 
ATOM     42  H13 UNL     1      34.313   1.593 -14.498  1.00  0.00     0.275 HD
ATOM     43  H12 UNL     1      34.105   0.787 -13.198  1.00  0.00     0.275 HD
ATOM     44  H11 UNL     1      33.757   2.443 -13.143  1.00  0.00     0.275 HD
ENDBRANCH  39  41
ENDBRANCH  38  39
BRANCH  38  45
HETATM   45  O1  UNL     1      37.686   2.816 -14.220  1.00  0.00    -0.348 OA
ATOM     46  H1  UNL     1      37.592   3.760 -14.164  1.00  0.00     0.219 HD
ENDBRANCH  38  45
ENDBRANCH  36  38
ENDBRANCH  29  36
BRANCH  33  47
HETATM   47  N5  UNL     1      40.130   0.222 -19.443  1.00  0.00    -0.097 N 
HETATM   48  O2  UNL     1      39.902   0.476 -20.641  1.00  0.00    -0.530 OA
HETATM   49  O3  UNL     1      41.313  -0.389 -19.127  1.00  0.00    -0.530 OA
ENDBRANCH  33  47
ENDBRANCH   1  28
TORSDOF 11
ENDMDL
