MODEL 1
REMARK VINA RESULT: -8.561819556      0.000      0.000
REMARK  9 active torsions:
REMARK  status: ('A' for Active; 'I' for Inactive)
REMARK    1  A    between atoms: N1_2  and  C2_3 
REMARK    2  A    between atoms: N1_2  and  C11_36 
REMARK    3  A    between atoms: C3_6  and  N3_7 
REMARK    4  A    between atoms: N4_9  and  N5_11 
REMARK       I    between atoms: N5_11  and  C4_13 
REMARK       I    between atoms: C4_13  and  N7_17 
REMARK    5  A    between atoms: N7_17  and  N8_19 
REMARK       I    between atoms: N8_19  and  C5_21 
REMARK    6  A    between atoms: C7_27  and  C8_28 
REMARK    7  A    between atoms: C8_28  and  O2_29 
REMARK    8  A    between atoms: N16_43  and  C12_44 
REMARK    9  A    between atoms: C12_44  and  N17_45 
ROOT
HETATM    1  C2  UNL     1      34.621   3.869 -17.897  1.00  0.00     0.169 A 
HETATM    2  N2  UNL     1      34.918   3.791 -16.592  1.00  0.00    -0.172 N 
ATOM      3  H2  UNL     1      34.295   4.230 -15.914  1.00  0.00     0.186 HD
HETATM    4  C3  UNL     1      36.027   3.142 -16.150  1.00  0.00     0.700 A 
HETATM    5  N10 UNL     1      36.847   2.564 -17.044  1.00  0.00    -0.186 N 
ATOM      6  H10 UNL     1      37.677   2.080 -16.702  1.00  0.00     0.184 HD
HETATM    7  C6  UNL     1      36.620   2.597 -18.376  1.00  0.00     0.107 A 
HETATM    8  C7  UNL     1      37.280   2.100 -19.480  1.00  0.00     0.081 A 
HETATM    9  N11 UNL     1      36.546   2.467 -20.539  1.00  0.00    -0.296 N 
HETATM   10  C9  UNL     1      36.808   2.194 -21.929  1.00  0.00     0.177 C 
HETATM   11  N12 UNL     1      35.477   3.162 -20.114  1.00  0.00    -0.293 N 
ATOM     12  H12 UNL     1      34.762   3.553 -20.727  1.00  0.00     0.187 HD
HETATM   13  C10 UNL     1      35.475   3.270 -18.793  1.00  0.00     0.123 A 
ENDROOT
BRANCH   4  14
HETATM   14  N3  UNL     1      36.368   3.039 -14.776  1.00  0.00    -0.117 N 
HETATM   15  N4  UNL     1      35.666   2.517 -13.885  1.00  0.00    -0.214 N 
ATOM     16  H4  UNL     1      36.035   2.510 -12.934  1.00  0.00     0.209 HD
ATOM     17  H3  UNL     1      37.268   3.426 -14.490  1.00  0.00     0.207 HD
BRANCH  15  18
HETATM   18  N5  UNL     1      34.420   1.945 -14.094  1.00  0.00    -0.116 N 
HETATM   19  C4  UNL     1      34.202   0.591 -13.756  1.00  0.00     0.706 C 
HETATM   20  N6  UNL     1      33.040   0.159 -13.516  1.00  0.00    -0.232 N 
HETATM   21  N7  UNL     1      35.311  -0.312 -13.685  1.00  0.00    -0.128 N 
ATOM     22  H62 UNL     1      32.250   0.802 -13.566  1.00  0.00     0.174 HD
ATOM     23  H61 UNL     1      32.883  -0.819 -13.272  1.00  0.00     0.174 HD
ATOM     24  H7  UNL     1      35.444  -0.897 -12.861  1.00  0.00     0.205 HD
ATOM     25  H5  UNL     1      33.663   2.501 -14.490  1.00  0.00     0.207 HD
BRANCH  21  26
HETATM   26  N8  UNL     1      36.208  -0.384 -14.751  1.00  0.00    -0.240 N 
HETATM   27  C5  UNL     1      37.546   0.045 -14.545  1.00  0.00     0.347 C 
HETATM   28  N9  UNL     1      38.496  -0.016 -15.618  1.00  0.00    -0.038 NA
HETATM   29  O1  UNL     1      37.953   0.484 -13.449  1.00  0.00    -0.249 OA
ATOM     30  H8  UNL     1      35.909  -0.738 -15.659  1.00  0.00     0.192 HD
ENDBRANCH  21  26
ENDBRANCH  15  18
ENDBRANCH   4  14
BRANCH   1  31
HETATM   31  N1  UNL     1      33.424   4.568 -18.349  1.00  0.00    -0.167 N 
HETATM   32  C1  UNL     1      32.349   3.745 -18.797  1.00  0.00     0.177 C 
BRANCH  31  33
HETATM   33  C11 UNL     1      33.402   5.969 -18.311  1.00  0.00     0.721 A 
HETATM   34  N13 UNL     1      32.669   6.692 -17.375  1.00  0.00    -0.115 N 
HETATM   35  N14 UNL     1      32.810   7.971 -17.563  1.00  0.00    -0.213 N 
ATOM     36  H13 UNL     1      32.097   6.274 -16.641  1.00  0.00     0.207 HD
HETATM   37  N15 UNL     1      33.609   8.123 -18.585  1.00  0.00    -0.209 N 
ATOM     38  H14 UNL     1      32.379   8.715 -17.014  1.00  0.00     0.210 HD
HETATM   39  N16 UNL     1      33.982   6.900 -19.057  1.00  0.00    -0.081 N 
ATOM     40  H15 UNL     1      33.907   9.019 -18.971  1.00  0.00     0.210 HD
BRANCH  39  41
HETATM   41  C12 UNL     1      34.883   6.752 -20.176  1.00  0.00     0.398 C 
BRANCH  41  42
HETATM   42  N17 UNL     1      36.277   6.658 -19.711  1.00  0.00    -0.061 N 
ATOM     43 3H17 UNL     1      36.331   6.480 -18.708  1.00  0.00     0.276 HD
ATOM     44 2H17 UNL     1      36.730   5.806 -20.041  1.00  0.00     0.276 HD
ATOM     45 1H17 UNL     1      36.801   7.492 -19.977  1.00  0.00     0.276 HD
ENDBRANCH  41  42
ENDBRANCH  39  41
ENDBRANCH  31  33
ENDBRANCH   1  31
BRANCH   8  46
HETATM   46  C8  UNL     1      38.541   1.325 -19.488  1.00  0.00     0.225 C 
BRANCH  46  47
HETATM   47  O2  UNL     1      38.908   0.934 -18.221  1.00  0.00    -0.395 OA
ATOM     48  H2  UNL     1      38.860  -0.009 -18.115  1.00  0.00     0.209 HD
ENDBRANCH  46  47
ENDBRANCH   8  46
TORSDOF 9
ENDMDL
MODEL 2
REMARK VINA RESULT: -8.559550030      2.361      3.464
REMARK  9 active torsions:
REMARK  status: ('A' for Active; 'I' for Inactive)
REMARK    1  A    between atoms: N1_2  and  C2_3 
REMARK    2  A    between atoms: N1_2  and  C11_36 
REMARK    3  A    between atoms: C3_6  and  N3_7 
REMARK    4  A    between atoms: N4_9  and  N5_11 
REMARK       I    between atoms: N5_11  and  C4_13 
REMARK       I    between atoms: C4_13  and  N7_17 
REMARK    5  A    between atoms: N7_17  and  N8_19 
REMARK       I    between atoms: N8_19  and  C5_21 
REMARK    6  A    between atoms: C7_27  and  C8_28 
REMARK    7  A    between atoms: C8_28  and  O2_29 
REMARK    8  A    between atoms: N16_43  and  C12_44 
REMARK    9  A    between atoms: C12_44  and  N17_45 
ROOT
HETATM    1  C2  UNL     1      34.507   2.661 -17.920  1.00  0.00     0.169 A 
HETATM    2  N2  UNL     1      34.058   2.377 -16.690  1.00  0.00    -0.172 N 
ATOM      3  H2  UNL     1      33.130   2.698 -16.413  1.00  0.00     0.186 HD
HETATM    4  C3  UNL     1      34.806   1.671 -15.802  1.00  0.00     0.700 A 
HETATM    5  N10 UNL     1      36.028   1.248 -16.168  1.00  0.00    -0.186 N 
ATOM      6  H10 UNL     1      36.583   0.720 -15.494  1.00  0.00     0.184 HD
HETATM    7  C6  UNL     1      36.556   1.493 -17.388  1.00  0.00     0.107 A 
HETATM    8  C7  UNL     1      37.749   1.183 -18.004  1.00  0.00     0.081 A 
HETATM    9  N11 UNL     1      37.673   1.711 -19.233  1.00  0.00    -0.296 N 
HETATM   10  C9  UNL     1      38.669   1.666 -20.274  1.00  0.00     0.177 C 
HETATM   11  N12 UNL     1      36.486   2.323 -19.377  1.00  0.00    -0.293 N 
ATOM     12  H12 UNL     1      36.182   2.804 -20.223  1.00  0.00     0.187 HD
HETATM   13  C10 UNL     1      35.761   2.219 -18.272  1.00  0.00     0.123 A 
ENDROOT
BRANCH   4  14
HETATM   14  N3  UNL     1      34.360   1.350 -14.494  1.00  0.00    -0.117 N 
HETATM   15  N4  UNL     1      34.912   1.695 -13.428  1.00  0.00    -0.214 N 
ATOM     16  H4  UNL     1      34.482   1.394 -12.553  1.00  0.00     0.209 HD
ATOM     17  H3  UNL     1      33.512   0.788 -14.417  1.00  0.00     0.207 HD
BRANCH  15  18
HETATM   18  N5  UNL     1      36.068   2.456 -13.346  1.00  0.00    -0.116 N 
HETATM   19  C4  UNL     1      37.331   1.828 -13.419  1.00  0.00     0.706 C 
HETATM   20  N6  UNL     1      38.357   2.470 -13.781  1.00  0.00    -0.232 N 
HETATM   21  N7  UNL     1      37.457   0.444 -13.077  1.00  0.00    -0.128 N 
ATOM     22  H62 UNL     1      38.266   3.456 -14.024  1.00  0.00     0.174 HD
ATOM     23  H61 UNL     1      39.269   2.017 -13.834  1.00  0.00     0.174 HD
ATOM     24  H7  UNL     1      37.925  -0.201 -13.714  1.00  0.00     0.205 HD
ATOM     25  H5  UNL     1      36.006   3.468 -13.233  1.00  0.00     0.207 HD
BRANCH  21  26
HETATM   26  N8  UNL     1      36.937  -0.016 -11.868  1.00  0.00    -0.240 N 
HETATM   27  C5  UNL     1      35.831  -0.908 -11.898  1.00  0.00     0.347 C 
HETATM   28  N9  UNL     1      35.270  -1.402 -10.674  1.00  0.00    -0.038 NA
HETATM   29  O1  UNL     1      35.307  -1.296 -12.963  1.00  0.00    -0.249 OA
ATOM     30  H8  UNL     1      37.341   0.281 -10.981  1.00  0.00     0.192 HD
ENDBRANCH  21  26
ENDBRANCH  15  18
ENDBRANCH   4  14
BRANCH   1  31
HETATM   31  N1  UNL     1      33.685   3.418 -18.858  1.00  0.00    -0.167 N 
HETATM   32  C1  UNL     1      33.373   4.756 -18.479  1.00  0.00     0.177 C 
BRANCH  31  33
HETATM   33  C11 UNL     1      33.266   2.799 -20.044  1.00  0.00     0.721 A 
HETATM   34  N13 UNL     1      32.386   1.723 -20.069  1.00  0.00    -0.115 N 
HETATM   35  N14 UNL     1      32.169   1.330 -21.290  1.00  0.00    -0.213 N 
ATOM     36  H13 UNL     1      31.967   1.299 -19.242  1.00  0.00     0.207 HD
HETATM   37  N15 UNL     1      32.870   2.104 -22.073  1.00  0.00    -0.209 N 
ATOM     38  H14 UNL     1      31.564   0.562 -21.580  1.00  0.00     0.210 HD
HETATM   39  N16 UNL     1      33.552   3.015 -21.321  1.00  0.00    -0.081 N 
ATOM     40  H15 UNL     1      32.904   2.038 -23.091  1.00  0.00     0.210 HD
BRANCH  39  41
HETATM   41  C12 UNL     1      34.401   4.019 -21.918  1.00  0.00     0.398 C 
BRANCH  41  42
HETATM   42  N17 UNL     1      33.660   5.279 -22.106  1.00  0.00    -0.061 N 
ATOM     43 3H17 UNL     1      33.316   5.378 -23.060  1.00  0.00     0.276 HD
ATOM     44 2H17 UNL     1      32.763   5.266 -21.622  1.00  0.00     0.276 HD
ATOM     45 1H17 UNL     1      34.231   6.076 -21.824  1.00  0.00     0.276 HD
ENDBRANCH  41  42
ENDBRANCH  39  41
ENDBRANCH  31  33
ENDBRANCH   1  31
BRANCH   8  46
HETATM   46  C8  UNL     1      38.880   0.426 -17.422  1.00  0.00     0.225 C 
BRANCH  46  47
HETATM   47  O2  UNL     1      38.840   0.424 -16.047  1.00  0.00    -0.395 OA
ATOM     48  H2  UNL     1      38.918   1.300 -15.690  1.00  0.00     0.209 HD
ENDBRANCH  46  47
ENDBRANCH   8  46
TORSDOF 9
ENDMDL
MODEL 3
REMARK VINA RESULT: -8.550450917      3.187      6.046
REMARK  9 active torsions:
REMARK  status: ('A' for Active; 'I' for Inactive)
REMARK    1  A    between atoms: N1_2  and  C2_3 
REMARK    2  A    between atoms: N1_2  and  C11_36 
REMARK    3  A    between atoms: C3_6  and  N3_7 
REMARK    4  A    between atoms: N4_9  and  N5_11 
REMARK       I    between atoms: N5_11  and  C4_13 
REMARK       I    between atoms: C4_13  and  N7_17 
REMARK    5  A    between atoms: N7_17  and  N8_19 
REMARK       I    between atoms: N8_19  and  C5_21 
REMARK    6  A    between atoms: C7_27  and  C8_28 
REMARK    7  A    between atoms: C8_28  and  O2_29 
REMARK    8  A    between atoms: N16_43  and  C12_44 
REMARK    9  A    between atoms: C12_44  and  N17_45 
ROOT
HETATM    1  C2  UNL     1      35.086   3.805 -20.003  1.00  0.00     0.169 A 
HETATM    2  N2  UNL     1      34.080   3.301 -19.274  1.00  0.00    -0.172 N 
ATOM      3  H2  UNL     1      33.961   2.290 -19.224  1.00  0.00     0.186 HD
HETATM    4  C3  UNL     1      33.216   4.104 -18.599  1.00  0.00     0.700 A 
HETATM    5  N10 UNL     1      33.374   5.437 -18.665  1.00  0.00    -0.186 N 
ATOM      6  H10 UNL     1      32.721   6.031 -18.156  1.00  0.00     0.184 HD
HETATM    7  C6  UNL     1      34.362   6.025 -19.378  1.00  0.00     0.107 A 
HETATM    8  C7  UNL     1      34.740   7.330 -19.608  1.00  0.00     0.081 A 
HETATM    9  N11 UNL     1      35.813   7.263 -20.408  1.00  0.00    -0.296 N 
HETATM   10  C9  UNL     1      36.584   8.358 -20.940  1.00  0.00     0.177 C 
HETATM   11  N12 UNL     1      36.090   5.974 -20.665  1.00  0.00    -0.293 N 
ATOM     12  H12 UNL     1      36.862   5.655 -21.251  1.00  0.00     0.187 HD
HETATM   13  C10 UNL     1      35.228   5.172 -20.056  1.00  0.00     0.123 A 
ENDROOT
BRANCH   4  14
HETATM   14  N3  UNL     1      32.143   3.604 -17.816  1.00  0.00    -0.117 N 
HETATM   15  N4  UNL     1      32.212   3.256 -16.619  1.00  0.00    -0.214 N 
ATOM     16  H4  UNL     1      31.360   2.913 -16.176  1.00  0.00     0.209 HD
ATOM     17  H3  UNL     1      31.235   3.521 -18.272  1.00  0.00     0.207 HD
BRANCH  15  18
HETATM   18  N5  UNL     1      33.363   3.301 -15.847  1.00  0.00    -0.116 N 
HETATM   19  C4  UNL     1      33.281   3.112 -14.450  1.00  0.00     0.706 C 
HETATM   20  N6  UNL     1      34.280   2.717 -13.786  1.00  0.00    -0.232 N 
HETATM   21  N7  UNL     1      32.049   3.372 -13.768  1.00  0.00    -0.128 N 
ATOM     22  H62 UNL     1      35.157   2.531 -14.271  1.00  0.00     0.174 HD
ATOM     23  H61 UNL     1      34.221   2.580 -12.777  1.00  0.00     0.174 HD
ATOM     24  H7  UNL     1      31.652   2.673 -13.140  1.00  0.00     0.205 HD
ATOM     25  H5  UNL     1      34.267   3.469 -16.287  1.00  0.00     0.207 HD
BRANCH  21  26
HETATM   26  N8  UNL     1      31.395   4.587 -13.970  1.00  0.00    -0.240 N 
HETATM   27  C5  UNL     1      30.405   4.991 -13.035  1.00  0.00     0.347 C 
HETATM   28  N9  UNL     1      29.713   6.235 -13.210  1.00  0.00    -0.038 NA
HETATM   29  O1  UNL     1      30.097   4.303 -12.040  1.00  0.00    -0.249 OA
ATOM     30  H8  UNL     1      31.623   5.173 -14.772  1.00  0.00     0.192 HD
ENDBRANCH  21  26
ENDBRANCH  15  18
ENDBRANCH   4  14
BRANCH   1  31
HETATM   31  N1  UNL     1      36.004   2.924 -20.716  1.00  0.00    -0.167 N 
HETATM   32  C1  UNL     1      35.798   2.811 -22.122  1.00  0.00     0.177 C 
BRANCH  31  33
HETATM   33  C11 UNL     1      37.008   2.263 -19.995  1.00  0.00     0.721 A 
HETATM   34  N13 UNL     1      38.212   1.863 -20.563  1.00  0.00    -0.115 N 
HETATM   35  N14 UNL     1      38.963   1.265 -19.686  1.00  0.00    -0.213 N 
ATOM     36  H13 UNL     1      38.472   2.019 -21.537  1.00  0.00     0.207 HD
HETATM   37  N15 UNL     1      38.302   1.253 -18.559  1.00  0.00    -0.209 N 
ATOM     38  H14 UNL     1      39.893   0.878 -19.848  1.00  0.00     0.210 HD
HETATM   39  N16 UNL     1      37.096   1.865 -18.733  1.00  0.00    -0.081 N 
ATOM     40  H15 UNL     1      38.637   0.849 -17.684  1.00  0.00     0.210 HD
BRANCH  39  41
HETATM   41  C12 UNL     1      36.153   2.019 -17.650  1.00  0.00     0.398 C 
BRANCH  41  42
HETATM   42  N17 UNL     1      36.763   2.759 -16.533  1.00  0.00    -0.061 N 
ATOM     43 3H17 UNL     1      36.483   2.380 -15.629  1.00  0.00     0.276 HD
ATOM     44 2H17 UNL     1      37.766   2.586 -16.466  1.00  0.00     0.276 HD
ATOM     45 1H17 UNL     1      36.556   3.756 -16.606  1.00  0.00     0.276 HD
ENDBRANCH  41  42
ENDBRANCH  39  41
ENDBRANCH  31  33
ENDBRANCH   1  31
BRANCH   8  46
HETATM   46  C8  UNL     1      34.090   8.550 -19.080  1.00  0.00     0.225 C 
BRANCH  46  47
HETATM   47  O2  UNL     1      34.581   8.896 -17.843  1.00  0.00    -0.395 OA
ATOM     48  H2  UNL     1      33.888   9.153 -17.247  1.00  0.00     0.209 HD
ENDBRANCH  46  47
ENDBRANCH   8  46
TORSDOF 9
ENDMDL
MODEL 4
REMARK VINA RESULT: -8.461938682      3.854      5.676
REMARK  9 active torsions:
REMARK  status: ('A' for Active; 'I' for Inactive)
REMARK    1  A    between atoms: N1_2  and  C2_3 
REMARK    2  A    between atoms: N1_2  and  C11_36 
REMARK    3  A    between atoms: C3_6  and  N3_7 
REMARK    4  A    between atoms: N4_9  and  N5_11 
REMARK       I    between atoms: N5_11  and  C4_13 
REMARK       I    between atoms: C4_13  and  N7_17 
REMARK    5  A    between atoms: N7_17  and  N8_19 
REMARK       I    between atoms: N8_19  and  C5_21 
REMARK    6  A    between atoms: C7_27  and  C8_28 
REMARK    7  A    between atoms: C8_28  and  O2_29 
REMARK    8  A    between atoms: N16_43  and  C12_44 
REMARK    9  A    between atoms: C12_44  and  N17_45 
ROOT
HETATM    1  C2  UNL     1      33.548   6.896 -21.685  1.00  0.00     0.169 A 
HETATM    2  N2  UNL     1      34.436   6.456 -20.782  1.00  0.00    -0.172 N 
ATOM      3  H2  UNL     1      34.709   7.069 -20.014  1.00  0.00     0.186 HD
HETATM    4  C3  UNL     1      34.980   5.214 -20.863  1.00  0.00     0.700 A 
HETATM    5  N10 UNL     1      34.620   4.406 -21.875  1.00  0.00    -0.186 N 
ATOM      6  H10 UNL     1      35.035   3.476 -21.927  1.00  0.00     0.184 HD
HETATM    7  C6  UNL     1      33.733   4.773 -22.827  1.00  0.00     0.107 A 
HETATM    8  C7  UNL     1      33.202   4.158 -23.940  1.00  0.00     0.081 A 
HETATM    9  N11 UNL     1      32.362   5.049 -24.484  1.00  0.00    -0.296 N 
HETATM   10  C9  UNL     1      31.557   4.891 -25.668  1.00  0.00     0.177 C 
HETATM   11  N12 UNL     1      32.369   6.170 -23.742  1.00  0.00    -0.293 N 
ATOM     12  H12 UNL     1      31.813   7.000 -23.945  1.00  0.00     0.187 HD
HETATM   13  C10 UNL     1      33.195   6.052 -22.712  1.00  0.00     0.123 A 
ENDROOT
BRANCH   4  14
HETATM   14  N3  UNL     1      35.920   4.716 -19.922  1.00  0.00    -0.117 N 
HETATM   15  N4  UNL     1      35.734   4.606 -18.692  1.00  0.00    -0.214 N 
ATOM     16  H4  UNL     1      36.498   4.230 -18.130  1.00  0.00     0.209 HD
ATOM     17  H3  UNL     1      36.828   4.423 -20.283  1.00  0.00     0.207 HD
BRANCH  15  18
HETATM   18  N5  UNL     1      34.565   4.956 -18.034  1.00  0.00    -0.116 N 
HETATM   19  C4  UNL     1      33.870   3.990 -17.274  1.00  0.00     0.706 C 
HETATM   20  N6  UNL     1      33.091   4.333 -16.340  1.00  0.00    -0.232 N 
HETATM   21  N7  UNL     1      34.044   2.598 -17.561  1.00  0.00    -0.128 N 
ATOM     22  H62 UNL     1      32.967   5.324 -16.135  1.00  0.00     0.174 HD
ATOM     23  H61 UNL     1      32.590   3.636 -15.791  1.00  0.00     0.174 HD
ATOM     24  H7  UNL     1      34.272   1.944 -16.813  1.00  0.00     0.205 HD
ATOM     25  H5  UNL     1      34.208   5.909 -18.099  1.00  0.00     0.207 HD
BRANCH  21  26
HETATM   26  N8  UNL     1      33.900   2.144 -18.871  1.00  0.00    -0.240 N 
HETATM   27  C5  UNL     1      32.752   2.541 -19.608  1.00  0.00     0.347 C 
HETATM   28  N9  UNL     1      32.570   2.093 -20.958  1.00  0.00    -0.038 NA
HETATM   29  O1  UNL     1      31.866   3.280 -19.129  1.00  0.00    -0.249 OA
ATOM     30  H8  UNL     1      34.604   1.539 -19.293  1.00  0.00     0.192 HD
ENDBRANCH  21  26
ENDBRANCH  15  18
ENDBRANCH   4  14
BRANCH   1  31
HETATM   31  N1  UNL     1      32.974   8.232 -21.576  1.00  0.00    -0.167 N 
HETATM   32  C1  UNL     1      33.629   9.258 -22.319  1.00  0.00     0.177 C 
BRANCH  31  33
HETATM   33  C11 UNL     1      31.842   8.420 -20.772  1.00  0.00     0.721 A 
HETATM   34  N13 UNL     1      30.555   8.528 -21.288  1.00  0.00    -0.115 N 
HETATM   35  N14 UNL     1      29.687   8.707 -20.336  1.00  0.00    -0.213 N 
ATOM     36  H13 UNL     1      30.322   8.473 -22.279  1.00  0.00     0.207 HD
HETATM   37  N15 UNL     1      30.349   8.722 -19.210  1.00  0.00    -0.209 N 
ATOM     38  H14 UNL     1      28.679   8.815 -20.447  1.00  0.00     0.210 HD
HETATM   39  N16 UNL     1      31.678   8.546 -19.462  1.00  0.00    -0.081 N 
ATOM     40  H15 UNL     1      29.937   8.846 -18.285  1.00  0.00     0.210 HD
BRANCH  39  41
HETATM   41  C12 UNL     1      32.659   8.499 -18.403  1.00  0.00     0.398 C 
BRANCH  41  42
HETATM   42  N17 UNL     1      32.167   7.685 -17.278  1.00  0.00    -0.061 N 
ATOM     43 3H17 UNL     1      31.393   8.137 -16.793  1.00  0.00     0.276 HD
ATOM     44 2H17 UNL     1      31.678   6.850 -17.599  1.00  0.00     0.276 HD
ATOM     45 1H17 UNL     1      32.931   7.455 -16.641  1.00  0.00     0.276 HD
ENDBRANCH  41  42
ENDBRANCH  39  41
ENDBRANCH  31  33
ENDBRANCH   1  31
BRANCH   8  46
HETATM   46  C8  UNL     1      33.504   2.795 -24.432  1.00  0.00     0.225 C 
BRANCH  46  47
HETATM   47  O2  UNL     1      34.080   2.016 -23.456  1.00  0.00    -0.395 OA
ATOM     48  H2  UNL     1      34.835   1.541 -23.783  1.00  0.00     0.209 HD
ENDBRANCH  46  47
ENDBRANCH   8  46
TORSDOF 9
ENDMDL
MODEL 5
REMARK VINA RESULT: -8.390934384      3.828      5.758
REMARK  9 active torsions:
REMARK  status: ('A' for Active; 'I' for Inactive)
REMARK    1  A    between atoms: N1_2  and  C2_3 
REMARK    2  A    between atoms: N1_2  and  C11_36 
REMARK    3  A    between atoms: C3_6  and  N3_7 
REMARK    4  A    between atoms: N4_9  and  N5_11 
REMARK       I    between atoms: N5_11  and  C4_13 
REMARK       I    between atoms: C4_13  and  N7_17 
REMARK    5  A    between atoms: N7_17  and  N8_19 
REMARK       I    between atoms: N8_19  and  C5_21 
REMARK    6  A    between atoms: C7_27  and  C8_28 
REMARK    7  A    between atoms: C8_28  and  O2_29 
REMARK    8  A    between atoms: N16_43  and  C12_44 
REMARK    9  A    between atoms: C12_44  and  N17_45 
ROOT
HETATM    1  C2  UNL     1      33.804   7.280 -21.064  1.00  0.00     0.169 A 
HETATM    2  N2  UNL     1      34.647   6.696 -20.201  1.00  0.00    -0.172 N 
ATOM      3  H2  UNL     1      34.934   7.205 -19.365  1.00  0.00     0.186 HD
HETATM    4  C3  UNL     1      35.127   5.442 -20.410  1.00  0.00     0.700 A 
HETATM    5  N10 UNL     1      34.748   4.772 -21.512  1.00  0.00    -0.186 N 
ATOM      6  H10 UNL     1      35.114   3.832 -21.660  1.00  0.00     0.184 HD
HETATM    7  C6  UNL     1      33.902   5.289 -22.431  1.00  0.00     0.107 A 
HETATM    8  C7  UNL     1      33.366   4.831 -23.615  1.00  0.00     0.081 A 
HETATM    9  N11 UNL     1      32.586   5.821 -24.070  1.00  0.00    -0.296 N 
HETATM   10  C9  UNL     1      31.800   5.839 -25.278  1.00  0.00     0.177 C 
HETATM   11  N12 UNL     1      32.635   6.851 -23.208  1.00  0.00    -0.293 N 
ATOM     12  H12 UNL     1      32.127   7.727 -23.326  1.00  0.00     0.187 HD
HETATM   13  C10 UNL     1      33.430   6.576 -22.184  1.00  0.00     0.123 A 
ENDROOT
BRANCH   4  14
HETATM   14  N3  UNL     1      36.018   4.793 -19.515  1.00  0.00    -0.117 N 
HETATM   15  N4  UNL     1      35.774   4.500 -18.326  1.00  0.00    -0.214 N 
ATOM     16  H4  UNL     1      36.508   4.033 -17.794  1.00  0.00     0.209 HD
ATOM     17  H3  UNL     1      36.939   4.544 -19.876  1.00  0.00     0.207 HD
BRANCH  15  18
HETATM   18  N5  UNL     1      34.579   4.764 -17.675  1.00  0.00    -0.116 N 
HETATM   19  C4  UNL     1      33.862   3.711 -17.066  1.00  0.00     0.706 C 
HETATM   20  N6  UNL     1      33.047   3.935 -16.128  1.00  0.00    -0.232 N 
HETATM   21  N7  UNL     1      34.056   2.366 -17.517  1.00  0.00    -0.128 N 
ATOM     22  H62 UNL     1      32.909   4.893 -15.808  1.00  0.00     0.174 HD
ATOM     23  H61 UNL     1      32.529   3.175 -15.688  1.00  0.00     0.174 HD
ATOM     24  H7  UNL     1      34.260   1.625 -16.846  1.00  0.00     0.205 HD
ATOM     25  H5  UNL     1      34.219   5.718 -17.635  1.00  0.00     0.207 HD
BRANCH  21  26
HETATM   26  N8  UNL     1      33.964   2.076 -18.877  1.00  0.00    -0.240 N 
HETATM   27  C5  UNL     1      32.841   2.556 -19.602  1.00  0.00     0.347 C 
HETATM   28  N9  UNL     1      32.713   2.278 -21.003  1.00  0.00    -0.038 NA
HETATM   29  O1  UNL     1      31.932   3.227 -19.069  1.00  0.00    -0.249 OA
ATOM     30  H8  UNL     1      34.689   1.531 -19.343  1.00  0.00     0.192 HD
ENDBRANCH  21  26
ENDBRANCH  15  18
ENDBRANCH   4  14
BRANCH   1  31
HETATM   31  N1  UNL     1      33.298   8.626 -20.816  1.00  0.00    -0.167 N 
HETATM   32  C1  UNL     1      34.246   9.683 -20.938  1.00  0.00     0.177 C 
BRANCH  31  33
HETATM   33  C11 UNL     1      31.946   8.792 -20.487  1.00  0.00     0.721 A 
HETATM   34  N13 UNL     1      31.411   8.412 -19.261  1.00  0.00    -0.115 N 
HETATM   35  N14 UNL     1      30.136   8.663 -19.213  1.00  0.00    -0.213 N 
ATOM     36  H13 UNL     1      31.947   7.992 -18.501  1.00  0.00     0.207 HD
HETATM   37  N15 UNL     1      29.806   9.195 -20.359  1.00  0.00    -0.209 N 
ATOM     38  H14 UNL     1      29.512   8.479 -18.427  1.00  0.00     0.210 HD
HETATM   39  N16 UNL     1      30.910   9.282 -21.155  1.00  0.00    -0.081 N 
ATOM     40  H15 UNL     1      28.868   9.500 -20.619  1.00  0.00     0.210 HD
BRANCH  39  41
HETATM   41  C12 UNL     1      30.855   9.850 -22.482  1.00  0.00     0.398 C 
BRANCH  41  42
HETATM   42  N17 UNL     1      31.045  11.309 -22.428  1.00  0.00    -0.061 N 
ATOM     43 3H17 UNL     1      31.270  11.628 -21.487  1.00  0.00     0.276 HD
ATOM     44 2H17 UNL     1      31.905  11.597 -22.895  1.00  0.00     0.276 HD
ATOM     45 1H17 UNL     1      30.229  11.791 -22.807  1.00  0.00     0.276 HD
ENDBRANCH  41  42
ENDBRANCH  39  41
ENDBRANCH  31  33
ENDBRANCH   1  31
BRANCH   8  46
HETATM   46  C8  UNL     1      33.607   3.516 -24.250  1.00  0.00     0.225 C 
BRANCH  46  47
HETATM   47  O2  UNL     1      32.623   2.608 -23.934  1.00  0.00    -0.395 OA
ATOM     48  H2  UNL     1      32.981   1.828 -23.526  1.00  0.00     0.209 HD
ENDBRANCH  46  47
ENDBRANCH   8  46
TORSDOF 9
ENDMDL
