MODEL 1
REMARK VINA RESULT: -8.679890669      0.000      0.000
REMARK  11 active torsions:
REMARK  status: ('A' for Active; 'I' for Inactive)
REMARK    1  A    between atoms: O1_2  and  C2_3 
REMARK    2  A    between atoms: C2_3  and  C3_5 
REMARK    3  A    between atoms: C4_8  and  C5_9 
REMARK    4  A    between atoms: C5_9  and  N2_10 
REMARK    5  A    between atoms: N2_10  and  C6_12 
REMARK    6  A    between atoms: C8_21  and  C9_22 
REMARK    7  A    between atoms: C9_22  and  N8_23 
REMARK    8  A    between atoms: C12_30  and  N11_31 
REMARK    9  A    between atoms: N12_34  and  N13_35 
REMARK   10  A    between atoms: N14_39  and  N15_40 
REMARK   11  A    between atoms: N15_40  and  N16_41 
ROOT
HETATM    1  C9  UNL     1      34.015   4.173 -16.763  1.00  0.00     0.151 C 
ENDROOT
BRANCH   1   2
HETATM    2  C8  UNL     1      34.139   3.266 -15.631  1.00  0.00     0.086 A 
HETATM    3  C3  UNL     1      33.013   3.028 -14.817  1.00  0.00     0.138 A 
HETATM    4  N1  UNL     1      33.378   2.159 -13.857  1.00  0.00    -0.338 N 
HETATM    5  C4  UNL     1      34.661   1.829 -14.007  1.00  0.00     0.102 A 
ATOM      6  H1  UNL     1      32.764   1.806 -13.124  1.00  0.00     0.167 HD
HETATM    7  N7  UNL     1      35.102   2.523 -15.104  1.00  0.00    -0.336 N 
HETATM    8  C7  UNL     1      36.441   2.410 -15.599  1.00  0.00     0.158 C 
BRANCH   3   9
HETATM    9  C2  UNL     1      31.668   3.577 -14.937  1.00  0.00     0.312 C 
HETATM   10  O2  UNL     1      30.742   3.001 -15.539  1.00  0.00    -0.258 OA
BRANCH   9  11
HETATM   11  O1  UNL     1      31.347   4.814 -14.365  1.00  0.00    -0.321 OA
HETATM   12  C1  UNL     1      30.706   4.895 -13.104  1.00  0.00     0.213 C 
ENDBRANCH   9  11
ENDBRANCH   3   9
BRANCH   5  13
HETATM   13  C5  UNL     1      35.461   0.896 -13.161  1.00  0.00     0.214 C 
BRANCH  13  14
HETATM   14  N2  UNL     1      35.054  -0.466 -13.318  1.00  0.00    -0.217 N 
ATOM     15  H2  UNL     1      35.236  -0.948 -14.198  1.00  0.00     0.178 HD
BRANCH  14  16
HETATM   16  C6  UNL     1      34.463  -1.087 -12.367  1.00  0.00     0.704 A 
HETATM   17  N3  UNL     1      33.151  -1.033 -12.104  1.00  0.00    -0.117 N 
HETATM   18  N4  UNL     1      32.869  -1.789 -11.057  1.00  0.00     0.006 NA
ATOM     19  H3  UNL     1      32.470  -0.488 -12.633  1.00  0.00     0.202 HD
HETATM   20  N5  UNL     1      34.022  -2.311 -10.678  1.00  0.00     0.006 NA
HETATM   21  N6  UNL     1      35.012  -1.905 -11.453  1.00  0.00    -0.117 N 
ATOM     22  H6  UNL     1      35.996  -2.161 -11.374  1.00  0.00     0.202 HD
ENDBRANCH  14  16
ENDBRANCH  13  14
ENDBRANCH   5  13
ENDBRANCH   1   2
BRANCH   1  23
HETATM   23  N8  UNL     1      33.825   3.685 -18.060  1.00  0.00    -0.239 N 
HETATM   24  C10 UNL     1      32.568   3.184 -18.478  1.00  0.00     0.209 A 
HETATM   25  N9  UNL     1      32.356   2.725 -19.658  1.00  0.00    -0.333 N 
HETATM   26  C11 UNL     1      33.350   2.671 -20.668  1.00  0.00     0.172 A 
ATOM     27  H9  UNL     1      31.423   2.382 -19.882  1.00  0.00     0.168 HD
HETATM   28  N10 UNL     1      33.367   2.247 -21.943  1.00  0.00    -0.171 N 
HETATM   29  C13 UNL     1      34.616   3.152 -20.322  1.00  0.00     0.227 A 
HETATM   30  C12 UNL     1      34.604   2.439 -22.431  1.00  0.00     0.700 A 
ATOM     31  H10 UNL     1      32.578   1.849 -22.452  1.00  0.00     0.186 HD
HETATM   32  N12 UNL     1      35.348   2.984 -21.444  1.00  0.00    -0.070 N 
HETATM   33  N14 UNL     1      34.853   3.660 -19.015  1.00  0.00    -0.150 N 
BRANCH  30  34
HETATM   34  N11 UNL     1      34.970   2.143 -23.625  1.00  0.00    -0.233 N 
ATOM     35 2H11 UNL     1      34.534   2.424 -24.503  1.00  0.00     0.174 HD
ATOM     36 1H11 UNL     1      35.778   1.564 -23.856  1.00  0.00     0.174 HD
ENDBRANCH  30  34
BRANCH  32  37
HETATM   37  N13 UNL     1      36.688   3.320 -21.592  1.00  0.00    -0.322 N 
ATOM     38 2H13 UNL     1      37.180   3.417 -22.480  1.00  0.00     0.178 HD
ATOM     39 1H13 UNL     1      37.311   3.504 -20.806  1.00  0.00     0.178 HD
ENDBRANCH  32  37
BRANCH  33  40
HETATM   40  N15 UNL     1      36.142   4.124 -18.733  1.00  0.00    -0.004 NA
BRANCH  40  41
HETATM   41  N16 UNL     1      36.345   5.440 -19.097  1.00  0.00    -0.327 N 
ATOM     42 2H16 UNL     1      36.519   5.718 -20.062  1.00  0.00     0.174 HD
ATOM     43 1H16 UNL     1      36.305   6.090 -18.312  1.00  0.00     0.174 HD
ENDBRANCH  40  41
ENDBRANCH  33  40
ENDBRANCH   1  23
TORSDOF 11
ENDMDL
MODEL 2
REMARK VINA RESULT: -8.491036544      1.316      1.477
REMARK  11 active torsions:
REMARK  status: ('A' for Active; 'I' for Inactive)
REMARK    1  A    between atoms: O1_2  and  C2_3 
REMARK    2  A    between atoms: C2_3  and  C3_5 
REMARK    3  A    between atoms: C4_8  and  C5_9 
REMARK    4  A    between atoms: C5_9  and  N2_10 
REMARK    5  A    between atoms: N2_10  and  C6_12 
REMARK    6  A    between atoms: C8_21  and  C9_22 
REMARK    7  A    between atoms: C9_22  and  N8_23 
REMARK    8  A    between atoms: C12_30  and  N11_31 
REMARK    9  A    between atoms: N12_34  and  N13_35 
REMARK   10  A    between atoms: N14_39  and  N15_40 
REMARK   11  A    between atoms: N15_40  and  N16_41 
ROOT
HETATM    1  C9  UNL     1      34.074   4.093 -16.778  1.00  0.00     0.151 C 
ENDROOT
BRANCH   1   2
HETATM    2  C8  UNL     1      34.181   3.153 -15.672  1.00  0.00     0.086 A 
HETATM    3  C3  UNL     1      33.061   2.940 -14.843  1.00  0.00     0.138 A 
HETATM    4  N1  UNL     1      33.407   2.032 -13.912  1.00  0.00    -0.338 N 
HETATM    5  C4  UNL     1      34.673   1.655 -14.095  1.00  0.00     0.102 A 
ATOM      6  H1  UNL     1      32.793   1.685 -13.176  1.00  0.00     0.167 HD
HETATM    7  N7  UNL     1      35.122   2.358 -15.182  1.00  0.00    -0.336 N 
HETATM    8  C7  UNL     1      36.446   2.204 -15.706  1.00  0.00     0.158 C 
BRANCH   3   9
HETATM    9  C2  UNL     1      31.738   3.545 -14.923  1.00  0.00     0.312 C 
HETATM   10  O2  UNL     1      30.789   3.041 -15.552  1.00  0.00    -0.258 OA
BRANCH   9  11
HETATM   11  O1  UNL     1      31.466   4.758 -14.279  1.00  0.00    -0.321 OA
HETATM   12  C1  UNL     1      30.646   4.808 -13.124  1.00  0.00     0.213 C 
ENDBRANCH   9  11
ENDBRANCH   3   9
BRANCH   5  13
HETATM   13  C5  UNL     1      35.450   0.669 -13.287  1.00  0.00     0.214 C 
BRANCH  13  14
HETATM   14  N2  UNL     1      35.774   1.168 -11.986  1.00  0.00    -0.217 N 
ATOM     15  H2  UNL     1      35.697   2.167 -11.796  1.00  0.00     0.178 HD
BRANCH  14  16
HETATM   16  C6  UNL     1      36.159   0.375 -11.058  1.00  0.00     0.704 A 
HETATM   17  N3  UNL     1      37.008  -0.648 -11.216  1.00  0.00    -0.117 N 
HETATM   18  N4  UNL     1      37.194  -1.263 -10.061  1.00  0.00     0.006 NA
ATOM     19  H3  UNL     1      37.447  -0.914 -12.098  1.00  0.00     0.202 HD
HETATM   20  N5  UNL     1      36.451  -0.607  -9.188  1.00  0.00     0.006 NA
HETATM   21  N6  UNL     1      35.808   0.395  -9.761  1.00  0.00    -0.117 N 
ATOM     22  H6  UNL     1      35.173   1.053  -9.310  1.00  0.00     0.202 HD
ENDBRANCH  14  16
ENDBRANCH  13  14
ENDBRANCH   5  13
ENDBRANCH   1   2
BRANCH   1  23
HETATM   23  N8  UNL     1      33.865   3.645 -18.087  1.00  0.00    -0.239 N 
HETATM   24  C10 UNL     1      32.594   3.185 -18.511  1.00  0.00     0.209 A 
HETATM   25  N9  UNL     1      32.366   2.764 -19.703  1.00  0.00    -0.333 N 
HETATM   26  C11 UNL     1      33.353   2.713 -20.719  1.00  0.00     0.172 A 
ATOM     27  H9  UNL     1      31.423   2.449 -19.931  1.00  0.00     0.168 HD
HETATM   28  N10 UNL     1      33.354   2.323 -22.005  1.00  0.00    -0.171 N 
HETATM   29  C13 UNL     1      34.633   3.154 -20.367  1.00  0.00     0.227 A 
HETATM   30  C12 UNL     1      34.592   2.498 -22.494  1.00  0.00     0.700 A 
ATOM     31  H10 UNL     1      32.553   1.958 -22.520  1.00  0.00     0.186 HD
HETATM   32  N12 UNL     1      35.354   2.999 -21.498  1.00  0.00    -0.070 N 
HETATM   33  N14 UNL     1      34.888   3.621 -19.048  1.00  0.00    -0.150 N 
BRANCH  30  34
HETATM   34  N11 UNL     1      34.945   2.226 -23.698  1.00  0.00    -0.233 N 
ATOM     35 2H11 UNL     1      34.971   1.313 -24.153  1.00  0.00     0.174 HD
ATOM     36 1H11 UNL     1      35.258   2.917 -24.380  1.00  0.00     0.174 HD
ENDBRANCH  30  34
BRANCH  32  37
HETATM   37  N13 UNL     1      36.701   3.307 -21.643  1.00  0.00    -0.322 N 
ATOM     38 2H13 UNL     1      37.075   4.097 -22.170  1.00  0.00     0.178 HD
ATOM     39 1H13 UNL     1      37.452   2.756 -21.227  1.00  0.00     0.178 HD
ENDBRANCH  32  37
BRANCH  33  40
HETATM   40  N15 UNL     1      36.188   4.046 -18.761  1.00  0.00    -0.004 NA
BRANCH  40  41
HETATM   41  N16 UNL     1      36.415   5.372 -19.067  1.00  0.00    -0.327 N 
ATOM     42 2H16 UNL     1      36.493   5.705 -20.028  1.00  0.00     0.174 HD
ATOM     43 1H16 UNL     1      36.493   5.972 -18.246  1.00  0.00     0.174 HD
ENDBRANCH  40  41
ENDBRANCH  33  40
ENDBRANCH   1  23
TORSDOF 11
ENDMDL
MODEL 3
REMARK VINA RESULT: -8.423784964      2.813      7.992
REMARK  11 active torsions:
REMARK  status: ('A' for Active; 'I' for Inactive)
REMARK    1  A    between atoms: O1_2  and  C2_3 
REMARK    2  A    between atoms: C2_3  and  C3_5 
REMARK    3  A    between atoms: C4_8  and  C5_9 
REMARK    4  A    between atoms: C5_9  and  N2_10 
REMARK    5  A    between atoms: N2_10  and  C6_12 
REMARK    6  A    between atoms: C8_21  and  C9_22 
REMARK    7  A    between atoms: C9_22  and  N8_23 
REMARK    8  A    between atoms: C12_30  and  N11_31 
REMARK    9  A    between atoms: N12_34  and  N13_35 
REMARK   10  A    between atoms: N14_39  and  N15_40 
REMARK   11  A    between atoms: N15_40  and  N16_41 
ROOT
HETATM    1  C9  UNL     1      34.069   2.602 -17.092  1.00  0.00     0.151 C 
ENDROOT
BRANCH   1   2
HETATM    2  C8  UNL     1      33.741   4.013 -17.236  1.00  0.00     0.086 A 
HETATM    3  C3  UNL     1      32.707   4.560 -16.449  1.00  0.00     0.138 A 
HETATM    4  N1  UNL     1      32.604   5.865 -16.758  1.00  0.00    -0.338 N 
HETATM    5  C4  UNL     1      33.504   6.184 -17.687  1.00  0.00     0.102 A 
ATOM      6  H1  UNL     1      31.937   6.514 -16.342  1.00  0.00     0.167 HD
HETATM    7  N7  UNL     1      34.188   5.028 -17.961  1.00  0.00    -0.336 N 
HETATM    8  C7  UNL     1      35.263   4.975 -18.906  1.00  0.00     0.158 C 
BRANCH   3   9
HETATM    9  C2  UNL     1      31.867   3.899 -15.458  1.00  0.00     0.312 C 
HETATM   10  O2  UNL     1      30.989   3.064 -15.749  1.00  0.00    -0.258 OA
BRANCH   9  11
HETATM   11  O1  UNL     1      32.012   4.181 -14.095  1.00  0.00    -0.321 OA
HETATM   12  C1  UNL     1      30.917   4.637 -13.320  1.00  0.00     0.213 C 
ENDBRANCH   9  11
ENDBRANCH   3   9
BRANCH   5  13
HETATM   13  C5  UNL     1      33.730   7.523 -18.309  1.00  0.00     0.214 C 
BRANCH  13  14
HETATM   14  N2  UNL     1      32.531   8.301 -18.372  1.00  0.00    -0.217 N 
ATOM     15  H2  UNL     1      32.387   9.059 -17.706  1.00  0.00     0.178 HD
BRANCH  14  16
HETATM   16  C6  UNL     1      31.637   8.056 -19.255  1.00  0.00     0.704 A 
HETATM   17  N3  UNL     1      31.784   7.228 -20.297  1.00  0.00    -0.117 N 
HETATM   18  N4  UNL     1      30.673   7.202 -21.013  1.00  0.00     0.006 NA
ATOM     19  H3  UNL     1      32.628   6.695 -20.508  1.00  0.00     0.202 HD
HETATM   20  N5  UNL     1      29.839   8.023 -20.401  1.00  0.00     0.006 NA
HETATM   21  N6  UNL     1      30.394   8.559 -19.328  1.00  0.00    -0.117 N 
ATOM     22  H6  UNL     1      29.964   9.222 -18.683  1.00  0.00     0.202 HD
ENDBRANCH  14  16
ENDBRANCH  13  14
ENDBRANCH   5  13
ENDBRANCH   1   2
BRANCH   1  23
HETATM   23  N8  UNL     1      35.026   2.176 -16.164  1.00  0.00    -0.239 N 
HETATM   24  C10 UNL     1      36.373   2.603 -16.252  1.00  0.00     0.209 A 
HETATM   25  N9  UNL     1      37.279   2.231 -15.421  1.00  0.00    -0.333 N 
HETATM   26  C11 UNL     1      37.033   1.357 -14.332  1.00  0.00     0.172 A 
ATOM     27  H9  UNL     1      38.227   2.582 -15.552  1.00  0.00     0.168 HD
HETATM   28  N10 UNL     1      37.797   0.839 -13.356  1.00  0.00    -0.171 N 
HETATM   29  C13 UNL     1      35.721   0.897 -14.187  1.00  0.00     0.227 A 
HETATM   30  C12 UNL     1      37.021   0.059 -12.586  1.00  0.00     0.700 A 
ATOM     31  H10 UNL     1      38.794   1.008 -13.224  1.00  0.00     0.186 HD
HETATM   32  N12 UNL     1      35.771   0.102 -13.097  1.00  0.00    -0.070 N 
HETATM   33  N14 UNL     1      34.715   1.308 -15.106  1.00  0.00    -0.150 N 
BRANCH  30  34
HETATM   34  N11 UNL     1      37.432  -0.591 -11.559  1.00  0.00    -0.233 N 
ATOM     35 2H11 UNL     1      38.204  -0.356 -10.935  1.00  0.00     0.174 HD
ATOM     36 1H11 UNL     1      37.022  -1.463 -11.223  1.00  0.00     0.174 HD
ENDBRANCH  30  34
BRANCH  32  37
HETATM   37  N13 UNL     1      34.697  -0.590 -12.553  1.00  0.00    -0.322 N 
ATOM     38 2H13 UNL     1      34.682  -1.587 -12.337  1.00  0.00     0.178 HD
ATOM     39 1H13 UNL     1      33.807  -0.152 -12.317  1.00  0.00     0.178 HD
ENDBRANCH  32  37
BRANCH  33  40
HETATM   40  N15 UNL     1      33.424   0.811 -14.905  1.00  0.00    -0.004 NA
BRANCH  40  41
HETATM   41  N16 UNL     1      32.772   1.387 -13.835  1.00  0.00    -0.327 N 
ATOM     42 2H16 UNL     1      32.769   0.966 -12.906  1.00  0.00     0.174 HD
ATOM     43 1H16 UNL     1      32.302   2.262 -14.068  1.00  0.00     0.174 HD
ENDBRANCH  40  41
ENDBRANCH  33  40
ENDBRANCH   1  23
TORSDOF 11
ENDMDL
MODEL 4
REMARK VINA RESULT: -8.347473851      1.533      2.361
REMARK  11 active torsions:
REMARK  status: ('A' for Active; 'I' for Inactive)
REMARK    1  A    between atoms: O1_2  and  C2_3 
REMARK    2  A    between atoms: C2_3  and  C3_5 
REMARK    3  A    between atoms: C4_8  and  C5_9 
REMARK    4  A    between atoms: C5_9  and  N2_10 
REMARK    5  A    between atoms: N2_10  and  C6_12 
REMARK    6  A    between atoms: C8_21  and  C9_22 
REMARK    7  A    between atoms: C9_22  and  N8_23 
REMARK    8  A    between atoms: C12_30  and  N11_31 
REMARK    9  A    between atoms: N12_34  and  N13_35 
REMARK   10  A    between atoms: N14_39  and  N15_40 
REMARK   11  A    between atoms: N15_40  and  N16_41 
ROOT
HETATM    1  C9  UNL     1      34.185   3.881 -16.461  1.00  0.00     0.151 C 
ENDROOT
BRANCH   1   2
HETATM    2  C8  UNL     1      34.243   2.885 -15.402  1.00  0.00     0.086 A 
HETATM    3  C3  UNL     1      33.076   2.601 -14.664  1.00  0.00     0.138 A 
HETATM    4  N1  UNL     1      33.384   1.652 -13.761  1.00  0.00    -0.338 N 
HETATM    5  C4  UNL     1      34.668   1.314 -13.876  1.00  0.00     0.102 A 
ATOM      6  H1  UNL     1      32.731   1.251 -13.088  1.00  0.00     0.167 HD
HETATM    7  N7  UNL     1      35.170   2.086 -14.892  1.00  0.00    -0.336 N 
HETATM    8  C7  UNL     1      36.530   1.993 -15.331  1.00  0.00     0.158 C 
BRANCH   3   9
HETATM    9  C2  UNL     1      31.746   3.179 -14.802  1.00  0.00     0.312 C 
HETATM   10  O2  UNL     1      31.092   3.153 -15.862  1.00  0.00    -0.258 OA
BRANCH   9  11
HETATM   11  O1  UNL     1      31.124   3.810 -13.718  1.00  0.00    -0.321 OA
HETATM   12  C1  UNL     1      30.675   5.152 -13.809  1.00  0.00     0.213 C 
ENDBRANCH   9  11
ENDBRANCH   3   9
BRANCH   5  13
HETATM   13  C5  UNL     1      35.416   0.304 -13.071  1.00  0.00     0.214 C 
BRANCH  13  14
HETATM   14  N2  UNL     1      35.989   0.869 -11.889  1.00  0.00    -0.217 N 
ATOM     15  H2  UNL     1      36.167   1.872 -11.845  1.00  0.00     0.178 HD
BRANCH  14  16
HETATM   16  C6  UNL     1      36.281   0.130 -10.885  1.00  0.00     0.704 A 
HETATM   17  N3  UNL     1      35.787   0.271  -9.648  1.00  0.00    -0.117 N 
HETATM   18  N4  UNL     1      36.293  -0.654  -8.851  1.00  0.00     0.006 NA
ATOM     19  H3  UNL     1      35.119   0.987  -9.363  1.00  0.00     0.202 HD
HETATM   20  N5  UNL     1      37.104  -1.368  -9.610  1.00  0.00     0.006 NA
HETATM   21  N6  UNL     1      37.121  -0.918 -10.853  1.00  0.00    -0.117 N 
ATOM     22  H6  UNL     1      37.662  -1.293 -11.632  1.00  0.00     0.202 HD
ENDBRANCH  14  16
ENDBRANCH  13  14
ENDBRANCH   5  13
ENDBRANCH   1   2
BRANCH   1  23
HETATM   23  N8  UNL     1      34.794   3.653 -17.700  1.00  0.00    -0.239 N 
HETATM   24  C10 UNL     1      36.178   3.885 -17.891  1.00  0.00     0.209 A 
HETATM   25  N9  UNL     1      36.770   3.690 -19.013  1.00  0.00    -0.333 N 
HETATM   26  C11 UNL     1      36.109   3.223 -20.178  1.00  0.00     0.172 A 
ATOM     27  H9  UNL     1      37.770   3.880 -19.071  1.00  0.00     0.168 HD
HETATM   28  N10 UNL     1      36.505   2.950 -21.432  1.00  0.00    -0.171 N 
HETATM   29  C13 UNL     1      34.739   2.974 -20.059  1.00  0.00     0.227 A 
HETATM   30  C12 UNL     1      35.434   2.532 -22.127  1.00  0.00     0.700 A 
ATOM     31  H10 UNL     1      37.454   3.043 -21.795  1.00  0.00     0.186 HD
HETATM   32  N12 UNL     1      34.375   2.551 -21.288  1.00  0.00    -0.070 N 
HETATM   33  N14 UNL     1      34.080   3.189 -18.817  1.00  0.00    -0.150 N 
BRANCH  30  34
HETATM   34  N11 UNL     1      35.457   2.186 -23.363  1.00  0.00    -0.233 N 
ATOM     35 2H11 UNL     1      35.293   1.260 -23.759  1.00  0.00     0.174 HD
ATOM     36 1H11 UNL     1      35.649   2.821 -24.138  1.00  0.00     0.174 HD
ENDBRANCH  30  34
BRANCH  32  37
HETATM   37  N13 UNL     1      33.092   2.178 -21.666  1.00  0.00    -0.322 N 
ATOM     38 2H13 UNL     1      32.759   2.089 -22.627  1.00  0.00     0.178 HD
ATOM     39 1H13 UNL     1      32.351   1.956 -21.001  1.00  0.00     0.178 HD
ENDBRANCH  32  37
BRANCH  33  40
HETATM   40  N15 UNL     1      32.709   2.922 -18.765  1.00  0.00    -0.004 NA
BRANCH  40  41
HETATM   41  N16 UNL     1      31.923   4.043 -18.930  1.00  0.00    -0.327 N 
ATOM     42 2H16 UNL     1      32.312   4.985 -18.951  1.00  0.00     0.174 HD
ATOM     43 1H16 UNL     1      30.929   3.833 -19.026  1.00  0.00     0.174 HD
ENDBRANCH  40  41
ENDBRANCH  33  40
ENDBRANCH   1  23
TORSDOF 11
ENDMDL
MODEL 5
REMARK VINA RESULT: -8.309947490      1.307      1.427
REMARK  11 active torsions:
REMARK  status: ('A' for Active; 'I' for Inactive)
REMARK    1  A    between atoms: O1_2  and  C2_3 
REMARK    2  A    between atoms: C2_3  and  C3_5 
REMARK    3  A    between atoms: C4_8  and  C5_9 
REMARK    4  A    between atoms: C5_9  and  N2_10 
REMARK    5  A    between atoms: N2_10  and  C6_12 
REMARK    6  A    between atoms: C8_21  and  C9_22 
REMARK    7  A    between atoms: C9_22  and  N8_23 
REMARK    8  A    between atoms: C12_30  and  N11_31 
REMARK    9  A    between atoms: N12_34  and  N13_35 
REMARK   10  A    between atoms: N14_39  and  N15_40 
REMARK   11  A    between atoms: N15_40  and  N16_41 
ROOT
HETATM    1  C9  UNL     1      34.008   4.171 -16.386  1.00  0.00     0.151 C 
ENDROOT
BRANCH   1   2
HETATM    2  C8  UNL     1      34.164   3.203 -15.310  1.00  0.00     0.086 A 
HETATM    3  C3  UNL     1      33.034   2.832 -14.553  1.00  0.00     0.138 A 
HETATM    4  N1  UNL     1      33.433   1.930 -13.638  1.00  0.00    -0.338 N 
HETATM    5  C4  UNL     1      34.741   1.704 -13.762  1.00  0.00     0.102 A 
ATOM      6  H1  UNL     1      32.825   1.486 -12.950  1.00  0.00     0.167 HD
HETATM    7  N7  UNL     1      35.163   2.498 -14.797  1.00  0.00    -0.336 N 
HETATM    8  C7  UNL     1      36.521   2.516 -15.250  1.00  0.00     0.158 C 
BRANCH   3   9
HETATM    9  C2  UNL     1      31.657   3.288 -14.686  1.00  0.00     0.312 C 
HETATM   10  O2  UNL     1      30.978   3.132 -15.719  1.00  0.00    -0.258 OA
BRANCH   9  11
HETATM   11  O1  UNL     1      31.016   3.944 -13.629  1.00  0.00    -0.321 OA
HETATM   12  C1  UNL     1      30.612   5.299 -13.743  1.00  0.00     0.213 C 
ENDBRANCH   9  11
ENDBRANCH   3   9
BRANCH   5  13
HETATM   13  C5  UNL     1      35.582   0.779 -12.948  1.00  0.00     0.214 C 
BRANCH  13  14
HETATM   14  N2  UNL     1      35.203  -0.590 -13.116  1.00  0.00    -0.217 N 
ATOM     15  H2  UNL     1      35.440  -1.076 -13.980  1.00  0.00     0.178 HD
BRANCH  14  16
HETATM   16  C6  UNL     1      34.569  -1.211 -12.194  1.00  0.00     0.704 A 
HETATM   17  N3  UNL     1      33.249  -1.141 -11.977  1.00  0.00    -0.117 N 
HETATM   18  N4  UNL     1      32.918  -1.903 -10.949  1.00  0.00     0.006 NA
ATOM     19  H3  UNL     1      32.595  -0.581 -12.524  1.00  0.00     0.202 HD
HETATM   20  N5  UNL     1      34.049  -2.446 -10.534  1.00  0.00     0.006 NA
HETATM   21  N6  UNL     1      35.072  -2.047 -11.269  1.00  0.00    -0.117 N 
ATOM     22  H6  UNL     1      36.049  -2.319 -11.158  1.00  0.00     0.202 HD
ENDBRANCH  14  16
ENDBRANCH  13  14
ENDBRANCH   5  13
ENDBRANCH   1   2
BRANCH   1  23
HETATM   23  N8  UNL     1      33.928   3.758 -17.721  1.00  0.00    -0.239 N 
HETATM   24  C10 UNL     1      34.026   2.390 -18.072  1.00  0.00     0.209 A 
HETATM   25  N9  UNL     1      33.960   1.974 -19.285  1.00  0.00    -0.333 N 
HETATM   26  C11 UNL     1      33.783   2.833 -20.400  1.00  0.00     0.172 A 
ATOM     27  H9  UNL     1      34.040   0.972 -19.457  1.00  0.00     0.168 HD
HETATM   28  N10 UNL     1      33.686   2.638 -21.726  1.00  0.00    -0.171 N 
HETATM   29  C13 UNL     1      33.678   4.199 -20.123  1.00  0.00     0.227 A 
HETATM   30  C12 UNL     1      33.522   3.834 -22.313  1.00  0.00     0.700 A 
ATOM     31  H10 UNL     1      33.730   1.737 -22.203  1.00  0.00     0.186 HD
HETATM   32  N12 UNL     1      33.519   4.768 -21.337  1.00  0.00    -0.070 N 
HETATM   33  N14 UNL     1      33.750   4.662 -18.780  1.00  0.00    -0.150 N 
BRANCH  30  34
HETATM   34  N11 UNL     1      33.395   4.013 -23.578  1.00  0.00    -0.233 N 
ATOM     35 2H11 UNL     1      33.587   3.349 -24.328  1.00  0.00     0.174 HD
ATOM     36 1H11 UNL     1      33.072   4.879 -24.011  1.00  0.00     0.174 HD
ENDBRANCH  30  34
BRANCH  32  37
HETATM   37  N13 UNL     1      33.370   6.127 -21.578  1.00  0.00    -0.322 N 
ATOM     38 2H13 UNL     1      33.926   6.678 -22.232  1.00  0.00     0.178 HD
ATOM     39 1H13 UNL     1      32.674   6.708 -21.110  1.00  0.00     0.178 HD
ENDBRANCH  32  37
BRANCH  33  40
HETATM   40  N15 UNL     1      33.640   6.040 -18.572  1.00  0.00    -0.004 NA
BRANCH  40  41
HETATM   41  N16 UNL     1      34.838   6.714 -18.693  1.00  0.00    -0.327 N 
ATOM     42 2H16 UNL     1      34.904   7.636 -19.123  1.00  0.00     0.174 HD
ATOM     43 1H16 UNL     1      35.633   6.201 -18.314  1.00  0.00     0.174 HD
ENDBRANCH  40  41
ENDBRANCH  33  40
ENDBRANCH   1  23
TORSDOF 11
ENDMDL
