MODEL 1
REMARK VINA RESULT: -8.436180899      0.000      0.000
REMARK  10 active torsions:
REMARK  status: ('A' for Active; 'I' for Inactive)
REMARK    1  A    between atoms: C2_2  and  C4_4 
REMARK    2  A    between atoms: C5_5  and  C6_6 
REMARK    3  A    between atoms: C8_10  and  S1_11 
REMARK    4  A    between atoms: S1_11  and  C9_12 
REMARK    5  A    between atoms: C9_12  and  C11_14 
REMARK    6  A    between atoms: N4_23  and  C16_24 
REMARK    7  A    between atoms: C17_26  and  C18_27 
REMARK    8  A    between atoms: C18_27  and  O2_28 
REMARK    9  A    between atoms: C19_30  and  O3_31 
REMARK   10  A    between atoms: C20_33  and  O4_34 
ROOT
HETATM    1  C6  UNL     1      14.629  -3.230  11.943  1.00  0.00     0.111 A 
HETATM    2  N1  UNL     1      14.266  -4.175  12.882  1.00  0.00    -0.337 N 
ATOM      3  H1  UNL     1      13.388  -4.165  13.403  1.00  0.00     0.167 HD
HETATM    4  C7  UNL     1      15.210  -5.099  13.017  1.00  0.00     0.112 A 
HETATM    5  C8  UNL     1      15.341  -6.240  13.804  1.00  0.00     0.102 A 
HETATM    6  N2  UNL     1      16.468  -6.946  13.659  1.00  0.00    -0.345 N 
ATOM      7  H2  UNL     1      16.588  -7.787  14.223  1.00  0.00     0.167 HD
HETATM    8  C14 UNL     1      17.451  -6.604  12.806  1.00  0.00     0.183 A 
HETATM    9  N3  UNL     1      17.273  -5.491  12.069  1.00  0.00    -0.336 N 
ATOM     10  H3  UNL     1      18.012  -5.226  11.419  1.00  0.00     0.168 HD
HETATM   11  C15 UNL     1      16.201  -4.722  12.134  1.00  0.00     0.142 A 
HETATM   12  N4  UNL     1      15.828  -3.579  11.488  1.00  0.00    -0.287 N 
ENDROOT
BRANCH  12  13
HETATM   13  C16 UNL     1      16.584  -2.882  10.507  1.00  0.00     0.263 C 
HETATM   14  O1  UNL     1      15.863  -1.843   9.913  1.00  0.00    -0.353 OA
HETATM   15  C17 UNL     1      16.782  -1.106   9.174  1.00  0.00     0.179 C 
HETATM   16  C19 UNL     1      18.158  -1.367   9.741  1.00  0.00     0.182 C 
HETATM   17  C20 UNL     1      17.749  -2.068  11.062  1.00  0.00     0.198 C 
BRANCH  15  18
HETATM   18  C18 UNL     1      16.483   0.365   9.363  1.00  0.00     0.198 C 
BRANCH  18  19
HETATM   19  O2  UNL     1      15.367   0.729   8.608  1.00  0.00    -0.398 OA
ATOM     20  H2  UNL     1      15.606   1.390   7.970  1.00  0.00     0.209 HD
ENDBRANCH  18  19
ENDBRANCH  15  18
BRANCH  16  21
HETATM   21  O3  UNL     1      18.871  -0.231  10.024  1.00  0.00    -0.390 OA
ATOM     22  H3  UNL     1      18.407   0.391  10.572  1.00  0.00     0.210 HD
ENDBRANCH  16  21
BRANCH  17  23
HETATM   23  O4  UNL     1      18.788  -2.879  11.408  1.00  0.00    -0.388 OA
ATOM     24  H4  UNL     1      19.540  -2.724  10.849  1.00  0.00     0.210 HD
ENDBRANCH  17  23
ENDBRANCH  12  13
BRANCH   1  25
HETATM   25  C5  UNL     1      13.728  -2.141  11.653  1.00  0.00     0.045 C 
HETATM   26  C4  UNL     1      12.523  -2.140  11.197  1.00  0.00    -0.019 C 
BRANCH  26  27
HETATM   27  C2  UNL     1      11.758  -0.863  10.966  1.00  0.00    -0.000 C 
HETATM   28  C1  UNL     1      12.654   0.273  10.559  1.00  0.00     0.013 C 
HETATM   29  C3  UNL     1      11.124  -0.500  12.293  1.00  0.00     0.013 C 
ENDBRANCH  26  27
ENDBRANCH   1  25
BRANCH   5  30
HETATM   30  S1  UNL     1      14.064  -6.722  14.917  1.00  0.00    -0.105 SA
BRANCH  30  31
HETATM   31  C9  UNL     1      14.575  -7.633  16.353  1.00  0.00     0.053 C 
HETATM   32  C10 UNL     1      13.433  -8.364  17.038  1.00  0.00     0.022 C 
BRANCH  31  33
HETATM   33  C11 UNL     1      15.400  -6.898  17.354  1.00  0.00    -0.009 C 
HETATM   34  C12 UNL     1      14.848  -6.963  18.751  1.00  0.00     0.011 C 
HETATM   35  C13 UNL     1      16.863  -7.264  17.290  1.00  0.00     0.011 C 
ENDBRANCH  31  33
ENDBRANCH  30  31
ENDBRANCH   5  30
TORSDOF 10
ENDMDL
MODEL 2
REMARK VINA RESULT: -8.349684674      0.527      1.017
REMARK  10 active torsions:
REMARK  status: ('A' for Active; 'I' for Inactive)
REMARK    1  A    between atoms: C2_2  and  C4_4 
REMARK    2  A    between atoms: C5_5  and  C6_6 
REMARK    3  A    between atoms: C8_10  and  S1_11 
REMARK    4  A    between atoms: S1_11  and  C9_12 
REMARK    5  A    between atoms: C9_12  and  C11_14 
REMARK    6  A    between atoms: N4_23  and  C16_24 
REMARK    7  A    between atoms: C17_26  and  C18_27 
REMARK    8  A    between atoms: C18_27  and  O2_28 
REMARK    9  A    between atoms: C19_30  and  O3_31 
REMARK   10  A    between atoms: C20_33  and  O4_34 
ROOT
HETATM    1  C6  UNL     1      14.648  -3.247  11.909  1.00  0.00     0.111 A 
HETATM    2  N1  UNL     1      14.295  -4.199  12.845  1.00  0.00    -0.337 N 
ATOM      3  H1  UNL     1      13.418  -4.201  13.366  1.00  0.00     0.167 HD
HETATM    4  C7  UNL     1      15.249  -5.113  12.977  1.00  0.00     0.112 A 
HETATM    5  C8  UNL     1      15.393  -6.256  13.760  1.00  0.00     0.102 A 
HETATM    6  N2  UNL     1      16.529  -6.948  13.612  1.00  0.00    -0.345 N 
ATOM      7  H2  UNL     1      16.658  -7.790  14.174  1.00  0.00     0.167 HD
HETATM    8  C14 UNL     1      17.508  -6.592  12.761  1.00  0.00     0.183 A 
HETATM    9  N3  UNL     1      17.317  -5.479  12.028  1.00  0.00    -0.336 N 
ATOM     10  H3  UNL     1      18.053  -5.203  11.379  1.00  0.00     0.168 HD
HETATM   11  C15 UNL     1      16.236  -4.722  12.096  1.00  0.00     0.142 A 
HETATM   12  N4  UNL     1      15.851  -3.581  11.454  1.00  0.00    -0.287 N 
ENDROOT
BRANCH  12  13
HETATM   13  C16 UNL     1      16.599  -2.872  10.475  1.00  0.00     0.263 C 
HETATM   14  O1  UNL     1      15.872  -1.827   9.898  1.00  0.00    -0.353 OA
HETATM   15  C17 UNL     1      16.785  -1.081   9.161  1.00  0.00     0.179 C 
HETATM   16  C19 UNL     1      18.165  -1.346   9.715  1.00  0.00     0.182 C 
HETATM   17  C20 UNL     1      17.766  -2.063  11.031  1.00  0.00     0.198 C 
BRANCH  15  18
HETATM   18  C18 UNL     1      16.485   0.388   9.369  1.00  0.00     0.198 C 
BRANCH  18  19
HETATM   19  O2  UNL     1      15.387   0.767   8.596  1.00  0.00    -0.398 OA
ATOM     20  H2  UNL     1      14.737   1.196   9.139  1.00  0.00     0.209 HD
ENDBRANCH  18  19
ENDBRANCH  15  18
BRANCH  16  21
HETATM   21  O3  UNL     1      18.879  -0.212  10.005  1.00  0.00    -0.390 OA
ATOM     22  H3  UNL     1      19.816  -0.349  10.066  1.00  0.00     0.210 HD
ENDBRANCH  16  21
BRANCH  17  23
HETATM   23  O4  UNL     1      18.809  -2.877  11.361  1.00  0.00    -0.388 OA
ATOM     24  H4  UNL     1      19.550  -2.728  10.785  1.00  0.00     0.210 HD
ENDBRANCH  17  23
ENDBRANCH  12  13
BRANCH   1  25
HETATM   25  C5  UNL     1      13.734  -2.168  11.623  1.00  0.00     0.045 C 
HETATM   26  C4  UNL     1      12.541  -2.177  11.138  1.00  0.00    -0.019 C 
BRANCH  26  27
HETATM   27  C2  UNL     1      11.759  -0.908  10.919  1.00  0.00    -0.000 C 
HETATM   28  C1  UNL     1      12.638   0.241  10.510  1.00  0.00     0.013 C 
HETATM   29  C3  UNL     1      11.131  -0.559  12.252  1.00  0.00     0.013 C 
ENDBRANCH  26  27
ENDBRANCH   1  25
BRANCH   5  30
HETATM   30  S1  UNL     1      14.122  -6.756  14.871  1.00  0.00    -0.105 SA
BRANCH  30  31
HETATM   31  C9  UNL     1      14.594  -6.945  16.572  1.00  0.00     0.053 C 
HETATM   32  C10 UNL     1      15.969  -6.380  16.880  1.00  0.00     0.022 C 
BRANCH  31  33
HETATM   33  C11 UNL     1      14.444  -8.306  17.162  1.00  0.00    -0.009 C 
HETATM   34  C12 UNL     1      13.011  -8.719  17.361  1.00  0.00     0.011 C 
HETATM   35  C13 UNL     1      15.253  -9.353  16.437  1.00  0.00     0.011 C 
ENDBRANCH  31  33
ENDBRANCH  30  31
ENDBRANCH   5  30
TORSDOF 10
ENDMDL
MODEL 3
REMARK VINA RESULT: -8.310425929      3.400      7.263
REMARK  10 active torsions:
REMARK  status: ('A' for Active; 'I' for Inactive)
REMARK    1  A    between atoms: C2_2  and  C4_4 
REMARK    2  A    between atoms: C5_5  and  C6_6 
REMARK    3  A    between atoms: C8_10  and  S1_11 
REMARK    4  A    between atoms: S1_11  and  C9_12 
REMARK    5  A    between atoms: C9_12  and  C11_14 
REMARK    6  A    between atoms: N4_23  and  C16_24 
REMARK    7  A    between atoms: C17_26  and  C18_27 
REMARK    8  A    between atoms: C18_27  and  O2_28 
REMARK    9  A    between atoms: C19_30  and  O3_31 
REMARK   10  A    between atoms: C20_33  and  O4_34 
ROOT
HETATM    1  C6  UNL     1      14.671  -3.229  11.541  1.00  0.00     0.111 A 
HETATM    2  N1  UNL     1      16.004  -3.286  11.184  1.00  0.00    -0.337 N 
ATOM      3  H1  UNL     1      16.661  -3.994  11.515  1.00  0.00     0.167 HD
HETATM    4  C7  UNL     1      16.318  -2.299  10.352  1.00  0.00     0.112 A 
HETATM    5  C8  UNL     1      17.490  -1.912   9.708  1.00  0.00     0.102 A 
HETATM    6  N2  UNL     1      17.416  -0.833   8.920  1.00  0.00    -0.345 N 
ATOM      7  H2  UNL     1      18.261  -0.530   8.436  1.00  0.00     0.167 HD
HETATM    8  C14 UNL     1      16.285  -0.128   8.734  1.00  0.00     0.183 A 
HETATM    9  N3  UNL     1      15.181  -0.546   9.381  1.00  0.00    -0.336 N 
ATOM     10  H3  UNL     1      14.319  -0.019   9.244  1.00  0.00     0.168 HD
HETATM   11  C15 UNL     1      15.143  -1.596  10.182  1.00  0.00     0.142 A 
HETATM   12  N4  UNL     1      14.150  -2.179  10.915  1.00  0.00    -0.287 N 
ENDROOT
BRANCH  12  13
HETATM   13  C16 UNL     1      12.800  -1.743  11.000  1.00  0.00     0.263 C 
HETATM   14  O1  UNL     1      11.968  -2.688  11.608  1.00  0.00    -0.353 OA
HETATM   15  C17 UNL     1      10.760  -2.044  11.847  1.00  0.00     0.179 C 
HETATM   16  C19 UNL     1      11.018  -0.555  11.881  1.00  0.00     0.182 C 
HETATM   17  C20 UNL     1      12.567  -0.579  11.959  1.00  0.00     0.198 C 
BRANCH  15  18
HETATM   18  C18 UNL     1      10.260  -2.451  13.216  1.00  0.00     0.198 C 
BRANCH  18  19
HETATM   19  O2  UNL     1       8.899  -2.164  13.335  1.00  0.00    -0.398 OA
ATOM     20  H2  UNL     1       8.721  -1.770  14.180  1.00  0.00     0.209 HD
ENDBRANCH  18  19
ENDBRANCH  15  18
BRANCH  16  21
HETATM   21  O3  UNL     1      10.511   0.075  12.988  1.00  0.00    -0.390 OA
ATOM     22  H3  UNL     1       9.934   0.802  12.790  1.00  0.00     0.210 HD
ENDBRANCH  16  21
BRANCH  17  23
HETATM   23  O4  UNL     1      13.000   0.593  11.414  1.00  0.00    -0.388 OA
ATOM     24  H4  UNL     1      13.939   0.576  11.273  1.00  0.00     0.210 HD
ENDBRANCH  17  23
ENDBRANCH  12  13
BRANCH   1  25
HETATM   25  C5  UNL     1      14.139  -4.223  12.440  1.00  0.00     0.045 C 
HETATM   26  C4  UNL     1      14.678  -5.277  12.950  1.00  0.00    -0.019 C 
BRANCH  26  27
HETATM   27  C2  UNL     1      13.922  -6.189  13.881  1.00  0.00    -0.000 C 
HETATM   28  C1  UNL     1      12.441  -5.929  13.856  1.00  0.00     0.013 C 
HETATM   29  C3  UNL     1      14.422  -5.882  15.277  1.00  0.00     0.013 C 
ENDBRANCH  26  27
ENDBRANCH   1  25
BRANCH   5  30
HETATM   30  S1  UNL     1      18.981  -2.825   9.919  1.00  0.00    -0.105 SA
BRANCH  30  31
HETATM   31  C9  UNL     1      20.488  -1.968   9.537  1.00  0.00     0.053 C 
HETATM   32  C10 UNL     1      20.471  -1.303   8.172  1.00  0.00     0.022 C 
BRANCH  31  33
HETATM   33  C11 UNL     1      21.758  -2.725   9.734  1.00  0.00    -0.009 C 
HETATM   34  C12 UNL     1      22.022  -3.090  11.169  1.00  0.00     0.011 C 
HETATM   35  C13 UNL     1      21.888  -3.904   8.802  1.00  0.00     0.011 C 
ENDBRANCH  31  33
ENDBRANCH  30  31
ENDBRANCH   5  30
TORSDOF 10
ENDMDL
MODEL 4
REMARK VINA RESULT: -8.303940188      3.368      7.486
REMARK  10 active torsions:
REMARK  status: ('A' for Active; 'I' for Inactive)
REMARK    1  A    between atoms: C2_2  and  C4_4 
REMARK    2  A    between atoms: C5_5  and  C6_6 
REMARK    3  A    between atoms: C8_10  and  S1_11 
REMARK    4  A    between atoms: S1_11  and  C9_12 
REMARK    5  A    between atoms: C9_12  and  C11_14 
REMARK    6  A    between atoms: N4_23  and  C16_24 
REMARK    7  A    between atoms: C17_26  and  C18_27 
REMARK    8  A    between atoms: C18_27  and  O2_28 
REMARK    9  A    between atoms: C19_30  and  O3_31 
REMARK   10  A    between atoms: C20_33  and  O4_34 
ROOT
HETATM    1  C6  UNL     1      15.171  -3.016  11.721  1.00  0.00     0.111 A 
HETATM    2  N1  UNL     1      16.522  -2.902  11.461  1.00  0.00    -0.337 N 
ATOM      3  H1  UNL     1      17.245  -3.477  11.896  1.00  0.00     0.167 HD
HETATM    4  C7  UNL     1      16.757  -1.947  10.569  1.00  0.00     0.112 A 
HETATM    5  C8  UNL     1      17.910  -1.440   9.974  1.00  0.00     0.102 A 
HETATM    6  N2  UNL     1      17.746  -0.448   9.092  1.00  0.00    -0.345 N 
ATOM      7  H2  UNL     1      18.575  -0.060   8.641  1.00  0.00     0.167 HD
HETATM    8  C14 UNL     1      16.545   0.065   8.768  1.00  0.00     0.183 A 
HETATM    9  N3  UNL     1      15.463  -0.462   9.373  1.00  0.00    -0.336 N 
ATOM     10  H3  UNL     1      14.549  -0.080   9.133  1.00  0.00     0.168 HD
HETATM   11  C15 UNL     1      15.512  -1.441  10.258  1.00  0.00     0.142 A 
HETATM   12  N4  UNL     1      14.556  -2.106  10.972  1.00  0.00    -0.287 N 
ENDROOT
BRANCH  12  13
HETATM   13  C16 UNL     1      13.156  -1.870  10.927  1.00  0.00     0.263 C 
HETATM   14  O1  UNL     1      12.430  -2.808  11.668  1.00  0.00    -0.353 OA
HETATM   15  C17 UNL     1      11.130  -2.321  11.741  1.00  0.00     0.179 C 
HETATM   16  C19 UNL     1      11.172  -0.828  11.510  1.00  0.00     0.182 C 
HETATM   17  C20 UNL     1      12.701  -0.604  11.646  1.00  0.00     0.198 C 
BRANCH  15  18
HETATM   18  C18 UNL     1      10.608  -2.550  13.143  1.00  0.00     0.198 C 
BRANCH  18  19
HETATM   19  O2  UNL     1       9.218  -2.428  13.163  1.00  0.00    -0.398 OA
ATOM     20  H2  UNL     1       8.916  -2.284  14.052  1.00  0.00     0.209 HD
ENDBRANCH  18  19
ENDBRANCH  15  18
BRANCH  16  21
HETATM   21  O3  UNL     1      10.513  -0.096  12.464  1.00  0.00    -0.390 OA
ATOM     22  H3  UNL     1      10.187   0.740  12.154  1.00  0.00     0.210 HD
ENDBRANCH  16  21
BRANCH  17  23
HETATM   23  O4  UNL     1      12.997   0.505  10.911  1.00  0.00    -0.388 OA
ATOM     24  H4  UNL     1      12.730   0.393  10.006  1.00  0.00     0.210 HD
ENDBRANCH  17  23
ENDBRANCH  12  13
BRANCH   1  25
HETATM   25  C5  UNL     1      14.715  -4.006  12.666  1.00  0.00     0.045 C 
HETATM   26  C4  UNL     1      14.982  -5.263  12.768  1.00  0.00    -0.019 C 
BRANCH  26  27
HETATM   27  C2  UNL     1      14.383  -6.120  13.852  1.00  0.00    -0.000 C 
HETATM   28  C1  UNL     1      12.883  -6.024  13.890  1.00  0.00     0.013 C 
HETATM   29  C3  UNL     1      14.915  -5.583  15.164  1.00  0.00     0.013 C 
ENDBRANCH  26  27
ENDBRANCH   1  25
BRANCH   5  30
HETATM   30  S1  UNL     1      19.494  -2.103  10.364  1.00  0.00    -0.105 SA
BRANCH  30  31
HETATM   31  C9  UNL     1      20.409  -2.802   9.013  1.00  0.00     0.053 C 
HETATM   32  C10 UNL     1      20.970  -4.180   9.318  1.00  0.00     0.022 C 
BRANCH  31  33
HETATM   33  C11 UNL     1      21.453  -1.938   8.392  1.00  0.00    -0.009 C 
HETATM   34  C12 UNL     1      22.389  -2.687   7.484  1.00  0.00     0.011 C 
HETATM   35  C13 UNL     1      20.881  -0.701   7.744  1.00  0.00     0.011 C 
ENDBRANCH  31  33
ENDBRANCH  30  31
ENDBRANCH   5  30
TORSDOF 10
ENDMDL
MODEL 5
REMARK VINA RESULT: -8.221142260      3.242      7.462
REMARK  10 active torsions:
REMARK  status: ('A' for Active; 'I' for Inactive)
REMARK    1  A    between atoms: C2_2  and  C4_4 
REMARK    2  A    between atoms: C5_5  and  C6_6 
REMARK    3  A    between atoms: C8_10  and  S1_11 
REMARK    4  A    between atoms: S1_11  and  C9_12 
REMARK    5  A    between atoms: C9_12  and  C11_14 
REMARK    6  A    between atoms: N4_23  and  C16_24 
REMARK    7  A    between atoms: C17_26  and  C18_27 
REMARK    8  A    between atoms: C18_27  and  O2_28 
REMARK    9  A    between atoms: C19_30  and  O3_31 
REMARK   10  A    between atoms: C20_33  and  O4_34 
ROOT
HETATM    1  C6  UNL     1      14.206  -6.928  15.228  1.00  0.00     0.111 A 
HETATM    2  N1  UNL     1      13.285  -5.999  14.785  1.00  0.00    -0.337 N 
ATOM      3  H1  UNL     1      12.340  -5.900  15.157  1.00  0.00     0.167 HD
HETATM    4  C7  UNL     1      13.792  -5.251  13.812  1.00  0.00     0.112 A 
HETATM    5  C8  UNL     1      13.300  -4.200  13.043  1.00  0.00     0.102 A 
HETATM    6  N2  UNL     1      14.131  -3.679  12.133  1.00  0.00    -0.345 N 
ATOM      7  H2  UNL     1      13.795  -2.907  11.557  1.00  0.00     0.167 HD
HETATM    8  C14 UNL     1      15.387  -4.120  11.938  1.00  0.00     0.183 A 
HETATM    9  N3  UNL     1      15.812  -5.139  12.709  1.00  0.00    -0.336 N 
ATOM     10  H3  UNL     1      16.763  -5.479  12.570  1.00  0.00     0.168 HD
HETATM   11  C15 UNL     1      15.075  -5.726  13.635  1.00  0.00     0.142 A 
HETATM   12  N4  UNL     1      15.309  -6.750  14.508  1.00  0.00    -0.287 N 
ENDROOT
BRANCH  12  13
HETATM   13  C16 UNL     1      16.513  -7.495  14.628  1.00  0.00     0.263 C 
HETATM   14  O1  UNL     1      17.138  -7.706  13.395  1.00  0.00    -0.353 OA
HETATM   15  C17 UNL     1      18.399  -8.217  13.682  1.00  0.00     0.179 C 
HETATM   16  C19 UNL     1      18.758  -7.817  15.095  1.00  0.00     0.182 C 
HETATM   17  C20 UNL     1      17.646  -6.763  15.340  1.00  0.00     0.198 C 
BRANCH  15  18
HETATM   18  C18 UNL     1      19.403  -7.566  12.756  1.00  0.00     0.198 C 
BRANCH  18  19
HETATM   19  O2  UNL     1      18.897  -6.360  12.270  1.00  0.00    -0.398 OA
ATOM     20  H2  UNL     1      18.412  -5.911  12.952  1.00  0.00     0.209 HD
ENDBRANCH  18  19
ENDBRANCH  15  18
BRANCH  16  21
HETATM   21  O3  UNL     1      19.988  -7.224  15.212  1.00  0.00    -0.390 OA
ATOM     22  H3  UNL     1      20.617  -7.732  15.711  1.00  0.00     0.210 HD
ENDBRANCH  16  21
BRANCH  17  23
HETATM   23  O4  UNL     1      17.434  -6.731  16.686  1.00  0.00    -0.388 OA
ATOM     24  H4  UNL     1      18.047  -6.144  17.112  1.00  0.00     0.210 HD
ENDBRANCH  17  23
ENDBRANCH  12  13
BRANCH   1  25
HETATM   25  C5  UNL     1      13.840  -7.834  16.288  1.00  0.00     0.045 C 
HETATM   26  C4  UNL     1      12.706  -8.051  16.861  1.00  0.00    -0.019 C 
BRANCH  26  27
HETATM   27  C2  UNL     1      12.551  -9.062  17.967  1.00  0.00    -0.000 C 
HETATM   28  C1  UNL     1      13.387 -10.290  17.738  1.00  0.00     0.013 C 
HETATM   29  C3  UNL     1      11.097  -9.483  17.960  1.00  0.00     0.013 C 
ENDBRANCH  26  27
ENDBRANCH   1  25
BRANCH   5  30
HETATM   30  S1  UNL     1      11.666  -3.589  13.286  1.00  0.00    -0.105 SA
BRANCH  30  31
HETATM   31  C9  UNL     1      11.086  -2.402  12.101  1.00  0.00     0.053 C 
HETATM   32  C10 UNL     1      11.323  -2.825  10.662  1.00  0.00     0.022 C 
BRANCH  31  33
HETATM   33  C11 UNL     1      11.511  -0.987  12.307  1.00  0.00    -0.009 C 
HETATM   34  C12 UNL     1      12.316  -0.430  11.165  1.00  0.00     0.011 C 
HETATM   35  C13 UNL     1      10.370  -0.084  12.707  1.00  0.00     0.011 C 
ENDBRANCH  31  33
ENDBRANCH  30  31
ENDBRANCH   5  30
TORSDOF 10
ENDMDL
