MODEL 1
REMARK VINA RESULT: -7.670717124      0.000      0.000
REMARK  12 active torsions:
REMARK  status: ('A' for Active; 'I' for Inactive)
REMARK    1  A    between atoms: C2_2  and  N1_3 
REMARK    2  A    between atoms: N1_3  and  C3_4 
REMARK    3  A    between atoms: N1_3  and  C6_8 
REMARK    4  A    between atoms: C3_4  and  C4_5 
REMARK    5  A    between atoms: C9_12  and  N4_13 
REMARK    6  A    between atoms: N4_13  and  O1_15 
REMARK    7  A    between atoms: C10_17  and  O2_18 
REMARK    8  A    between atoms: C11_20  and  O3_21 
REMARK    9  A    between atoms: C13_25  and  C14_26 
REMARK   10  A    between atoms: C14_26  and  C15_27 
REMARK   11  A    between atoms: C16_28  and  C17_29 
REMARK   12  A    between atoms: C20_32  and  O5_33 
ROOT
HETATM    1  C4  UNL     1      11.778  -2.806  12.231  1.00  0.00     0.143 C 
HETATM    2  C5  UNL     1      10.820  -1.771  12.707  1.00  0.00     0.060 C 
HETATM    3  N2  UNL     1      10.080  -0.957  13.056  1.00  0.00    -0.197 NA
ENDROOT
BRANCH   1   4
HETATM    4  C3  UNL     1      13.078  -2.529  12.908  1.00  0.00     0.137 C 
BRANCH   4   5
HETATM    5  N1  UNL     1      14.090  -3.548  12.733  1.00  0.00    -0.377 N 
BRANCH   5   6
HETATM    6  C2  UNL     1      14.898  -3.644  11.553  1.00  0.00     0.118 C 
HETATM    7  C1  UNL     1      15.271  -2.330  10.932  1.00  0.00     0.026 C 
ENDBRANCH   5   6
BRANCH   5   8
HETATM    8  C6  UNL     1      14.317  -4.524  13.774  1.00  0.00     0.081 A 
HETATM    9  C7  UNL     1      13.555  -5.631  14.058  1.00  0.00     0.089 A 
HETATM   10  C8  UNL     1      14.154  -6.263  15.129  1.00  0.00     0.151 A 
HETATM   11  N3  UNL     1      15.250  -5.583  15.509  1.00  0.00    -0.280 N 
HETATM   12  O6  UNL     1      13.679  -7.410  15.700  1.00  0.00    -0.325 OA
HETATM   13  C9  UNL     1      15.347  -4.518  14.678  1.00  0.00     0.158 A 
HETATM   14  C10 UNL     1      16.226  -5.793  16.541  1.00  0.00     0.260 C 
HETATM   15  C11 UNL     1      16.365  -7.256  16.899  1.00  0.00     0.198 C 
HETATM   16  C12 UNL     1      15.165  -7.820  17.598  1.00  0.00     0.187 C 
HETATM   17  O4  UNL     1      14.492  -6.910  18.374  1.00  0.00    -0.372 OA
HETATM   18  C21 UNL     1      14.098  -8.316  16.664  1.00  0.00     0.193 C 
HETATM   19  C13 UNL     1      13.347  -7.599  18.768  1.00  0.00     0.157 C 
HETATM   20  C20 UNL     1      12.937  -8.500  17.653  1.00  0.00     0.179 C 
BRANCH  13  21
HETATM   21  N4  UNL     1      16.364  -3.499  14.697  1.00  0.00    -0.251 N 
ATOM     22  H4  UNL     1      17.324  -3.683  14.405  1.00  0.00     0.196 HD
BRANCH  21  23
HETATM   23  O1  UNL     1      15.988  -2.364  15.100  1.00  0.00    -0.288 OA
ATOM     24  H1  UNL     1      15.698  -1.765  14.423  1.00  0.00     0.244 HD
ENDBRANCH  21  23
ENDBRANCH  13  21
BRANCH  14  25
HETATM   25  O2  UNL     1      17.489  -5.426  16.019  1.00  0.00    -0.373 OA
ATOM     26  H2  UNL     1      17.441  -4.512  15.765  1.00  0.00     0.212 HD
ENDBRANCH  14  25
BRANCH  15  27
HETATM   27  O3  UNL     1      17.487  -7.383  17.715  1.00  0.00    -0.388 OA
ATOM     28  H3  UNL     1      18.170  -7.797  17.200  1.00  0.00     0.210 HD
ENDBRANCH  15  27
BRANCH  19  29
HETATM   29  C14 UNL     1      13.658  -8.312  20.056  1.00  0.00     0.061 C 
BRANCH  29  30
HETATM   30  C15 UNL     1      12.574  -9.186  20.536  1.00  0.00    -0.028 C 
HETATM   31  C16 UNL     1      11.414  -8.710  20.947  1.00  0.00    -0.027 C 
BRANCH  31  32
HETATM   32  C17 UNL     1      10.304  -9.570  21.434  1.00  0.00    -0.001 C 
HETATM   33  C18 UNL     1      10.816 -10.909  21.935  1.00  0.00     0.013 C 
HETATM   34  C19 UNL     1       9.267  -9.824  20.394  1.00  0.00     0.013 C 
ENDBRANCH  31  32
ENDBRANCH  29  30
ENDBRANCH  19  29
BRANCH  20  35
HETATM   35  O5  UNL     1      11.729  -8.127  17.064  1.00  0.00    -0.390 OA
ATOM     36  H5  UNL     1      11.678  -8.354  16.142  1.00  0.00     0.210 HD
ENDBRANCH  20  35
ENDBRANCH   5   8
ENDBRANCH   4   5
ENDBRANCH   1   4
TORSDOF 12
ENDMDL
MODEL 2
REMARK VINA RESULT: -7.549890023      0.929      2.190
REMARK  12 active torsions:
REMARK  status: ('A' for Active; 'I' for Inactive)
REMARK    1  A    between atoms: C2_2  and  N1_3 
REMARK    2  A    between atoms: N1_3  and  C3_4 
REMARK    3  A    between atoms: N1_3  and  C6_8 
REMARK    4  A    between atoms: C3_4  and  C4_5 
REMARK    5  A    between atoms: C9_12  and  N4_13 
REMARK    6  A    between atoms: N4_13  and  O1_15 
REMARK    7  A    between atoms: C10_17  and  O2_18 
REMARK    8  A    between atoms: C11_20  and  O3_21 
REMARK    9  A    between atoms: C13_25  and  C14_26 
REMARK   10  A    between atoms: C14_26  and  C15_27 
REMARK   11  A    between atoms: C16_28  and  C17_29 
REMARK   12  A    between atoms: C20_32  and  O5_33 
ROOT
HETATM    1  C4  UNL     1      15.487  -2.428  11.062  1.00  0.00     0.143 C 
HETATM    2  C5  UNL     1      16.917  -2.464  11.472  1.00  0.00     0.060 C 
HETATM    3  N2  UNL     1      18.032  -2.496  11.769  1.00  0.00    -0.197 NA
ENDROOT
BRANCH   1   4
HETATM    4  C3  UNL     1      14.890  -3.731  11.476  1.00  0.00     0.137 C 
BRANCH   4   5
HETATM    5  N1  UNL     1      14.087  -3.684  12.678  1.00  0.00    -0.377 N 
BRANCH   5   6
HETATM    6  C2  UNL     1      13.048  -2.718  12.880  1.00  0.00     0.118 C 
HETATM    7  C1  UNL     1      11.785  -2.975  12.110  1.00  0.00     0.026 C 
ENDBRANCH   5   6
BRANCH   5   8
HETATM    8  C6  UNL     1      14.322  -4.637  13.738  1.00  0.00     0.081 A 
HETATM    9  C7  UNL     1      13.563  -5.738  14.053  1.00  0.00     0.089 A 
HETATM   10  C8  UNL     1      14.171  -6.346  15.132  1.00  0.00     0.151 A 
HETATM   11  N3  UNL     1      15.270  -5.659  15.487  1.00  0.00    -0.280 N 
HETATM   12  O6  UNL     1      13.700  -7.481  15.731  1.00  0.00    -0.325 OA
HETATM   13  C9  UNL     1      15.360  -4.612  14.632  1.00  0.00     0.158 A 
HETATM   14  C10 UNL     1      16.256  -5.848  16.515  1.00  0.00     0.260 C 
HETATM   15  C11 UNL     1      16.397  -7.303  16.903  1.00  0.00     0.198 C 
HETATM   16  C12 UNL     1      15.203  -7.851  17.624  1.00  0.00     0.187 C 
HETATM   17  O4  UNL     1      14.537  -6.924  18.387  1.00  0.00    -0.372 OA
HETATM   18  C21 UNL     1      14.128  -8.366  16.711  1.00  0.00     0.193 C 
HETATM   19  C13 UNL     1      13.395  -7.603  18.806  1.00  0.00     0.157 C 
HETATM   20  C20 UNL     1      12.976  -8.528  17.714  1.00  0.00     0.179 C 
BRANCH  13  21
HETATM   21  N4  UNL     1      16.378  -3.594  14.621  1.00  0.00    -0.251 N 
ATOM     22  H4  UNL     1      17.321  -3.771  14.274  1.00  0.00     0.196 HD
BRANCH  21  23
HETATM   23  O1  UNL     1      16.025  -2.468  15.069  1.00  0.00    -0.288 OA
ATOM     24  H1  UNL     1      15.660  -1.869  14.428  1.00  0.00     0.244 HD
ENDBRANCH  21  23
ENDBRANCH  13  21
BRANCH  14  25
HETATM   25  O2  UNL     1      17.514  -5.493  15.973  1.00  0.00    -0.373 OA
ATOM     26  H2  UNL     1      17.796  -4.693  16.401  1.00  0.00     0.212 HD
ENDBRANCH  14  25
BRANCH  15  27
HETATM   27  O3  UNL     1      17.527  -7.413  17.712  1.00  0.00    -0.388 OA
ATOM     28  H3  UNL     1      17.500  -6.698  18.338  1.00  0.00     0.210 HD
ENDBRANCH  15  27
BRANCH  19  29
HETATM   29  C14 UNL     1      13.718  -8.289  20.106  1.00  0.00     0.061 C 
BRANCH  29  30
HETATM   30  C15 UNL     1      12.645  -9.167  20.604  1.00  0.00    -0.028 C 
HETATM   31  C16 UNL     1      11.473  -8.700  20.987  1.00  0.00    -0.027 C 
BRANCH  31  32
HETATM   32  C17 UNL     1      10.374  -9.565  21.493  1.00  0.00    -0.001 C 
HETATM   33  C18 UNL     1      10.900 -10.901  21.985  1.00  0.00     0.013 C 
HETATM   34  C19 UNL     1       9.321  -9.823  20.468  1.00  0.00     0.013 C 
ENDBRANCH  31  32
ENDBRANCH  29  30
ENDBRANCH  19  29
BRANCH  20  35
HETATM   35  O5  UNL     1      11.762  -8.167  17.127  1.00  0.00    -0.390 OA
ATOM     36  H5  UNL     1      11.738  -7.258  16.851  1.00  0.00     0.210 HD
ENDBRANCH  20  35
ENDBRANCH   5   8
ENDBRANCH   4   5
ENDBRANCH   1   4
TORSDOF 12
ENDMDL
MODEL 3
REMARK VINA RESULT: -7.531436852      1.558      2.168
REMARK  12 active torsions:
REMARK  status: ('A' for Active; 'I' for Inactive)
REMARK    1  A    between atoms: C2_2  and  N1_3 
REMARK    2  A    between atoms: N1_3  and  C3_4 
REMARK    3  A    between atoms: N1_3  and  C6_8 
REMARK    4  A    between atoms: C3_4  and  C4_5 
REMARK    5  A    between atoms: C9_12  and  N4_13 
REMARK    6  A    between atoms: N4_13  and  O1_15 
REMARK    7  A    between atoms: C10_17  and  O2_18 
REMARK    8  A    between atoms: C11_20  and  O3_21 
REMARK    9  A    between atoms: C13_25  and  C14_26 
REMARK   10  A    between atoms: C14_26  and  C15_27 
REMARK   11  A    between atoms: C16_28  and  C17_29 
REMARK   12  A    between atoms: C20_32  and  O5_33 
ROOT
HETATM    1  C4  UNL     1       9.424  -2.067  12.769  1.00  0.00     0.143 C 
HETATM    2  C5  UNL     1       8.684  -1.034  13.547  1.00  0.00     0.060 C 
HETATM    3  N2  UNL     1       8.109  -0.223  14.131  1.00  0.00    -0.197 NA
ENDROOT
BRANCH   1   4
HETATM    4  C3  UNL     1      10.870  -1.887  13.087  1.00  0.00     0.137 C 
BRANCH   4   5
HETATM    5  N1  UNL     1      11.766  -2.798  12.409  1.00  0.00    -0.377 N 
BRANCH   5   6
HETATM    6  C2  UNL     1      11.904  -2.830  10.983  1.00  0.00     0.118 C 
HETATM    7  C1  UNL     1      12.228  -1.509  10.347  1.00  0.00     0.026 C 
ENDBRANCH   5   6
BRANCH   5   8
HETATM    8  C6  UNL     1      12.565  -3.727  13.175  1.00  0.00     0.081 A 
HETATM    9  C7  UNL     1      12.221  -4.999  13.562  1.00  0.00     0.089 A 
HETATM   10  C8  UNL     1      13.293  -5.503  14.271  1.00  0.00     0.151 A 
HETATM   11  N3  UNL     1      14.275  -4.586  14.331  1.00  0.00    -0.280 N 
HETATM   12  O6  UNL     1      13.322  -6.754  14.820  1.00  0.00    -0.325 OA
HETATM   13  C9  UNL     1      13.826  -3.499  13.660  1.00  0.00     0.158 A 
HETATM   14  C10 UNL     1      15.582  -4.587  14.927  1.00  0.00     0.260 C 
HETATM   15  C11 UNL     1      16.157  -5.981  15.027  1.00  0.00     0.198 C 
HETATM   16  C12 UNL     1      15.451  -6.855  16.019  1.00  0.00     0.187 C 
HETATM   17  O4  UNL     1      14.927  -6.173  17.089  1.00  0.00    -0.372 OA
HETATM   18  C21 UNL     1      14.252  -7.563  15.457  1.00  0.00     0.193 C 
HETATM   19  C13 UNL     1      14.185  -7.140  17.764  1.00  0.00     0.157 C 
HETATM   20  C20 UNL     1      13.604  -8.070  16.754  1.00  0.00     0.179 C 
BRANCH  13  21
HETATM   21  N4  UNL     1      14.530  -2.261  13.456  1.00  0.00    -0.251 N 
ATOM     22  H4  UNL     1      14.552  -1.523  14.162  1.00  0.00     0.196 HD
BRANCH  21  23
HETATM   23  O1  UNL     1      15.120  -2.148  12.346  1.00  0.00    -0.288 OA
ATOM     24  H1  UNL     1      15.392  -1.267  12.115  1.00  0.00     0.244 HD
ENDBRANCH  21  23
ENDBRANCH  13  21
BRANCH  14  25
HETATM   25  O2  UNL     1      16.453  -3.896  14.052  1.00  0.00    -0.373 OA
ATOM     26  H2  UNL     1      16.743  -3.108  14.497  1.00  0.00     0.212 HD
ENDBRANCH  14  25
BRANCH  15  27
HETATM   27  O3  UNL     1      17.499  -5.856  15.382  1.00  0.00    -0.388 OA
ATOM     28  H3  UNL     1      18.007  -6.378  14.771  1.00  0.00     0.210 HD
ENDBRANCH  15  27
BRANCH  19  29
HETATM   29  C14 UNL     1      15.094  -7.803  18.763  1.00  0.00     0.061 C 
BRANCH  29  30
HETATM   30  C15 UNL     1      14.398  -8.690  19.711  1.00  0.00    -0.028 C 
HETATM   31  C16 UNL     1      13.301  -8.323  20.346  1.00  0.00    -0.027 C 
BRANCH  31  32
HETATM   32  C17 UNL     1      12.580  -9.199  21.306  1.00  0.00    -0.001 C 
HETATM   33  C18 UNL     1      12.947 -10.659  21.111  1.00  0.00     0.013 C 
HETATM   34  C19 UNL     1      11.098  -9.071  21.208  1.00  0.00     0.013 C 
ENDBRANCH  31  32
ENDBRANCH  29  30
ENDBRANCH  19  29
BRANCH  20  35
HETATM   35  O5  UNL     1      12.214  -7.987  16.670  1.00  0.00    -0.390 OA
ATOM     36  H5  UNL     1      11.880  -7.121  16.871  1.00  0.00     0.210 HD
ENDBRANCH  20  35
ENDBRANCH   5   8
ENDBRANCH   4   5
ENDBRANCH   1   4
TORSDOF 12
ENDMDL
MODEL 4
REMARK VINA RESULT: -7.496971194      2.314      3.270
REMARK  12 active torsions:
REMARK  status: ('A' for Active; 'I' for Inactive)
REMARK    1  A    between atoms: C2_2  and  N1_3 
REMARK    2  A    between atoms: N1_3  and  C3_4 
REMARK    3  A    between atoms: N1_3  and  C6_8 
REMARK    4  A    between atoms: C3_4  and  C4_5 
REMARK    5  A    between atoms: C9_12  and  N4_13 
REMARK    6  A    between atoms: N4_13  and  O1_15 
REMARK    7  A    between atoms: C10_17  and  O2_18 
REMARK    8  A    between atoms: C11_20  and  O3_21 
REMARK    9  A    between atoms: C13_25  and  C14_26 
REMARK   10  A    between atoms: C14_26  and  C15_27 
REMARK   11  A    between atoms: C16_28  and  C17_29 
REMARK   12  A    between atoms: C20_32  and  O5_33 
ROOT
HETATM    1  C4  UNL     1      13.707  -1.039  10.379  1.00  0.00     0.143 C 
HETATM    2  C5  UNL     1      12.614  -0.613  11.296  1.00  0.00     0.060 C 
HETATM    3  N2  UNL     1      11.782  -0.274  12.020  1.00  0.00    -0.197 NA
ENDROOT
BRANCH   1   4
HETATM    4  C3  UNL     1      13.891  -2.504  10.585  1.00  0.00     0.137 C 
BRANCH   4   5
HETATM    5  N1  UNL     1      15.259  -2.928  10.797  1.00  0.00    -0.377 N 
BRANCH   5   6
HETATM    6  C2  UNL     1      16.345  -2.478   9.978  1.00  0.00     0.118 C 
HETATM    7  C1  UNL     1      17.383  -1.662  10.692  1.00  0.00     0.026 C 
ENDBRANCH   5   6
BRANCH   5   8
HETATM    8  C6  UNL     1      15.571  -3.844  11.870  1.00  0.00     0.081 A 
HETATM    9  C7  UNL     1      16.198  -5.062  11.770  1.00  0.00     0.089 A 
HETATM   10  C8  UNL     1      16.279  -5.574  13.049  1.00  0.00     0.151 A 
HETATM   11  N3  UNL     1      15.726  -4.716  13.923  1.00  0.00    -0.280 N 
HETATM   12  O6  UNL     1      16.845  -6.781  13.351  1.00  0.00    -0.325 OA
HETATM   13  C9  UNL     1      15.292  -3.658  13.198  1.00  0.00     0.158 A 
HETATM   14  C10 UNL     1      15.550  -4.746  15.348  1.00  0.00     0.260 C 
HETATM   15  C11 UNL     1      16.606  -5.584  16.031  1.00  0.00     0.198 C 
HETATM   16  C12 UNL     1      16.482  -7.052  15.753  1.00  0.00     0.187 C 
HETATM   17  O4  UNL     1      15.191  -7.474  15.552  1.00  0.00    -0.372 OA
HETATM   18  C21 UNL     1      17.176  -7.491  14.496  1.00  0.00     0.193 C 
HETATM   19  C13 UNL     1      15.339  -8.799  15.146  1.00  0.00     0.157 C 
HETATM   20  C20 UNL     1      16.591  -8.903  14.343  1.00  0.00     0.179 C 
BRANCH  13  21
HETATM   21  N4  UNL     1      14.630  -2.482  13.701  1.00  0.00    -0.251 N 
ATOM     22  H4  UNL     1      15.118  -1.596  13.831  1.00  0.00     0.196 HD
BRANCH  21  23
HETATM   23  O1  UNL     1      13.405  -2.623  13.971  1.00  0.00    -0.288 OA
ATOM     24  H1  UNL     1      13.141  -3.498  14.229  1.00  0.00     0.244 HD
ENDBRANCH  21  23
ENDBRANCH  13  21
BRANCH  14  25
HETATM   25  O2  UNL     1      15.759  -3.433  15.834  1.00  0.00    -0.373 OA
ATOM     26  H2  UNL     1      16.482  -3.465  16.450  1.00  0.00     0.212 HD
ENDBRANCH  14  25
BRANCH  15  27
HETATM   27  O3  UNL     1      16.501  -5.355  17.402  1.00  0.00    -0.388 OA
ATOM     28  H3  UNL     1      17.179  -5.865  17.830  1.00  0.00     0.210 HD
ENDBRANCH  15  27
BRANCH  19  29
HETATM   29  C14 UNL     1      15.321  -9.663  16.377  1.00  0.00     0.061 C 
BRANCH  29  30
HETATM   30  C15 UNL     1      14.061  -9.598  17.137  1.00  0.00    -0.028 C 
HETATM   31  C16 UNL     1      13.362 -10.676  17.438  1.00  0.00    -0.027 C 
BRANCH  31  32
HETATM   32  C17 UNL     1      12.089 -10.638  18.204  1.00  0.00    -0.001 C 
HETATM   33  C18 UNL     1      11.186 -11.803  17.840  1.00  0.00     0.013 C 
HETATM   34  C19 UNL     1      11.327  -9.372  18.001  1.00  0.00     0.013 C 
ENDBRANCH  31  32
ENDBRANCH  29  30
ENDBRANCH  19  29
BRANCH  20  35
HETATM   35  O5  UNL     1      16.357  -9.192  12.999  1.00  0.00    -0.390 OA
ATOM     36  H5  UNL     1      16.130 -10.102  12.847  1.00  0.00     0.210 HD
ENDBRANCH  20  35
ENDBRANCH   5   8
ENDBRANCH   4   5
ENDBRANCH   1   4
TORSDOF 12
ENDMDL
MODEL 5
REMARK VINA RESULT: -7.466454282      3.872      9.227
REMARK  12 active torsions:
REMARK  status: ('A' for Active; 'I' for Inactive)
REMARK    1  A    between atoms: C2_2  and  N1_3 
REMARK    2  A    between atoms: N1_3  and  C3_4 
REMARK    3  A    between atoms: N1_3  and  C6_8 
REMARK    4  A    between atoms: C3_4  and  C4_5 
REMARK    5  A    between atoms: C9_12  and  N4_13 
REMARK    6  A    between atoms: N4_13  and  O1_15 
REMARK    7  A    between atoms: C10_17  and  O2_18 
REMARK    8  A    between atoms: C11_20  and  O3_21 
REMARK    9  A    between atoms: C13_25  and  C14_26 
REMARK   10  A    between atoms: C14_26  and  C15_27 
REMARK   11  A    between atoms: C16_28  and  C17_29 
REMARK   12  A    between atoms: C20_32  and  O5_33 
ROOT
HETATM    1  C4  UNL     1      18.843  -8.591  17.748  1.00  0.00     0.143 C 
HETATM    2  C5  UNL     1      18.279  -8.521  19.124  1.00  0.00     0.060 C 
HETATM    3  N2  UNL     1      17.862  -8.468  20.199  1.00  0.00    -0.197 NA
ENDROOT
BRANCH   1   4
HETATM    4  C3  UNL     1      18.561  -9.965  17.241  1.00  0.00     0.137 C 
BRANCH   4   5
HETATM    5  N1  UNL     1      17.235 -10.159  16.696  1.00  0.00    -0.377 N 
BRANCH   5   6
HETATM    6  C2  UNL     1      16.470 -11.349  16.925  1.00  0.00     0.118 C 
HETATM    7  C1  UNL     1      16.299 -11.726  18.368  1.00  0.00     0.026 C 
ENDBRANCH   5   6
BRANCH   5   8
HETATM    8  C6  UNL     1      16.633  -9.128  15.883  1.00  0.00     0.081 A 
HETATM    9  C7  UNL     1      17.022  -8.721  14.630  1.00  0.00     0.089 A 
HETATM   10  C8  UNL     1      16.156  -7.716  14.250  1.00  0.00     0.151 A 
HETATM   11  N3  UNL     1      15.256  -7.494  15.223  1.00  0.00    -0.280 N 
HETATM   12  O6  UNL     1      16.230  -7.060  13.053  1.00  0.00    -0.325 OA
HETATM   13  C9  UNL     1      15.550  -8.360  16.222  1.00  0.00     0.158 A 
HETATM   14  C10 UNL     1      14.150  -6.586  15.347  1.00  0.00     0.260 C 
HETATM   15  C11 UNL     1      13.574  -6.209  14.001  1.00  0.00     0.198 C 
HETATM   16  C12 UNL     1      14.485  -5.351  13.176  1.00  0.00     0.187 C 
HETATM   17  O4  UNL     1      15.292  -4.522  13.915  1.00  0.00    -0.372 OA
HETATM   18  C21 UNL     1      15.471  -6.131  12.355  1.00  0.00     0.193 C 
HETATM   19  C13 UNL     1      16.151  -3.970  12.967  1.00  0.00     0.157 C 
HETATM   20  C20 UNL     1      16.418  -5.001  11.923  1.00  0.00     0.179 C 
BRANCH  13  21
HETATM   21  N4  UNL     1      14.858  -8.494  17.477  1.00  0.00    -0.251 N 
ATOM     22  H4  UNL     1      14.123  -9.188  17.622  1.00  0.00     0.196 HD
BRANCH  21  23
HETATM   23  O1  UNL     1      15.221  -7.698  18.386  1.00  0.00    -0.288 OA
ATOM     24  H1  UNL     1      15.240  -6.780  18.142  1.00  0.00     0.244 HD
ENDBRANCH  21  23
ENDBRANCH  13  21
BRANCH  14  25
HETATM   25  O2  UNL     1      13.104  -7.271  16.010  1.00  0.00    -0.373 OA
ATOM     26  H2  UNL     1      12.362  -6.681  16.064  1.00  0.00     0.212 HD
ENDBRANCH  14  25
BRANCH  15  27
HETATM   27  O3  UNL     1      12.376  -5.534  14.232  1.00  0.00    -0.388 OA
ATOM     28  H3  UNL     1      12.580  -4.753  14.733  1.00  0.00     0.210 HD
ENDBRANCH  15  27
BRANCH  19  29
HETATM   29  C14 UNL     1      15.512  -2.712  12.444  1.00  0.00     0.061 C 
BRANCH  29  30
HETATM   30  C15 UNL     1      15.857  -2.401  11.045  1.00  0.00    -0.028 C 
HETATM   31  C16 UNL     1      16.921  -1.692  10.722  1.00  0.00    -0.027 C 
BRANCH  31  32
HETATM   32  C17 UNL     1      17.290  -1.366   9.319  1.00  0.00    -0.001 C 
HETATM   33  C18 UNL     1      18.795  -1.393   9.120  1.00  0.00     0.013 C 
HETATM   34  C19 UNL     1      16.782  -0.034   8.880  1.00  0.00     0.013 C 
ENDBRANCH  31  32
ENDBRANCH  29  30
ENDBRANCH  19  29
BRANCH  20  35
HETATM   35  O5  UNL     1      17.740  -5.445  11.919  1.00  0.00    -0.390 OA
ATOM     36  H5  UNL     1      17.815  -6.393  11.935  1.00  0.00     0.210 HD
ENDBRANCH  20  35
ENDBRANCH   5   8
ENDBRANCH   4   5
ENDBRANCH   1   4
TORSDOF 12
ENDMDL
