MODEL 1
REMARK VINA RESULT: -8.465566974      0.000      0.000
REMARK  11 active torsions:
REMARK  status: ('A' for Active; 'I' for Inactive)
REMARK    1  A    between atoms: C2_2  and  C4_4 
REMARK    2  A    between atoms: C4_4  and  C5_5 
REMARK    3  A    between atoms: C5_5  and  O1_6 
REMARK    4  A    between atoms: O1_6  and  C6_7 
REMARK    5  A    between atoms: C8_9  and  C9_10 
REMARK    6  A    between atoms: C10_12  and  C11_13 
REMARK    7  A    between atoms: C11_13  and  O3_14 
REMARK    8  A    between atoms: C12_16  and  O4_17 
REMARK    9  A    between atoms: C13_19  and  O5_20 
REMARK   10  A    between atoms: C14_22  and  O6_23 
REMARK   11  A    between atoms: O6_23  and  C15_24 
ROOT
HETATM    1  C9  UNL     1      15.626  -2.680  10.155  1.00  0.00     0.187 C 
HETATM    2  O2  UNL     1      16.978  -2.644   9.819  1.00  0.00    -0.368 OA
HETATM    3  C10 UNL     1      17.582  -1.449  10.115  1.00  0.00     0.177 C 
HETATM    4  C12 UNL     1      17.147  -0.350   9.163  1.00  0.00     0.180 C 
HETATM    5  C13 UNL     1      15.650  -0.454   9.012  1.00  0.00     0.181 C 
HETATM    6  C14 UNL     1      15.066  -1.298  10.140  1.00  0.00     0.192 C 
ENDROOT
BRANCH   1   7
HETATM    7  C8  UNL     1      15.545  -3.298  11.492  1.00  0.00    -0.022 A 
HETATM    8  C7  UNL     1      15.514  -4.695  11.622  1.00  0.00     0.049 A 
HETATM    9  C6  UNL     1      15.435  -5.313  12.849  1.00  0.00     0.106 A 
HETATM   10  C21 UNL     1      15.385  -4.491  13.957  1.00  0.00     0.119 A 
HETATM   11  C20 UNL     1      15.415  -3.116  13.844  1.00  0.00     0.088 A 
HETATM   12  N2  UNL     1      15.307  -4.762  15.263  1.00  0.00    -0.237 N 
HETATM   13  C19 UNL     1      15.495  -2.490  12.600  1.00  0.00     0.043 A 
HETATM   14  N1  UNL     1      15.353  -2.626  15.085  1.00  0.00    -0.239 N 
HETATM   15  O7  UNL     1      15.289  -3.629  15.911  1.00  0.00    -0.156 OA
ATOM     16  H1  UNL     1      15.356  -1.639  15.339  1.00  0.00     0.197 HD
ATOM     17  H2  UNL     1      15.269  -5.692  15.680  1.00  0.00     0.197 HD
BRANCH   9  18
HETATM   18  O1  UNL     1      15.406  -6.692  12.961  1.00  0.00    -0.320 OA
BRANCH  18  19
HETATM   19  C5  UNL     1      16.517  -7.417  13.414  1.00  0.00     0.143 C 
BRANCH  19  20
HETATM   20  C4  UNL     1      16.247  -8.399  14.442  1.00  0.00     0.026 C 
BRANCH  20  21
HETATM   21  C2  UNL     1      16.135  -8.213  15.724  1.00  0.00    -0.086 C 
HETATM   22  C1  UNL     1      14.891  -8.552  16.449  1.00  0.00     0.043 C 
HETATM   23  C3  UNL     1      17.266  -7.640  16.547  1.00  0.00     0.043 C 
ENDBRANCH  20  21
ENDBRANCH  19  20
ENDBRANCH  18  19
ENDBRANCH   9  18
ENDBRANCH   1   7
BRANCH   6  24
HETATM   24  O6  UNL     1      13.663  -1.252   9.931  1.00  0.00    -0.352 OA
BRANCH  24  25
HETATM   25  C15 UNL     1      12.793  -0.693  10.855  1.00  0.00     0.137 C 
HETATM   26  C16 UNL     1      11.784  -1.321  11.392  1.00  0.00    -0.066 C 
HETATM   27  C17 UNL     1      11.498  -2.720  11.033  1.00  0.00     0.045 C 
HETATM   28  C18 UNL     1      10.917  -0.639  12.364  1.00  0.00     0.045 C 
ENDBRANCH  24  25
ENDBRANCH   6  24
BRANCH   3  29
HETATM   29  C11 UNL     1      19.082  -1.632   9.908  1.00  0.00     0.198 C 
BRANCH  29  30
HETATM   30  O3  UNL     1      19.454  -0.849   8.818  1.00  0.00    -0.398 OA
ATOM     31  H3  UNL     1      20.298  -0.464   9.017  1.00  0.00     0.209 HD
ENDBRANCH  29  30
ENDBRANCH   3  29
BRANCH   5  32
HETATM   32  O5  UNL     1      15.119   0.829   9.143  1.00  0.00    -0.390 OA
ATOM     33  H5  UNL     1      14.256   0.828   8.745  1.00  0.00     0.210 HD
ENDBRANCH   5  32
BRANCH   4  34
HETATM   34  O4  UNL     1      17.516   0.864   9.751  1.00  0.00    -0.390 OA
ATOM     35  H4  UNL     1      17.654   1.482   9.043  1.00  0.00     0.210 HD
ENDBRANCH   4  34
TORSDOF 11
ENDMDL
MODEL 2
REMARK VINA RESULT: -8.299301923      1.011      1.113
REMARK  11 active torsions:
REMARK  status: ('A' for Active; 'I' for Inactive)
REMARK    1  A    between atoms: C2_2  and  C4_4 
REMARK    2  A    between atoms: C4_4  and  C5_5 
REMARK    3  A    between atoms: C5_5  and  O1_6 
REMARK    4  A    between atoms: O1_6  and  C6_7 
REMARK    5  A    between atoms: C8_9  and  C9_10 
REMARK    6  A    between atoms: C10_12  and  C11_13 
REMARK    7  A    between atoms: C11_13  and  O3_14 
REMARK    8  A    between atoms: C12_16  and  O4_17 
REMARK    9  A    between atoms: C13_19  and  O5_20 
REMARK   10  A    between atoms: C14_22  and  O6_23 
REMARK   11  A    between atoms: O6_23  and  C15_24 
ROOT
HETATM    1  C9  UNL     1      16.200  -2.933  10.194  1.00  0.00     0.187 C 
HETATM    2  O2  UNL     1      17.583  -3.102  10.182  1.00  0.00    -0.368 OA
HETATM    3  C10 UNL     1      18.269  -2.012  10.652  1.00  0.00     0.177 C 
HETATM    4  C12 UNL     1      18.235  -0.858   9.666  1.00  0.00     0.180 C 
HETATM    5  C13 UNL     1      16.816  -0.735   9.168  1.00  0.00     0.181 C 
HETATM    6  C14 UNL     1      15.867  -1.482  10.100  1.00  0.00     0.192 C 
ENDROOT
BRANCH   1   7
HETATM    7  C8  UNL     1      15.717  -3.533  11.452  1.00  0.00    -0.022 A 
HETATM    8  C7  UNL     1      15.738  -4.926  11.623  1.00  0.00     0.049 A 
HETATM    9  C6  UNL     1      15.295  -5.527  12.778  1.00  0.00     0.106 A 
HETATM   10  C21 UNL     1      14.823  -4.693  13.772  1.00  0.00     0.119 A 
HETATM   11  C20 UNL     1      14.796  -3.322  13.618  1.00  0.00     0.088 A 
HETATM   12  N2  UNL     1      14.331  -4.947  14.987  1.00  0.00    -0.237 N 
HETATM   13  C19 UNL     1      15.245  -2.713  12.447  1.00  0.00     0.043 A 
HETATM   14  N1  UNL     1      14.291  -2.817  14.746  1.00  0.00    -0.239 N 
HETATM   15  O7  UNL     1      14.021  -3.808  15.545  1.00  0.00    -0.156 OA
ATOM     16  H1  UNL     1      14.142  -1.829  14.946  1.00  0.00     0.197 HD
ATOM     17  H2  UNL     1      14.217  -5.870  15.406  1.00  0.00     0.197 HD
BRANCH   9  18
HETATM   18  O1  UNL     1      15.322  -6.903  12.932  1.00  0.00    -0.320 OA
BRANCH  18  19
HETATM   19  C5  UNL     1      16.443  -7.562  13.454  1.00  0.00     0.143 C 
BRANCH  19  20
HETATM   20  C4  UNL     1      16.200  -8.379  14.623  1.00  0.00     0.026 C 
BRANCH  20  21
HETATM   21  C2  UNL     1      15.933  -7.992  15.835  1.00  0.00    -0.086 C 
HETATM   22  C1  UNL     1      14.695  -8.413  16.527  1.00  0.00     0.043 C 
HETATM   23  C3  UNL     1      16.869  -7.089  16.607  1.00  0.00     0.043 C 
ENDBRANCH  20  21
ENDBRANCH  19  20
ENDBRANCH  18  19
ENDBRANCH   9  18
ENDBRANCH   1   7
BRANCH   6  24
HETATM   24  O6  UNL     1      14.574  -1.225   9.574  1.00  0.00    -0.352 OA
BRANCH  24  25
HETATM   25  C15 UNL     1      13.623  -0.493  10.268  1.00  0.00     0.137 C 
HETATM   26  C16 UNL     1      12.492  -0.977  10.701  1.00  0.00    -0.066 C 
HETATM   27  C17 UNL     1      12.146  -2.389  10.468  1.00  0.00     0.045 C 
HETATM   28  C18 UNL     1      11.547  -0.118  11.429  1.00  0.00     0.045 C 
ENDBRANCH  24  25
ENDBRANCH   6  24
BRANCH   3  29
HETATM   29  C11 UNL     1      19.732  -2.419  10.792  1.00  0.00     0.198 C 
BRANCH  29  30
HETATM   30  O3  UNL     1      19.762  -3.777  11.098  1.00  0.00    -0.398 OA
ATOM     31  H3  UNL     1      20.548  -4.141  10.709  1.00  0.00     0.209 HD
ENDBRANCH  29  30
ENDBRANCH   3  29
BRANCH   5  32
HETATM   32  O5  UNL     1      16.463   0.613   9.220  1.00  0.00    -0.390 OA
ATOM     33  H5  UNL     1      16.146   0.863   8.360  1.00  0.00     0.210 HD
ENDBRANCH   5  32
BRANCH   4  34
HETATM   34  O4  UNL     1      18.630   0.285  10.368  1.00  0.00    -0.390 OA
ATOM     35  H4  UNL     1      18.903   0.924   9.720  1.00  0.00     0.210 HD
ENDBRANCH   4  34
TORSDOF 11
ENDMDL
MODEL 3
REMARK VINA RESULT: -8.215002673      1.995      3.485
REMARK  11 active torsions:
REMARK  status: ('A' for Active; 'I' for Inactive)
REMARK    1  A    between atoms: C2_2  and  C4_4 
REMARK    2  A    between atoms: C4_4  and  C5_5 
REMARK    3  A    between atoms: C5_5  and  O1_6 
REMARK    4  A    between atoms: O1_6  and  C6_7 
REMARK    5  A    between atoms: C8_9  and  C9_10 
REMARK    6  A    between atoms: C10_12  and  C11_13 
REMARK    7  A    between atoms: C11_13  and  O3_14 
REMARK    8  A    between atoms: C12_16  and  O4_17 
REMARK    9  A    between atoms: C13_19  and  O5_20 
REMARK   10  A    between atoms: C14_22  and  O6_23 
REMARK   11  A    between atoms: O6_23  and  C15_24 
ROOT
HETATM    1  C9  UNL     1      16.617  -2.978   9.910  1.00  0.00     0.187 C 
HETATM    2  O2  UNL     1      18.006  -3.079   9.849  1.00  0.00    -0.368 OA
HETATM    3  C10 UNL     1      18.655  -2.003  10.398  1.00  0.00     0.177 C 
HETATM    4  C12 UNL     1      18.541  -0.770   9.520  1.00  0.00     0.180 C 
HETATM    5  C13 UNL     1      17.104  -0.671   9.070  1.00  0.00     0.181 C 
HETATM    6  C14 UNL     1      16.217  -1.542   9.954  1.00  0.00     0.192 C 
ENDROOT
BRANCH   1   7
HETATM    7  C8  UNL     1      16.199  -3.708  11.122  1.00  0.00    -0.022 A 
HETATM    8  C7  UNL     1      15.779  -3.002  12.260  1.00  0.00     0.049 A 
HETATM    9  C6  UNL     1      15.385  -3.643  13.412  1.00  0.00     0.106 A 
HETATM   10  C21 UNL     1      15.420  -5.023  13.399  1.00  0.00     0.119 A 
HETATM   11  C20 UNL     1      15.831  -5.730  12.287  1.00  0.00     0.088 A 
HETATM   12  N2  UNL     1      15.110  -5.929  14.330  1.00  0.00    -0.237 N 
HETATM   13  C19 UNL     1      16.231  -5.080  11.120  1.00  0.00     0.043 A 
HETATM   14  N1  UNL     1      15.748  -7.025  12.602  1.00  0.00    -0.239 N 
HETATM   15  O7  UNL     1      15.317  -7.116  13.826  1.00  0.00    -0.156 OA
ATOM     16  H1  UNL     1      15.982  -7.806  11.989  1.00  0.00     0.197 HD
ATOM     17  H2  UNL     1      14.771  -5.729  15.272  1.00  0.00     0.197 HD
BRANCH   9  18
HETATM   18  O1  UNL     1      14.972  -2.934  14.527  1.00  0.00    -0.320 OA
BRANCH  18  19
HETATM   19  C5  UNL     1      13.617  -2.811  14.861  1.00  0.00     0.143 C 
BRANCH  19  20
HETATM   20  C4  UNL     1      12.724  -2.527  13.759  1.00  0.00     0.026 C 
BRANCH  20  21
HETATM   21  C2  UNL     1      11.721  -3.236  13.333  1.00  0.00    -0.086 C 
HETATM   22  C1  UNL     1      10.410  -2.620  13.030  1.00  0.00     0.043 C 
HETATM   23  C3  UNL     1      11.834  -4.729  13.120  1.00  0.00     0.043 C 
ENDBRANCH  20  21
ENDBRANCH  19  20
ENDBRANCH  18  19
ENDBRANCH   9  18
ENDBRANCH   1   7
BRANCH   6  24
HETATM   24  O6  UNL     1      14.899  -1.301   9.485  1.00  0.00    -0.352 OA
BRANCH  24  25
HETATM   25  C15 UNL     1      13.998  -0.508  10.179  1.00  0.00     0.137 C 
HETATM   26  C16 UNL     1      12.758  -0.834  10.415  1.00  0.00    -0.066 C 
HETATM   27  C17 UNL     1      12.220  -2.119   9.938  1.00  0.00     0.045 C 
HETATM   28  C18 UNL     1      11.879   0.079  11.161  1.00  0.00     0.045 C 
ENDBRANCH  24  25
ENDBRANCH   6  24
BRANCH   3  29
HETATM   29  C11 UNL     1      20.138  -2.350  10.464  1.00  0.00     0.198 C 
BRANCH  29  30
HETATM   30  O3  UNL     1      20.695  -2.052   9.224  1.00  0.00    -0.398 OA
ATOM     31  H3  UNL     1      21.340  -1.367   9.356  1.00  0.00     0.209 HD
ENDBRANCH  29  30
ENDBRANCH   3  29
BRANCH   5  32
HETATM   32  O5  UNL     1      16.692   0.649   9.250  1.00  0.00    -0.390 OA
ATOM     33  H5  UNL     1      17.270   1.205   8.741  1.00  0.00     0.210 HD
ENDBRANCH   5  32
BRANCH   4  34
HETATM   34  O4  UNL     1      18.903   0.325  10.310  1.00  0.00    -0.390 OA
ATOM     35  H4  UNL     1      18.433   0.239  11.131  1.00  0.00     0.210 HD
ENDBRANCH   4  34
TORSDOF 11
ENDMDL
MODEL 4
REMARK VINA RESULT: -8.177299546      1.186      1.741
REMARK  11 active torsions:
REMARK  status: ('A' for Active; 'I' for Inactive)
REMARK    1  A    between atoms: C2_2  and  C4_4 
REMARK    2  A    between atoms: C4_4  and  C5_5 
REMARK    3  A    between atoms: C5_5  and  O1_6 
REMARK    4  A    between atoms: O1_6  and  C6_7 
REMARK    5  A    between atoms: C8_9  and  C9_10 
REMARK    6  A    between atoms: C10_12  and  C11_13 
REMARK    7  A    between atoms: C11_13  and  O3_14 
REMARK    8  A    between atoms: C12_16  and  O4_17 
REMARK    9  A    between atoms: C13_19  and  O5_20 
REMARK   10  A    between atoms: C14_22  and  O6_23 
REMARK   11  A    between atoms: O6_23  and  C15_24 
ROOT
HETATM    1  C9  UNL     1      16.039  -2.816  10.079  1.00  0.00     0.187 C 
HETATM    2  O2  UNL     1      17.425  -2.916   9.972  1.00  0.00    -0.368 OA
HETATM    3  C10 UNL     1      18.090  -1.810  10.437  1.00  0.00     0.177 C 
HETATM    4  C12 UNL     1      17.936  -0.627   9.498  1.00  0.00     0.180 C 
HETATM    5  C13 UNL     1      16.484  -0.557   9.098  1.00  0.00     0.181 C 
HETATM    6  C14 UNL     1      15.634  -1.381  10.061  1.00  0.00     0.192 C 
ENDROOT
BRANCH   1   7
HETATM    7  C8  UNL     1      15.670  -3.481  11.344  1.00  0.00    -0.022 A 
HETATM    8  C7  UNL     1      15.758  -4.877  11.457  1.00  0.00     0.049 A 
HETATM    9  C6  UNL     1      15.420  -5.537  12.616  1.00  0.00     0.106 A 
HETATM   10  C21 UNL     1      14.987  -4.760  13.671  1.00  0.00     0.119 A 
HETATM   11  C20 UNL     1      14.895  -3.387  13.574  1.00  0.00     0.088 A 
HETATM   12  N2  UNL     1      14.592  -5.079  14.907  1.00  0.00    -0.237 N 
HETATM   13  C19 UNL     1      15.237  -2.717  12.399  1.00  0.00     0.043 A 
HETATM   14  N1  UNL     1      14.450  -2.946  14.753  1.00  0.00    -0.239 N 
HETATM   15  O7  UNL     1      14.276  -3.975  15.529  1.00  0.00    -0.156 OA
ATOM     16  H1  UNL     1      14.277  -1.972  15.001  1.00  0.00     0.197 HD
ATOM     17  H2  UNL     1      14.544  -6.021  15.296  1.00  0.00     0.197 HD
BRANCH   9  18
HETATM   18  O1  UNL     1      15.513  -6.915  12.713  1.00  0.00    -0.320 OA
BRANCH  18  19
HETATM   19  C5  UNL     1      16.371  -7.532  13.634  1.00  0.00     0.143 C 
BRANCH  19  20
HETATM   20  C4  UNL     1      17.780  -7.251  13.462  1.00  0.00     0.026 C 
BRANCH  20  21
HETATM   21  C2  UNL     1      18.729  -8.073  13.124  1.00  0.00    -0.086 C 
HETATM   22  C1  UNL     1      20.033  -7.586  12.624  1.00  0.00     0.043 C 
HETATM   23  C3  UNL     1      18.557  -9.572  13.224  1.00  0.00     0.043 C 
ENDBRANCH  20  21
ENDBRANCH  19  20
ENDBRANCH  18  19
ENDBRANCH   9  18
ENDBRANCH   1   7
BRANCH   6  24
HETATM   24  O6  UNL     1      14.299  -1.169   9.629  1.00  0.00    -0.352 OA
BRANCH  24  25
HETATM   25  C15 UNL     1      13.367  -0.495  10.404  1.00  0.00     0.137 C 
HETATM   26  C16 UNL     1      12.281  -1.032  10.885  1.00  0.00    -0.066 C 
HETATM   27  C17 UNL     1      11.968  -2.447  10.622  1.00  0.00     0.045 C 
HETATM   28  C18 UNL     1      11.352  -0.231  11.697  1.00  0.00     0.045 C 
ENDBRANCH  24  25
ENDBRANCH   6  24
BRANCH   3  29
HETATM   29  C11 UNL     1      19.576  -2.150  10.466  1.00  0.00     0.198 C 
BRANCH  29  30
HETATM   30  O3  UNL     1      20.126  -1.728   9.259  1.00  0.00    -0.398 OA
ATOM     31  H3  UNL     1      20.705  -2.416   8.952  1.00  0.00     0.209 HD
ENDBRANCH  29  30
ENDBRANCH   3  29
BRANCH   5  32
HETATM   32  O5  UNL     1      16.072   0.770   9.222  1.00  0.00    -0.390 OA
ATOM     33  H5  UNL     1      15.339   0.791   9.826  1.00  0.00     0.210 HD
ENDBRANCH   5  32
BRANCH   4  34
HETATM   34  O4  UNL     1      18.323   0.510  10.214  1.00  0.00    -0.390 OA
ATOM     35  H4  UNL     1      19.272   0.548  10.178  1.00  0.00     0.210 HD
ENDBRANCH   4  34
TORSDOF 11
ENDMDL
MODEL 5
REMARK VINA RESULT: -8.105368443      2.241      4.322
REMARK  11 active torsions:
REMARK  status: ('A' for Active; 'I' for Inactive)
REMARK    1  A    between atoms: C2_2  and  C4_4 
REMARK    2  A    between atoms: C4_4  and  C5_5 
REMARK    3  A    between atoms: C5_5  and  O1_6 
REMARK    4  A    between atoms: O1_6  and  C6_7 
REMARK    5  A    between atoms: C8_9  and  C9_10 
REMARK    6  A    between atoms: C10_12  and  C11_13 
REMARK    7  A    between atoms: C11_13  and  O3_14 
REMARK    8  A    between atoms: C12_16  and  O4_17 
REMARK    9  A    between atoms: C13_19  and  O5_20 
REMARK   10  A    between atoms: C14_22  and  O6_23 
REMARK   11  A    between atoms: O6_23  and  C15_24 
ROOT
HETATM    1  C9  UNL     1      16.236  -2.926  10.294  1.00  0.00     0.187 C 
HETATM    2  O2  UNL     1      17.587  -3.263  10.348  1.00  0.00    -0.368 OA
HETATM    3  C10 UNL     1      18.395  -2.218  10.717  1.00  0.00     0.177 C 
HETATM    4  C12 UNL     1      18.525  -1.191   9.608  1.00  0.00     0.180 C 
HETATM    5  C13 UNL     1      17.143  -0.953   9.051  1.00  0.00     0.181 C 
HETATM    6  C14 UNL     1      16.090  -1.466  10.028  1.00  0.00     0.192 C 
ENDROOT
BRANCH   1   7
HETATM    7  C8  UNL     1      15.657  -3.313  11.595  1.00  0.00    -0.022 A 
HETATM    8  C7  UNL     1      14.277  -3.186  11.819  1.00  0.00     0.049 A 
HETATM    9  C6  UNL     1      13.697  -3.532  13.017  1.00  0.00     0.106 A 
HETATM   10  C21 UNL     1      14.539  -4.013  14.000  1.00  0.00     0.119 A 
HETATM   11  C20 UNL     1      15.897  -4.143  13.794  1.00  0.00     0.088 A 
HETATM   12  N2  UNL     1      14.303  -4.429  15.247  1.00  0.00    -0.237 N 
HETATM   13  C19 UNL     1      16.485  -3.793  12.579  1.00  0.00     0.043 A 
HETATM   14  N1  UNL     1      16.413  -4.630  14.925  1.00  0.00    -0.239 N 
HETATM   15  O7  UNL     1      15.442  -4.790  15.776  1.00  0.00    -0.156 OA
ATOM     16  H1  UNL     1      17.396  -4.839  15.093  1.00  0.00     0.197 HD
ATOM     17  H2  UNL     1      13.393  -4.458  15.707  1.00  0.00     0.197 HD
BRANCH   9  18
HETATM   18  O1  UNL     1      12.334  -3.402  13.223  1.00  0.00    -0.320 OA
BRANCH  18  19
HETATM   19  C5  UNL     1      11.714  -2.146  13.266  1.00  0.00     0.143 C 
BRANCH  19  20
HETATM   20  C4  UNL     1      10.322  -2.121  12.873  1.00  0.00     0.026 C 
BRANCH  20  21
HETATM   21  C2  UNL     1       9.445  -1.182  13.072  1.00  0.00    -0.086 C 
HETATM   22  C1  UNL     1       7.999  -1.480  13.165  1.00  0.00     0.043 C 
HETATM   23  C3  UNL     1       9.851   0.267  13.222  1.00  0.00     0.043 C 
ENDBRANCH  20  21
ENDBRANCH  19  20
ENDBRANCH  18  19
ENDBRANCH   9  18
ENDBRANCH   1   7
BRANCH   6  24
HETATM   24  O6  UNL     1      14.850  -1.115   9.433  1.00  0.00    -0.352 OA
BRANCH  24  25
HETATM   25  C15 UNL     1      13.985  -0.196  10.008  1.00  0.00     0.137 C 
HETATM   26  C16 UNL     1      12.704  -0.385  10.159  1.00  0.00    -0.066 C 
HETATM   27  C17 UNL     1      12.074  -1.637   9.708  1.00  0.00     0.045 C 
HETATM   28  C18 UNL     1      11.869   0.653  10.782  1.00  0.00     0.045 C 
ENDBRANCH  24  25
ENDBRANCH   6  24
BRANCH   3  29
HETATM   29  C11 UNL     1      19.792  -2.782  10.951  1.00  0.00     0.198 C 
BRANCH  29  30
HETATM   30  O3  UNL     1      19.661  -4.152  11.163  1.00  0.00    -0.398 OA
ATOM     31  H3  UNL     1      20.037  -4.348  12.013  1.00  0.00     0.209 HD
ENDBRANCH  29  30
ENDBRANCH   3  29
BRANCH   5  32
HETATM   32  O5  UNL     1      16.961   0.425   8.940  1.00  0.00    -0.390 OA
ATOM     33  H5  UNL     1      17.563   0.745   8.278  1.00  0.00     0.210 HD
ENDBRANCH   5  32
BRANCH   4  34
HETATM   34  O4  UNL     1      19.046  -0.030  10.190  1.00  0.00    -0.390 OA
ATOM     35  H4  UNL     1      18.318   0.567  10.310  1.00  0.00     0.210 HD
ENDBRANCH   4  34
TORSDOF 11
ENDMDL
