MODEL 1
REMARK VINA RESULT: -7.687958871      0.000      0.000
REMARK  11 active torsions:
REMARK  status: ('A' for Active; 'I' for Inactive)
REMARK    1  A    between atoms: C2_2  and  C3_3 
REMARK    2  A    between atoms: C3_3  and  C4_4 
REMARK    3  A    between atoms: C4_4  and  C5_5 
REMARK    4  A    between atoms: C5_5  and  C6_6 
REMARK    5  A    between atoms: C6_6  and  C7_7 
REMARK    6  A    between atoms: C8_8  and  N1_10 
REMARK    7  A    between atoms: N2_13  and  C11_14 
REMARK    8  A    between atoms: C12_16  and  C13_17 
REMARK    9  A    between atoms: C13_17  and  O3_18 
REMARK   10  A    between atoms: C14_20  and  O4_21 
REMARK   11  A    between atoms: C16_25  and  O6_26 
ROOT
HETATM    1  N1  UNL     1      13.631  -3.700  12.312  1.00  0.00    -0.266 N 
HETATM    2  C10 UNL     1      13.383  -4.614  13.261  1.00  0.00     0.337 A 
HETATM    3  O1  UNL     1      12.330  -4.754  13.920  1.00  0.00    -0.246 OA
HETATM    4  N2  UNL     1      14.422  -5.432  13.470  1.00  0.00    -0.260 N 
HETATM    5  C17 UNL     1      15.357  -4.996  12.603  1.00  0.00     0.110 A 
HETATM    6  S1  UNL     1      16.958  -5.248  12.030  1.00  0.00    -0.082 SA
HETATM    7  C18 UNL     1      17.039  -4.009  10.879  1.00  0.00     0.054 A 
HETATM    8  C19 UNL     1      15.803  -3.420  10.968  1.00  0.00     0.040 A 
HETATM    9  C20 UNL     1      14.925  -3.926  11.858  1.00  0.00     0.078 A 
ENDROOT
BRANCH   4  10
HETATM   10  C11 UNL     1      14.569  -6.528  14.387  1.00  0.00     0.270 C 
HETATM   11  O2  UNL     1      15.308  -7.510  13.824  1.00  0.00    -0.353 OA
HETATM   12  C12 UNL     1      16.252  -8.180  14.492  1.00  0.00     0.184 C 
HETATM   13  C14 UNL     1      17.015  -7.498  15.563  1.00  0.00     0.221 C 
HETATM   14  C15 UNL     1      16.296  -6.367  16.195  1.00  0.00     0.190 C 
HETATM   15  O5  UNL     1      16.804  -5.648  17.032  1.00  0.00    -0.292 OA
HETATM   16  C16 UNL     1      14.908  -6.120  15.780  1.00  0.00     0.239 C 
BRANCH  12  17
HETATM   17  C13 UNL     1      15.765  -9.530  15.049  1.00  0.00     0.199 C 
BRANCH  17  18
HETATM   18  O3  UNL     1      16.670 -10.545  14.658  1.00  0.00    -0.398 OA
ATOM     19  H3  UNL     1      17.500 -10.147  14.422  1.00  0.00     0.209 HD
ENDBRANCH  17  18
ENDBRANCH  12  17
BRANCH  13  20
HETATM   20  O4  UNL     1      17.457  -8.429  16.498  1.00  0.00    -0.385 OA
ATOM     21  H4  UNL     1      17.660  -7.994  17.317  1.00  0.00     0.210 HD
ENDBRANCH  13  20
BRANCH  16  22
HETATM   22  O6  UNL     1      14.102  -6.831  16.673  1.00  0.00    -0.383 OA
ATOM     23  H6  UNL     1      14.288  -7.759  16.588  1.00  0.00     0.210 HD
ENDBRANCH  16  22
ENDBRANCH   4  10
BRANCH   1  24
HETATM   24  C8  UNL     1      12.755  -2.638  11.872  1.00  0.00     0.014 C 
HETATM   25  C7  UNL     1      13.043  -1.400  12.064  1.00  0.00    -0.002 C 
HETATM   26  C9  UNL     1      11.481  -3.038  11.243  1.00  0.00     0.068 C 
BRANCH  25  27
HETATM   27  C6  UNL     1      12.204  -0.195  11.714  1.00  0.00     0.029 C 
BRANCH  27  28
HETATM   28  C5  UNL     1      12.790   0.536  10.566  1.00  0.00     0.004 C 
BRANCH  28  29
HETATM   29  C4  UNL     1      13.830  -0.166   9.795  1.00  0.00     0.000 C 
BRANCH  29  30
HETATM   30  C3  UNL     1      15.059   0.500   9.369  1.00  0.00    -0.000 C 
BRANCH  30  31
HETATM   31  C2  UNL     1      16.189  -0.267   8.793  1.00  0.00    -0.005 C 
HETATM   32  C1  UNL     1      17.420  -0.262   9.656  1.00  0.00     0.005 C 
ENDBRANCH  30  31
ENDBRANCH  29  30
ENDBRANCH  28  29
ENDBRANCH  27  28
ENDBRANCH  25  27
ENDBRANCH   1  24
TORSDOF 11
ENDMDL
MODEL 2
REMARK VINA RESULT: -7.572590574      1.357      2.114
REMARK  11 active torsions:
REMARK  status: ('A' for Active; 'I' for Inactive)
REMARK    1  A    between atoms: C2_2  and  C3_3 
REMARK    2  A    between atoms: C3_3  and  C4_4 
REMARK    3  A    between atoms: C4_4  and  C5_5 
REMARK    4  A    between atoms: C5_5  and  C6_6 
REMARK    5  A    between atoms: C6_6  and  C7_7 
REMARK    6  A    between atoms: C8_8  and  N1_10 
REMARK    7  A    between atoms: N2_13  and  C11_14 
REMARK    8  A    between atoms: C12_16  and  C13_17 
REMARK    9  A    between atoms: C13_17  and  O3_18 
REMARK   10  A    between atoms: C14_20  and  O4_21 
REMARK   11  A    between atoms: C16_25  and  O6_26 
ROOT
HETATM    1  N1  UNL     1      12.728  -3.928  12.680  1.00  0.00    -0.266 N 
HETATM    2  C10 UNL     1      12.777  -5.098  13.333  1.00  0.00     0.337 A 
HETATM    3  O1  UNL     1      11.811  -5.809  13.684  1.00  0.00    -0.246 OA
HETATM    4  N2  UNL     1      14.031  -5.483  13.603  1.00  0.00    -0.260 N 
HETATM    5  C17 UNL     1      14.791  -4.496  13.089  1.00  0.00     0.110 A 
HETATM    6  S1  UNL     1      16.404  -3.946  12.865  1.00  0.00    -0.082 SA
HETATM    7  C18 UNL     1      16.092  -2.496  12.050  1.00  0.00     0.054 A 
HETATM    8  C19 UNL     1      14.723  -2.472  11.968  1.00  0.00     0.040 A 
HETATM    9  C20 UNL     1      14.041  -3.505  12.503  1.00  0.00     0.078 A 
ENDROOT
BRANCH   4  10
HETATM   10  C11 UNL     1      14.515  -6.654  14.280  1.00  0.00     0.270 C 
HETATM   11  O2  UNL     1      15.402  -7.310  13.498  1.00  0.00    -0.353 OA
HETATM   12  C12 UNL     1      16.535  -7.835  13.972  1.00  0.00     0.184 C 
HETATM   13  C14 UNL     1      17.222  -7.188  15.114  1.00  0.00     0.221 C 
HETATM   14  C15 UNL     1      16.327  -6.397  15.991  1.00  0.00     0.190 C 
HETATM   15  O5  UNL     1      16.736  -5.736  16.925  1.00  0.00    -0.292 OA
HETATM   16  C16 UNL     1      14.886  -6.428  15.706  1.00  0.00     0.239 C 
BRANCH  12  17
HETATM   17  C13 UNL     1      16.429  -9.340  14.280  1.00  0.00     0.199 C 
BRANCH  17  18
HETATM   18  O3  UNL     1      17.379 -10.040  13.499  1.00  0.00    -0.398 OA
ATOM     19  H3  UNL     1      17.042 -10.141  12.617  1.00  0.00     0.209 HD
ENDBRANCH  17  18
ENDBRANCH  12  17
BRANCH  13  20
HETATM   20  O4  UNL     1      17.955  -8.132  15.825  1.00  0.00    -0.385 OA
ATOM     21  H4  UNL     1      17.687  -9.008  15.573  1.00  0.00     0.210 HD
ENDBRANCH  13  20
BRANCH  16  22
HETATM   22  O6  UNL     1      14.356  -7.460  16.484  1.00  0.00    -0.383 OA
ATOM     23  H6  UNL     1      13.725  -7.947  15.966  1.00  0.00     0.210 HD
ENDBRANCH  16  22
ENDBRANCH   4  10
BRANCH   1  24
HETATM   24  C8  UNL     1      11.546  -3.200  12.279  1.00  0.00     0.014 C 
HETATM   25  C7  UNL     1      10.762  -2.655  13.139  1.00  0.00    -0.002 C 
HETATM   26  C9  UNL     1      11.242  -3.160  10.835  1.00  0.00     0.068 C 
BRANCH  25  27
HETATM   27  C6  UNL     1       9.470  -1.920  12.873  1.00  0.00     0.029 C 
BRANCH  27  28
HETATM   28  C5  UNL     1       9.635  -0.468  13.119  1.00  0.00     0.004 C 
BRANCH  28  29
HETATM   29  C4  UNL     1      10.931   0.124  12.750  1.00  0.00     0.000 C 
BRANCH  29  30
HETATM   30  C3  UNL     1      11.390   0.177  11.363  1.00  0.00    -0.000 C 
BRANCH  30  31
HETATM   31  C2  UNL     1      12.789   0.542  11.031  1.00  0.00    -0.005 C 
HETATM   32  C1  UNL     1      13.315  -0.152   9.805  1.00  0.00     0.005 C 
ENDBRANCH  30  31
ENDBRANCH  29  30
ENDBRANCH  28  29
ENDBRANCH  27  28
ENDBRANCH  25  27
ENDBRANCH   1  24
TORSDOF 11
ENDMDL
MODEL 3
REMARK VINA RESULT: -7.510871392      2.155      4.100
REMARK  11 active torsions:
REMARK  status: ('A' for Active; 'I' for Inactive)
REMARK    1  A    between atoms: C2_2  and  C3_3 
REMARK    2  A    between atoms: C3_3  and  C4_4 
REMARK    3  A    between atoms: C4_4  and  C5_5 
REMARK    4  A    between atoms: C5_5  and  C6_6 
REMARK    5  A    between atoms: C6_6  and  C7_7 
REMARK    6  A    between atoms: C8_8  and  N1_10 
REMARK    7  A    between atoms: N2_13  and  C11_14 
REMARK    8  A    between atoms: C12_16  and  C13_17 
REMARK    9  A    between atoms: C13_17  and  O3_18 
REMARK   10  A    between atoms: C14_20  and  O4_21 
REMARK   11  A    between atoms: C16_25  and  O6_26 
ROOT
HETATM    1  N1  UNL     1      14.811  -3.407  12.149  1.00  0.00    -0.266 N 
HETATM    2  C10 UNL     1      15.977  -3.924  12.562  1.00  0.00     0.337 A 
HETATM    3  O1  UNL     1      17.125  -3.535  12.259  1.00  0.00    -0.246 OA
HETATM    4  N2  UNL     1      15.813  -4.966  13.386  1.00  0.00    -0.260 N 
HETATM    5  C17 UNL     1      14.475  -5.095  13.484  1.00  0.00     0.110 A 
HETATM    6  S1  UNL     1      13.208  -6.013  14.195  1.00  0.00    -0.082 SA
HETATM    7  C18 UNL     1      11.875  -5.199  13.541  1.00  0.00     0.054 A 
HETATM    8  C19 UNL     1      12.453  -4.219  12.775  1.00  0.00     0.040 A 
HETATM    9  C20 UNL     1      13.801  -4.157  12.741  1.00  0.00     0.078 A 
ENDROOT
BRANCH   4  10
HETATM   10  C11 UNL     1      16.789  -5.793  14.040  1.00  0.00     0.270 C 
HETATM   11  O2  UNL     1      16.530  -5.860  15.365  1.00  0.00    -0.353 OA
HETATM   12  C12 UNL     1      16.622  -6.995  16.064  1.00  0.00     0.184 C 
HETATM   13  C14 UNL     1      16.324  -8.288  15.405  1.00  0.00     0.221 C 
HETATM   14  C15 UNL     1      16.526  -8.283  13.938  1.00  0.00     0.190 C 
HETATM   15  O5  UNL     1      16.251  -9.232  13.231  1.00  0.00    -0.292 OA
HETATM   16  C16 UNL     1      17.087  -7.069  13.328  1.00  0.00     0.239 C 
BRANCH  12  17
HETATM   17  C13 UNL     1      17.960  -7.146  16.810  1.00  0.00     0.199 C 
BRANCH  17  18
HETATM   18  O3  UNL     1      19.001  -6.632  16.001  1.00  0.00    -0.398 OA
ATOM     19  H3  UNL     1      19.436  -7.352  15.559  1.00  0.00     0.209 HD
ENDBRANCH  17  18
ENDBRANCH  12  17
BRANCH  13  20
HETATM   20  O4  UNL     1      17.027  -9.313  16.030  1.00  0.00    -0.385 OA
ATOM     21  H4  UNL     1      17.020 -10.090  15.485  1.00  0.00     0.210 HD
ENDBRANCH  13  20
BRANCH  16  22
HETATM   22  O6  UNL     1      18.470  -7.256  13.286  1.00  0.00    -0.383 OA
ATOM     23  H6  UNL     1      18.696  -7.724  12.490  1.00  0.00     0.210 HD
ENDBRANCH  16  22
ENDBRANCH   4  10
BRANCH   1  24
HETATM   24  C8  UNL     1      14.618  -2.315  11.221  1.00  0.00     0.014 C 
HETATM   25  C7  UNL     1      13.756  -1.387  11.438  1.00  0.00    -0.002 C 
HETATM   26  C9  UNL     1      15.414  -2.344   9.980  1.00  0.00     0.068 C 
BRANCH  25  27
HETATM   27  C6  UNL     1      13.407  -0.227  10.537  1.00  0.00     0.029 C 
BRANCH  27  28
HETATM   28  C5  UNL     1      11.999   0.190  10.743  1.00  0.00     0.004 C 
BRANCH  28  29
HETATM   29  C4  UNL     1      11.150  -0.711  11.539  1.00  0.00     0.000 C 
BRANCH  29  30
HETATM   30  C3  UNL     1      10.356  -0.230  12.667  1.00  0.00    -0.000 C 
BRANCH  30  31
HETATM   31  C2  UNL     1       9.167  -0.977  13.144  1.00  0.00    -0.005 C 
HETATM   32  C1  UNL     1       8.185  -0.124  13.898  1.00  0.00     0.005 C 
ENDBRANCH  30  31
ENDBRANCH  29  30
ENDBRANCH  28  29
ENDBRANCH  27  28
ENDBRANCH  25  27
ENDBRANCH   1  24
TORSDOF 11
ENDMDL
MODEL 4
REMARK VINA RESULT: -7.484530187      2.062      3.538
REMARK  11 active torsions:
REMARK  status: ('A' for Active; 'I' for Inactive)
REMARK    1  A    between atoms: C2_2  and  C3_3 
REMARK    2  A    between atoms: C3_3  and  C4_4 
REMARK    3  A    between atoms: C4_4  and  C5_5 
REMARK    4  A    between atoms: C5_5  and  C6_6 
REMARK    5  A    between atoms: C6_6  and  C7_7 
REMARK    6  A    between atoms: C8_8  and  N1_10 
REMARK    7  A    between atoms: N2_13  and  C11_14 
REMARK    8  A    between atoms: C12_16  and  C13_17 
REMARK    9  A    between atoms: C13_17  and  O3_18 
REMARK   10  A    between atoms: C14_20  and  O4_21 
REMARK   11  A    between atoms: C16_25  and  O6_26 
ROOT
HETATM    1  N1  UNL     1      14.761  -3.302  12.185  1.00  0.00    -0.266 N 
HETATM    2  C10 UNL     1      15.938  -3.800  12.588  1.00  0.00     0.337 A 
HETATM    3  O1  UNL     1      17.077  -3.367  12.310  1.00  0.00    -0.246 OA
HETATM    4  N2  UNL     1      15.799  -4.877  13.372  1.00  0.00    -0.260 N 
HETATM    5  C17 UNL     1      14.465  -5.047  13.453  1.00  0.00     0.110 A 
HETATM    6  S1  UNL     1      13.219  -6.027  14.120  1.00  0.00    -0.082 SA
HETATM    7  C18 UNL     1      11.868  -5.228  13.484  1.00  0.00     0.054 A 
HETATM    8  C19 UNL     1      12.423  -4.204  12.759  1.00  0.00     0.040 A 
HETATM    9  C20 UNL     1      13.769  -4.103  12.739  1.00  0.00     0.078 A 
ENDROOT
BRANCH   4  10
HETATM   10  C11 UNL     1      16.794  -5.698  14.004  1.00  0.00     0.270 C 
HETATM   11  O2  UNL     1      16.574  -5.753  15.337  1.00  0.00    -0.353 OA
HETATM   12  C12 UNL     1      16.686  -6.882  16.043  1.00  0.00     0.184 C 
HETATM   13  C14 UNL     1      16.368  -8.181  15.405  1.00  0.00     0.221 C 
HETATM   14  C15 UNL     1      16.526  -8.189  13.932  1.00  0.00     0.190 C 
HETATM   15  O5  UNL     1      16.230  -9.143  13.242  1.00  0.00    -0.292 OA
HETATM   16  C16 UNL     1      17.069  -6.980  13.295  1.00  0.00     0.239 C 
BRANCH  12  17
HETATM   17  C13 UNL     1      18.046  -7.027  16.750  1.00  0.00     0.199 C 
BRANCH  17  18
HETATM   18  O3  UNL     1      19.079  -6.729  15.831  1.00  0.00    -0.398 OA
ATOM     19  H3  UNL     1      19.867  -6.502  16.311  1.00  0.00     0.209 HD
ENDBRANCH  17  18
ENDBRANCH  12  17
BRANCH  13  20
HETATM   20  O4  UNL     1      17.089  -9.200  16.017  1.00  0.00    -0.385 OA
ATOM     21  H4  UNL     1      16.838  -9.272  16.930  1.00  0.00     0.210 HD
ENDBRANCH  13  20
BRANCH  16  22
HETATM   22  O6  UNL     1      18.451  -7.169  13.214  1.00  0.00    -0.383 OA
ATOM     23  H6  UNL     1      18.626  -8.065  12.951  1.00  0.00     0.210 HD
ENDBRANCH  16  22
ENDBRANCH   4  10
BRANCH   1  24
HETATM   24  C8  UNL     1      14.544  -2.183  11.295  1.00  0.00     0.014 C 
HETATM   25  C7  UNL     1      15.312  -1.959  10.289  1.00  0.00    -0.002 C 
HETATM   26  C9  UNL     1      13.434  -1.270  11.628  1.00  0.00     0.068 C 
BRANCH  25  27
HETATM   27  C6  UNL     1      15.242  -0.806   9.317  1.00  0.00     0.029 C 
BRANCH  27  28
HETATM   28  C5  UNL     1      16.599  -0.281   9.032  1.00  0.00     0.004 C 
BRANCH  28  29
HETATM   29  C4  UNL     1      17.720  -0.924   9.736  1.00  0.00     0.000 C 
BRANCH  29  30
HETATM   30  C3  UNL     1      18.841  -1.526   9.017  1.00  0.00    -0.000 C 
BRANCH  30  31
HETATM   31  C2  UNL     1      19.477  -2.777   9.496  1.00  0.00    -0.005 C 
HETATM   32  C1  UNL     1      20.191  -2.623  10.811  1.00  0.00     0.005 C 
ENDBRANCH  30  31
ENDBRANCH  29  30
ENDBRANCH  28  29
ENDBRANCH  27  28
ENDBRANCH  25  27
ENDBRANCH   1  24
TORSDOF 11
ENDMDL
MODEL 5
REMARK VINA RESULT: -7.342824480      2.123      3.660
REMARK  11 active torsions:
REMARK  status: ('A' for Active; 'I' for Inactive)
REMARK    1  A    between atoms: C2_2  and  C3_3 
REMARK    2  A    between atoms: C3_3  and  C4_4 
REMARK    3  A    between atoms: C4_4  and  C5_5 
REMARK    4  A    between atoms: C5_5  and  C6_6 
REMARK    5  A    between atoms: C6_6  and  C7_7 
REMARK    6  A    between atoms: C8_8  and  N1_10 
REMARK    7  A    between atoms: N2_13  and  C11_14 
REMARK    8  A    between atoms: C12_16  and  C13_17 
REMARK    9  A    between atoms: C13_17  and  O3_18 
REMARK   10  A    between atoms: C14_20  and  O4_21 
REMARK   11  A    between atoms: C16_25  and  O6_26 
ROOT
HETATM    1  N1  UNL     1      15.196  -3.040  11.523  1.00  0.00    -0.266 N 
HETATM    2  C10 UNL     1      15.691  -4.175  12.038  1.00  0.00     0.337 A 
HETATM    3  O1  UNL     1      16.841  -4.637  11.881  1.00  0.00    -0.246 OA
HETATM    4  N2  UNL     1      14.799  -4.828  12.793  1.00  0.00    -0.260 N 
HETATM    5  C17 UNL     1      13.698  -4.053  12.738  1.00  0.00     0.110 A 
HETATM    6  S1  UNL     1      12.069  -3.898  13.265  1.00  0.00    -0.082 SA
HETATM    7  C18 UNL     1      11.668  -2.440  12.504  1.00  0.00     0.054 A 
HETATM    8  C19 UNL     1      12.825  -2.101  11.849  1.00  0.00     0.040 A 
HETATM    9  C20 UNL     1      13.882  -2.931  11.966  1.00  0.00     0.078 A 
ENDROOT
BRANCH   4  10
HETATM   10  C11 UNL     1      14.924  -6.065  13.514  1.00  0.00     0.270 C 
HETATM   11  O2  UNL     1      15.840  -6.860  12.917  1.00  0.00    -0.353 OA
HETATM   12  C12 UNL     1      16.740  -7.569  13.604  1.00  0.00     0.184 C 
HETATM   13  C14 UNL     1      17.256  -7.048  14.892  1.00  0.00     0.221 C 
HETATM   14  C15 UNL     1      16.333  -6.119  15.584  1.00  0.00     0.190 C 
HETATM   15  O5  UNL     1      16.629  -5.537  16.608  1.00  0.00    -0.292 OA
HETATM   16  C16 UNL     1      15.004  -5.906  14.993  1.00  0.00     0.239 C 
BRANCH  12  17
HETATM   17  C13 UNL     1      16.323  -9.035  13.824  1.00  0.00     0.199 C 
BRANCH  17  18
HETATM   18  O3  UNL     1      17.340  -9.884  13.328  1.00  0.00    -0.398 OA
ATOM     19  H3  UNL     1      16.992 -10.397  12.607  1.00  0.00     0.209 HD
ENDBRANCH  17  18
ENDBRANCH  12  17
BRANCH  13  20
HETATM   20  O4  UNL     1      17.650  -8.104  15.707  1.00  0.00    -0.385 OA
ATOM     21  H4  UNL     1      17.987  -8.815  15.177  1.00  0.00     0.210 HD
ENDBRANCH  13  20
BRANCH  16  22
HETATM   22  O6  UNL     1      14.154  -6.835  15.598  1.00  0.00    -0.383 OA
ATOM     23  H6  UNL     1      14.305  -7.690  15.212  1.00  0.00     0.210 HD
ENDBRANCH  16  22
ENDBRANCH   4  10
BRANCH   1  24
HETATM   24  C8  UNL     1      15.863  -2.123  10.627  1.00  0.00     0.014 C 
HETATM   25  C7  UNL     1      17.054  -1.698  10.858  1.00  0.00    -0.002 C 
HETATM   26  C9  UNL     1      15.093  -1.645   9.463  1.00  0.00     0.068 C 
BRANCH  25  27
HETATM   27  C6  UNL     1      17.848  -0.700  10.049  1.00  0.00     0.029 C 
BRANCH  27  28
HETATM   28  C5  UNL     1      18.434  -1.346   8.851  1.00  0.00     0.004 C 
BRANCH  28  29
HETATM   29  C4  UNL     1      19.813  -1.847   8.976  1.00  0.00     0.000 C 
BRANCH  29  30
HETATM   30  C3  UNL     1      20.102  -3.216   9.398  1.00  0.00    -0.000 C 
BRANCH  30  31
HETATM   31  C2  UNL     1      20.395  -3.537  10.816  1.00  0.00    -0.005 C 
HETATM   32  C1  UNL     1      21.785  -3.155  11.244  1.00  0.00     0.005 C 
ENDBRANCH  30  31
ENDBRANCH  29  30
ENDBRANCH  28  29
ENDBRANCH  27  28
ENDBRANCH  25  27
ENDBRANCH   1  24
TORSDOF 11
ENDMDL
