MODEL 1
REMARK VINA RESULT: -8.567863502      0.000      0.000
REMARK  9 active torsions:
REMARK  status: ('A' for Active; 'I' for Inactive)
REMARK    1  A    between atoms: C2_3  and  O1_7 
REMARK    2  A    between atoms: O1_7  and  C3_8 
REMARK    3  A    between atoms: C3_8  and  C4_9 
REMARK    4  A    between atoms: C5_11  and  C6_12 
REMARK    5  A    between atoms: C6_12  and  O3_13 
REMARK    6  A    between atoms: C6_12  and  C7_15 
REMARK    7  A    between atoms: N3_18  and  C10_19 
REMARK    8  A    between atoms: C10_19  and  C11_20 
REMARK    9  A    between atoms: C19_29  and  O4_30 
ROOT
HETATM    1  N1  UNL     1       9.242   0.862  13.630  1.00  0.00    -0.188 NA
HETATM    2  C1  UNL     1      10.010   0.181  13.086  1.00  0.00     0.144 C 
HETATM    3  C2  UNL     1      11.019  -0.659  12.412  1.00  0.00     0.220 C 
HETATM    4  N2  UNL     1      11.492  -0.257  11.254  1.00  0.00    -0.371 N 
ATOM      5  H21 UNL     1      12.189  -0.838  10.788  1.00  0.00     0.158 HD
ATOM      6  H22 UNL     1      11.113   0.613  10.883  1.00  0.00     0.158 HD
ENDROOT
BRANCH   3   7
HETATM    7  O1  UNL     1      11.492  -1.747  12.876  1.00  0.00    -0.321 OA
BRANCH   7   8
HETATM    8  C3  UNL     1      12.106  -2.850  13.085  1.00  0.00     0.244 C 
BRANCH   8   9
HETATM    9  C4  UNL     1      13.457  -2.928  12.404  1.00  0.00     0.098 A 
HETATM   10  O2  UNL     1      14.056  -2.014  11.735  1.00  0.00    -0.313 OA
HETATM   11  C5  UNL     1      15.242  -2.445  11.248  1.00  0.00     0.084 A 
HETATM   12  C20 UNL     1      15.378  -3.742  11.663  1.00  0.00     0.060 A 
HETATM   13  C21 UNL     1      14.280  -4.053  12.377  1.00  0.00     0.079 A 
HETATM   14  C22 UNL     1      13.999  -5.260  13.117  1.00  0.00     0.102 C 
HETATM   15  N5  UNL     1      13.755  -6.194  13.745  1.00  0.00    -0.191 NA
BRANCH  11  16
HETATM   16  C6  UNL     1      16.039  -1.541  10.443  1.00  0.00     0.182 C 
BRANCH  16  17
HETATM   17  O3  UNL     1      15.240  -1.327   9.244  1.00  0.00    -0.388 OA
ATOM     18  H3  UNL     1      14.351  -1.529   9.515  1.00  0.00     0.210 HD
ENDBRANCH  16  17
BRANCH  16  19
HETATM   19  C7  UNL     1      17.349  -2.103   9.864  1.00  0.00     0.056 C 
HETATM   20  C8  UNL     1      18.366  -2.154  10.988  1.00  0.00     0.030 C 
HETATM   21  C9  UNL     1      19.766  -2.033  10.634  1.00  0.00     0.127 C 
HETATM   22  N3  UNL     1      20.049  -2.053   9.202  1.00  0.00    -0.370 N 
HETATM   23  C18 UNL     1      19.228  -1.319   8.411  1.00  0.00     0.095 C 
HETATM   24  C19 UNL     1      17.887  -0.948   8.962  1.00  0.00     0.163 C 
BRANCH  22  25
HETATM   25  C10 UNL     1      21.444  -2.085   9.098  1.00  0.00     0.087 C 
BRANCH  25  26
HETATM   26  C11 UNL     1      22.222  -3.038   8.299  1.00  0.00     0.081 C 
HETATM   27  C12 UNL     1      22.289  -2.665   6.878  1.00  0.00     0.074 C 
HETATM   28  N4  UNL     1      22.367  -2.353   5.779  1.00  0.00    -0.196 NA
HETATM   29  C13 UNL     1      23.425  -3.583   8.913  1.00  0.00     0.030 C 
HETATM   30  C14 UNL     1      23.195  -4.872   9.721  1.00  0.00     0.002 C 
HETATM   31  C15 UNL     1      22.961  -6.007   8.749  1.00  0.00     0.000 C 
HETATM   32  C16 UNL     1      22.085  -5.417   7.653  1.00  0.00     0.002 C 
HETATM   33  C17 UNL     1      21.242  -4.321   8.211  1.00  0.00     0.030 C 
ENDBRANCH  25  26
ENDBRANCH  22  25
BRANCH  24  34
HETATM   34  O4  UNL     1      17.949   0.212   9.794  1.00  0.00    -0.390 OA
ATOM     35  H4  UNL     1      18.829   0.559   9.700  1.00  0.00     0.210 HD
ENDBRANCH  24  34
ENDBRANCH  16  19
ENDBRANCH  11  16
ENDBRANCH   8   9
ENDBRANCH   7   8
ENDBRANCH   3   7
TORSDOF 9
ENDMDL
MODEL 2
REMARK VINA RESULT: -8.334951644      1.074      1.627
REMARK  9 active torsions:
REMARK  status: ('A' for Active; 'I' for Inactive)
REMARK    1  A    between atoms: C2_3  and  O1_7 
REMARK    2  A    between atoms: O1_7  and  C3_8 
REMARK    3  A    between atoms: C3_8  and  C4_9 
REMARK    4  A    between atoms: C5_11  and  C6_12 
REMARK    5  A    between atoms: C6_12  and  O3_13 
REMARK    6  A    between atoms: C6_12  and  C7_15 
REMARK    7  A    between atoms: N3_18  and  C10_19 
REMARK    8  A    between atoms: C10_19  and  C11_20 
REMARK    9  A    between atoms: C19_29  and  O4_30 
ROOT
HETATM    1  N1  UNL     1       8.782   0.817  13.843  1.00  0.00    -0.188 NA
HETATM    2  C1  UNL     1       9.597   0.184  13.311  1.00  0.00     0.144 C 
HETATM    3  C2  UNL     1      10.665  -0.595  12.653  1.00  0.00     0.220 C 
HETATM    4  N2  UNL     1      11.164  -0.141  11.526  1.00  0.00    -0.371 N 
ATOM      5  H21 UNL     1      11.902  -0.679  11.072  1.00  0.00     0.158 HD
ATOM      6  H22 UNL     1      10.764   0.725  11.165  1.00  0.00     0.158 HD
ENDROOT
BRANCH   3   7
HETATM    7  O1  UNL     1      11.164  -1.676  13.105  1.00  0.00    -0.321 OA
BRANCH   7   8
HETATM    8  C3  UNL     1      11.773  -2.787  13.288  1.00  0.00     0.244 C 
BRANCH   8   9
HETATM    9  C4  UNL     1      13.128  -2.852  12.614  1.00  0.00     0.098 A 
HETATM   10  O2  UNL     1      13.712  -1.939  11.931  1.00  0.00    -0.313 OA
HETATM   11  C5  UNL     1      14.909  -2.355  11.458  1.00  0.00     0.084 A 
HETATM   12  C20 UNL     1      15.067  -3.642  11.897  1.00  0.00     0.060 A 
HETATM   13  C21 UNL     1      13.972  -3.961  12.612  1.00  0.00     0.079 A 
HETATM   14  C22 UNL     1      13.712  -5.158  13.374  1.00  0.00     0.102 C 
HETATM   15  N5  UNL     1      13.483  -6.085  14.018  1.00  0.00    -0.191 NA
BRANCH  11  16
HETATM   16  C6  UNL     1      15.692  -1.451  10.639  1.00  0.00     0.182 C 
BRANCH  16  17
HETATM   17  O3  UNL     1      14.866  -1.225   9.460  1.00  0.00    -0.388 OA
ATOM     18  H3  UNL     1      13.985  -1.442   9.746  1.00  0.00     0.210 HD
ENDBRANCH  16  17
BRANCH  16  19
HETATM   19  C7  UNL     1      16.984  -2.018  10.025  1.00  0.00     0.056 C 
HETATM   20  C8  UNL     1      18.068  -1.947  11.085  1.00  0.00     0.030 C 
HETATM   21  C9  UNL     1      19.438  -1.812  10.635  1.00  0.00     0.127 C 
HETATM   22  N3  UNL     1      19.636  -1.939   9.194  1.00  0.00    -0.370 N 
HETATM   23  C18 UNL     1      18.743  -1.297   8.401  1.00  0.00     0.095 C 
HETATM   24  C19 UNL     1      17.426  -0.924   9.003  1.00  0.00     0.163 C 
BRANCH  22  25
HETATM   25  C10 UNL     1      21.023  -1.936   9.007  1.00  0.00     0.087 C 
BRANCH  25  26
HETATM   26  C11 UNL     1      21.927  -3.056   9.287  1.00  0.00     0.081 C 
HETATM   27  C12 UNL     1      22.536  -2.972  10.623  1.00  0.00     0.074 C 
HETATM   28  N4  UNL     1      22.982  -2.921  11.676  1.00  0.00    -0.196 NA
HETATM   29  C13 UNL     1      21.512  -4.370   8.814  1.00  0.00     0.030 C 
HETATM   30  C14 UNL     1      21.983  -4.708   7.389  1.00  0.00     0.002 C 
HETATM   31  C15 UNL     1      23.467  -4.995   7.435  1.00  0.00     0.000 C 
HETATM   32  C16 UNL     1      24.042  -3.963   8.395  1.00  0.00     0.002 C 
HETATM   33  C17 UNL     1      23.213  -2.725   8.365  1.00  0.00     0.030 C 
ENDBRANCH  25  26
ENDBRANCH  22  25
BRANCH  24  34
HETATM   34  O4  UNL     1      17.496   0.301   9.735  1.00  0.00    -0.390 OA
ATOM     35  H4  UNL     1      17.909   0.932   9.157  1.00  0.00     0.210 HD
ENDBRANCH  24  34
ENDBRANCH  16  19
ENDBRANCH  11  16
ENDBRANCH   8   9
ENDBRANCH   7   8
ENDBRANCH   3   7
TORSDOF 9
ENDMDL
MODEL 3
REMARK VINA RESULT: -8.289155364      0.975      1.735
REMARK  9 active torsions:
REMARK  status: ('A' for Active; 'I' for Inactive)
REMARK    1  A    between atoms: C2_3  and  O1_7 
REMARK    2  A    between atoms: O1_7  and  C3_8 
REMARK    3  A    between atoms: C3_8  and  C4_9 
REMARK    4  A    between atoms: C5_11  and  C6_12 
REMARK    5  A    between atoms: C6_12  and  O3_13 
REMARK    6  A    between atoms: C6_12  and  C7_15 
REMARK    7  A    between atoms: N3_18  and  C10_19 
REMARK    8  A    between atoms: C10_19  and  C11_20 
REMARK    9  A    between atoms: C19_29  and  O4_30 
ROOT
HETATM    1  N1  UNL     1       9.250   0.838  13.675  1.00  0.00    -0.188 NA
HETATM    2  C1  UNL     1      10.005   0.147  13.127  1.00  0.00     0.144 C 
HETATM    3  C2  UNL     1      11.000  -0.707  12.447  1.00  0.00     0.220 C 
HETATM    4  N2  UNL     1      11.522  -0.282  11.320  1.00  0.00    -0.371 N 
ATOM      5  H21 UNL     1      12.208  -0.872  10.851  1.00  0.00     0.158 HD
ATOM      6  H22 UNL     1      11.189   0.617  10.973  1.00  0.00     0.158 HD
ENDROOT
BRANCH   3   7
HETATM    7  O1  UNL     1      11.415  -1.830  12.881  1.00  0.00    -0.321 OA
BRANCH   7   8
HETATM    8  C3  UNL     1      12.033  -2.929  13.106  1.00  0.00     0.244 C 
BRANCH   8   9
HETATM    9  C4  UNL     1      13.412  -2.985  12.481  1.00  0.00     0.098 A 
HETATM   10  O2  UNL     1      14.021  -2.062  11.835  1.00  0.00    -0.313 OA
HETATM   11  C5  UNL     1      15.234  -2.474  11.398  1.00  0.00     0.084 A 
HETATM   12  C20 UNL     1      15.374  -3.768  11.821  1.00  0.00     0.060 A 
HETATM   13  C21 UNL     1      14.254  -4.096  12.491  1.00  0.00     0.079 A 
HETATM   14  C22 UNL     1      13.964  -5.305  13.223  1.00  0.00     0.102 C 
HETATM   15  N5  UNL     1      13.710  -6.242  13.843  1.00  0.00    -0.191 NA
BRANCH  11  16
HETATM   16  C6  UNL     1      16.048  -1.558  10.623  1.00  0.00     0.182 C 
BRANCH  16  17
HETATM   17  O3  UNL     1      15.226  -1.240   9.462  1.00  0.00    -0.388 OA
ATOM     18  H3  UNL     1      15.087  -0.302   9.523  1.00  0.00     0.210 HD
ENDBRANCH  16  17
BRANCH  16  19
HETATM   19  C7  UNL     1      17.315  -2.140   9.973  1.00  0.00     0.056 C 
HETATM   20  C8  UNL     1      18.370  -2.270  11.056  1.00  0.00     0.030 C 
HETATM   21  C9  UNL     1      19.759  -2.181  10.654  1.00  0.00     0.127 C 
HETATM   22  N3  UNL     1      19.990  -2.153   9.213  1.00  0.00    -0.370 N 
HETATM   23  C18 UNL     1      19.166  -1.361   8.482  1.00  0.00     0.095 C 
HETATM   24  C19 UNL     1      17.860  -0.968   9.097  1.00  0.00     0.163 C 
BRANCH  22  25
HETATM   25  C10 UNL     1      21.378  -2.226   9.056  1.00  0.00     0.087 C 
BRANCH  25  26
HETATM   26  C11 UNL     1      22.080  -2.818   7.911  1.00  0.00     0.081 C 
HETATM   27  C12 UNL     1      21.806  -4.255   7.760  1.00  0.00     0.074 C 
HETATM   28  N4  UNL     1      21.563  -5.366   7.626  1.00  0.00    -0.196 NA
HETATM   29  C13 UNL     1      22.157  -2.013   6.700  1.00  0.00     0.030 C 
HETATM   30  C14 UNL     1      23.391  -1.096   6.628  1.00  0.00     0.002 C 
HETATM   31  C15 UNL     1      24.605  -1.954   6.351  1.00  0.00     0.000 C 
HETATM   32  C16 UNL     1      24.412  -3.202   7.199  1.00  0.00     0.002 C 
HETATM   33  C17 UNL     1      23.615  -2.871   8.415  1.00  0.00     0.030 C 
ENDBRANCH  25  26
ENDBRANCH  22  25
BRANCH  24  34
HETATM   34  O4  UNL     1      17.992   0.155   9.971  1.00  0.00    -0.390 OA
ATOM     35  H4  UNL     1      18.912   0.202  10.205  1.00  0.00     0.210 HD
ENDBRANCH  24  34
ENDBRANCH  16  19
ENDBRANCH  11  16
ENDBRANCH   8   9
ENDBRANCH   7   8
ENDBRANCH   3   7
TORSDOF 9
ENDMDL
MODEL 4
REMARK VINA RESULT: -8.181147438      0.721      1.131
REMARK  9 active torsions:
REMARK  status: ('A' for Active; 'I' for Inactive)
REMARK    1  A    between atoms: C2_3  and  O1_7 
REMARK    2  A    between atoms: O1_7  and  C3_8 
REMARK    3  A    between atoms: C3_8  and  C4_9 
REMARK    4  A    between atoms: C5_11  and  C6_12 
REMARK    5  A    between atoms: C6_12  and  O3_13 
REMARK    6  A    between atoms: C6_12  and  C7_15 
REMARK    7  A    between atoms: N3_18  and  C10_19 
REMARK    8  A    between atoms: C10_19  and  C11_20 
REMARK    9  A    between atoms: C19_29  and  O4_30 
ROOT
HETATM    1  N1  UNL     1      12.243   0.183  10.210  1.00  0.00    -0.188 NA
HETATM    2  C1  UNL     1      11.830  -0.333  11.164  1.00  0.00     0.144 C 
HETATM    3  C2  UNL     1      11.284  -1.020  12.352  1.00  0.00     0.220 C 
HETATM    4  N2  UNL     1      10.075  -0.701  12.756  1.00  0.00    -0.371 N 
ATOM      5  H21 UNL     1       9.698  -1.174  13.576  1.00  0.00     0.158 HD
ATOM      6  H22 UNL     1       9.592   0.024  12.225  1.00  0.00     0.158 HD
ENDROOT
BRANCH   3   7
HETATM    7  O1  UNL     1      11.887  -1.925  13.015  1.00  0.00    -0.321 OA
BRANCH   7   8
HETATM    8  C3  UNL     1      12.680  -2.827  13.456  1.00  0.00     0.244 C 
BRANCH   8   9
HETATM    9  C4  UNL     1      13.949  -2.967  12.642  1.00  0.00     0.098 A 
HETATM   10  O2  UNL     1      14.569  -2.056  11.987  1.00  0.00    -0.313 OA
HETATM   11  C5  UNL     1      15.659  -2.547  11.355  1.00  0.00     0.084 A 
HETATM   12  C20 UNL     1      15.708  -3.881  11.657  1.00  0.00     0.060 A 
HETATM   13  C21 UNL     1      14.655  -4.153  12.451  1.00  0.00     0.079 A 
HETATM   14  C22 UNL     1      14.330  -5.388  13.123  1.00  0.00     0.102 C 
HETATM   15  N5  UNL     1      14.057  -6.346  13.701  1.00  0.00    -0.191 NA
BRANCH  11  16
HETATM   16  C6  UNL     1      16.462  -1.653  10.545  1.00  0.00     0.182 C 
BRANCH  16  17
HETATM   17  O3  UNL     1      15.627  -1.372   9.384  1.00  0.00    -0.388 OA
ATOM     18  H3  UNL     1      15.358  -0.468   9.502  1.00  0.00     0.210 HD
ENDBRANCH  16  17
BRANCH  16  19
HETATM   19  C7  UNL     1      17.724  -2.250   9.899  1.00  0.00     0.056 C 
HETATM   20  C8  UNL     1      18.753  -2.450  10.997  1.00  0.00     0.030 C 
HETATM   21  C9  UNL     1      20.152  -2.390  10.624  1.00  0.00     0.127 C 
HETATM   22  N3  UNL     1      20.412  -2.318   9.190  1.00  0.00    -0.370 N 
HETATM   23  C18 UNL     1      19.627  -1.477   8.472  1.00  0.00     0.095 C 
HETATM   24  C19 UNL     1      18.322  -1.066   9.075  1.00  0.00     0.163 C 
BRANCH  22  25
HETATM   25  C10 UNL     1      21.801  -2.429   9.056  1.00  0.00     0.087 C 
BRANCH  25  26
HETATM   26  C11 UNL     1      22.502  -3.278   8.087  1.00  0.00     0.081 C 
HETATM   27  C12 UNL     1      22.375  -2.787   6.707  1.00  0.00     0.074 C 
HETATM   28  N4  UNL     1      22.303  -2.384   5.638  1.00  0.00    -0.196 NA
HETATM   29  C13 UNL     1      23.792  -3.816   8.498  1.00  0.00     0.030 C 
HETATM   30  C14 UNL     1      23.712  -5.177   9.214  1.00  0.00     0.002 C 
HETATM   31  C15 UNL     1      23.394  -6.237   8.184  1.00  0.00     0.000 C 
HETATM   32  C16 UNL     1      22.367  -5.600   7.260  1.00  0.00     0.002 C 
HETATM   33  C17 UNL     1      21.564  -4.592   8.011  1.00  0.00     0.030 C 
ENDBRANCH  25  26
ENDBRANCH  22  25
BRANCH  24  34
HETATM   34  O4  UNL     1      18.470   0.022   9.991  1.00  0.00    -0.390 OA
ATOM     35  H4  UNL     1      18.077   0.777   9.570  1.00  0.00     0.210 HD
ENDBRANCH  24  34
ENDBRANCH  16  19
ENDBRANCH  11  16
ENDBRANCH   8   9
ENDBRANCH   7   8
ENDBRANCH   3   7
TORSDOF 9
ENDMDL
MODEL 5
REMARK VINA RESULT: -8.089806838      2.045      3.640
REMARK  9 active torsions:
REMARK  status: ('A' for Active; 'I' for Inactive)
REMARK    1  A    between atoms: C2_3  and  O1_7 
REMARK    2  A    between atoms: O1_7  and  C3_8 
REMARK    3  A    between atoms: C3_8  and  C4_9 
REMARK    4  A    between atoms: C5_11  and  C6_12 
REMARK    5  A    between atoms: C6_12  and  O3_13 
REMARK    6  A    between atoms: C6_12  and  C7_15 
REMARK    7  A    between atoms: N3_18  and  C10_19 
REMARK    8  A    between atoms: C10_19  and  C11_20 
REMARK    9  A    between atoms: C19_29  and  O4_30 
ROOT
HETATM    1  N1  UNL     1      17.460  -6.806  16.748  1.00  0.00    -0.188 NA
HETATM    2  C1  UNL     1      16.777  -6.146  16.081  1.00  0.00     0.144 C 
HETATM    3  C2  UNL     1      15.945  -5.285  15.217  1.00  0.00     0.220 C 
HETATM    4  N2  UNL     1      15.617  -4.091  15.656  1.00  0.00    -0.371 N 
ATOM      5  H21 UNL     1      15.042  -3.497  15.060  1.00  0.00     0.158 HD
ATOM      6  H22 UNL     1      15.950  -3.839  16.587  1.00  0.00     0.158 HD
ENDROOT
BRANCH   3   7
HETATM    7  O1  UNL     1      15.529  -5.600  14.055  1.00  0.00    -0.321 OA
BRANCH   7   8
HETATM    8  C3  UNL     1      15.029  -5.636  12.877  1.00  0.00     0.244 C 
BRANCH   8   9
HETATM    9  C4  UNL     1      14.850  -4.267  12.255  1.00  0.00     0.098 A 
HETATM   10  O2  UNL     1      15.695  -3.601  11.560  1.00  0.00    -0.313 OA
HETATM   11  C5  UNL     1      15.200  -2.399  11.186  1.00  0.00     0.084 A 
HETATM   12  C20 UNL     1      13.933  -2.330  11.700  1.00  0.00     0.060 A 
HETATM   13  C21 UNL     1      13.706  -3.478  12.365  1.00  0.00     0.079 A 
HETATM   14  C22 UNL     1      12.485  -3.933  12.985  1.00  0.00     0.102 C 
HETATM   15  N5  UNL     1      11.520  -4.343  13.461  1.00  0.00    -0.191 NA
BRANCH  11  16
HETATM   16  C6  UNL     1      16.039  -1.505  10.413  1.00  0.00     0.182 C 
BRANCH  16  17
HETATM   17  O3  UNL     1      15.274  -1.253   9.198  1.00  0.00    -0.388 OA
ATOM     18  H3  UNL     1      15.587  -1.907   8.584  1.00  0.00     0.210 HD
ENDBRANCH  16  17
BRANCH  16  19
HETATM   19  C7  UNL     1      17.347  -2.092   9.856  1.00  0.00     0.056 C 
HETATM   20  C8  UNL     1      18.344  -2.161  10.998  1.00  0.00     0.030 C 
HETATM   21  C9  UNL     1      19.752  -2.067  10.667  1.00  0.00     0.127 C 
HETATM   22  N3  UNL     1      20.059  -2.094   9.240  1.00  0.00    -0.370 N 
HETATM   23  C18 UNL     1      19.264  -1.346   8.434  1.00  0.00     0.095 C 
HETATM   24  C19 UNL     1      17.922  -0.949   8.962  1.00  0.00     0.163 C 
BRANCH  22  25
HETATM   25  C10 UNL     1      21.455  -2.152   9.159  1.00  0.00     0.087 C 
BRANCH  25  26
HETATM   26  C11 UNL     1      22.226  -3.085   8.332  1.00  0.00     0.081 C 
HETATM   27  C12 UNL     1      22.290  -2.672   6.922  1.00  0.00     0.074 C 
HETATM   28  N4  UNL     1      22.367  -2.330   5.832  1.00  0.00    -0.196 NA
HETATM   29  C13 UNL     1      23.430  -3.651   8.927  1.00  0.00     0.030 C 
HETATM   30  C14 UNL     1      23.198  -4.962   9.699  1.00  0.00     0.002 C 
HETATM   31  C15 UNL     1      22.956  -6.068   8.697  1.00  0.00     0.000 C 
HETATM   32  C16 UNL     1      22.080  -5.444   7.620  1.00  0.00     0.002 C 
HETATM   33  C17 UNL     1      21.242  -4.362   8.212  1.00  0.00     0.030 C 
ENDBRANCH  25  26
ENDBRANCH  22  25
BRANCH  24  34
HETATM   34  O4  UNL     1      17.992   0.211   9.794  1.00  0.00    -0.390 OA
ATOM     35  H4  UNL     1      18.581   0.815   9.357  1.00  0.00     0.210 HD
ENDBRANCH  24  34
ENDBRANCH  16  19
ENDBRANCH  11  16
ENDBRANCH   8   9
ENDBRANCH   7   8
ENDBRANCH   3   7
TORSDOF 9
ENDMDL
