MODEL 1
REMARK VINA RESULT: -8.767193983      0.000      0.000
REMARK  13 active torsions:
REMARK  status: ('A' for Active; 'I' for Inactive)
REMARK    1  A    between atoms: C2_2  and  C4_4 
REMARK    2  A    between atoms: C4_4  and  C11_17 
REMARK    3  A    between atoms: N1_5  and  N2_7 
REMARK       I    between atoms: N2_7  and  C5_9 
REMARK    4  A    between atoms: C5_9  and  O2_11 
REMARK    5  A    between atoms: O2_11  and  C6_12 
REMARK    6  A    between atoms: C6_12  and  C7_13 
REMARK       I    between atoms: C11_17  and  N3_19 
REMARK       I    between atoms: N4_23  and  C15_24 
REMARK       I    between atoms: C15_24  and  N7_29 
REMARK    7  A    between atoms: N7_29  and  C17_31 
REMARK    8  A    between atoms: C17_31  and  C18_32 
REMARK    9  A    between atoms: C18_32  and  C19_33 
REMARK   10  A    between atoms: C19_33  and  C20_34 
REMARK   11  A    between atoms: C20_34  and  C21_35 
REMARK   12  A    between atoms: C21_35  and  C22_36 
REMARK   13  A    between atoms: C22_36  and  C23_37 
ROOT
HETATM    1  C11 UNL     1      -9.193  19.075 -17.320  1.00  0.00     0.268 C 
HETATM    2  O3  UNL     1      -8.505  19.700 -18.111  1.00  0.00    -0.266 OA
HETATM    3  N3  UNL     1     -10.437  19.279 -16.939  1.00  0.00    -0.345 N 
HETATM    4  C12 UNL     1     -11.463  18.217 -16.870  1.00  0.00     0.128 C 
HETATM    5  C13 UNL     1     -12.441  18.236 -18.026  1.00  0.00     0.040 C 
HETATM    6  C14 UNL     1     -12.598  19.499 -18.762  1.00  0.00     0.143 C 
HETATM    7  N4  UNL     1     -12.627  20.686 -17.983  1.00  0.00    -0.215 N 
HETATM    8  C15 UNL     1     -13.911  21.220 -17.734  1.00  0.00     0.688 C 
HETATM    9  N5  UNL     1     -14.577  20.962 -16.717  1.00  0.00    -0.126 N 
ATOM     10  H5  UNL     1     -15.469  21.455 -16.741  1.00  0.00     0.197 HD
HETATM   11  C16 UNL     1     -14.475  20.234 -15.603  1.00  0.00     0.196 C 
HETATM   12  N6  UNL     1     -14.350  19.633 -14.629  1.00  0.00    -0.171 NA
HETATM   13  N7  UNL     1     -14.445  22.112 -18.754  1.00  0.00    -0.205 N 
ATOM     14  H7  UNL     1     -15.430  22.034 -19.007  1.00  0.00     0.183 HD
HETATM   15  C25 UNL     1     -11.516  21.420 -17.444  1.00  0.00     0.161 C 
HETATM   16  C26 UNL     1     -10.784  20.635 -16.430  1.00  0.00     0.146 C 
ENDROOT
BRANCH  13  17
HETATM   17  C17 UNL     1     -13.653  23.076 -19.403  1.00  0.00     0.079 C 
BRANCH  17  18
HETATM   18  C18 UNL     1     -13.932  23.307 -20.838  1.00  0.00     0.049 C 
BRANCH  18  19
HETATM   19  C19 UNL     1     -15.042  24.241 -21.159  1.00  0.00     0.032 C 
BRANCH  19  20
HETATM   20  C20 UNL     1     -15.185  25.505 -20.446  1.00  0.00    -0.030 C 
BRANCH  20  21
HETATM   21  C21 UNL     1     -16.429  25.915 -19.798  1.00  0.00    -0.023 C 
BRANCH  21  22
HETATM   22  C22 UNL     1     -17.378  24.955 -19.250  1.00  0.00     0.104 C 
BRANCH  22  23
HETATM   23  C23 UNL     1     -17.164  24.364 -17.940  1.00  0.00     0.100 A 
HETATM   24  N8  UNL     1     -17.809  23.373 -17.304  1.00  0.00    -0.340 N 
HETATM   25  C24 UNL     1     -17.241  23.191 -16.099  1.00  0.00     0.198 A 
ATOM     26  H8  UNL     1     -18.599  22.846 -17.674  1.00  0.00     0.168 HD
HETATM   27  N9  UNL     1     -16.238  24.069 -15.977  1.00  0.00    -0.295 N 
HETATM   28  N10 UNL     1     -16.192  24.770 -17.077  1.00  0.00    -0.288 N 
ATOM     29  H9  UNL     1     -15.622  24.171 -15.171  1.00  0.00     0.187 HD
ATOM     30  H10 UNL     1     -15.523  25.517 -17.263  1.00  0.00     0.188 HD
ENDBRANCH  22  23
ENDBRANCH  21  22
ENDBRANCH  20  21
ENDBRANCH  19  20
ENDBRANCH  18  19
ENDBRANCH  17  18
ENDBRANCH  13  17
BRANCH   1  31
HETATM   31  C4  UNL     1      -8.199  17.753 -16.710  1.00  0.00     0.097 C 
HETATM   32  N1  UNL     1      -7.815  17.641 -17.843  1.00  0.00    -0.295 N 
ATOM     33  H1  UNL     1      -8.133  18.425 -18.411  1.00  0.00     0.187 HD
BRANCH  31  34
HETATM   34  C2  UNL     1      -8.652  17.887 -15.385  1.00  0.00     0.035 C 
HETATM   35  C1  UNL     1      -7.368  18.163 -14.461  1.00  0.00     0.016 C 
HETATM   36  C3  UNL     1      -9.183  16.497 -14.831  1.00  0.00     0.016 C 
ENDBRANCH  31  34
BRANCH  32  37
HETATM   37  N2  UNL     1      -7.078  16.774 -18.589  1.00  0.00    -0.245 N 
HETATM   38  C5  UNL     1      -7.223  16.647 -19.995  1.00  0.00     0.379 C 
HETATM   39  O1  UNL     1      -8.035  17.271 -20.709  1.00  0.00    -0.237 OA
ATOM     40  H2  UNL     1      -6.390  16.187 -18.117  1.00  0.00     0.192 HD
BRANCH  38  41
HETATM   41  O2  UNL     1      -6.390  15.758 -20.679  1.00  0.00    -0.302 OA
BRANCH  41  42
HETATM   42  C6  UNL     1      -5.718  16.111 -21.873  1.00  0.00     0.189 C 
BRANCH  42  43
HETATM   43  C7  UNL     1      -4.366  16.704 -21.602  1.00  0.00    -0.029 C 
HETATM   44  C8  UNL     1      -4.422  18.223 -21.574  1.00  0.00     0.016 C 
HETATM   45  C9  UNL     1      -3.420  16.372 -22.771  1.00  0.00     0.016 C 
HETATM   46  C10 UNL     1      -3.805  16.124 -20.340  1.00  0.00     0.016 C 
ENDBRANCH  42  43
ENDBRANCH  41  42
ENDBRANCH  38  41
ENDBRANCH  32  37
ENDBRANCH   1  31
TORSDOF 13
ENDMDL
MODEL 2
REMARK VINA RESULT: -8.761949180      0.778      1.216
REMARK  13 active torsions:
REMARK  status: ('A' for Active; 'I' for Inactive)
REMARK    1  A    between atoms: C2_2  and  C4_4 
REMARK    2  A    between atoms: C4_4  and  C11_17 
REMARK    3  A    between atoms: N1_5  and  N2_7 
REMARK       I    between atoms: N2_7  and  C5_9 
REMARK    4  A    between atoms: C5_9  and  O2_11 
REMARK    5  A    between atoms: O2_11  and  C6_12 
REMARK    6  A    between atoms: C6_12  and  C7_13 
REMARK       I    between atoms: C11_17  and  N3_19 
REMARK       I    between atoms: N4_23  and  C15_24 
REMARK       I    between atoms: C15_24  and  N7_29 
REMARK    7  A    between atoms: N7_29  and  C17_31 
REMARK    8  A    between atoms: C17_31  and  C18_32 
REMARK    9  A    between atoms: C18_32  and  C19_33 
REMARK   10  A    between atoms: C19_33  and  C20_34 
REMARK   11  A    between atoms: C20_34  and  C21_35 
REMARK   12  A    between atoms: C21_35  and  C22_36 
REMARK   13  A    between atoms: C22_36  and  C23_37 
ROOT
HETATM    1  C11 UNL     1      -9.452  19.508 -17.465  1.00  0.00     0.268 C 
HETATM    2  O3  UNL     1      -8.802  20.227 -18.208  1.00  0.00    -0.266 OA
HETATM    3  N3  UNL     1     -10.694  19.630 -17.047  1.00  0.00    -0.345 N 
HETATM    4  C12 UNL     1     -11.680  18.529 -17.058  1.00  0.00     0.128 C 
HETATM    5  C13 UNL     1     -12.681  18.616 -18.190  1.00  0.00     0.040 C 
HETATM    6  C14 UNL     1     -12.898  19.933 -18.805  1.00  0.00     0.143 C 
HETATM    7  N4  UNL     1     -12.954  21.043 -17.921  1.00  0.00    -0.215 N 
HETATM    8  C15 UNL     1     -14.250  21.505 -17.603  1.00  0.00     0.688 C 
HETATM    9  N5  UNL     1     -14.886  21.132 -16.604  1.00  0.00    -0.126 N 
ATOM     10  H5  UNL     1     -15.795  21.592 -16.568  1.00  0.00     0.197 HD
HETATM   11  C16 UNL     1     -14.736  20.310 -15.562  1.00  0.00     0.196 C 
HETATM   12  N6  UNL     1     -14.570  19.629 -14.649  1.00  0.00    -0.171 NA
HETATM   13  N7  UNL     1     -14.836  22.464 -18.530  1.00  0.00    -0.205 N 
ATOM     14  H7  UNL     1     -15.823  22.373 -18.772  1.00  0.00     0.183 HD
HETATM   15  C25 UNL     1     -11.858  21.766 -17.337  1.00  0.00     0.161 C 
HETATM   16  C26 UNL     1     -11.079  20.921 -16.411  1.00  0.00     0.146 C 
ENDROOT
BRANCH  13  17
HETATM   17  C17 UNL     1     -14.092  23.512 -19.101  1.00  0.00     0.079 C 
BRANCH  17  18
HETATM   18  C18 UNL     1     -14.317  23.777 -20.540  1.00  0.00     0.049 C 
BRANCH  18  19
HETATM   19  C19 UNL     1     -15.575  24.481 -20.899  1.00  0.00     0.032 C 
BRANCH  19  20
HETATM   20  C20 UNL     1     -15.795  25.867 -20.501  1.00  0.00    -0.030 C 
BRANCH  20  21
HETATM   21  C21 UNL     1     -16.624  26.242 -19.357  1.00  0.00    -0.023 C 
BRANCH  21  22
HETATM   22  C22 UNL     1     -17.685  25.385 -18.845  1.00  0.00     0.104 C 
BRANCH  22  23
HETATM   23  C23 UNL     1     -17.499  24.625 -17.621  1.00  0.00     0.100 A 
HETATM   24  N8  UNL     1     -16.798  24.902 -16.510  1.00  0.00    -0.340 N 
HETATM   25  C24 UNL     1     -16.926  23.876 -15.649  1.00  0.00     0.198 A 
ATOM     26  H8  UNL     1     -16.257  25.750 -16.345  1.00  0.00     0.168 HD
HETATM   27  N9  UNL     1     -17.709  22.954 -16.221  1.00  0.00    -0.295 N 
HETATM   28  N10 UNL     1     -18.050  23.400 -17.399  1.00  0.00    -0.288 N 
ATOM     29  H9  UNL     1     -17.988  22.062 -15.811  1.00  0.00     0.187 HD
ATOM     30  H10 UNL     1     -18.646  22.902 -18.060  1.00  0.00     0.188 HD
ENDBRANCH  22  23
ENDBRANCH  21  22
ENDBRANCH  20  21
ENDBRANCH  19  20
ENDBRANCH  18  19
ENDBRANCH  17  18
ENDBRANCH  13  17
BRANCH   1  31
HETATM   31  C4  UNL     1      -8.399  18.174 -16.995  1.00  0.00     0.097 C 
HETATM   32  N1  UNL     1      -7.965  18.243 -18.112  1.00  0.00    -0.295 N 
ATOM     33  H1  UNL     1      -8.311  19.079 -18.583  1.00  0.00     0.187 HD
BRANCH  31  34
HETATM   34  C2  UNL     1      -8.911  18.096 -15.687  1.00  0.00     0.035 C 
HETATM   35  C1  UNL     1      -7.682  18.303 -14.674  1.00  0.00     0.016 C 
HETATM   36  C3  UNL     1      -9.384  16.617 -15.357  1.00  0.00     0.016 C 
ENDBRANCH  31  34
BRANCH  32  37
HETATM   37  N2  UNL     1      -7.146  17.532 -18.935  1.00  0.00    -0.245 N 
HETATM   38  C5  UNL     1      -7.221  16.123 -19.072  1.00  0.00     0.379 C 
HETATM   39  O1  UNL     1      -8.003  15.366 -18.460  1.00  0.00    -0.237 OA
ATOM     40  H2  UNL     1      -6.445  18.037 -19.478  1.00  0.00     0.192 HD
BRANCH  38  41
HETATM   41  O2  UNL     1      -6.363  15.488 -19.974  1.00  0.00    -0.302 OA
BRANCH  41  42
HETATM   42  C6  UNL     1      -5.069  15.980 -20.266  1.00  0.00     0.189 C 
BRANCH  42  43
HETATM   43  C7  UNL     1      -4.994  16.584 -21.638  1.00  0.00    -0.029 C 
HETATM   44  C8  UNL     1      -3.657  16.293 -22.301  1.00  0.00     0.016 C 
HETATM   45  C9  UNL     1      -5.045  18.118 -21.523  1.00  0.00     0.016 C 
HETATM   46  C10 UNL     1      -6.158  16.117 -22.458  1.00  0.00     0.016 C 
ENDBRANCH  42  43
ENDBRANCH  41  42
ENDBRANCH  38  41
ENDBRANCH  32  37
ENDBRANCH   1  31
TORSDOF 13
ENDMDL
MODEL 3
REMARK VINA RESULT: -8.730375608      1.115      1.495
REMARK  13 active torsions:
REMARK  status: ('A' for Active; 'I' for Inactive)
REMARK    1  A    between atoms: C2_2  and  C4_4 
REMARK    2  A    between atoms: C4_4  and  C11_17 
REMARK    3  A    between atoms: N1_5  and  N2_7 
REMARK       I    between atoms: N2_7  and  C5_9 
REMARK    4  A    between atoms: C5_9  and  O2_11 
REMARK    5  A    between atoms: O2_11  and  C6_12 
REMARK    6  A    between atoms: C6_12  and  C7_13 
REMARK       I    between atoms: C11_17  and  N3_19 
REMARK       I    between atoms: N4_23  and  C15_24 
REMARK       I    between atoms: C15_24  and  N7_29 
REMARK    7  A    between atoms: N7_29  and  C17_31 
REMARK    8  A    between atoms: C17_31  and  C18_32 
REMARK    9  A    between atoms: C18_32  and  C19_33 
REMARK   10  A    between atoms: C19_33  and  C20_34 
REMARK   11  A    between atoms: C20_34  and  C21_35 
REMARK   12  A    between atoms: C21_35  and  C22_36 
REMARK   13  A    between atoms: C22_36  and  C23_37 
ROOT
HETATM    1  C11 UNL     1      -9.663  19.226 -16.821  1.00  0.00     0.268 C 
HETATM    2  O3  UNL     1      -8.838  19.986 -17.303  1.00  0.00    -0.266 OA
HETATM    3  N3  UNL     1     -10.940  19.419 -16.565  1.00  0.00    -0.345 N 
HETATM    4  C12 UNL     1     -12.009  18.469 -16.939  1.00  0.00     0.128 C 
HETATM    5  C13 UNL     1     -12.802  18.890 -18.158  1.00  0.00     0.040 C 
HETATM    6  C14 UNL     1     -12.793  20.316 -18.514  1.00  0.00     0.143 C 
HETATM    7  N4  UNL     1     -12.888  21.238 -17.438  1.00  0.00    -0.215 N 
HETATM    8  C15 UNL     1     -14.170  21.787 -17.217  1.00  0.00     0.688 C 
HETATM    9  N5  UNL     1     -14.990  21.314 -16.414  1.00  0.00    -0.126 N 
ATOM     10  H5  UNL     1     -15.847  21.867 -16.412  1.00  0.00     0.197 HD
HETATM   11  C16 UNL     1     -15.088  20.298 -15.552  1.00  0.00     0.196 C 
HETATM   12  N6  UNL     1     -15.136  19.442 -14.784  1.00  0.00    -0.171 NA
HETATM   13  N7  UNL     1     -14.507  22.969 -17.999  1.00  0.00    -0.205 N 
ATOM     14  H7  UNL     1     -15.446  23.047 -18.391  1.00  0.00     0.183 HD
HETATM   15  C25 UNL     1     -11.839  21.698 -16.570  1.00  0.00     0.161 C 
HETATM   16  C26 UNL     1     -11.301  20.604 -15.738  1.00  0.00     0.146 C 
ENDROOT
BRANCH  13  17
HETATM   17  C17 UNL     1     -13.586  24.006 -18.234  1.00  0.00     0.079 C 
BRANCH  17  18
HETATM   18  C18 UNL     1     -14.096  25.194 -18.955  1.00  0.00     0.049 C 
BRANCH  18  19
HETATM   19  C19 UNL     1     -14.818  24.941 -20.229  1.00  0.00     0.032 C 
BRANCH  19  20
HETATM   20  C20 UNL     1     -16.148  25.494 -20.455  1.00  0.00    -0.030 C 
BRANCH  20  21
HETATM   21  C21 UNL     1     -16.854  26.298 -19.459  1.00  0.00    -0.023 C 
BRANCH  21  22
HETATM   22  C22 UNL     1     -17.930  25.759 -18.639  1.00  0.00     0.104 C 
BRANCH  22  23
HETATM   23  C23 UNL     1     -17.636  24.960 -17.462  1.00  0.00     0.100 A 
HETATM   24  N8  UNL     1     -18.132  23.782 -17.050  1.00  0.00    -0.340 N 
HETATM   25  C24 UNL     1     -17.548  23.450 -15.885  1.00  0.00     0.198 A 
ATOM     26  H8  UNL     1     -18.836  23.231 -17.539  1.00  0.00     0.168 HD
HETATM   27  N9  UNL     1     -16.684  24.420 -15.564  1.00  0.00    -0.295 N 
HETATM   28  N10 UNL     1     -16.737  25.323 -16.505  1.00  0.00    -0.288 N 
ATOM     29  H9  UNL     1     -16.091  24.450 -14.735  1.00  0.00     0.187 HD
ATOM     30  H10 UNL     1     -16.183  26.179 -16.523  1.00  0.00     0.188 HD
ENDBRANCH  22  23
ENDBRANCH  21  22
ENDBRANCH  20  21
ENDBRANCH  19  20
ENDBRANCH  18  19
ENDBRANCH  17  18
ENDBRANCH  13  17
BRANCH   1  31
HETATM   31  C4  UNL     1      -8.829  17.707 -16.492  1.00  0.00     0.097 C 
HETATM   32  N1  UNL     1      -8.763  17.590 -17.686  1.00  0.00    -0.295 N 
ATOM     33  H1  UNL     1      -9.052  18.452 -18.149  1.00  0.00     0.187 HD
BRANCH  31  34
HETATM   34  C2  UNL     1      -8.908  17.849 -15.095  1.00  0.00     0.035 C 
HETATM   35  C1  UNL     1      -7.413  18.054 -14.544  1.00  0.00     0.016 C 
HETATM   36  C3  UNL     1      -9.340  16.479 -14.418  1.00  0.00     0.016 C 
ENDBRANCH  31  34
BRANCH  32  37
HETATM   37  N2  UNL     1      -8.417  16.645 -18.601  1.00  0.00    -0.245 N 
HETATM   38  C5  UNL     1      -7.072  16.372 -18.960  1.00  0.00     0.379 C 
HETATM   39  O1  UNL     1      -6.061  16.958 -18.521  1.00  0.00    -0.237 OA
ATOM     40  H2  UNL     1      -9.159  16.107 -19.050  1.00  0.00     0.192 HD
BRANCH  38  41
HETATM   41  O2  UNL     1      -6.816  15.352 -19.879  1.00  0.00    -0.302 OA
BRANCH  41  42
HETATM   42  C6  UNL     1      -7.426  15.308 -21.156  1.00  0.00     0.189 C 
BRANCH  42  43
HETATM   43  C7  UNL     1      -6.785  16.266 -22.117  1.00  0.00    -0.029 C 
HETATM   44  C8  UNL     1      -7.051  15.866 -23.560  1.00  0.00     0.016 C 
HETATM   45  C9  UNL     1      -5.255  16.191 -21.969  1.00  0.00     0.016 C 
HETATM   46  C10 UNL     1      -7.237  17.662 -21.813  1.00  0.00     0.016 C 
ENDBRANCH  42  43
ENDBRANCH  41  42
ENDBRANCH  38  41
ENDBRANCH  32  37
ENDBRANCH   1  31
TORSDOF 13
ENDMDL
MODEL 4
REMARK VINA RESULT: -8.653672777      2.924     10.401
REMARK  13 active torsions:
REMARK  status: ('A' for Active; 'I' for Inactive)
REMARK    1  A    between atoms: C2_2  and  C4_4 
REMARK    2  A    between atoms: C4_4  and  C11_17 
REMARK    3  A    between atoms: N1_5  and  N2_7 
REMARK       I    between atoms: N2_7  and  C5_9 
REMARK    4  A    between atoms: C5_9  and  O2_11 
REMARK    5  A    between atoms: O2_11  and  C6_12 
REMARK    6  A    between atoms: C6_12  and  C7_13 
REMARK       I    between atoms: C11_17  and  N3_19 
REMARK       I    between atoms: N4_23  and  C15_24 
REMARK       I    between atoms: C15_24  and  N7_29 
REMARK    7  A    between atoms: N7_29  and  C17_31 
REMARK    8  A    between atoms: C17_31  and  C18_32 
REMARK    9  A    between atoms: C18_32  and  C19_33 
REMARK   10  A    between atoms: C19_33  and  C20_34 
REMARK   11  A    between atoms: C20_34  and  C21_35 
REMARK   12  A    between atoms: C21_35  and  C22_36 
REMARK   13  A    between atoms: C22_36  and  C23_37 
ROOT
HETATM    1  C11 UNL     1     -12.342  20.939 -15.525  1.00  0.00     0.268 C 
HETATM    2  O3  UNL     1     -12.064  20.997 -14.338  1.00  0.00    -0.266 OA
HETATM    3  N3  UNL     1     -11.700  20.355 -16.514  1.00  0.00    -0.345 N 
HETATM    4  C12 UNL     1     -12.348  19.487 -17.520  1.00  0.00     0.128 C 
HETATM    5  C13 UNL     1     -12.121  18.008 -17.288  1.00  0.00     0.040 C 
HETATM    6  C14 UNL     1     -10.959  17.618 -16.478  1.00  0.00     0.143 C 
HETATM    7  N4  UNL     1      -9.758  18.341 -16.706  1.00  0.00    -0.215 N 
HETATM    8  C15 UNL     1      -8.805  17.697 -17.526  1.00  0.00     0.688 C 
HETATM    9  N5  UNL     1      -8.724  17.874 -18.753  1.00  0.00    -0.126 N 
ATOM     10  H5  UNL     1      -7.968  17.314 -19.144  1.00  0.00     0.197 HD
HETATM   11  C16 UNL     1      -9.329  18.578 -19.712  1.00  0.00     0.196 C 
HETATM   12  N6  UNL     1      -9.837  19.226 -20.518  1.00  0.00    -0.171 NA
HETATM   13  N7  UNL     1      -7.894  16.780 -16.855  1.00  0.00    -0.205 N 
ATOM     14  H7  UNL     1      -7.665  15.895 -17.309  1.00  0.00     0.183 HD
HETATM   15  C25 UNL     1      -9.385  19.626 -16.184  1.00  0.00     0.161 C 
HETATM   16  C26 UNL     1     -10.262  20.698 -16.695  1.00  0.00     0.146 C 
ENDROOT
BRANCH  13  17
HETATM   17  C17 UNL     1      -7.318  17.069 -15.605  1.00  0.00     0.079 C 
BRANCH  17  18
HETATM   18  C18 UNL     1      -6.229  16.173 -15.154  1.00  0.00     0.049 C 
BRANCH  18  19
HETATM   19  C19 UNL     1      -4.972  16.202 -15.946  1.00  0.00     0.032 C 
BRANCH  19  20
HETATM   20  C20 UNL     1      -4.696  15.177 -16.946  1.00  0.00    -0.030 C 
BRANCH  20  21
HETATM   21  C21 UNL     1      -4.373  15.492 -18.337  1.00  0.00    -0.023 C 
BRANCH  21  22
HETATM   22  C22 UNL     1      -5.148  16.443 -19.123  1.00  0.00     0.104 C 
BRANCH  22  23
HETATM   23  C23 UNL     1      -6.127  15.981 -20.092  1.00  0.00     0.100 A 
HETATM   24  N8  UNL     1      -6.287  16.276 -21.392  1.00  0.00    -0.340 N 
HETATM   25  C24 UNL     1      -7.350  15.599 -21.862  1.00  0.00     0.198 A 
ATOM     26  H8  UNL     1      -5.701  16.910 -21.934  1.00  0.00     0.168 HD
HETATM   27  N9  UNL     1      -7.858  14.878 -20.856  1.00  0.00    -0.295 N 
HETATM   28  N10 UNL     1      -7.128  15.106 -19.798  1.00  0.00    -0.288 N 
ATOM     29  H9  UNL     1      -8.669  14.261 -20.906  1.00  0.00     0.187 HD
ATOM     30  H10 UNL     1      -7.285  14.689 -18.881  1.00  0.00     0.188 HD
ENDBRANCH  22  23
ENDBRANCH  21  22
ENDBRANCH  20  21
ENDBRANCH  19  20
ENDBRANCH  18  19
ENDBRANCH  17  18
ENDBRANCH  13  17
BRANCH   1  31
HETATM   31  C4  UNL     1     -13.852  21.825 -15.741  1.00  0.00     0.097 C 
HETATM   32  N1  UNL     1     -13.333  22.290 -16.719  1.00  0.00    -0.295 N 
ATOM     33  H1  UNL     1     -12.460  21.807 -16.929  1.00  0.00     0.187 HD
BRANCH  31  34
HETATM   34  C2  UNL     1     -14.456  21.277 -14.594  1.00  0.00     0.035 C 
HETATM   35  C1  UNL     1     -15.580  20.241 -15.087  1.00  0.00     0.016 C 
HETATM   36  C3  UNL     1     -15.311  22.377 -13.832  1.00  0.00     0.016 C 
ENDBRANCH  31  34
BRANCH  32  37
HETATM   37  N2  UNL     1     -13.570  23.273 -17.630  1.00  0.00    -0.245 N 
HETATM   38  C5  UNL     1     -13.969  23.010 -18.965  1.00  0.00     0.379 C 
HETATM   39  O1  UNL     1     -14.126  21.882 -19.477  1.00  0.00    -0.237 OA
ATOM     40  H2  UNL     1     -13.455  24.244 -17.339  1.00  0.00     0.192 HD
BRANCH  38  41
HETATM   41  O2  UNL     1     -14.229  24.089 -19.814  1.00  0.00    -0.302 OA
BRANCH  41  42
HETATM   42  C6  UNL     1     -15.506  24.324 -20.377  1.00  0.00     0.189 C 
BRANCH  42  43
HETATM   43  C7  UNL     1     -16.101  25.617 -19.900  1.00  0.00    -0.029 C 
HETATM   44  C8  UNL     1     -15.234  26.268 -18.836  1.00  0.00     0.016 C 
HETATM   45  C9  UNL     1     -17.438  25.331 -19.191  1.00  0.00     0.016 C 
HETATM   46  C10 UNL     1     -16.353  26.517 -21.071  1.00  0.00     0.016 C 
ENDBRANCH  42  43
ENDBRANCH  41  42
ENDBRANCH  38  41
ENDBRANCH  32  37
ENDBRANCH   1  31
TORSDOF 13
ENDMDL
MODEL 5
REMARK VINA RESULT: -8.646794590      1.366      1.667
REMARK  13 active torsions:
REMARK  status: ('A' for Active; 'I' for Inactive)
REMARK    1  A    between atoms: C2_2  and  C4_4 
REMARK    2  A    between atoms: C4_4  and  C11_17 
REMARK    3  A    between atoms: N1_5  and  N2_7 
REMARK       I    between atoms: N2_7  and  C5_9 
REMARK    4  A    between atoms: C5_9  and  O2_11 
REMARK    5  A    between atoms: O2_11  and  C6_12 
REMARK    6  A    between atoms: C6_12  and  C7_13 
REMARK       I    between atoms: C11_17  and  N3_19 
REMARK       I    between atoms: N4_23  and  C15_24 
REMARK       I    between atoms: C15_24  and  N7_29 
REMARK    7  A    between atoms: N7_29  and  C17_31 
REMARK    8  A    between atoms: C17_31  and  C18_32 
REMARK    9  A    between atoms: C18_32  and  C19_33 
REMARK   10  A    between atoms: C19_33  and  C20_34 
REMARK   11  A    between atoms: C20_34  and  C21_35 
REMARK   12  A    between atoms: C21_35  and  C22_36 
REMARK   13  A    between atoms: C22_36  and  C23_37 
ROOT
HETATM    1  C11 UNL     1      -9.073  19.102 -17.422  1.00  0.00     0.268 C 
HETATM    2  O3  UNL     1      -8.452  19.731 -18.263  1.00  0.00    -0.266 OA
HETATM    3  N3  UNL     1     -10.283  19.299 -16.943  1.00  0.00    -0.345 N 
HETATM    4  C12 UNL     1     -11.296  18.232 -16.796  1.00  0.00     0.128 C 
HETATM    5  C13 UNL     1     -12.363  18.250 -17.871  1.00  0.00     0.040 C 
HETATM    6  C14 UNL     1     -12.583  19.513 -18.589  1.00  0.00     0.143 C 
HETATM    7  N4  UNL     1     -12.555  20.698 -17.806  1.00  0.00    -0.215 N 
HETATM    8  C15 UNL     1     -13.817  21.226 -17.455  1.00  0.00     0.688 C 
HETATM    9  N5  UNL     1     -14.399  20.964 -16.390  1.00  0.00    -0.126 N 
ATOM     10  H5  UNL     1     -15.293  21.453 -16.342  1.00  0.00     0.197 HD
HETATM   11  C16 UNL     1     -14.207  20.233 -15.290  1.00  0.00     0.196 C 
HETATM   12  N6  UNL     1     -14.003  19.630 -14.330  1.00  0.00    -0.171 NA
HETATM   13  N7  UNL     1     -14.434  22.118 -18.428  1.00  0.00    -0.205 N 
ATOM     14  H7  UNL     1     -15.436  22.036 -18.603  1.00  0.00     0.183 HD
HETATM   15  C25 UNL     1     -11.408  21.436 -17.355  1.00  0.00     0.161 C 
HETATM   16  C26 UNL     1     -10.595  20.652 -16.405  1.00  0.00     0.146 C 
ENDROOT
BRANCH  13  17
HETATM   17  C17 UNL     1     -13.700  23.087 -19.135  1.00  0.00     0.079 C 
BRANCH  17  18
HETATM   18  C18 UNL     1     -13.582  22.894 -20.597  1.00  0.00     0.049 C 
BRANCH  18  19
HETATM   19  C19 UNL     1     -14.351  23.828 -21.458  1.00  0.00     0.032 C 
BRANCH  19  20
HETATM   20  C20 UNL     1     -15.585  24.442 -20.978  1.00  0.00    -0.030 C 
BRANCH  20  21
HETATM   21  C21 UNL     1     -15.647  25.816 -20.482  1.00  0.00    -0.023 C 
BRANCH  21  22
HETATM   22  C22 UNL     1     -15.610  26.136 -19.061  1.00  0.00     0.104 C 
BRANCH  22  23
HETATM   23  C23 UNL     1     -16.803  26.601 -18.374  1.00  0.00     0.100 A 
HETATM   24  N8  UNL     1     -16.948  27.395 -17.301  1.00  0.00    -0.340 N 
HETATM   25  C24 UNL     1     -18.260  27.529 -17.036  1.00  0.00     0.198 A 
ATOM     26  H8  UNL     1     -16.189  27.824 -16.773  1.00  0.00     0.168 HD
HETATM   27  N9  UNL     1     -18.939  26.819 -17.944  1.00  0.00    -0.295 N 
HETATM   28  N10 UNL     1     -18.069  26.264 -18.743  1.00  0.00    -0.288 N 
ATOM     29  H9  UNL     1     -19.954  26.727 -18.002  1.00  0.00     0.187 HD
ATOM     30  H10 UNL     1     -18.305  25.662 -19.533  1.00  0.00     0.188 HD
ENDBRANCH  22  23
ENDBRANCH  21  22
ENDBRANCH  20  21
ENDBRANCH  19  20
ENDBRANCH  18  19
ENDBRANCH  17  18
ENDBRANCH  13  17
BRANCH   1  31
HETATM   31  C4  UNL     1      -8.028  17.782 -16.896  1.00  0.00     0.097 C 
HETATM   32  N1  UNL     1      -7.481  17.914 -17.957  1.00  0.00    -0.295 N 
ATOM     33  H1  UNL     1      -7.805  18.759 -18.428  1.00  0.00     0.187 HD
BRANCH  31  34
HETATM   34  C2  UNL     1      -8.672  17.630 -15.654  1.00  0.00     0.035 C 
HETATM   35  C1  UNL     1      -7.643  18.104 -14.516  1.00  0.00     0.016 C 
HETATM   36  C3  UNL     1      -8.879  16.093 -15.315  1.00  0.00     0.016 C 
ENDBRANCH  31  34
BRANCH  32  37
HETATM   37  N2  UNL     1      -6.554  17.267 -18.715  1.00  0.00    -0.245 N 
HETATM   38  C5  UNL     1      -6.738  15.948 -19.202  1.00  0.00     0.379 C 
HETATM   39  O1  UNL     1      -7.727  15.216 -18.988  1.00  0.00    -0.237 OA
ATOM     40  H2  UNL     1      -5.686  17.753 -18.944  1.00  0.00     0.192 HD
BRANCH  38  41
HETATM   41  O2  UNL     1      -5.745  15.384 -20.008  1.00  0.00    -0.302 OA
BRANCH  41  42
HETATM   42  C6  UNL     1      -4.565  16.082 -20.360  1.00  0.00     0.189 C 
BRANCH  42  43
HETATM   43  C7  UNL     1      -4.664  16.704 -21.722  1.00  0.00    -0.029 C 
HETATM   44  C8  UNL     1      -5.852  16.157 -22.497  1.00  0.00     0.016 C 
HETATM   45  C9  UNL     1      -3.436  16.299 -22.558  1.00  0.00     0.016 C 
HETATM   46  C10 UNL     1      -4.697  18.196 -21.593  1.00  0.00     0.016 C 
ENDBRANCH  42  43
ENDBRANCH  41  42
ENDBRANCH  38  41
ENDBRANCH  32  37
ENDBRANCH   1  31
TORSDOF 13
ENDMDL
