MODEL 1
REMARK VINA RESULT: -9.198636578      0.000      0.000
REMARK  12 active torsions:
REMARK  status: ('A' for Active; 'I' for Inactive)
REMARK    1  A    between atoms: O1_2  and  C2_3 
REMARK    2  A    between atoms: C5_6  and  C6_7 
REMARK    3  A    between atoms: C6_7  and  N1_8 
REMARK    4  A    between atoms: N1_8  and  C7_10 
REMARK    5  A    between atoms: N3_15  and  C9_16 
REMARK    6  A    between atoms: C9_16  and  C10_17 
REMARK       I    between atoms: C10_17  and  N4_19 
REMARK    7  A    between atoms: C12_26  and  C13_27 
REMARK    8  A    between atoms: C13_27  and  C14_28 
REMARK    9  A    between atoms: C14_28  and  C15_29 
REMARK   10  A    between atoms: C15_29  and  C16_30 
REMARK   11  A    between atoms: C16_30  and  C17_31 
REMARK   12  A    between atoms: C26_43  and  O4_44 
ROOT
HETATM    1  C9  UNL     1      -6.143  17.641 -21.018  1.00  0.00     0.236 C 
ENDROOT
BRANCH   1   2
HETATM    2  N3  UNL     1      -7.202  18.588 -20.692  1.00  0.00    -0.300 N 
HETATM    3  C8  UNL     1      -6.902  19.754 -20.101  1.00  0.00     0.328 A 
HETATM    4  N2  UNL     1      -7.870  20.660 -19.787  1.00  0.00    -0.294 N 
HETATM    5  O2  UNL     1      -5.690  19.971 -19.854  1.00  0.00    -0.246 OA
HETATM    6  C7  UNL     1      -9.147  20.392 -20.067  1.00  0.00     0.112 A 
ATOM      7  H2  UNL     1      -7.619  21.541 -19.338  1.00  0.00     0.172 HD
HETATM    8  C23 UNL     1      -9.473  19.203 -20.671  1.00  0.00    -0.002 A 
HETATM    9  C22 UNL     1      -8.477  18.273 -20.993  1.00  0.00     0.106 A 
HETATM   10  C24 UNL     1     -10.899  18.922 -20.971  1.00  0.00     0.054 C 
BRANCH   6  11
HETATM   11  N1  UNL     1     -10.075  21.231 -19.779  1.00  0.00    -0.371 N 
ATOM     12  H1  UNL     1     -10.516  21.727 -20.554  1.00  0.00     0.161 HD
BRANCH  11  13
HETATM   13  C6  UNL     1     -10.542  21.527 -18.459  1.00  0.00     0.160 C 
BRANCH  13  14
HETATM   14  C5  UNL     1     -11.920  22.101 -18.585  1.00  0.00    -0.038 A 
HETATM   15  C4  UNL     1     -12.471  22.292 -19.826  1.00  0.00     0.012 A 
HETATM   16  C3  UNL     1     -13.732  22.813 -19.991  1.00  0.00     0.040 A 
HETATM   17  C2  UNL     1     -14.476  23.157 -18.890  1.00  0.00     0.101 A 
HETATM   18  C26 UNL     1     -13.944  22.974 -17.609  1.00  0.00     0.102 A 
HETATM   19  C25 UNL     1     -12.664  22.445 -17.477  1.00  0.00     0.048 A 
BRANCH  17  20
HETATM   20  O1  UNL     1     -15.751  23.684 -19.022  1.00  0.00    -0.353 OA
HETATM   21  C1  UNL     1     -16.074  24.459 -20.152  1.00  0.00     0.210 C 
ENDBRANCH  17  20
BRANCH  18  22
HETATM   22  O4  UNL     1     -14.731  23.335 -16.534  1.00  0.00    -0.353 OA
HETATM   23  C27 UNL     1     -14.871  22.510 -15.392  1.00  0.00     0.210 C 
ENDBRANCH  18  22
ENDBRANCH  13  14
ENDBRANCH  11  13
ENDBRANCH   6  11
ENDBRANCH   1   2
BRANCH   1  24
HETATM   24  C10 UNL     1      -6.670  16.274 -21.061  1.00  0.00     0.242 C 
HETATM   25  O3  UNL     1      -6.323  15.513 -22.027  1.00  0.00    -0.271 OA
HETATM   26  N4  UNL     1      -7.531  15.736 -20.117  1.00  0.00    -0.305 N 
HETATM   27  C11 UNL     1      -7.401  15.799 -18.820  1.00  0.00     0.167 A 
ATOM     28  H4  UNL     1      -8.348  15.240 -20.473  1.00  0.00     0.171 HD
HETATM   29  N5  UNL     1      -8.223  15.286 -17.898  1.00  0.00    -0.279 N 
HETATM   30  S1  UNL     1      -6.193  16.526 -17.827  1.00  0.00    -0.038 SA
HETATM   31  N6  UNL     1      -7.941  15.443 -16.675  1.00  0.00    -0.296 N 
ATOM     32  H5  UNL     1      -9.061  14.776 -18.177  1.00  0.00     0.189 HD
HETATM   33  C12 UNL     1      -6.854  16.104 -16.319  1.00  0.00     0.069 A 
ATOM     34  H6  UNL     1      -8.557  15.058 -15.959  1.00  0.00     0.187 HD
BRANCH  33  35
HETATM   35  C13 UNL     1      -6.393  16.368 -14.897  1.00  0.00     0.066 C 
BRANCH  35  36
HETATM   36  C14 UNL     1      -7.044  17.644 -14.504  1.00  0.00     0.007 C 
BRANCH  36  37
HETATM   37  C15 UNL     1      -8.495  17.790 -14.623  1.00  0.00     0.005 C 
BRANCH  37  38
HETATM   38  C16 UNL     1      -9.117  18.881 -15.379  1.00  0.00     0.040 C 
BRANCH  38  39
HETATM   39  C17 UNL     1     -10.370  18.699 -16.072  1.00  0.00    -0.035 A 
HETATM   40  C18 UNL     1     -10.545  17.958 -17.248  1.00  0.00     0.026 A 
HETATM   41  C19 UNL     1     -11.859  18.074 -17.630  1.00  0.00     0.088 A 
HETATM   42  N7  UNL     1     -12.499  18.853 -16.743  1.00  0.00    -0.369 N 
HETATM   43  C20 UNL     1     -11.596  19.227 -15.806  1.00  0.00     0.011 A 
ATOM     44  H7  UNL     1     -13.485  19.114 -16.770  1.00  0.00     0.165 HD
HETATM   45  C21 UNL     1     -11.931  20.093 -14.661  1.00  0.00     0.068 C 
ENDBRANCH  38  39
ENDBRANCH  37  38
ENDBRANCH  36  37
ENDBRANCH  35  36
ENDBRANCH  33  35
ENDBRANCH   1  24
TORSDOF 12
ENDMDL
MODEL 2
REMARK VINA RESULT: -9.183017671      2.435      5.032
REMARK  12 active torsions:
REMARK  status: ('A' for Active; 'I' for Inactive)
REMARK    1  A    between atoms: O1_2  and  C2_3 
REMARK    2  A    between atoms: C5_6  and  C6_7 
REMARK    3  A    between atoms: C6_7  and  N1_8 
REMARK    4  A    between atoms: N1_8  and  C7_10 
REMARK    5  A    between atoms: N3_15  and  C9_16 
REMARK    6  A    between atoms: C9_16  and  C10_17 
REMARK       I    between atoms: C10_17  and  N4_19 
REMARK    7  A    between atoms: C12_26  and  C13_27 
REMARK    8  A    between atoms: C13_27  and  C14_28 
REMARK    9  A    between atoms: C14_28  and  C15_29 
REMARK   10  A    between atoms: C15_29  and  C16_30 
REMARK   11  A    between atoms: C16_30  and  C17_31 
REMARK   12  A    between atoms: C26_43  and  O4_44 
ROOT
HETATM    1  C9  UNL     1     -10.524  19.703 -19.768  1.00  0.00     0.236 C 
ENDROOT
BRANCH   1   2
HETATM    2  N3  UNL     1     -11.710  19.814 -18.929  1.00  0.00    -0.300 N 
HETATM    3  C8  UNL     1     -11.926  18.923 -17.949  1.00  0.00     0.328 A 
HETATM    4  N2  UNL     1     -13.024  19.003 -17.148  1.00  0.00    -0.294 N 
HETATM    5  O2  UNL     1     -11.069  18.016 -17.807  1.00  0.00    -0.246 OA
HETATM    6  C7  UNL     1     -13.912  19.981 -17.331  1.00  0.00     0.112 A 
ATOM      7  H2  UNL     1     -13.168  18.314 -16.409  1.00  0.00     0.172 HD
HETATM    8  C23 UNL     1     -13.708  20.903 -18.329  1.00  0.00    -0.002 A 
HETATM    9  C22 UNL     1     -12.579  20.819 -19.152  1.00  0.00     0.106 A 
HETATM   10  C24 UNL     1     -14.708  21.982 -18.519  1.00  0.00     0.054 C 
BRANCH   6  11
HETATM   11  N1  UNL     1     -14.954  20.075 -16.587  1.00  0.00    -0.371 N 
ATOM     12  H1  UNL     1     -15.859  20.132 -17.055  1.00  0.00     0.161 HD
BRANCH  11  13
HETATM   13  C6  UNL     1     -14.950  20.106 -15.157  1.00  0.00     0.160 C 
BRANCH  13  14
HETATM   14  C5  UNL     1     -15.394  21.472 -14.733  1.00  0.00    -0.038 A 
HETATM   15  C4  UNL     1     -14.717  22.133 -13.739  1.00  0.00     0.012 A 
HETATM   16  C3  UNL     1     -15.085  23.388 -13.318  1.00  0.00     0.040 A 
HETATM   17  C2  UNL     1     -16.162  24.014 -13.898  1.00  0.00     0.101 A 
HETATM   18  C26 UNL     1     -16.874  23.367 -14.915  1.00  0.00     0.102 A 
HETATM   19  C25 UNL     1     -16.474  22.097 -15.318  1.00  0.00     0.048 A 
BRANCH  17  20
HETATM   20  O1  UNL     1     -16.558  25.279 -13.496  1.00  0.00    -0.353 OA
HETATM   21  C1  UNL     1     -15.793  25.984 -12.549  1.00  0.00     0.210 C 
ENDBRANCH  17  20
BRANCH  18  22
HETATM   22  O4  UNL     1     -17.946  24.036 -15.467  1.00  0.00    -0.353 OA
HETATM   23  C27 UNL     1     -18.180  24.064 -16.862  1.00  0.00     0.210 C 
ENDBRANCH  18  22
ENDBRANCH  13  14
ENDBRANCH  11  13
ENDBRANCH   6  11
ENDBRANCH   1   2
BRANCH   1  24
HETATM   24  C10 UNL     1      -9.520  20.696 -19.373  1.00  0.00     0.242 C 
HETATM   25  O3  UNL     1      -9.901  21.729 -18.724  1.00  0.00    -0.271 OA
HETATM   26  N4  UNL     1      -8.167  20.598 -19.657  1.00  0.00    -0.305 N 
HETATM   27  C11 UNL     1      -7.409  19.550 -19.481  1.00  0.00     0.167 A 
ATOM     28  H4  UNL     1      -7.718  21.429 -20.042  1.00  0.00     0.171 HD
HETATM   29  N5  UNL     1      -6.104  19.440 -19.750  1.00  0.00    -0.279 N 
HETATM   30  S1  UNL     1      -7.761  17.976 -18.869  1.00  0.00    -0.038 SA
HETATM   31  N6  UNL     1      -5.523  18.340 -19.515  1.00  0.00    -0.296 N 
ATOM     32  H5  UNL     1      -5.586  20.228 -20.137  1.00  0.00     0.189 HD
HETATM   33  C12 UNL     1      -6.199  17.321 -19.014  1.00  0.00     0.069 A 
ATOM     34  H6  UNL     1      -4.528  18.240 -19.714  1.00  0.00     0.187 HD
BRANCH  33  35
HETATM   35  C13 UNL     1      -5.635  15.952 -18.684  1.00  0.00     0.066 C 
BRANCH  35  36
HETATM   36  C14 UNL     1      -6.115  15.651 -17.311  1.00  0.00     0.007 C 
BRANCH  36  37
HETATM   37  C15 UNL     1      -5.434  16.238 -16.155  1.00  0.00     0.005 C 
BRANCH  37  38
HETATM   38  C16 UNL     1      -6.155  16.679 -14.957  1.00  0.00     0.040 C 
BRANCH  38  39
HETATM   39  C17 UNL     1      -7.514  17.162 -15.032  1.00  0.00    -0.035 A 
HETATM   40  C18 UNL     1      -7.891  18.507 -15.126  1.00  0.00     0.026 A 
HETATM   41  C19 UNL     1      -9.264  18.564 -15.109  1.00  0.00     0.088 A 
HETATM   42  N7  UNL     1      -9.746  17.315 -15.009  1.00  0.00    -0.369 N 
HETATM   43  C20 UNL     1      -8.686  16.473 -14.962  1.00  0.00     0.011 A 
ATOM     44  H7  UNL     1     -10.730  17.049 -14.975  1.00  0.00     0.165 HD
HETATM   45  C21 UNL     1      -8.820  15.010 -14.850  1.00  0.00     0.068 C 
ENDBRANCH  38  39
ENDBRANCH  37  38
ENDBRANCH  36  37
ENDBRANCH  35  36
ENDBRANCH  33  35
ENDBRANCH   1  24
TORSDOF 12
ENDMDL
MODEL 3
REMARK VINA RESULT: -9.045133969      3.341      9.730
REMARK  12 active torsions:
REMARK  status: ('A' for Active; 'I' for Inactive)
REMARK    1  A    between atoms: O1_2  and  C2_3 
REMARK    2  A    between atoms: C5_6  and  C6_7 
REMARK    3  A    between atoms: C6_7  and  N1_8 
REMARK    4  A    between atoms: N1_8  and  C7_10 
REMARK    5  A    between atoms: N3_15  and  C9_16 
REMARK    6  A    between atoms: C9_16  and  C10_17 
REMARK       I    between atoms: C10_17  and  N4_19 
REMARK    7  A    between atoms: C12_26  and  C13_27 
REMARK    8  A    between atoms: C13_27  and  C14_28 
REMARK    9  A    between atoms: C14_28  and  C15_29 
REMARK   10  A    between atoms: C15_29  and  C16_30 
REMARK   11  A    between atoms: C16_30  and  C17_31 
REMARK   12  A    between atoms: C26_43  and  O4_44 
ROOT
HETATM    1  C9  UNL     1     -10.558  20.304 -15.758  1.00  0.00     0.236 C 
ENDROOT
BRANCH   1   2
HETATM    2  N3  UNL     1      -9.893  19.064 -16.139  1.00  0.00    -0.300 N 
HETATM    3  C8  UNL     1      -9.470  18.889 -17.400  1.00  0.00     0.328 A 
HETATM    4  N2  UNL     1      -8.843  17.742 -17.785  1.00  0.00    -0.294 N 
HETATM    5  O2  UNL     1      -9.679  19.829 -18.205  1.00  0.00    -0.246 OA
HETATM    6  C7  UNL     1      -8.640  16.765 -16.899  1.00  0.00     0.112 A 
ATOM      7  H2  UNL     1      -8.530  17.630 -18.749  1.00  0.00     0.172 HD
HETATM    8  C23 UNL     1      -9.066  16.927 -15.603  1.00  0.00    -0.002 A 
HETATM    9  C22 UNL     1      -9.710  18.106 -15.209  1.00  0.00     0.106 A 
HETATM   10  C24 UNL     1      -8.833  15.829 -14.633  1.00  0.00     0.054 C 
BRANCH   6  11
HETATM   11  N1  UNL     1      -8.052  15.677 -17.240  1.00  0.00    -0.371 N 
ATOM     12  H1  UNL     1      -8.376  14.813 -16.804  1.00  0.00     0.161 HD
BRANCH  11  13
HETATM   13  C6  UNL     1      -6.980  15.576 -18.181  1.00  0.00     0.160 C 
BRANCH  13  14
HETATM   14  C5  UNL     1      -5.701  15.811 -17.436  1.00  0.00    -0.038 A 
HETATM   15  C4  UNL     1      -5.474  15.167 -16.246  1.00  0.00     0.012 A 
HETATM   16  C3  UNL     1      -4.315  15.349 -15.529  1.00  0.00     0.040 A 
HETATM   17  C2  UNL     1      -3.346  16.199 -16.004  1.00  0.00     0.101 A 
HETATM   18  C26 UNL     1      -3.546  16.871 -17.215  1.00  0.00     0.102 A 
HETATM   19  C25 UNL     1      -4.730  16.664 -17.916  1.00  0.00     0.048 A 
BRANCH  17  20
HETATM   20  O1  UNL     1      -2.167  16.404 -15.305  1.00  0.00    -0.353 OA
HETATM   21  C1  UNL     1      -1.353  15.306 -14.970  1.00  0.00     0.210 C 
ENDBRANCH  17  20
BRANCH  18  22
HETATM   22  O4  UNL     1      -2.544  17.713 -17.650  1.00  0.00    -0.353 OA
HETATM   23  C27 UNL     1      -2.783  18.752 -18.580  1.00  0.00     0.210 C 
ENDBRANCH  18  22
ENDBRANCH  13  14
ENDBRANCH  11  13
ENDBRANCH   6  11
ENDBRANCH   1   2
BRANCH   1  24
HETATM   24  C10 UNL     1     -11.930  20.037 -15.316  1.00  0.00     0.242 C 
HETATM   25  O3  UNL     1     -12.195  20.097 -14.068  1.00  0.00    -0.271 OA
HETATM   26  N4  UNL     1     -12.978  19.720 -16.165  1.00  0.00    -0.305 N 
HETATM   27  C11 UNL     1     -13.299  20.337 -17.269  1.00  0.00     0.167 A 
ATOM     28  H4  UNL     1     -13.557  18.923 -15.900  1.00  0.00     0.171 HD
HETATM   29  N5  UNL     1     -14.307  20.042 -18.097  1.00  0.00    -0.279 N 
HETATM   30  S1  UNL     1     -12.600  21.699 -18.061  1.00  0.00    -0.038 SA
HETATM   31  N6  UNL     1     -14.474  20.752 -19.131  1.00  0.00    -0.296 N 
ATOM     32  H5  UNL     1     -14.930  19.259 -17.899  1.00  0.00     0.189 HD
HETATM   33  C12 UNL     1     -13.665  21.766 -19.384  1.00  0.00     0.069 A 
ATOM     34  H6  UNL     1     -15.238  20.541 -19.773  1.00  0.00     0.187 HD
BRANCH  33  35
HETATM   35  C13 UNL     1     -13.747  22.698 -20.579  1.00  0.00     0.066 C 
BRANCH  35  36
HETATM   36  C14 UNL     1     -14.385  23.937 -20.066  1.00  0.00     0.007 C 
BRANCH  36  37
HETATM   37  C15 UNL     1     -15.427  24.601 -20.852  1.00  0.00     0.005 C 
BRANCH  37  38
HETATM   38  C16 UNL     1     -16.762  24.878 -20.314  1.00  0.00     0.040 C 
BRANCH  38  39
HETATM   39  C17 UNL     1     -16.939  25.508 -19.028  1.00  0.00    -0.035 A 
HETATM   40  C18 UNL     1     -17.067  26.886 -18.811  1.00  0.00     0.026 A 
HETATM   41  C19 UNL     1     -17.152  27.096 -17.457  1.00  0.00     0.088 A 
HETATM   42  N7  UNL     1     -17.083  25.910 -16.831  1.00  0.00    -0.369 N 
HETATM   43  C20 UNL     1     -16.954  24.956 -17.784  1.00  0.00     0.011 A 
ATOM     44  H7  UNL     1     -17.121  25.756 -15.824  1.00  0.00     0.165 HD
HETATM   45  C21 UNL     1     -16.847  23.518 -17.478  1.00  0.00     0.068 C 
ENDBRANCH  38  39
ENDBRANCH  37  38
ENDBRANCH  36  37
ENDBRANCH  35  36
ENDBRANCH  33  35
ENDBRANCH   1  24
TORSDOF 12
ENDMDL
MODEL 4
REMARK VINA RESULT: -9.030145818      3.899     10.390
REMARK  12 active torsions:
REMARK  status: ('A' for Active; 'I' for Inactive)
REMARK    1  A    between atoms: O1_2  and  C2_3 
REMARK    2  A    between atoms: C5_6  and  C6_7 
REMARK    3  A    between atoms: C6_7  and  N1_8 
REMARK    4  A    between atoms: N1_8  and  C7_10 
REMARK    5  A    between atoms: N3_15  and  C9_16 
REMARK    6  A    between atoms: C9_16  and  C10_17 
REMARK       I    between atoms: C10_17  and  N4_19 
REMARK    7  A    between atoms: C12_26  and  C13_27 
REMARK    8  A    between atoms: C13_27  and  C14_28 
REMARK    9  A    between atoms: C14_28  and  C15_29 
REMARK   10  A    between atoms: C15_29  and  C16_30 
REMARK   11  A    between atoms: C16_30  and  C17_31 
REMARK   12  A    between atoms: C26_43  and  O4_44 
ROOT
HETATM    1  C9  UNL     1     -14.729  22.305 -14.640  1.00  0.00     0.236 C 
ENDROOT
BRANCH   1   2
HETATM    2  N3  UNL     1     -13.633  21.379 -14.896  1.00  0.00    -0.300 N 
HETATM    3  C8  UNL     1     -12.721  21.138 -13.942  1.00  0.00     0.328 A 
HETATM    4  N2  UNL     1     -11.687  20.276 -14.151  1.00  0.00    -0.294 N 
HETATM    5  O2  UNL     1     -12.866  21.743 -12.851  1.00  0.00    -0.246 OA
HETATM    6  C7  UNL     1     -11.567  19.652 -15.325  1.00  0.00     0.112 A 
ATOM      7  H2  UNL     1     -11.004  20.108 -13.412  1.00  0.00     0.172 HD
HETATM    8  C23 UNL     1     -12.492  19.887 -16.313  1.00  0.00    -0.002 A 
HETATM    9  C22 UNL     1     -13.554  20.773 -16.097  1.00  0.00     0.106 A 
HETATM   10  C24 UNL     1     -12.341  19.187 -17.612  1.00  0.00     0.054 C 
BRANCH   6  11
HETATM   11  N1  UNL     1     -10.601  18.837 -15.543  1.00  0.00    -0.371 N 
ATOM     12  H1  UNL     1     -10.839  17.854 -15.680  1.00  0.00     0.161 HD
BRANCH  11  13
HETATM   13  C6  UNL     1      -9.217  19.194 -15.611  1.00  0.00     0.160 C 
BRANCH  13  14
HETATM   14  C5  UNL     1      -8.435  17.934 -15.826  1.00  0.00    -0.038 A 
HETATM   15  C4  UNL     1      -7.563  17.498 -14.861  1.00  0.00     0.012 A 
HETATM   16  C3  UNL     1      -6.826  16.348 -15.011  1.00  0.00     0.040 A 
HETATM   17  C2  UNL     1      -6.954  15.602 -16.157  1.00  0.00     0.101 A 
HETATM   18  C26 UNL     1      -7.834  16.018 -17.161  1.00  0.00     0.102 A 
HETATM   19  C25 UNL     1      -8.566  17.188 -16.977  1.00  0.00     0.048 A 
BRANCH  17  20
HETATM   20  O1  UNL     1      -6.225  14.437 -16.339  1.00  0.00    -0.353 OA
HETATM   21  C1  UNL     1      -4.839  14.509 -16.571  1.00  0.00     0.210 C 
ENDBRANCH  17  20
BRANCH  18  22
HETATM   22  O4  UNL     1      -7.929  15.235 -18.293  1.00  0.00    -0.353 OA
HETATM   23  C27 UNL     1      -7.336  15.610 -19.521  1.00  0.00     0.210 C 
ENDBRANCH  18  22
ENDBRANCH  13  14
ENDBRANCH  11  13
ENDBRANCH   6  11
ENDBRANCH   1   2
BRANCH   1  24
HETATM   24  C10 UNL     1     -16.015  21.601 -14.668  1.00  0.00     0.242 C 
HETATM   25  O3  UNL     1     -16.260  20.736 -13.759  1.00  0.00    -0.271 OA
HETATM   26  N4  UNL     1     -16.999  21.805 -15.621  1.00  0.00    -0.305 N 
HETATM   27  C11 UNL     1     -17.457  22.956 -16.033  1.00  0.00     0.167 A 
ATOM     28  H4  UNL     1     -17.408  20.971 -16.044  1.00  0.00     0.171 HD
HETATM   29  N5  UNL     1     -18.406  23.169 -16.951  1.00  0.00    -0.279 N 
HETATM   30  S1  UNL     1     -17.050  24.571 -15.588  1.00  0.00    -0.038 SA
HETATM   31  N6  UNL     1     -18.728  24.360 -17.230  1.00  0.00    -0.296 N 
ATOM     32  H5  UNL     1     -18.861  22.385 -17.418  1.00  0.00     0.189 HD
HETATM   33  C12 UNL     1     -18.135  25.373 -16.623  1.00  0.00     0.069 A 
ATOM     34  H6  UNL     1     -19.450  24.540 -17.928  1.00  0.00     0.187 HD
BRANCH  33  35
HETATM   35  C13 UNL     1     -18.421  26.845 -16.855  1.00  0.00     0.066 C 
BRANCH  35  36
HETATM   36  C14 UNL     1     -17.233  27.365 -17.580  1.00  0.00     0.007 C 
BRANCH  36  37
HETATM   37  C15 UNL     1     -16.702  26.632 -18.730  1.00  0.00     0.005 C 
BRANCH  37  38
HETATM   38  C16 UNL     1     -15.291  26.248 -18.836  1.00  0.00     0.040 C 
BRANCH  38  39
HETATM   39  C17 UNL     1     -14.877  25.116 -19.631  1.00  0.00    -0.035 A 
HETATM   40  C18 UNL     1     -15.250  24.879 -20.960  1.00  0.00     0.026 A 
HETATM   41  C19 UNL     1     -14.709  23.676 -21.343  1.00  0.00     0.088 A 
HETATM   42  N7  UNL     1     -14.020  23.164 -20.311  1.00  0.00    -0.369 N 
HETATM   43  C20 UNL     1     -14.125  24.037 -19.280  1.00  0.00     0.011 A 
ATOM     44  H7  UNL     1     -13.511  22.280 -20.304  1.00  0.00     0.165 HD
HETATM   45  C21 UNL     1     -13.496  23.815 -17.966  1.00  0.00     0.068 C 
ENDBRANCH  38  39
ENDBRANCH  37  38
ENDBRANCH  36  37
ENDBRANCH  35  36
ENDBRANCH  33  35
ENDBRANCH   1  24
TORSDOF 12
ENDMDL
MODEL 5
REMARK VINA RESULT: -8.975966216      3.293      9.460
REMARK  12 active torsions:
REMARK  status: ('A' for Active; 'I' for Inactive)
REMARK    1  A    between atoms: O1_2  and  C2_3 
REMARK    2  A    between atoms: C5_6  and  C6_7 
REMARK    3  A    between atoms: C6_7  and  N1_8 
REMARK    4  A    between atoms: N1_8  and  C7_10 
REMARK    5  A    between atoms: N3_15  and  C9_16 
REMARK    6  A    between atoms: C9_16  and  C10_17 
REMARK       I    between atoms: C10_17  and  N4_19 
REMARK    7  A    between atoms: C12_26  and  C13_27 
REMARK    8  A    between atoms: C13_27  and  C14_28 
REMARK    9  A    between atoms: C14_28  and  C15_29 
REMARK   10  A    between atoms: C15_29  and  C16_30 
REMARK   11  A    between atoms: C16_30  and  C17_31 
REMARK   12  A    between atoms: C26_43  and  O4_44 
ROOT
HETATM    1  C9  UNL     1     -14.335  20.484 -15.499  1.00  0.00     0.236 C 
ENDROOT
BRANCH   1   2
HETATM    2  N3  UNL     1     -13.443  19.926 -16.509  1.00  0.00    -0.300 N 
HETATM    3  C8  UNL     1     -13.662  20.174 -17.809  1.00  0.00     0.328 A 
HETATM    4  N2  UNL     1     -12.845  19.668 -18.775  1.00  0.00    -0.294 N 
HETATM    5  O2  UNL     1     -14.653  20.891 -18.092  1.00  0.00    -0.246 OA
HETATM    6  C7  UNL     1     -11.802  18.910 -18.433  1.00  0.00     0.112 A 
ATOM      7  H2  UNL     1     -13.030  19.869 -19.757  1.00  0.00     0.172 HD
HETATM    8  C23 UNL     1     -11.562  18.646 -17.106  1.00  0.00    -0.002 A 
HETATM    9  C22 UNL     1     -12.403  19.166 -16.115  1.00  0.00     0.106 A 
HETATM   10  C24 UNL     1     -10.399  17.799 -16.747  1.00  0.00     0.054 C 
BRANCH   6  11
HETATM   11  N1  UNL     1     -11.019  18.423 -19.326  1.00  0.00    -0.371 N 
ATOM     12  H1  UNL     1     -10.677  17.473 -19.182  1.00  0.00     0.161 HD
BRANCH  11  13
HETATM   13  C6  UNL     1     -10.587  19.105 -20.507  1.00  0.00     0.160 C 
BRANCH  13  14
HETATM   14  C5  UNL     1      -9.092  19.022 -20.556  1.00  0.00    -0.038 A 
HETATM   15  C4  UNL     1      -8.334  20.111 -20.207  1.00  0.00     0.012 A 
HETATM   16  C3  UNL     1      -6.961  20.082 -20.234  1.00  0.00     0.040 A 
HETATM   17  C2  UNL     1      -6.311  18.935 -20.621  1.00  0.00     0.101 A 
HETATM   18  C26 UNL     1      -7.054  17.806 -20.983  1.00  0.00     0.102 A 
HETATM   19  C25 UNL     1      -8.444  17.870 -20.944  1.00  0.00     0.048 A 
BRANCH  17  20
HETATM   20  O1  UNL     1      -4.927  18.873 -20.658  1.00  0.00    -0.353 OA
HETATM   21  C1  UNL     1      -4.167  19.679 -19.791  1.00  0.00     0.210 C 
ENDBRANCH  17  20
BRANCH  18  22
HETATM   22  O4  UNL     1      -6.356  16.678 -21.363  1.00  0.00    -0.353 OA
HETATM   23  C27 UNL     1      -6.240  15.545 -20.524  1.00  0.00     0.210 C 
ENDBRANCH  18  22
ENDBRANCH  13  14
ENDBRANCH  11  13
ENDBRANCH   6  11
ENDBRANCH   1   2
BRANCH   1  24
HETATM   24  C10 UNL     1     -13.668  21.561 -14.761  1.00  0.00     0.242 C 
HETATM   25  O3  UNL     1     -12.391  21.564 -14.703  1.00  0.00    -0.271 OA
HETATM   26  N4  UNL     1     -14.328  22.591 -14.111  1.00  0.00    -0.305 N 
HETATM   27  C11 UNL     1     -15.292  23.324 -14.594  1.00  0.00     0.167 A 
ATOM     28  H4  UNL     1     -14.029  22.796 -13.157  1.00  0.00     0.171 HD
HETATM   29  N5  UNL     1     -15.938  24.321 -13.979  1.00  0.00    -0.279 N 
HETATM   30  S1  UNL     1     -16.078  23.310 -16.129  1.00  0.00    -0.038 SA
HETATM   31  N6  UNL     1     -16.855  24.931 -14.603  1.00  0.00    -0.296 N 
ATOM     32  H5  UNL     1     -15.696  24.585 -13.024  1.00  0.00     0.189 HD
HETATM   33  C12 UNL     1     -17.165  24.585 -15.840  1.00  0.00     0.069 A 
ATOM     34  H6  UNL     1     -17.357  25.693 -14.149  1.00  0.00     0.187 HD
BRANCH  33  35
HETATM   35  C13 UNL     1     -18.235  25.226 -16.705  1.00  0.00     0.066 C 
BRANCH  35  36
HETATM   36  C14 UNL     1     -17.744  25.093 -18.100  1.00  0.00     0.007 C 
BRANCH  36  37
HETATM   37  C15 UNL     1     -16.956  26.171 -18.701  1.00  0.00     0.005 C 
BRANCH  37  38
HETATM   38  C16 UNL     1     -15.510  26.063 -18.917  1.00  0.00     0.040 C 
BRANCH  38  39
HETATM   39  C17 UNL     1     -14.942  24.974 -19.676  1.00  0.00    -0.035 A 
HETATM   40  C18 UNL     1     -15.316  24.609 -20.975  1.00  0.00     0.026 A 
HETATM   41  C19 UNL     1     -14.597  23.492 -21.325  1.00  0.00     0.088 A 
HETATM   42  N7  UNL     1     -13.799  23.154 -20.300  1.00  0.00    -0.369 N 
HETATM   43  C20 UNL     1     -14.012  24.051 -19.308  1.00  0.00     0.011 A 
ATOM     44  H7  UNL     1     -13.151  22.367 -20.274  1.00  0.00     0.165 HD
HETATM   45  C21 UNL     1     -13.310  24.004 -18.012  1.00  0.00     0.068 C 
ENDBRANCH  38  39
ENDBRANCH  37  38
ENDBRANCH  36  37
ENDBRANCH  35  36
ENDBRANCH  33  35
ENDBRANCH   1  24
TORSDOF 12
ENDMDL
