MODEL 1
REMARK VINA RESULT: -8.367665371      0.000      0.000
REMARK  15 active torsions:
REMARK  status: ('A' for Active; 'I' for Inactive)
REMARK    1  A    between atoms: O1_2  and  C2_3 
REMARK    2  A    between atoms: C2_3  and  C3_4 
REMARK    3  A    between atoms: C3_4  and  C4_5 
REMARK    4  A    between atoms: C4_5  and  O2_6 
REMARK    5  A    between atoms: O2_6  and  C5_7 
REMARK       I    between atoms: C5_7  and  N1_9 
REMARK    6  A    between atoms: N2_12  and  C8_13 
REMARK    7  A    between atoms: C8_13  and  C9_14 
REMARK    8  A    between atoms: C9_14  and  C10_15 
REMARK    9  A    between atoms: C10_15  and  N3_16 
REMARK   10  A    between atoms: C14_23  and  N5_24 
REMARK   11  A    between atoms: N5_24  and  C15_26 
REMARK   12  A    between atoms: C15_26  and  C16_27 
REMARK   13  A    between atoms: C19_30  and  N6_31 
REMARK       I    between atoms: N6_31  and  C20_33 
REMARK   14  A    between atoms: C20_33  and  O5_35 
REMARK   15  A    between atoms: O5_35  and  C21_36 
ROOT
HETATM    1  N3  UNL     1      -5.775  15.492 -19.594  1.00  0.00    -0.226 N 
ATOM      2  H3  UNL     1      -4.948  15.148 -20.081  1.00  0.00     0.177 HD
HETATM    3  C11 UNL     1      -5.561  15.537 -18.368  1.00  0.00     0.679 A 
HETATM    4  N4  UNL     1      -4.309  15.128 -17.971  1.00  0.00    -0.202 N 
ATOM      5  H4  UNL     1      -3.627  14.815 -18.663  1.00  0.00     0.183 HD
HETATM    6  C12 UNL     1      -3.994  15.142 -16.679  1.00  0.00     0.110 A 
HETATM    7  C13 UNL     1      -4.912  15.565 -15.741  1.00  0.00     0.066 A 
HETATM    8  C14 UNL     1      -6.175  15.981 -16.131  1.00  0.00     0.118 A 
HETATM    9  N7  UNL     1      -6.464  15.954 -17.441  1.00  0.00    -0.177 N 
ATOM     10  H7  UNL     1      -7.388  16.255 -17.751  1.00  0.00     0.185 HD
ENDROOT
BRANCH   1  11
HETATM   11  C10 UNL     1      -6.788  15.763 -20.509  1.00  0.00     0.140 C 
BRANCH  11  12
HETATM   12  C9  UNL     1      -6.654  17.213 -21.045  1.00  0.00     0.050 C 
BRANCH  12  13
HETATM   13  C8  UNL     1      -7.225  18.157 -20.034  1.00  0.00     0.276 C 
BRANCH  13  14
HETATM   14  N2  UNL     1      -8.184  19.089 -20.479  1.00  0.00     0.107 N 
HETATM   15  C7  UNL     1      -9.277  18.648 -21.253  1.00  0.00     0.294 C 
HETATM   16  C6  UNL     1     -10.548  18.997 -20.497  1.00  0.00     0.160 C 
HETATM   17  N1  UNL     1     -10.106  20.012 -19.581  1.00  0.00    -0.300 N 
HETATM   18  C5  UNL     1     -10.893  21.075 -19.061  1.00  0.00     0.364 C 
HETATM   19  C27 UNL     1      -8.717  19.760 -19.293  1.00  0.00     0.402 C 
HETATM   20  O3  UNL     1     -10.320  21.849 -18.237  1.00  0.00    -0.238 OA
BRANCH  18  21
HETATM   21  O2  UNL     1     -12.193  21.315 -19.381  1.00  0.00    -0.304 OA
BRANCH  21  22
HETATM   22  C4  UNL     1     -12.861  22.538 -19.227  1.00  0.00     0.182 C 
BRANCH  22  23
HETATM   23  C3  UNL     1     -13.710  22.947 -20.402  1.00  0.00     0.053 C 
BRANCH  23  24
HETATM   24  C2  UNL     1     -14.825  23.873 -19.943  1.00  0.00     0.169 C 
BRANCH  24  25
HETATM   25  O1  UNL     1     -15.549  24.437 -20.952  1.00  0.00    -0.396 OA
HETATM   26  C1  UNL     1     -16.706  25.082 -20.601  1.00  0.00     0.201 C 
ENDBRANCH  24  25
ENDBRANCH  23  24
ENDBRANCH  22  23
ENDBRANCH  21  22
ENDBRANCH  18  21
ENDBRANCH  13  14
ENDBRANCH  12  13
ENDBRANCH  11  12
ENDBRANCH   1  11
BRANCH   8  27
HETATM   27  N5  UNL     1      -7.058  16.379 -15.239  1.00  0.00    -0.376 N 
ATOM     28  H5  UNL     1      -6.799  16.989 -14.464  1.00  0.00     0.161 HD
BRANCH  27  29
HETATM   29  C15 UNL     1      -8.405  15.910 -15.412  1.00  0.00     0.126 C 
BRANCH  29  30
HETATM   30  C16 UNL     1      -9.440  16.978 -15.506  1.00  0.00     0.003 C 
HETATM   31  C17 UNL     1     -10.008  17.190 -16.871  1.00  0.00     0.008 C 
HETATM   32  C18 UNL     1     -11.188  18.170 -16.845  1.00  0.00     0.026 C 
HETATM   33  C19 UNL     1     -10.949  19.126 -15.733  1.00  0.00     0.086 C 
HETATM   34  C25 UNL     1      -9.460  19.419 -15.649  1.00  0.00     0.026 C 
HETATM   35  C26 UNL     1      -8.836  18.243 -14.927  1.00  0.00     0.008 C 
BRANCH  33  36
HETATM   36  N6  UNL     1     -11.735  20.313 -15.718  1.00  0.00    -0.332 N 
HETATM   37  C20 UNL     1     -12.339  20.734 -14.488  1.00  0.00     0.361 C 
HETATM   38  O4  UNL     1     -12.172  20.039 -13.428  1.00  0.00    -0.238 OA
ATOM     39  H6  UNL     1     -11.867  20.857 -16.571  1.00  0.00     0.165 HD
BRANCH  37  40
HETATM   40  O5  UNL     1     -13.111  21.865 -14.342  1.00  0.00    -0.294 OA
BRANCH  40  41
HETATM   41  C21 UNL     1     -14.493  21.888 -14.702  1.00  0.00     0.061 C 
HETATM   42  C22 UNL     1     -15.137  20.545 -14.697  1.00  0.00     0.046 C 
HETATM   43  C23 UNL     1     -15.158  22.726 -13.598  1.00  0.00     0.046 C 
HETATM   44  C24 UNL     1     -14.743  22.615 -15.985  1.00  0.00     0.046 C 
ENDBRANCH  40  41
ENDBRANCH  37  40
ENDBRANCH  33  36
ENDBRANCH  29  30
ENDBRANCH  27  29
ENDBRANCH   8  27
TORSDOF 15
ENDMDL
MODEL 2
REMARK VINA RESULT: -8.360292287      3.434     10.691
REMARK  15 active torsions:
REMARK  status: ('A' for Active; 'I' for Inactive)
REMARK    1  A    between atoms: O1_2  and  C2_3 
REMARK    2  A    between atoms: C2_3  and  C3_4 
REMARK    3  A    between atoms: C3_4  and  C4_5 
REMARK    4  A    between atoms: C4_5  and  O2_6 
REMARK    5  A    between atoms: O2_6  and  C5_7 
REMARK       I    between atoms: C5_7  and  N1_9 
REMARK    6  A    between atoms: N2_12  and  C8_13 
REMARK    7  A    between atoms: C8_13  and  C9_14 
REMARK    8  A    between atoms: C9_14  and  C10_15 
REMARK    9  A    between atoms: C10_15  and  N3_16 
REMARK   10  A    between atoms: C14_23  and  N5_24 
REMARK   11  A    between atoms: N5_24  and  C15_26 
REMARK   12  A    between atoms: C15_26  and  C16_27 
REMARK   13  A    between atoms: C19_30  and  N6_31 
REMARK       I    between atoms: N6_31  and  C20_33 
REMARK   14  A    between atoms: C20_33  and  O5_35 
REMARK   15  A    between atoms: O5_35  and  C21_36 
ROOT
HETATM    1  N3  UNL     1     -17.136  24.745 -14.549  1.00  0.00    -0.226 N 
ATOM      2  H3  UNL     1     -17.752  25.062 -13.800  1.00  0.00     0.177 HD
HETATM    3  C11 UNL     1     -17.406  25.347 -15.605  1.00  0.00     0.679 A 
HETATM    4  N4  UNL     1     -18.431  26.261 -15.520  1.00  0.00    -0.202 N 
ATOM      5  H4  UNL     1     -18.914  26.410 -14.634  1.00  0.00     0.183 HD
HETATM    6  C12 UNL     1     -18.787  26.949 -16.602  1.00  0.00     0.110 A 
HETATM    7  C13 UNL     1     -18.136  26.751 -17.800  1.00  0.00     0.066 A 
HETATM    8  C14 UNL     1     -17.101  25.834 -17.896  1.00  0.00     0.118 A 
HETATM    9  N7  UNL     1     -16.765  25.154 -16.789  1.00  0.00    -0.177 N 
ATOM     10  H7  UNL     1     -16.007  24.474 -16.836  1.00  0.00     0.185 HD
ENDROOT
BRANCH   1  11
HETATM   11  C10 UNL     1     -16.260  23.777 -14.069  1.00  0.00     0.140 C 
BRANCH  11  12
HETATM   12  C9  UNL     1     -16.594  22.394 -14.690  1.00  0.00     0.050 C 
BRANCH  12  13
HETATM   13  C8  UNL     1     -15.665  21.370 -14.115  1.00  0.00     0.276 C 
BRANCH  13  14
HETATM   14  N2  UNL     1     -14.322  21.395 -14.539  1.00  0.00     0.107 N 
HETATM   15  C7  UNL     1     -13.292  21.513 -13.583  1.00  0.00     0.294 C 
HETATM   16  C6  UNL     1     -12.408  20.283 -13.704  1.00  0.00     0.160 C 
HETATM   17  N1  UNL     1     -12.727  19.788 -15.015  1.00  0.00    -0.300 N 
HETATM   18  C5  UNL     1     -11.858  19.062 -15.874  1.00  0.00     0.364 C 
HETATM   19  C27 UNL     1     -14.087  20.169 -15.302  1.00  0.00     0.402 C 
HETATM   20  O3  UNL     1     -12.346  18.687 -16.982  1.00  0.00    -0.238 OA
BRANCH  18  21
HETATM   21  O2  UNL     1     -10.564  18.750 -15.595  1.00  0.00    -0.304 OA
BRANCH  21  22
HETATM   22  C4  UNL     1      -9.891  17.595 -16.018  1.00  0.00     0.182 C 
BRANCH  22  23
HETATM   23  C3  UNL     1      -8.764  17.155 -15.121  1.00  0.00     0.053 C 
BRANCH  23  24
HETATM   24  C2  UNL     1      -9.035  15.756 -14.592  1.00  0.00     0.169 C 
BRANCH  24  25
HETATM   25  O1  UNL     1      -8.520  14.750 -15.356  1.00  0.00    -0.396 OA
HETATM   26  C1  UNL     1      -7.214  14.877 -15.753  1.00  0.00     0.201 C 
ENDBRANCH  24  25
ENDBRANCH  23  24
ENDBRANCH  22  23
ENDBRANCH  21  22
ENDBRANCH  18  21
ENDBRANCH  13  14
ENDBRANCH  12  13
ENDBRANCH  11  12
ENDBRANCH   1  11
BRANCH   8  27
HETATM   27  N5  UNL     1     -16.481  25.636 -19.040  1.00  0.00    -0.376 N 
ATOM     28  H5  UNL     1     -16.978  25.315 -19.871  1.00  0.00     0.161 HD
BRANCH  27  29
HETATM   29  C15 UNL     1     -15.068  25.896 -19.060  1.00  0.00     0.126 C 
BRANCH  29  30
HETATM   30  C16 UNL     1     -14.213  24.723 -19.394  1.00  0.00     0.003 C 
HETATM   31  C17 UNL     1     -14.674  23.915 -20.562  1.00  0.00     0.008 C 
HETATM   32  C18 UNL     1     -13.646  22.844 -20.949  1.00  0.00     0.026 C 
HETATM   33  C19 UNL     1     -12.936  22.439 -19.709  1.00  0.00     0.086 C 
HETATM   34  C25 UNL     1     -13.923  22.445 -18.554  1.00  0.00     0.026 C 
HETATM   35  C26 UNL     1     -14.077  23.891 -18.132  1.00  0.00     0.008 C 
BRANCH  33  36
HETATM   36  N6  UNL     1     -12.172  21.239 -19.762  1.00  0.00    -0.332 N 
HETATM   37  C20 UNL     1     -11.006  21.118 -18.936  1.00  0.00     0.361 C 
HETATM   38  O4  UNL     1     -10.664  22.085 -18.173  1.00  0.00    -0.238 OA
ATOM     39  H6  UNL     1     -12.450  20.475 -20.378  1.00  0.00     0.165 HD
BRANCH  37  40
HETATM   40  O5  UNL     1     -10.192  20.007 -18.889  1.00  0.00    -0.294 OA
BRANCH  40  41
HETATM   41  C21 UNL     1      -9.232  19.731 -19.910  1.00  0.00     0.061 C 
HETATM   42  C22 UNL     1      -8.573  20.948 -20.459  1.00  0.00     0.046 C 
HETATM   43  C23 UNL     1      -8.154  18.898 -19.199  1.00  0.00     0.046 C 
HETATM   44  C24 UNL     1      -9.780  18.862 -20.998  1.00  0.00     0.046 C 
ENDBRANCH  40  41
ENDBRANCH  37  40
ENDBRANCH  33  36
ENDBRANCH  29  30
ENDBRANCH  27  29
ENDBRANCH   8  27
TORSDOF 15
ENDMDL
MODEL 3
REMARK VINA RESULT: -8.317393305      1.610      4.962
REMARK  15 active torsions:
REMARK  status: ('A' for Active; 'I' for Inactive)
REMARK    1  A    between atoms: O1_2  and  C2_3 
REMARK    2  A    between atoms: C2_3  and  C3_4 
REMARK    3  A    between atoms: C3_4  and  C4_5 
REMARK    4  A    between atoms: C4_5  and  O2_6 
REMARK    5  A    between atoms: O2_6  and  C5_7 
REMARK       I    between atoms: C5_7  and  N1_9 
REMARK    6  A    between atoms: N2_12  and  C8_13 
REMARK    7  A    between atoms: C8_13  and  C9_14 
REMARK    8  A    between atoms: C9_14  and  C10_15 
REMARK    9  A    between atoms: C10_15  and  N3_16 
REMARK   10  A    between atoms: C14_23  and  N5_24 
REMARK   11  A    between atoms: N5_24  and  C15_26 
REMARK   12  A    between atoms: C15_26  and  C16_27 
REMARK   13  A    between atoms: C19_30  and  N6_31 
REMARK       I    between atoms: N6_31  and  C20_33 
REMARK   14  A    between atoms: C20_33  and  O5_35 
REMARK   15  A    between atoms: O5_35  and  C21_36 
ROOT
HETATM    1  N3  UNL     1      -7.280  15.286 -16.891  1.00  0.00    -0.226 N 
ATOM      2  H3  UNL     1      -7.421  14.284 -17.017  1.00  0.00     0.177 HD
HETATM    3  C11 UNL     1      -7.126  15.837 -17.997  1.00  0.00     0.679 A 
HETATM    4  N4  UNL     1      -7.178  14.999 -19.087  1.00  0.00    -0.202 N 
ATOM      5  H4  UNL     1      -7.334  14.000 -18.960  1.00  0.00     0.183 HD
HETATM    6  C12 UNL     1      -7.022  15.503 -20.309  1.00  0.00     0.110 A 
HETATM    7  C13 UNL     1      -6.812  16.854 -20.485  1.00  0.00     0.066 A 
HETATM    8  C14 UNL     1      -6.759  17.706 -19.393  1.00  0.00     0.118 A 
HETATM    9  N7  UNL     1      -6.919  17.169 -18.174  1.00  0.00    -0.177 N 
ATOM     10  H7  UNL     1      -6.883  17.777 -17.356  1.00  0.00     0.185 HD
ENDROOT
BRANCH   1  11
HETATM   11  C10 UNL     1      -7.321  15.606 -15.538  1.00  0.00     0.140 C 
BRANCH  11  12
HETATM   12  C9  UNL     1      -8.769  15.969 -15.114  1.00  0.00     0.050 C 
BRANCH  12  13
HETATM   13  C8  UNL     1      -8.830  17.432 -14.805  1.00  0.00     0.276 C 
BRANCH  13  14
HETATM   14  N2  UNL     1      -9.503  18.266 -15.719  1.00  0.00     0.107 N 
HETATM   15  C7  UNL     1     -10.303  17.690 -16.728  1.00  0.00     0.294 C 
HETATM   16  C6  UNL     1     -11.722  18.200 -16.538  1.00  0.00     0.160 C 
HETATM   17  N1  UNL     1     -11.535  19.374 -15.731  1.00  0.00    -0.300 N 
HETATM   18  C5  UNL     1     -12.363  20.529 -15.723  1.00  0.00     0.364 C 
HETATM   19  C27 UNL     1     -10.350  19.169 -14.938  1.00  0.00     0.402 C 
HETATM   20  O3  UNL     1     -12.041  21.447 -14.911  1.00  0.00    -0.238 OA
BRANCH  18  21
HETATM   21  O2  UNL     1     -13.455  20.714 -16.513  1.00  0.00    -0.304 OA
BRANCH  21  22
HETATM   22  C4  UNL     1     -14.754  20.270 -16.230  1.00  0.00     0.182 C 
BRANCH  22  23
HETATM   23  C3  UNL     1     -15.226  20.551 -14.827  1.00  0.00     0.053 C 
BRANCH  23  24
HETATM   24  C2  UNL     1     -16.325  21.601 -14.848  1.00  0.00     0.169 C 
BRANCH  24  25
HETATM   25  O1  UNL     1     -16.178  22.597 -13.927  1.00  0.00    -0.396 OA
HETATM   26  C1  UNL     1     -14.911  22.823 -13.454  1.00  0.00     0.201 C 
ENDBRANCH  24  25
ENDBRANCH  23  24
ENDBRANCH  22  23
ENDBRANCH  21  22
ENDBRANCH  18  21
ENDBRANCH  13  14
ENDBRANCH  12  13
ENDBRANCH  11  12
ENDBRANCH   1  11
BRANCH   8  27
HETATM   27  N5  UNL     1      -6.551  18.996 -19.555  1.00  0.00    -0.376 N 
ATOM     28  H5  UNL     1      -5.905  19.514 -18.960  1.00  0.00     0.161 HD
BRANCH  27  29
HETATM   29  C15 UNL     1      -7.281  19.639 -20.613  1.00  0.00     0.126 C 
BRANCH  29  30
HETATM   30  C16 UNL     1      -8.632  20.140 -20.237  1.00  0.00     0.003 C 
HETATM   31  C17 UNL     1      -8.855  20.322 -18.772  1.00  0.00     0.008 C 
HETATM   32  C18 UNL     1     -10.195  21.011 -18.485  1.00  0.00     0.026 C 
HETATM   33  C19 UNL     1     -11.135  20.624 -19.569  1.00  0.00     0.086 C 
HETATM   34  C25 UNL     1     -10.865  19.182 -19.962  1.00  0.00     0.026 C 
HETATM   35  C26 UNL     1      -9.650  19.207 -20.866  1.00  0.00     0.008 C 
BRANCH  33  36
HETATM   36  N6  UNL     1     -12.519  20.874 -19.347  1.00  0.00    -0.332 N 
HETATM   37  C20 UNL     1     -13.092  22.098 -19.826  1.00  0.00     0.361 C 
HETATM   38  O4  UNL     1     -12.356  22.948 -20.437  1.00  0.00    -0.238 OA
ATOM     39  H6  UNL     1     -13.095  20.192 -18.854  1.00  0.00     0.165 HD
BRANCH  37  40
HETATM   40  O5  UNL     1     -14.416  22.452 -19.683  1.00  0.00    -0.294 OA
BRANCH  40  41
HETATM   41  C21 UNL     1     -14.811  23.624 -18.970  1.00  0.00     0.061 C 
HETATM   42  C22 UNL     1     -15.147  24.777 -19.851  1.00  0.00     0.046 C 
HETATM   43  C23 UNL     1     -16.098  23.206 -18.241  1.00  0.00     0.046 C 
HETATM   44  C24 UNL     1     -13.835  24.009 -17.905  1.00  0.00     0.046 C 
ENDBRANCH  40  41
ENDBRANCH  37  40
ENDBRANCH  33  36
ENDBRANCH  29  30
ENDBRANCH  27  29
ENDBRANCH   8  27
TORSDOF 15
ENDMDL
MODEL 4
REMARK VINA RESULT: -8.191848927      2.795      9.883
REMARK  15 active torsions:
REMARK  status: ('A' for Active; 'I' for Inactive)
REMARK    1  A    between atoms: O1_2  and  C2_3 
REMARK    2  A    between atoms: C2_3  and  C3_4 
REMARK    3  A    between atoms: C3_4  and  C4_5 
REMARK    4  A    between atoms: C4_5  and  O2_6 
REMARK    5  A    between atoms: O2_6  and  C5_7 
REMARK       I    between atoms: C5_7  and  N1_9 
REMARK    6  A    between atoms: N2_12  and  C8_13 
REMARK    7  A    between atoms: C8_13  and  C9_14 
REMARK    8  A    between atoms: C9_14  and  C10_15 
REMARK    9  A    between atoms: C10_15  and  N3_16 
REMARK   10  A    between atoms: C14_23  and  N5_24 
REMARK   11  A    between atoms: N5_24  and  C15_26 
REMARK   12  A    between atoms: C15_26  and  C16_27 
REMARK   13  A    between atoms: C19_30  and  N6_31 
REMARK       I    between atoms: N6_31  and  C20_33 
REMARK   14  A    between atoms: C20_33  and  O5_35 
REMARK   15  A    between atoms: O5_35  and  C21_36 
ROOT
HETATM    1  N3  UNL     1     -16.242  23.116 -17.245  1.00  0.00    -0.226 N 
ATOM      2  H3  UNL     1     -16.971  23.779 -17.509  1.00  0.00     0.177 HD
HETATM    3  C11 UNL     1     -15.412  23.005 -18.167  1.00  0.00     0.679 A 
HETATM    4  N4  UNL     1     -15.662  23.769 -19.283  1.00  0.00    -0.202 N 
ATOM      5  H4  UNL     1     -16.482  24.375 -19.318  1.00  0.00     0.183 HD
HETATM    6  C12 UNL     1     -14.827  23.711 -20.317  1.00  0.00     0.110 A 
HETATM    7  C13 UNL     1     -13.718  22.893 -20.274  1.00  0.00     0.066 A 
HETATM    8  C14 UNL     1     -13.457  22.120 -19.153  1.00  0.00     0.118 A 
HETATM    9  N7  UNL     1     -14.318  22.199 -18.127  1.00  0.00    -0.177 N 
ATOM     10  H7  UNL     1     -14.146  21.639 -17.292  1.00  0.00     0.185 HD
ENDROOT
BRANCH   1  11
HETATM   11  C10 UNL     1     -16.489  22.622 -15.968  1.00  0.00     0.140 C 
BRANCH  11  12
HETATM   12  C9  UNL     1     -15.514  23.264 -14.945  1.00  0.00     0.050 C 
BRANCH  12  13
HETATM   13  C8  UNL     1     -15.049  22.208 -13.992  1.00  0.00     0.276 C 
BRANCH  13  14
HETATM   14  N2  UNL     1     -13.664  21.963 -13.914  1.00  0.00     0.107 N 
HETATM   15  C7  UNL     1     -13.120  21.406 -12.738  1.00  0.00     0.294 C 
HETATM   16  C6  UNL     1     -12.460  20.090 -13.115  1.00  0.00     0.160 C 
HETATM   17  N1  UNL     1     -12.273  20.220 -14.534  1.00  0.00    -0.300 N 
HETATM   18  C5  UNL     1     -11.243  19.617 -15.305  1.00  0.00     0.364 C 
HETATM   19  C27 UNL     1     -13.316  21.082 -15.029  1.00  0.00     0.402 C 
HETATM   20  O3  UNL     1     -11.275  19.833 -16.554  1.00  0.00    -0.238 OA
BRANCH  18  21
HETATM   21  O2  UNL     1     -10.245  18.840 -14.805  1.00  0.00    -0.304 OA
BRANCH  21  22
HETATM   22  C4  UNL     1      -9.686  17.720 -15.437  1.00  0.00     0.182 C 
BRANCH  22  23
HETATM   23  C3  UNL     1      -8.537  17.085 -14.699  1.00  0.00     0.053 C 
BRANCH  23  24
HETATM   24  C2  UNL     1      -8.844  15.623 -14.416  1.00  0.00     0.169 C 
BRANCH  24  25
HETATM   25  O1  UNL     1      -8.493  14.765 -15.416  1.00  0.00    -0.396 OA
HETATM   26  C1  UNL     1      -7.192  14.811 -15.847  1.00  0.00     0.201 C 
ENDBRANCH  24  25
ENDBRANCH  23  24
ENDBRANCH  22  23
ENDBRANCH  21  22
ENDBRANCH  18  21
ENDBRANCH  13  14
ENDBRANCH  12  13
ENDBRANCH  11  12
ENDBRANCH   1  11
BRANCH   8  27
HETATM   27  N5  UNL     1     -12.403  21.332 -19.110  1.00  0.00    -0.376 N 
ATOM     28  H5  UNL     1     -12.489  20.332 -18.929  1.00  0.00     0.161 HD
BRANCH  27  29
HETATM   29  C15 UNL     1     -11.126  21.952 -19.330  1.00  0.00     0.126 C 
BRANCH  29  30
HETATM   30  C16 UNL     1      -9.985  21.009 -19.495  1.00  0.00     0.003 C 
HETATM   31  C17 UNL     1      -8.878  21.503 -20.368  1.00  0.00     0.008 C 
HETATM   32  C18 UNL     1      -7.670  20.557 -20.337  1.00  0.00     0.026 C 
HETATM   33  C19 UNL     1      -8.186  19.183 -20.107  1.00  0.00     0.086 C 
HETATM   34  C25 UNL     1      -9.506  19.025 -20.842  1.00  0.00     0.026 C 
HETATM   35  C26 UNL     1     -10.557  19.689 -19.977  1.00  0.00     0.008 C 
BRANCH  33  36
HETATM   36  N6  UNL     1      -7.292  18.104 -20.362  1.00  0.00    -0.332 N 
HETATM   37  C20 UNL     1      -6.851  17.291 -19.266  1.00  0.00     0.361 C 
HETATM   38  O4  UNL     1      -7.256  17.548 -18.081  1.00  0.00    -0.238 OA
ATOM     39  H6  UNL     1      -6.971  17.912 -21.310  1.00  0.00     0.165 HD
BRANCH  37  40
HETATM   40  O5  UNL     1      -5.997  16.216 -19.383  1.00  0.00    -0.294 OA
BRANCH  40  41
HETATM   41  C21 UNL     1      -4.585  16.383 -19.513  1.00  0.00     0.061 C 
HETATM   42  C22 UNL     1      -3.790  15.338 -18.810  1.00  0.00     0.046 C 
HETATM   43  C23 UNL     1      -4.323  16.231 -21.019  1.00  0.00     0.046 C 
HETATM   44  C24 UNL     1      -4.131  17.761 -19.147  1.00  0.00     0.046 C 
ENDBRANCH  40  41
ENDBRANCH  37  40
ENDBRANCH  33  36
ENDBRANCH  29  30
ENDBRANCH  27  29
ENDBRANCH   8  27
TORSDOF 15
ENDMDL
MODEL 5
REMARK VINA RESULT: -8.176228813      3.247      9.437
REMARK  15 active torsions:
REMARK  status: ('A' for Active; 'I' for Inactive)
REMARK    1  A    between atoms: O1_2  and  C2_3 
REMARK    2  A    between atoms: C2_3  and  C3_4 
REMARK    3  A    between atoms: C3_4  and  C4_5 
REMARK    4  A    between atoms: C4_5  and  O2_6 
REMARK    5  A    between atoms: O2_6  and  C5_7 
REMARK       I    between atoms: C5_7  and  N1_9 
REMARK    6  A    between atoms: N2_12  and  C8_13 
REMARK    7  A    between atoms: C8_13  and  C9_14 
REMARK    8  A    between atoms: C9_14  and  C10_15 
REMARK    9  A    between atoms: C10_15  and  N3_16 
REMARK   10  A    between atoms: C14_23  and  N5_24 
REMARK   11  A    between atoms: N5_24  and  C15_26 
REMARK   12  A    between atoms: C15_26  and  C16_27 
REMARK   13  A    between atoms: C19_30  and  N6_31 
REMARK       I    between atoms: N6_31  and  C20_33 
REMARK   14  A    between atoms: C20_33  and  O5_35 
REMARK   15  A    between atoms: O5_35  and  C21_36 
ROOT
HETATM    1  N3  UNL     1     -17.899  25.866 -16.897  1.00  0.00    -0.226 N 
ATOM      2  H3  UNL     1     -18.155  26.738 -16.433  1.00  0.00     0.177 HD
HETATM    3  C11 UNL     1     -17.452  25.055 -16.064  1.00  0.00     0.679 A 
HETATM    4  N4  UNL     1     -17.407  25.506 -14.765  1.00  0.00    -0.202 N 
ATOM      5  H4  UNL     1     -17.728  26.447 -14.536  1.00  0.00     0.183 HD
HETATM    6  C12 UNL     1     -16.942  24.706 -13.810  1.00  0.00     0.110 A 
HETATM    7  C13 UNL     1     -16.509  23.433 -14.115  1.00  0.00     0.066 A 
HETATM    8  C14 UNL     1     -16.551  22.969 -15.420  1.00  0.00     0.118 A 
HETATM    9  N7  UNL     1     -17.024  23.800 -16.362  1.00  0.00    -0.177 N 
ATOM     10  H7  UNL     1     -17.064  23.480 -17.330  1.00  0.00     0.185 HD
ENDROOT
BRANCH   1  11
HETATM   11  C10 UNL     1     -18.160  25.958 -18.261  1.00  0.00     0.140 C 
BRANCH  11  12
HETATM   12  C9  UNL     1     -17.066  26.808 -18.961  1.00  0.00     0.050 C 
BRANCH  12  13
HETATM   13  C8  UNL     1     -16.489  26.015 -20.092  1.00  0.00     0.276 C 
BRANCH  13  14
HETATM   14  N2  UNL     1     -15.150  25.594 -19.978  1.00  0.00     0.107 N 
HETATM   15  C7  UNL     1     -14.470  25.759 -18.753  1.00  0.00     0.294 C 
HETATM   16  C6  UNL     1     -14.043  24.381 -18.274  1.00  0.00     0.160 C 
HETATM   17  N1  UNL     1     -14.102  23.593 -19.474  1.00  0.00    -0.300 N 
HETATM   18  C5  UNL     1     -13.304  22.455 -19.772  1.00  0.00     0.364 C 
HETATM   19  C27 UNL     1     -15.112  24.172 -20.322  1.00  0.00     0.402 C 
HETATM   20  O3  UNL     1     -13.536  21.879 -20.877  1.00  0.00    -0.238 OA
BRANCH  18  21
HETATM   21  O2  UNL     1     -12.327  21.953 -18.970  1.00  0.00    -0.304 OA
BRANCH  21  22
HETATM   22  C4  UNL     1     -11.616  20.766 -19.193  1.00  0.00     0.182 C 
BRANCH  22  23
HETATM   23  C3  UNL     1     -10.160  20.819 -18.810  1.00  0.00     0.053 C 
BRANCH  23  24
HETATM   24  C2  UNL     1      -9.297  20.368 -19.978  1.00  0.00     0.169 C 
BRANCH  24  25
HETATM   25  O1  UNL     1      -9.363  19.034 -20.253  1.00  0.00    -0.396 OA
HETATM   26  C1  UNL     1      -8.352  18.248 -19.763  1.00  0.00     0.201 C 
ENDBRANCH  24  25
ENDBRANCH  23  24
ENDBRANCH  22  23
ENDBRANCH  21  22
ENDBRANCH  18  21
ENDBRANCH  13  14
ENDBRANCH  12  13
ENDBRANCH  11  12
ENDBRANCH   1  11
BRANCH   8  27
HETATM   27  N5  UNL     1     -16.132  21.757 -15.718  1.00  0.00    -0.376 N 
ATOM     28  H5  UNL     1     -16.017  21.452 -16.684  1.00  0.00     0.161 HD
BRANCH  27  29
HETATM   29  C15 UNL     1     -15.843  20.886 -14.613  1.00  0.00     0.126 C 
BRANCH  29  30
HETATM   30  C16 UNL     1     -14.457  20.343 -14.579  1.00  0.00     0.003 C 
HETATM   31  C17 UNL     1     -13.644  20.755 -13.396  1.00  0.00     0.008 C 
HETATM   32  C18 UNL     1     -12.304  20.009 -13.345  1.00  0.00     0.026 C 
HETATM   33  C19 UNL     1     -11.901  19.719 -14.746  1.00  0.00     0.086 C 
HETATM   34  C25 UNL     1     -12.315  20.886 -15.627  1.00  0.00     0.026 C 
HETATM   35  C26 UNL     1     -13.796  20.714 -15.894  1.00  0.00     0.008 C 
BRANCH  33  36
HETATM   36  N6  UNL     1     -10.550  19.328 -14.964  1.00  0.00    -0.332 N 
HETATM   37  C20 UNL     1     -10.263  18.344 -15.966  1.00  0.00     0.361 C 
HETATM   38  O4  UNL     1     -11.218  17.827 -16.641  1.00  0.00    -0.238 OA
ATOM     39  H6  UNL     1      -9.796  19.743 -14.416  1.00  0.00     0.165 HD
BRANCH  37  40
HETATM   40  O5  UNL     1      -9.000  17.891 -16.278  1.00  0.00    -0.294 OA
BRANCH  40  41
HETATM   41  C21 UNL     1      -8.269  17.029 -15.405  1.00  0.00     0.061 C 
HETATM   42  C22 UNL     1      -9.132  16.125 -14.595  1.00  0.00     0.046 C 
HETATM   43  C23 UNL     1      -7.436  16.150 -16.352  1.00  0.00     0.046 C 
HETATM   44  C24 UNL     1      -7.289  17.768 -14.551  1.00  0.00     0.046 C 
ENDBRANCH  40  41
ENDBRANCH  37  40
ENDBRANCH  33  36
ENDBRANCH  29  30
ENDBRANCH  27  29
ENDBRANCH   8  27
TORSDOF 15
ENDMDL
