MODEL 1
REMARK VINA RESULT: -9.352653042      0.000      0.000
REMARK  13 active torsions:
REMARK  status: ('A' for Active; 'I' for Inactive)
REMARK       I    between atoms: C2_2  and  N1_4 
REMARK    1  A    between atoms: N1_4  and  C3_6 
REMARK    2  A    between atoms: C6_10  and  C7_11 
REMARK    3  A    between atoms: C7_11  and  C8_12 
REMARK    4  A    between atoms: C8_12  and  C9_13 
REMARK    5  A    between atoms: C9_13  and  C10_14 
REMARK    6  A    between atoms: C10_14  and  C11_15 
REMARK    7  A    between atoms: C12_20  and  N4_21 
REMARK    8  A    between atoms: N4_21  and  C13_23 
REMARK    9  A    between atoms: C13_23  and  C15_25 
REMARK   10  A    between atoms: C18_30  and  N6_31 
REMARK       I    between atoms: N6_31  and  C20_33 
REMARK       I    between atoms: C20_33  and  N7_35 
REMARK   11  A    between atoms: N7_35  and  C21_37 
REMARK   12  A    between atoms: C21_37  and  C22_38 
REMARK   13  A    between atoms: C22_38  and  N8_39 
ROOT
HETATM    1  C11 UNL     1     -13.736  19.953 -16.028  1.00  0.00     0.112 A 
HETATM    2  N2  UNL     1     -14.808  20.003 -16.865  1.00  0.00    -0.274 N 
ATOM      3  H2  UNL     1     -15.779  20.082 -16.564  1.00  0.00     0.189 HD
HETATM    4  N3  UNL     1     -14.409  19.933 -18.126  1.00  0.00    -0.131 N 
ATOM      5  H3  UNL     1     -14.998  19.947 -18.958  1.00  0.00     0.205 HD
HETATM    6  C12 UNL     1     -13.078  19.841 -18.085  1.00  0.00     0.694 A 
HETATM    7  N9  UNL     1     -12.659  19.851 -16.809  1.00  0.00    -0.178 N 
ATOM      8  H9  UNL     1     -11.692  19.792 -16.493  1.00  0.00     0.185 HD
ENDROOT
BRANCH   6   9
HETATM    9  N4  UNL     1     -12.313  19.771 -19.118  1.00  0.00    -0.216 N 
ATOM     10  H4  UNL     1     -12.207  18.850 -19.544  1.00  0.00     0.178 HD
BRANCH   9  11
HETATM   11  C13 UNL     1     -11.596  20.840 -19.734  1.00  0.00     0.128 C 
HETATM   12  C14 UNL     1     -11.688  22.130 -18.924  1.00  0.00     0.038 C 
BRANCH  11  13
HETATM   13  C15 UNL     1     -10.149  20.406 -19.795  1.00  0.00    -0.030 A 
HETATM   14  C16 UNL     1      -9.147  21.289 -20.123  1.00  0.00     0.026 A 
HETATM   15  C17 UNL     1      -7.844  20.822 -20.162  1.00  0.00     0.090 A 
HETATM   16  N5  UNL     1      -7.524  19.543 -19.890  1.00  0.00    -0.352 N 
HETATM   17  C18 UNL     1      -8.497  18.639 -19.561  1.00  0.00     0.111 A 
ATOM     18  H5  UNL     1      -6.550  19.245 -19.931  1.00  0.00     0.166 HD
HETATM   19  C25 UNL     1      -9.783  19.107 -19.525  1.00  0.00     0.058 A 
BRANCH  17  20
HETATM   20  N6  UNL     1      -8.114  17.302 -19.257  1.00  0.00    -0.290 N 
HETATM   21  C19 UNL     1      -7.464  16.584 -20.361  1.00  0.00     0.163 C 
HETATM   22  C20 UNL     1      -8.324  16.688 -18.001  1.00  0.00     0.323 C 
HETATM   23  O3  UNL     1      -7.990  15.499 -17.823  1.00  0.00    -0.247 OA
HETATM   24  N7  UNL     1      -8.914  17.429 -16.954  1.00  0.00    -0.341 N 
ATOM     25  H7  UNL     1      -9.187  18.400 -17.106  1.00  0.00     0.164 HD
BRANCH  24  26
HETATM   26  C21 UNL     1      -9.133  16.805 -15.657  1.00  0.00     0.143 C 
BRANCH  26  27
HETATM   27  C22 UNL     1      -8.131  17.285 -14.643  1.00  0.00     0.135 C 
BRANCH  27  28
HETATM   28  N8  UNL     1      -7.127  16.304 -14.433  1.00  0.00    -0.419 N 
HETATM   29  C23 UNL     1      -5.919  16.451 -15.171  1.00  0.00     0.142 C 
HETATM   30  C24 UNL     1      -7.639  14.985 -14.310  1.00  0.00     0.142 C 
ENDBRANCH  27  28
ENDBRANCH  26  27
ENDBRANCH  24  26
ENDBRANCH  17  20
ENDBRANCH  11  13
ENDBRANCH   9  11
ENDBRANCH   6   9
BRANCH   1  31
HETATM   31  C10 UNL     1     -13.810  20.026 -14.547  1.00  0.00     0.078 C 
BRANCH  31  32
HETATM   32  C9  UNL     1     -13.675  21.460 -14.046  1.00  0.00     0.008 C 
BRANCH  32  33
HETATM   33  C8  UNL     1     -14.960  21.912 -13.457  1.00  0.00     0.006 C 
BRANCH  33  34
HETATM   34  C7  UNL     1     -15.220  23.375 -13.470  1.00  0.00     0.049 C 
BRANCH  34  35
HETATM   35  C6  UNL     1     -16.183  23.817 -14.535  1.00  0.00     0.016 A 
HETATM   36  C4  UNL     1     -17.278  24.654 -14.356  1.00  0.00     0.065 A 
HETATM   37  O2  UNL     1     -17.984  24.901 -15.365  1.00  0.00    -0.291 OA
HETATM   38  C5  UNL     1     -17.570  25.223 -12.971  1.00  0.00     0.078 C 
HETATM   39  C3  UNL     1     -17.711  24.404 -16.519  1.00  0.00     0.194 A 
HETATM   40  S1  UNL     1     -16.312  23.478 -16.201  1.00  0.00    -0.048 SA
BRANCH  39  41
HETATM   41  N1  UNL     1     -18.359  24.574 -17.656  1.00  0.00    -0.302 N 
HETATM   42  C2  UNL     1     -17.745  25.388 -18.625  1.00  0.00     0.220 C 
HETATM   43  C1  UNL     1     -17.103  26.687 -18.303  1.00  0.00     0.117 C 
HETATM   44  O1  UNL     1     -17.741  24.992 -19.827  1.00  0.00    -0.274 OA
ATOM     45  H1  UNL     1     -19.263  24.135 -17.825  1.00  0.00     0.171 HD
ENDBRANCH  39  41
ENDBRANCH  34  35
ENDBRANCH  33  34
ENDBRANCH  32  33
ENDBRANCH  31  32
ENDBRANCH   1  31
TORSDOF 13
ENDMDL
MODEL 2
REMARK VINA RESULT: -9.043340867      2.868     10.085
REMARK  13 active torsions:
REMARK  status: ('A' for Active; 'I' for Inactive)
REMARK       I    between atoms: C2_2  and  N1_4 
REMARK    1  A    between atoms: N1_4  and  C3_6 
REMARK    2  A    between atoms: C6_10  and  C7_11 
REMARK    3  A    between atoms: C7_11  and  C8_12 
REMARK    4  A    between atoms: C8_12  and  C9_13 
REMARK    5  A    between atoms: C9_13  and  C10_14 
REMARK    6  A    between atoms: C10_14  and  C11_15 
REMARK    7  A    between atoms: C12_20  and  N4_21 
REMARK    8  A    between atoms: N4_21  and  C13_23 
REMARK    9  A    between atoms: C13_23  and  C15_25 
REMARK   10  A    between atoms: C18_30  and  N6_31 
REMARK       I    between atoms: N6_31  and  C20_33 
REMARK       I    between atoms: C20_33  and  N7_35 
REMARK   11  A    between atoms: N7_35  and  C21_37 
REMARK   12  A    between atoms: C21_37  and  C22_38 
REMARK   13  A    between atoms: C22_38  and  N8_39 
ROOT
HETATM    1  C11 UNL     1     -12.877  19.515 -17.695  1.00  0.00     0.112 A 
HETATM    2  N2  UNL     1     -13.970  18.970 -18.296  1.00  0.00    -0.274 N 
ATOM      3  H2  UNL     1     -14.138  17.970 -18.402  1.00  0.00     0.189 HD
HETATM    4  N3  UNL     1     -14.782  19.925 -18.724  1.00  0.00    -0.131 N 
ATOM      5  H3  UNL     1     -15.670  19.803 -19.210  1.00  0.00     0.205 HD
HETATM    6  C12 UNL     1     -14.200  21.079 -18.390  1.00  0.00     0.694 A 
HETATM    7  N9  UNL     1     -13.037  20.838 -17.764  1.00  0.00    -0.178 N 
ATOM      8  H9  UNL     1     -12.391  21.541 -17.404  1.00  0.00     0.185 HD
ENDROOT
BRANCH   6   9
HETATM    9  N4  UNL     1     -14.693  22.246 -18.621  1.00  0.00    -0.216 N 
ATOM     10  H4  UNL     1     -15.617  22.432 -18.231  1.00  0.00     0.178 HD
BRANCH   9  11
HETATM   11  C13 UNL     1     -14.091  23.306 -19.359  1.00  0.00     0.128 C 
HETATM   12  C14 UNL     1     -13.714  22.874 -20.774  1.00  0.00     0.038 C 
BRANCH  11  13
HETATM   13  C15 UNL     1     -15.123  24.409 -19.446  1.00  0.00    -0.030 A 
HETATM   14  C16 UNL     1     -15.309  25.129 -20.602  1.00  0.00     0.026 A 
HETATM   15  C17 UNL     1     -16.270  26.126 -20.609  1.00  0.00     0.090 A 
HETATM   16  N5  UNL     1     -17.025  26.412 -19.532  1.00  0.00    -0.352 N 
HETATM   17  C18 UNL     1     -16.865  25.713 -18.366  1.00  0.00     0.111 A 
ATOM     18  H5  UNL     1     -17.722  27.155 -19.584  1.00  0.00     0.166 HD
HETATM   19  C25 UNL     1     -15.913  24.730 -18.366  1.00  0.00     0.058 A 
BRANCH  17  20
HETATM   20  N6  UNL     1     -17.701  26.031 -17.258  1.00  0.00    -0.290 N 
HETATM   21  C19 UNL     1     -18.663  27.112 -17.506  1.00  0.00     0.163 C 
HETATM   22  C20 UNL     1     -17.636  25.373 -16.008  1.00  0.00     0.323 C 
HETATM   23  O3  UNL     1     -18.381  25.733 -15.074  1.00  0.00    -0.247 OA
HETATM   24  N7  UNL     1     -16.725  24.311 -15.827  1.00  0.00    -0.341 N 
ATOM     25  H7  UNL     1     -16.117  24.022 -16.595  1.00  0.00     0.164 HD
BRANCH  24  26
HETATM   26  C21 UNL     1     -16.653  23.627 -14.544  1.00  0.00     0.143 C 
BRANCH  26  27
HETATM   27  C22 UNL     1     -16.602  22.135 -14.722  1.00  0.00     0.135 C 
BRANCH  27  28
HETATM   28  N8  UNL     1     -15.489  21.589 -14.029  1.00  0.00    -0.419 N 
HETATM   29  C23 UNL     1     -14.564  22.514 -13.469  1.00  0.00     0.142 C 
HETATM   30  C24 UNL     1     -14.938  20.440 -14.656  1.00  0.00     0.142 C 
ENDBRANCH  27  28
ENDBRANCH  26  27
ENDBRANCH  24  26
ENDBRANCH  17  20
ENDBRANCH  11  13
ENDBRANCH   9  11
ENDBRANCH   6   9
BRANCH   1  31
HETATM   31  C10 UNL     1     -11.768  18.741 -17.082  1.00  0.00     0.078 C 
BRANCH  31  32
HETATM   32  C9  UNL     1     -10.874  19.625 -16.220  1.00  0.00     0.008 C 
BRANCH  32  33
HETATM   33  C8  UNL     1     -10.217  18.806 -15.170  1.00  0.00     0.006 C 
BRANCH  33  34
HETATM   34  C7  UNL     1      -8.775  18.501 -15.369  1.00  0.00     0.049 C 
BRANCH  34  35
HETATM   35  C6  UNL     1      -8.507  17.471 -16.429  1.00  0.00     0.016 A 
HETATM   36  C4  UNL     1      -8.250  16.123 -16.217  1.00  0.00     0.065 A 
HETATM   37  O2  UNL     1      -8.032  15.413 -17.230  1.00  0.00    -0.291 OA
HETATM   38  C5  UNL     1      -8.244  15.573 -14.794  1.00  0.00     0.078 C 
HETATM   39  C3  UNL     1      -8.043  15.907 -18.417  1.00  0.00     0.194 A 
HETATM   40  S1  UNL     1      -8.398  17.552 -18.129  1.00  0.00    -0.048 SA
BRANCH  39  41
HETATM   41  N1  UNL     1      -7.831  15.287 -19.563  1.00  0.00    -0.302 N 
HETATM   42  C2  UNL     1      -6.876  15.850 -20.426  1.00  0.00     0.220 C 
HETATM   43  C1  UNL     1      -6.797  17.305 -20.710  1.00  0.00     0.117 C 
HETATM   44  O1  UNL     1      -6.044  15.078 -20.987  1.00  0.00    -0.274 OA
ATOM     45  H1  UNL     1      -8.338  14.438 -19.811  1.00  0.00     0.171 HD
ENDBRANCH  39  41
ENDBRANCH  34  35
ENDBRANCH  33  34
ENDBRANCH  32  33
ENDBRANCH  31  32
ENDBRANCH   1  31
TORSDOF 13
ENDMDL
MODEL 3
REMARK VINA RESULT: -9.022057639      1.304      1.541
REMARK  13 active torsions:
REMARK  status: ('A' for Active; 'I' for Inactive)
REMARK       I    between atoms: C2_2  and  N1_4 
REMARK    1  A    between atoms: N1_4  and  C3_6 
REMARK    2  A    between atoms: C6_10  and  C7_11 
REMARK    3  A    between atoms: C7_11  and  C8_12 
REMARK    4  A    between atoms: C8_12  and  C9_13 
REMARK    5  A    between atoms: C9_13  and  C10_14 
REMARK    6  A    between atoms: C10_14  and  C11_15 
REMARK    7  A    between atoms: C12_20  and  N4_21 
REMARK    8  A    between atoms: N4_21  and  C13_23 
REMARK    9  A    between atoms: C13_23  and  C15_25 
REMARK   10  A    between atoms: C18_30  and  N6_31 
REMARK       I    between atoms: N6_31  and  C20_33 
REMARK       I    between atoms: C20_33  and  N7_35 
REMARK   11  A    between atoms: N7_35  and  C21_37 
REMARK   12  A    between atoms: C21_37  and  C22_38 
REMARK   13  A    between atoms: C22_38  and  N8_39 
ROOT
HETATM    1  C11 UNL     1     -14.535  20.452 -15.350  1.00  0.00     0.112 A 
HETATM    2  N2  UNL     1     -15.183  19.811 -16.361  1.00  0.00    -0.274 N 
ATOM      3  H2  UNL     1     -16.149  19.487 -16.321  1.00  0.00     0.189 HD
HETATM    4  N3  UNL     1     -14.379  19.669 -17.404  1.00  0.00    -0.131 N 
ATOM      5  H3  UNL     1     -14.601  19.226 -18.295  1.00  0.00     0.205 HD
HETATM    6  C12 UNL     1     -13.218  20.225 -17.051  1.00  0.00     0.694 A 
HETATM    7  N9  UNL     1     -13.304  20.704 -15.799  1.00  0.00    -0.178 N 
ATOM      8  H9  UNL     1     -12.562  21.176 -15.283  1.00  0.00     0.185 HD
ENDROOT
BRANCH   6   9
HETATM    9  N4  UNL     1     -12.179  20.305 -17.807  1.00  0.00    -0.216 N 
ATOM     10  H4  UNL     1     -11.295  20.002 -17.398  1.00  0.00     0.178 HD
BRANCH   9  11
HETATM   11  C13 UNL     1     -12.127  20.769 -19.155  1.00  0.00     0.128 C 
HETATM   12  C14 UNL     1     -12.519  22.239 -19.267  1.00  0.00     0.038 C 
BRANCH  11  13
HETATM   13  C15 UNL     1     -10.693  20.611 -19.608  1.00  0.00    -0.030 A 
HETATM   14  C16 UNL     1      -9.928  21.698 -19.964  1.00  0.00     0.026 A 
HETATM   15  C17 UNL     1      -8.623  21.479 -20.371  1.00  0.00     0.090 A 
HETATM   16  N5  UNL     1      -8.078  20.249 -20.428  1.00  0.00    -0.352 N 
HETATM   17  C18 UNL     1      -8.812  19.148 -20.080  1.00  0.00     0.111 A 
ATOM     18  H5  UNL     1      -7.112  20.137 -20.734  1.00  0.00     0.166 HD
HETATM   19  C25 UNL     1     -10.101  19.371 -19.680  1.00  0.00     0.058 A 
BRANCH  17  20
HETATM   20  N6  UNL     1      -8.190  17.868 -20.131  1.00  0.00    -0.290 N 
HETATM   21  C19 UNL     1      -8.079  17.293 -21.477  1.00  0.00     0.163 C 
HETATM   22  C20 UNL     1      -7.704  17.182 -18.994  1.00  0.00     0.323 C 
HETATM   23  O3  UNL     1      -7.201  16.047 -19.116  1.00  0.00    -0.247 OA
HETATM   24  N7  UNL     1      -7.793  17.791 -17.723  1.00  0.00    -0.341 N 
ATOM     25  H7  UNL     1      -8.207  18.719 -17.629  1.00  0.00     0.164 HD
BRANCH  24  26
HETATM   26  C21 UNL     1      -7.293  17.092 -16.547  1.00  0.00     0.143 C 
BRANCH  26  27
HETATM   27  C22 UNL     1      -8.401  16.372 -15.828  1.00  0.00     0.135 C 
BRANCH  27  28
HETATM   28  N8  UNL     1      -7.924  15.156 -15.272  1.00  0.00    -0.419 N 
HETATM   29  C23 UNL     1      -7.923  15.055 -13.853  1.00  0.00     0.142 C 
HETATM   30  C24 UNL     1      -6.792  14.629 -15.947  1.00  0.00     0.142 C 
ENDBRANCH  27  28
ENDBRANCH  26  27
ENDBRANCH  24  26
ENDBRANCH  17  20
ENDBRANCH  11  13
ENDBRANCH   9  11
ENDBRANCH   6   9
BRANCH   1  31
HETATM   31  C10 UNL     1     -15.137  20.796 -14.038  1.00  0.00     0.078 C 
BRANCH  31  32
HETATM   32  C9  UNL     1     -16.344  21.715 -14.195  1.00  0.00     0.008 C 
BRANCH  32  33
HETATM   33  C8  UNL     1     -15.952  23.117 -13.905  1.00  0.00     0.006 C 
BRANCH  33  34
HETATM   34  C7  UNL     1     -17.045  24.125 -13.896  1.00  0.00     0.049 C 
BRANCH  34  35
HETATM   35  C6  UNL     1     -17.342  24.720 -15.242  1.00  0.00     0.016 A 
HETATM   36  C4  UNL     1     -17.645  26.050 -15.504  1.00  0.00     0.065 A 
HETATM   37  O2  UNL     1     -17.883  26.362 -16.697  1.00  0.00    -0.291 OA
HETATM   38  C5  UNL     1     -17.677  27.054 -14.355  1.00  0.00     0.078 C 
HETATM   39  C3  UNL     1     -17.850  25.491 -17.643  1.00  0.00     0.194 A 
HETATM   40  S1  UNL     1     -17.441  24.058 -16.811  1.00  0.00    -0.048 SA
BRANCH  39  41
HETATM   41  N1  UNL     1     -18.077  25.674 -18.930  1.00  0.00    -0.302 N 
HETATM   42  C2  UNL     1     -17.018  25.393 -19.811  1.00  0.00     0.220 C 
HETATM   43  C1  UNL     1     -15.620  25.825 -19.562  1.00  0.00     0.117 C 
HETATM   44  O1  UNL     1     -17.271  24.742 -20.867  1.00  0.00    -0.274 OA
ATOM     45  H1  UNL     1     -18.980  26.003 -19.270  1.00  0.00     0.171 HD
ENDBRANCH  39  41
ENDBRANCH  34  35
ENDBRANCH  33  34
ENDBRANCH  32  33
ENDBRANCH  31  32
ENDBRANCH   1  31
TORSDOF 13
ENDMDL
MODEL 4
REMARK VINA RESULT: -9.001457796      3.110      9.868
REMARK  13 active torsions:
REMARK  status: ('A' for Active; 'I' for Inactive)
REMARK       I    between atoms: C2_2  and  N1_4 
REMARK    1  A    between atoms: N1_4  and  C3_6 
REMARK    2  A    between atoms: C6_10  and  C7_11 
REMARK    3  A    between atoms: C7_11  and  C8_12 
REMARK    4  A    between atoms: C8_12  and  C9_13 
REMARK    5  A    between atoms: C9_13  and  C10_14 
REMARK    6  A    between atoms: C10_14  and  C11_15 
REMARK    7  A    between atoms: C12_20  and  N4_21 
REMARK    8  A    between atoms: N4_21  and  C13_23 
REMARK    9  A    between atoms: C13_23  and  C15_25 
REMARK   10  A    between atoms: C18_30  and  N6_31 
REMARK       I    between atoms: N6_31  and  C20_33 
REMARK       I    between atoms: C20_33  and  N7_35 
REMARK   11  A    between atoms: N7_35  and  C21_37 
REMARK   12  A    between atoms: C21_37  and  C22_38 
REMARK   13  A    between atoms: C22_38  and  N8_39 
ROOT
HETATM    1  C11 UNL     1     -12.774  19.235 -18.102  1.00  0.00     0.112 A 
HETATM    2  N2  UNL     1     -14.094  19.126 -18.415  1.00  0.00    -0.274 N 
ATOM      3  H2  UNL     1     -14.592  18.244 -18.542  1.00  0.00     0.189 HD
HETATM    4  N3  UNL     1     -14.640  20.327 -18.533  1.00  0.00    -0.131 N 
ATOM      5  H3  UNL     1     -15.610  20.541 -18.762  1.00  0.00     0.205 HD
HETATM    6  C12 UNL     1     -13.660  21.200 -18.291  1.00  0.00     0.694 A 
HETATM    7  N9  UNL     1     -12.518  20.543 -18.029  1.00  0.00    -0.178 N 
ATOM      8  H9  UNL     1     -11.616  20.967 -17.812  1.00  0.00     0.185 HD
ENDROOT
BRANCH   6   9
HETATM    9  N4  UNL     1     -13.797  22.480 -18.292  1.00  0.00    -0.216 N 
ATOM     10  H4  UNL     1     -13.937  22.922 -17.383  1.00  0.00     0.178 HD
BRANCH   9  11
HETATM   11  C13 UNL     1     -13.776  23.349 -19.422  1.00  0.00     0.128 C 
HETATM   12  C14 UNL     1     -13.669  22.577 -20.734  1.00  0.00     0.038 C 
BRANCH  11  13
HETATM   13  C15 UNL     1     -15.088  24.103 -19.408  1.00  0.00    -0.030 A 
HETATM   14  C16 UNL     1     -15.671  24.553 -20.569  1.00  0.00     0.026 A 
HETATM   15  C17 UNL     1     -16.870  25.238 -20.481  1.00  0.00     0.090 A 
HETATM   16  N5  UNL     1     -17.484  25.477 -19.306  1.00  0.00    -0.352 N 
HETATM   17  C18 UNL     1     -16.931  25.041 -18.133  1.00  0.00     0.111 A 
ATOM     18  H5  UNL     1     -18.368  25.985 -19.291  1.00  0.00     0.166 HD
HETATM   19  C25 UNL     1     -15.745  24.366 -18.228  1.00  0.00     0.058 A 
BRANCH  17  20
HETATM   20  N6  UNL     1     -17.625  25.292 -16.915  1.00  0.00    -0.290 N 
HETATM   21  C19 UNL     1     -18.457  26.502 -16.922  1.00  0.00     0.163 C 
HETATM   22  C20 UNL     1     -17.543  24.460 -15.776  1.00  0.00     0.323 C 
HETATM   23  O3  UNL     1     -18.155  24.766 -14.733  1.00  0.00    -0.247 OA
HETATM   24  N7  UNL     1     -16.764  23.284 -15.827  1.00  0.00    -0.341 N 
ATOM     25  H7  UNL     1     -16.264  23.039 -16.683  1.00  0.00     0.164 HD
BRANCH  24  26
HETATM   26  C21 UNL     1     -16.675  22.420 -14.658  1.00  0.00     0.143 C 
BRANCH  26  27
HETATM   27  C22 UNL     1     -15.267  22.355 -14.133  1.00  0.00     0.135 C 
BRANCH  27  28
HETATM   28  N8  UNL     1     -14.523  21.365 -14.826  1.00  0.00    -0.419 N 
HETATM   29  C23 UNL     1     -15.146  20.098 -15.003  1.00  0.00     0.142 C 
HETATM   30  C24 UNL     1     -13.144  21.352 -14.490  1.00  0.00     0.142 C 
ENDBRANCH  27  28
ENDBRANCH  26  27
ENDBRANCH  24  26
ENDBRANCH  17  20
ENDBRANCH  11  13
ENDBRANCH   9  11
ENDBRANCH   6   9
BRANCH   1  31
HETATM   31  C10 UNL     1     -11.856  18.091 -17.876  1.00  0.00     0.078 C 
BRANCH  31  32
HETATM   32  C9  UNL     1     -11.244  18.127 -16.480  1.00  0.00     0.008 C 
BRANCH  32  33
HETATM   33  C8  UNL     1      -9.791  17.835 -16.558  1.00  0.00     0.006 C 
BRANCH  33  34
HETATM   34  C7  UNL     1      -8.928  18.896 -17.141  1.00  0.00     0.049 C 
BRANCH  34  35
HETATM   35  C6  UNL     1      -8.269  18.508 -18.434  1.00  0.00     0.016 A 
HETATM   36  C4  UNL     1      -8.440  19.134 -19.662  1.00  0.00     0.065 A 
HETATM   37  O2  UNL     1      -7.816  18.657 -20.642  1.00  0.00    -0.291 OA
HETATM   38  C5  UNL     1      -9.360  20.347 -19.767  1.00  0.00     0.078 C 
HETATM   39  C3  UNL     1      -7.049  17.632 -20.522  1.00  0.00     0.194 A 
HETATM   40  S1  UNL     1      -7.187  17.261 -18.861  1.00  0.00    -0.048 SA
BRANCH  39  41
HETATM   41  N1  UNL     1      -6.339  17.028 -21.456  1.00  0.00    -0.302 N 
HETATM   42  C2  UNL     1      -7.001  16.065 -22.238  1.00  0.00     0.220 C 
HETATM   43  C1  UNL     1      -7.908  15.040 -21.664  1.00  0.00     0.117 C 
HETATM   44  O1  UNL     1      -6.812  16.075 -23.489  1.00  0.00    -0.274 OA
ATOM     45  H1  UNL     1      -5.355  17.250 -21.604  1.00  0.00     0.171 HD
ENDBRANCH  39  41
ENDBRANCH  34  35
ENDBRANCH  33  34
ENDBRANCH  32  33
ENDBRANCH  31  32
ENDBRANCH   1  31
TORSDOF 13
ENDMDL
MODEL 5
REMARK VINA RESULT: -8.989439308      2.949      9.805
REMARK  13 active torsions:
REMARK  status: ('A' for Active; 'I' for Inactive)
REMARK       I    between atoms: C2_2  and  N1_4 
REMARK    1  A    between atoms: N1_4  and  C3_6 
REMARK    2  A    between atoms: C6_10  and  C7_11 
REMARK    3  A    between atoms: C7_11  and  C8_12 
REMARK    4  A    between atoms: C8_12  and  C9_13 
REMARK    5  A    between atoms: C9_13  and  C10_14 
REMARK    6  A    between atoms: C10_14  and  C11_15 
REMARK    7  A    between atoms: C12_20  and  N4_21 
REMARK    8  A    between atoms: N4_21  and  C13_23 
REMARK    9  A    between atoms: C13_23  and  C15_25 
REMARK   10  A    between atoms: C18_30  and  N6_31 
REMARK       I    between atoms: N6_31  and  C20_33 
REMARK       I    between atoms: C20_33  and  N7_35 
REMARK   11  A    between atoms: N7_35  and  C21_37 
REMARK   12  A    between atoms: C21_37  and  C22_38 
REMARK   13  A    between atoms: C22_38  and  N8_39 
ROOT
HETATM    1  C11 UNL     1     -12.309  20.128 -17.088  1.00  0.00     0.112 A 
HETATM    2  N2  UNL     1     -13.226  19.155 -17.342  1.00  0.00    -0.274 N 
ATOM      3  H2  UNL     1     -13.222  18.226 -16.920  1.00  0.00     0.189 HD
HETATM    4  N3  UNL     1     -14.122  19.586 -18.216  1.00  0.00    -0.131 N 
ATOM      5  H3  UNL     1     -14.919  19.067 -18.586  1.00  0.00     0.205 HD
HETATM    6  C12 UNL     1     -13.771  20.839 -18.514  1.00  0.00     0.694 A 
HETATM    7  N9  UNL     1     -12.665  21.177 -17.832  1.00  0.00    -0.178 N 
ATOM      8  H9  UNL     1     -12.184  22.075 -17.874  1.00  0.00     0.185 HD
ENDROOT
BRANCH   6   9
HETATM    9  N4  UNL     1     -14.412  21.610 -19.322  1.00  0.00    -0.216 N 
ATOM     10  H4  UNL     1     -15.251  21.221 -19.752  1.00  0.00     0.178 HD
BRANCH   9  11
HETATM   11  C13 UNL     1     -14.078  22.949 -19.682  1.00  0.00     0.128 C 
HETATM   12  C14 UNL     1     -13.727  23.072 -21.162  1.00  0.00     0.038 C 
BRANCH  11  13
HETATM   13  C15 UNL     1     -15.306  23.787 -19.401  1.00  0.00    -0.030 A 
HETATM   14  C16 UNL     1     -15.971  24.447 -20.408  1.00  0.00     0.026 A 
HETATM   15  C17 UNL     1     -17.086  25.198 -20.079  1.00  0.00     0.090 A 
HETATM   16  N5  UNL     1     -17.542  25.303 -18.816  1.00  0.00    -0.352 N 
HETATM   17  C18 UNL     1     -16.904  24.658 -17.792  1.00  0.00     0.111 A 
ATOM     18  H5  UNL     1     -18.369  25.867 -18.622  1.00  0.00     0.166 HD
HETATM   19  C25 UNL     1     -15.801  23.919 -18.125  1.00  0.00     0.058 A 
BRANCH  17  20
HETATM   20  N6  UNL     1     -17.433  24.775 -16.475  1.00  0.00    -0.290 N 
HETATM   21  C19 UNL     1     -18.137  26.036 -16.207  1.00  0.00     0.163 C 
HETATM   22  C20 UNL     1     -17.310  23.774 -15.485  1.00  0.00     0.323 C 
HETATM   23  O3  UNL     1     -17.772  23.966 -14.342  1.00  0.00    -0.247 OA
HETATM   24  N7  UNL     1     -16.662  22.560 -15.799  1.00  0.00    -0.341 N 
ATOM     25  H7  UNL     1     -16.284  22.409 -16.735  1.00  0.00     0.164 HD
BRANCH  24  26
HETATM   26  C21 UNL     1     -16.532  21.523 -14.785  1.00  0.00     0.143 C 
BRANCH  26  27
HETATM   27  C22 UNL     1     -15.149  20.933 -14.780  1.00  0.00     0.135 C 
BRANCH  27  28
HETATM   28  N8  UNL     1     -14.502  21.191 -13.543  1.00  0.00    -0.419 N 
HETATM   29  C23 UNL     1     -14.327  22.557 -13.182  1.00  0.00     0.142 C 
HETATM   30  C24 UNL     1     -13.413  20.320 -13.279  1.00  0.00     0.142 C 
ENDBRANCH  27  28
ENDBRANCH  26  27
ENDBRANCH  24  26
ENDBRANCH  17  20
ENDBRANCH  11  13
ENDBRANCH   9  11
ENDBRANCH   6   9
BRANCH   1  31
HETATM   31  C10 UNL     1     -11.171  19.999 -16.144  1.00  0.00     0.078 C 
BRANCH  31  32
HETATM   32  C9  UNL     1     -10.834  18.539 -15.864  1.00  0.00     0.008 C 
BRANCH  32  33
HETATM   33  C8  UNL     1      -9.849  18.451 -14.756  1.00  0.00     0.006 C 
BRANCH  33  34
HETATM   34  C7  UNL     1      -8.438  18.186 -15.139  1.00  0.00     0.049 C 
BRANCH  34  35
HETATM   35  C6  UNL     1      -8.285  17.365 -16.387  1.00  0.00     0.016 A 
HETATM   36  C4  UNL     1      -8.126  15.986 -16.449  1.00  0.00     0.065 A 
HETATM   37  O2  UNL     1      -7.996  15.472 -17.587  1.00  0.00    -0.291 OA
HETATM   38  C5  UNL     1      -8.115  15.172 -15.158  1.00  0.00     0.078 C 
HETATM   39  C3  UNL     1      -8.008  16.186 -18.657  1.00  0.00     0.194 A 
HETATM   40  S1  UNL     1      -8.225  17.765 -18.044  1.00  0.00    -0.048 SA
BRANCH  39  41
HETATM   41  N1  UNL     1      -7.883  15.787 -19.908  1.00  0.00    -0.302 N 
HETATM   42  C2  UNL     1      -6.621  15.950 -20.507  1.00  0.00     0.220 C 
HETATM   43  C1  UNL     1      -5.815  17.189 -20.374  1.00  0.00     0.117 C 
HETATM   44  O1  UNL     1      -6.153  14.993 -21.191  1.00  0.00    -0.274 OA
ATOM     45  H1  UNL     1      -8.665  15.377 -20.418  1.00  0.00     0.171 HD
ENDBRANCH  39  41
ENDBRANCH  34  35
ENDBRANCH  33  34
ENDBRANCH  32  33
ENDBRANCH  31  32
ENDBRANCH   1  31
TORSDOF 13
ENDMDL
