MODEL 1
REMARK VINA RESULT: -9.538331674      0.000      0.000
REMARK  18 active torsions:
REMARK  status: ('A' for Active; 'I' for Inactive)
REMARK    1  A    between atoms: C2_2  and  C4_4 
REMARK    2  A    between atoms: C4_4  and  C5_5 
REMARK    3  A    between atoms: C5_5  and  N1_6 
REMARK    4  A    between atoms: C5_5  and  C26_36 
REMARK       I    between atoms: N1_6  and  C6_8 
REMARK    5  A    between atoms: C6_8  and  C7_10 
REMARK    6  A    between atoms: C7_10  and  C8_11 
REMARK    7  A    between atoms: C8_11  and  C9_12 
REMARK    8  A    between atoms: C9_12  and  C10_13 
REMARK    9  A    between atoms: C10_13  and  C11_14 
REMARK   10  A    between atoms: C11_14  and  C12_15 
REMARK   11  A    between atoms: C12_15  and  C13_16 
REMARK       I    between atoms: C13_16  and  N2_18 
REMARK   12  A    between atoms: N2_18  and  C14_20 
REMARK   13  A    between atoms: C14_20  and  C15_21 
REMARK   14  A    between atoms: C15_21  and  C16_22 
REMARK       I    between atoms: N3_25  and  C19_26 
REMARK       I    between atoms: C19_26  and  N4_28 
REMARK   15  A    between atoms: N4_28  and  C20_30 
REMARK   16  A    between atoms: C26_36  and  O4_37 
REMARK   17  A    between atoms: C26_36  and  N5_39 
REMARK   18  A    between atoms: C29_42  and  O5_43 
ROOT
HETATM    1  C10 UNL     1       4.936  23.739   5.736  1.00  0.00     0.000 C 
ENDROOT
BRANCH   1   2
HETATM    2  C9  UNL     1       6.437  23.943   6.010  1.00  0.00     0.000 C 
BRANCH   2   3
HETATM    3  C8  UNL     1       7.257  23.641   4.810  1.00  0.00     0.009 C 
BRANCH   3   4
HETATM    4  C7  UNL     1       8.107  24.730   4.276  1.00  0.00     0.103 C 
BRANCH   4   5
HETATM    5  C6  UNL     1       7.748  25.176   2.893  1.00  0.00     0.218 C 
HETATM    6  N1  UNL     1       8.711  25.169   1.857  1.00  0.00    -0.352 N 
ATOM      7  H1  UNL     1       9.650  24.843   2.084  1.00  0.00     0.163 HD
HETATM    8  O1  UNL     1       6.555  25.541   2.761  1.00  0.00    -0.274 OA
BRANCH   6   9
HETATM    9  C5  UNL     1       8.451  25.600   0.475  1.00  0.00     0.144 C 
BRANCH   9  10
HETATM   10  C4  UNL     1       8.853  27.016   0.332  1.00  0.00     0.033 C 
BRANCH  10  11
HETATM   11  C2  UNL     1      10.121  27.435   0.995  1.00  0.00    -0.021 C 
HETATM   12  C1  UNL     1      11.186  27.920   0.058  1.00  0.00     0.009 C 
HETATM   13  C3  UNL     1       9.980  28.384   2.140  1.00  0.00     0.009 C 
ENDBRANCH  10  11
ENDBRANCH   9  10
BRANCH   9  14
HETATM   14  C26 UNL     1       9.153  24.593  -0.391  1.00  0.00     0.379 C 
BRANCH  14  15
HETATM   15  O4  UNL     1       8.239  23.451  -0.341  1.00  0.00    -0.366 OA
ATOM     16  H4  UNL     1       7.801  23.508  -1.182  1.00  0.00     0.212 HD
ENDBRANCH  14  15
BRANCH  14  17
HETATM   17  N5  UNL     1       9.165  24.850  -1.806  1.00  0.00     0.121 N 
HETATM   18  C27 UNL     1      10.253  25.454  -2.417  1.00  0.00     0.278 C 
HETATM   19  C28 UNL     1      10.179  25.076  -3.886  1.00  0.00     0.064 C 
HETATM   20  C29 UNL     1       9.187  23.950  -3.906  1.00  0.00     0.148 C 
HETATM   21  C30 UNL     1       9.024  23.542  -2.468  1.00  0.00     0.307 C 
BRANCH  20  22
HETATM   22  O5  UNL     1       9.677  22.937  -4.712  1.00  0.00    -0.394 OA
ATOM     23  H5  UNL     1       9.022  22.723  -5.367  1.00  0.00     0.210 HD
ENDBRANCH  20  22
ENDBRANCH  14  17
ENDBRANCH   9  14
ENDBRANCH   6   9
ENDBRANCH   4   5
ENDBRANCH   3   4
ENDBRANCH   2   3
ENDBRANCH   1   2
BRANCH   1  24
HETATM   24  C11 UNL     1       4.381  22.844   6.798  1.00  0.00     0.009 C 
BRANCH  24  25
HETATM   25  C12 UNL     1       2.975  22.430   6.531  1.00  0.00     0.103 C 
BRANCH  25  26
HETATM   26  C13 UNL     1       1.964  23.459   6.778  1.00  0.00     0.217 C 
HETATM   27  O2  UNL     1       1.906  24.100   7.849  1.00  0.00    -0.274 OA
HETATM   28  N2  UNL     1       1.009  23.731   5.740  1.00  0.00    -0.361 N 
ATOM     29  H2  UNL     1       1.030  23.227   4.853  1.00  0.00     0.162 HD
BRANCH  28  30
HETATM   30  C14 UNL     1       0.012  24.754   6.006  1.00  0.00     0.123 C 
BRANCH  30  31
HETATM   31  C15 UNL     1      -1.274  24.086   6.377  1.00  0.00     0.024 C 
BRANCH  31  32
HETATM   32  C16 UNL     1      -1.583  24.205   7.831  1.00  0.00    -0.010 C 
HETATM   33  C17 UNL     1      -2.853  24.958   8.108  1.00  0.00     0.024 C 
HETATM   34  C18 UNL     1      -4.035  24.139   7.643  1.00  0.00     0.128 C 
HETATM   35  N3  UNL     1      -4.018  22.874   8.301  1.00  0.00    -0.334 N 
HETATM   36  C19 UNL     1      -5.129  22.368   8.999  1.00  0.00     0.318 C 
HETATM   37  C24 UNL     1      -2.811  22.069   8.240  1.00  0.00     0.128 C 
HETATM   38  O3  UNL     1      -5.062  21.231   9.579  1.00  0.00    -0.247 OA
HETATM   39  N4  UNL     1      -6.360  23.049   9.111  1.00  0.00    -0.335 N 
ATOM     40  H4  UNL     1      -6.462  23.961   8.666  1.00  0.00     0.165 HD
HETATM   41  C25 UNL     1      -1.595  22.882   8.561  1.00  0.00     0.024 C 
BRANCH  39  42
HETATM   42  C20 UNL     1      -7.488  22.492   9.841  1.00  0.00     0.023 C 
HETATM   43  C21 UNL     1      -7.878  21.186   9.187  1.00  0.00     0.037 C 
HETATM   44  C22 UNL     1      -7.148  22.228  11.282  1.00  0.00     0.037 C 
HETATM   45  C23 UNL     1      -8.685  23.414   9.700  1.00  0.00     0.037 C 
ENDBRANCH  39  42
ENDBRANCH  31  32
ENDBRANCH  30  31
ENDBRANCH  28  30
ENDBRANCH  25  26
ENDBRANCH  24  25
ENDBRANCH   1  24
TORSDOF 18
ENDMDL
MODEL 2
REMARK VINA RESULT: -9.518664642      0.825      1.121
REMARK  18 active torsions:
REMARK  status: ('A' for Active; 'I' for Inactive)
REMARK    1  A    between atoms: C2_2  and  C4_4 
REMARK    2  A    between atoms: C4_4  and  C5_5 
REMARK    3  A    between atoms: C5_5  and  N1_6 
REMARK    4  A    between atoms: C5_5  and  C26_36 
REMARK       I    between atoms: N1_6  and  C6_8 
REMARK    5  A    between atoms: C6_8  and  C7_10 
REMARK    6  A    between atoms: C7_10  and  C8_11 
REMARK    7  A    between atoms: C8_11  and  C9_12 
REMARK    8  A    between atoms: C9_12  and  C10_13 
REMARK    9  A    between atoms: C10_13  and  C11_14 
REMARK   10  A    between atoms: C11_14  and  C12_15 
REMARK   11  A    between atoms: C12_15  and  C13_16 
REMARK       I    between atoms: C13_16  and  N2_18 
REMARK   12  A    between atoms: N2_18  and  C14_20 
REMARK   13  A    between atoms: C14_20  and  C15_21 
REMARK   14  A    between atoms: C15_21  and  C16_22 
REMARK       I    between atoms: N3_25  and  C19_26 
REMARK       I    between atoms: C19_26  and  N4_28 
REMARK   15  A    between atoms: N4_28  and  C20_30 
REMARK   16  A    between atoms: C26_36  and  O4_37 
REMARK   17  A    between atoms: C26_36  and  N5_39 
REMARK   18  A    between atoms: C29_42  and  O5_43 
ROOT
HETATM    1  C10 UNL     1       5.755  23.360   6.172  1.00  0.00     0.000 C 
ENDROOT
BRANCH   1   2
HETATM    2  C9  UNL     1       5.616  24.337   4.991  1.00  0.00     0.000 C 
BRANCH   2   3
HETATM    3  C8  UNL     1       6.868  25.105   4.768  1.00  0.00     0.009 C 
BRANCH   3   4
HETATM    4  C7  UNL     1       7.789  24.611   3.720  1.00  0.00     0.103 C 
BRANCH   4   5
HETATM    5  C6  UNL     1       7.589  25.234   2.373  1.00  0.00     0.218 C 
HETATM    6  N1  UNL     1       8.587  25.138   1.375  1.00  0.00    -0.352 N 
ATOM      7  H1  UNL     1       9.439  24.626   1.602  1.00  0.00     0.163 HD
HETATM    8  O1  UNL     1       6.490  25.823   2.235  1.00  0.00    -0.274 OA
BRANCH   6   9
HETATM    9  C5  UNL     1       8.481  25.727   0.032  1.00  0.00     0.144 C 
BRANCH   9  10
HETATM   10  C4  UNL     1       8.974  27.120   0.081  1.00  0.00     0.033 C 
BRANCH  10  11
HETATM   11  C2  UNL     1      10.277  27.359   0.766  1.00  0.00    -0.021 C 
HETATM   12  C1  UNL     1      11.345  27.946  -0.106  1.00  0.00     0.009 C 
HETATM   13  C3  UNL     1      10.210  28.102   2.061  1.00  0.00     0.009 C 
ENDBRANCH  10  11
ENDBRANCH   9  10
BRANCH   9  14
HETATM   14  C26 UNL     1       9.200  24.771  -0.877  1.00  0.00     0.379 C 
BRANCH  14  15
HETATM   15  O4  UNL     1       9.029  23.496  -0.180  1.00  0.00    -0.366 OA
ATOM     16  H4  UNL     1       8.094  23.483  -0.012  1.00  0.00     0.212 HD
ENDBRANCH  14  15
BRANCH  14  17
HETATM   17  N5  UNL     1       8.566  24.466  -2.131  1.00  0.00     0.121 N 
HETATM   18  C27 UNL     1       8.506  25.403  -3.152  1.00  0.00     0.278 C 
HETATM   19  C28 UNL     1       8.300  24.620  -4.436  1.00  0.00     0.064 C 
HETATM   20  C29 UNL     1       8.621  23.208  -4.037  1.00  0.00     0.148 C 
HETATM   21  C30 UNL     1       9.296  23.320  -2.699  1.00  0.00     0.307 C 
BRANCH  20  22
HETATM   22  O5  UNL     1       9.425  22.640  -5.012  1.00  0.00    -0.394 OA
ATOM     23  H5  UNL     1       9.614  21.742  -4.768  1.00  0.00     0.210 HD
ENDBRANCH  20  22
ENDBRANCH  14  17
ENDBRANCH   9  14
ENDBRANCH   6   9
ENDBRANCH   4   5
ENDBRANCH   3   4
ENDBRANCH   2   3
ENDBRANCH   1   2
BRANCH   1  24
HETATM   24  C11 UNL     1       4.384  22.993   6.643  1.00  0.00     0.009 C 
BRANCH  24  25
HETATM   25  C12 UNL     1       3.310  23.450   5.715  1.00  0.00     0.103 C 
BRANCH  25  26
HETATM   26  C13 UNL     1       2.108  23.975   6.364  1.00  0.00     0.217 C 
HETATM   27  O2  UNL     1       1.983  24.027   7.605  1.00  0.00    -0.274 OA
HETATM   28  N2  UNL     1       1.039  24.446   5.525  1.00  0.00    -0.361 N 
ATOM     29  H2  UNL     1       1.110  24.419   4.508  1.00  0.00     0.162 HD
BRANCH  28  30
HETATM   30  C14 UNL     1      -0.147  24.961   6.189  1.00  0.00     0.123 C 
BRANCH  30  31
HETATM   31  C15 UNL     1      -1.101  23.831   6.411  1.00  0.00     0.024 C 
BRANCH  31  32
HETATM   32  C16 UNL     1      -1.519  23.705   7.838  1.00  0.00    -0.010 C 
HETATM   33  C17 UNL     1      -2.634  24.639   8.213  1.00  0.00     0.024 C 
HETATM   34  C18 UNL     1      -3.905  24.210   7.517  1.00  0.00     0.128 C 
HETATM   35  N3  UNL     1      -4.203  22.861   7.873  1.00  0.00    -0.334 N 
HETATM   36  C19 UNL     1      -5.455  22.472   8.383  1.00  0.00     0.318 C 
HETATM   37  C24 UNL     1      -3.181  21.847   7.693  1.00  0.00     0.128 C 
HETATM   38  O3  UNL     1      -5.672  21.251   8.694  1.00  0.00    -0.247 OA
HETATM   39  N4  UNL     1      -6.531  23.362   8.584  1.00  0.00    -0.335 N 
ATOM     40  H4  UNL     1      -6.406  24.348   8.351  1.00  0.00     0.165 HD
HETATM   41  C25 UNL     1      -1.864  22.293   8.249  1.00  0.00     0.024 C 
BRANCH  39  42
HETATM   42  C20 UNL     1      -7.811  22.922   9.112  1.00  0.00     0.023 C 
HETATM   43  C21 UNL     1      -8.602  24.145   9.520  1.00  0.00     0.037 C 
HETATM   44  C22 UNL     1      -8.603  22.151   8.092  1.00  0.00     0.037 C 
HETATM   45  C23 UNL     1      -7.586  22.120  10.380  1.00  0.00     0.037 C 
ENDBRANCH  39  42
ENDBRANCH  31  32
ENDBRANCH  30  31
ENDBRANCH  28  30
ENDBRANCH  25  26
ENDBRANCH  24  25
ENDBRANCH   1  24
TORSDOF 18
ENDMDL
MODEL 3
REMARK VINA RESULT: -9.415507710      1.335      1.631
REMARK  18 active torsions:
REMARK  status: ('A' for Active; 'I' for Inactive)
REMARK    1  A    between atoms: C2_2  and  C4_4 
REMARK    2  A    between atoms: C4_4  and  C5_5 
REMARK    3  A    between atoms: C5_5  and  N1_6 
REMARK    4  A    between atoms: C5_5  and  C26_36 
REMARK       I    between atoms: N1_6  and  C6_8 
REMARK    5  A    between atoms: C6_8  and  C7_10 
REMARK    6  A    between atoms: C7_10  and  C8_11 
REMARK    7  A    between atoms: C8_11  and  C9_12 
REMARK    8  A    between atoms: C9_12  and  C10_13 
REMARK    9  A    between atoms: C10_13  and  C11_14 
REMARK   10  A    between atoms: C11_14  and  C12_15 
REMARK   11  A    between atoms: C12_15  and  C13_16 
REMARK       I    between atoms: C13_16  and  N2_18 
REMARK   12  A    between atoms: N2_18  and  C14_20 
REMARK   13  A    between atoms: C14_20  and  C15_21 
REMARK   14  A    between atoms: C15_21  and  C16_22 
REMARK       I    between atoms: N3_25  and  C19_26 
REMARK       I    between atoms: C19_26  and  N4_28 
REMARK   15  A    between atoms: N4_28  and  C20_30 
REMARK   16  A    between atoms: C26_36  and  O4_37 
REMARK   17  A    between atoms: C26_36  and  N5_39 
REMARK   18  A    between atoms: C29_42  and  O5_43 
ROOT
HETATM    1  C10 UNL     1       6.398  22.898   5.262  1.00  0.00     0.000 C 
ENDROOT
BRANCH   1   2
HETATM    2  C9  UNL     1       7.222  24.005   4.583  1.00  0.00     0.000 C 
BRANCH   2   3
HETATM    3  C8  UNL     1       6.682  25.354   4.888  1.00  0.00     0.009 C 
BRANCH   3   4
HETATM    4  C7  UNL     1       7.613  26.500   4.776  1.00  0.00     0.103 C 
BRANCH   4   5
HETATM    5  C6  UNL     1       8.498  26.464   3.570  1.00  0.00     0.218 C 
HETATM    6  N1  UNL     1       8.017  26.876   2.305  1.00  0.00    -0.352 N 
ATOM      7  H1  UNL     1       7.053  27.204   2.247  1.00  0.00     0.163 HD
HETATM    8  O1  UNL     1       9.659  26.047   3.794  1.00  0.00    -0.274 OA
BRANCH   6   9
HETATM    9  C5  UNL     1       8.810  26.864   1.067  1.00  0.00     0.144 C 
BRANCH   9  10
HETATM   10  C4  UNL     1      10.152  27.416   1.354  1.00  0.00     0.033 C 
BRANCH  10  11
HETATM   11  C2  UNL     1      10.373  28.860   1.054  1.00  0.00    -0.021 C 
HETATM   12  C1  UNL     1       9.592  29.384  -0.112  1.00  0.00     0.009 C 
HETATM   13  C3  UNL     1      10.251  29.797   2.212  1.00  0.00     0.009 C 
ENDBRANCH  10  11
ENDBRANCH   9  10
BRANCH   9  14
HETATM   14  C26 UNL     1       8.739  25.450   0.565  1.00  0.00     0.379 C 
BRANCH  14  15
HETATM   15  O4  UNL     1       7.322  25.130   0.744  1.00  0.00    -0.366 OA
ATOM     16  H4  UNL     1       6.961  25.336  -0.110  1.00  0.00     0.212 HD
ENDBRANCH  14  15
BRANCH  14  17
HETATM   17  N5  UNL     1       8.868  25.258  -0.854  1.00  0.00     0.121 N 
HETATM   18  C27 UNL     1       9.959  25.756  -1.550  1.00  0.00     0.278 C 
HETATM   19  C28 UNL     1      10.060  24.938  -2.825  1.00  0.00     0.064 C 
HETATM   20  C29 UNL     1       9.168  23.761  -2.555  1.00  0.00     0.148 C 
HETATM   21  C30 UNL     1       8.898  23.802  -1.077  1.00  0.00     0.307 C 
BRANCH  20  22
HETATM   22  O5  UNL     1       9.813  22.607  -2.964  1.00  0.00    -0.394 OA
ATOM     23  H5  UNL     1       9.397  22.287  -3.756  1.00  0.00     0.210 HD
ENDBRANCH  20  22
ENDBRANCH  14  17
ENDBRANCH   9  14
ENDBRANCH   6   9
ENDBRANCH   4   5
ENDBRANCH   3   4
ENDBRANCH   2   3
ENDBRANCH   1   2
BRANCH   1  24
HETATM   24  C11 UNL     1       5.594  23.515   6.361  1.00  0.00     0.009 C 
BRANCH  24  25
HETATM   25  C12 UNL     1       4.240  22.907   6.502  1.00  0.00     0.103 C 
BRANCH  25  26
HETATM   26  C13 UNL     1       3.145  23.681   5.914  1.00  0.00     0.217 C 
HETATM   27  O2  UNL     1       3.245  24.253   4.808  1.00  0.00    -0.274 OA
HETATM   28  N2  UNL     1       1.915  23.777   6.651  1.00  0.00    -0.361 N 
ATOM     29  H2  UNL     1       1.801  23.320   7.556  1.00  0.00     0.162 HD
BRANCH  28  30
HETATM   30  C14 UNL     1       0.842  24.552   6.052  1.00  0.00     0.123 C 
BRANCH  30  31
HETATM   31  C15 UNL     1      -0.458  23.861   6.322  1.00  0.00     0.024 C 
BRANCH  31  32
HETATM   32  C16 UNL     1      -1.019  24.199   7.662  1.00  0.00    -0.010 C 
HETATM   33  C17 UNL     1      -2.338  24.912   7.590  1.00  0.00     0.024 C 
HETATM   34  C18 UNL     1      -3.397  23.962   7.081  1.00  0.00     0.128 C 
HETATM   35  N3  UNL     1      -3.459  22.825   7.940  1.00  0.00    -0.334 N 
HETATM   36  C19 UNL     1      -4.660  22.378   8.519  1.00  0.00     0.318 C 
HETATM   37  C24 UNL     1      -2.238  22.092   8.221  1.00  0.00     0.128 C 
HETATM   38  O3  UNL     1      -4.664  21.357   9.288  1.00  0.00    -0.247 OA
HETATM   39  N4  UNL     1      -5.911  22.996   8.306  1.00  0.00    -0.335 N 
ATOM     40  H4  UNL     1      -5.959  23.816   7.700  1.00  0.00     0.165 HD
HETATM   41  C25 UNL     1      -1.120  23.015   8.595  1.00  0.00     0.024 C 
BRANCH  39  42
HETATM   42  C20 UNL     1      -7.132  22.504   8.922  1.00  0.00     0.023 C 
HETATM   43  C21 UNL     1      -8.229  23.515   8.674  1.00  0.00     0.037 C 
HETATM   44  C22 UNL     1      -7.556  21.181   8.346  1.00  0.00     0.037 C 
HETATM   45  C23 UNL     1      -6.948  22.436  10.426  1.00  0.00     0.037 C 
ENDBRANCH  39  42
ENDBRANCH  31  32
ENDBRANCH  30  31
ENDBRANCH  28  30
ENDBRANCH  25  26
ENDBRANCH  24  25
ENDBRANCH   1  24
TORSDOF 18
ENDMDL
MODEL 4
REMARK VINA RESULT: -9.332631342      0.917      1.463
REMARK  18 active torsions:
REMARK  status: ('A' for Active; 'I' for Inactive)
REMARK    1  A    between atoms: C2_2  and  C4_4 
REMARK    2  A    between atoms: C4_4  and  C5_5 
REMARK    3  A    between atoms: C5_5  and  N1_6 
REMARK    4  A    between atoms: C5_5  and  C26_36 
REMARK       I    between atoms: N1_6  and  C6_8 
REMARK    5  A    between atoms: C6_8  and  C7_10 
REMARK    6  A    between atoms: C7_10  and  C8_11 
REMARK    7  A    between atoms: C8_11  and  C9_12 
REMARK    8  A    between atoms: C9_12  and  C10_13 
REMARK    9  A    between atoms: C10_13  and  C11_14 
REMARK   10  A    between atoms: C11_14  and  C12_15 
REMARK   11  A    between atoms: C12_15  and  C13_16 
REMARK       I    between atoms: C13_16  and  N2_18 
REMARK   12  A    between atoms: N2_18  and  C14_20 
REMARK   13  A    between atoms: C14_20  and  C15_21 
REMARK   14  A    between atoms: C15_21  and  C16_22 
REMARK       I    between atoms: N3_25  and  C19_26 
REMARK       I    between atoms: C19_26  and  N4_28 
REMARK   15  A    between atoms: N4_28  and  C20_30 
REMARK   16  A    between atoms: C26_36  and  O4_37 
REMARK   17  A    between atoms: C26_36  and  N5_39 
REMARK   18  A    between atoms: C29_42  and  O5_43 
ROOT
HETATM    1  C10 UNL     1       5.030  23.837   5.660  1.00  0.00     0.000 C 
ENDROOT
BRANCH   1   2
HETATM    2  C9  UNL     1       6.534  23.851   5.984  1.00  0.00     0.000 C 
BRANCH   2   3
HETATM    3  C8  UNL     1       7.358  23.668   4.762  1.00  0.00     0.009 C 
BRANCH   3   4
HETATM    4  C7  UNL     1       8.027  24.867   4.208  1.00  0.00     0.103 C 
BRANCH   4   5
HETATM    5  C6  UNL     1       7.637  25.201   2.803  1.00  0.00     0.218 C 
HETATM    6  N1  UNL     1       8.611  25.280   1.779  1.00  0.00    -0.352 N 
ATOM      7  H1  UNL     1       9.581  25.093   2.032  1.00  0.00     0.163 HD
HETATM    8  O1  UNL     1       6.409  25.397   2.640  1.00  0.00    -0.274 OA
BRANCH   6   9
HETATM    9  C5  UNL     1       8.321  25.612   0.377  1.00  0.00     0.144 C 
BRANCH   9  10
HETATM   10  C4  UNL     1       8.617  27.044   0.154  1.00  0.00     0.033 C 
BRANCH  10  11
HETATM   11  C2  UNL     1       9.687  27.657   0.992  1.00  0.00    -0.021 C 
HETATM   12  C1  UNL     1      11.029  27.745   0.330  1.00  0.00     0.009 C 
HETATM   13  C3  UNL     1       9.349  28.964   1.633  1.00  0.00     0.009 C 
ENDBRANCH  10  11
ENDBRANCH   9  10
BRANCH   9  14
HETATM   14  C26 UNL     1       9.096  24.613  -0.434  1.00  0.00     0.379 C 
BRANCH  14  15
HETATM   15  O4  UNL     1       8.179  23.473  -0.478  1.00  0.00    -0.366 OA
ATOM     16  H4  UNL     1       7.781  23.569  -1.336  1.00  0.00     0.212 HD
ENDBRANCH  14  15
BRANCH  14  17
HETATM   17  N5  UNL     1       9.234  24.885  -1.839  1.00  0.00     0.121 N 
HETATM   18  C27 UNL     1      10.400  25.431  -2.355  1.00  0.00     0.278 C 
HETATM   19  C28 UNL     1      10.421  25.075  -3.830  1.00  0.00     0.064 C 
HETATM   20  C29 UNL     1       9.370  24.009  -3.946  1.00  0.00     0.148 C 
HETATM   21  C30 UNL     1       9.071  23.595  -2.532  1.00  0.00     0.307 C 
BRANCH  20  22
HETATM   22  O5  UNL     1       9.862  22.978  -4.727  1.00  0.00    -0.394 OA
ATOM     23  H5  UNL     1       9.621  23.137  -5.632  1.00  0.00     0.210 HD
ENDBRANCH  20  22
ENDBRANCH  14  17
ENDBRANCH   9  14
ENDBRANCH   6   9
ENDBRANCH   4   5
ENDBRANCH   3   4
ENDBRANCH   2   3
ENDBRANCH   1   2
BRANCH   1  24
HETATM   24  C11 UNL     1       4.362  22.853   6.566  1.00  0.00     0.009 C 
BRANCH  24  25
HETATM   25  C12 UNL     1       2.900  22.720   6.302  1.00  0.00     0.103 C 
BRANCH  25  26
HETATM   26  C13 UNL     1       2.031  23.452   7.224  1.00  0.00     0.217 C 
HETATM   27  O2  UNL     1       2.299  23.586   8.437  1.00  0.00    -0.274 OA
HETATM   28  N2  UNL     1       0.827  24.034   6.698  1.00  0.00    -0.361 N 
ATOM     29  H2  UNL     1       0.580  23.945   5.713  1.00  0.00     0.162 HD
BRANCH  28  30
HETATM   30  C14 UNL     1      -0.023  24.755   7.630  1.00  0.00     0.123 C 
BRANCH  30  31
HETATM   31  C15 UNL     1      -1.088  23.827   8.124  1.00  0.00     0.024 C 
BRANCH  31  32
HETATM   32  C16 UNL     1      -2.120  23.535   7.088  1.00  0.00    -0.010 C 
HETATM   33  C17 UNL     1      -2.776  22.196   7.264  1.00  0.00     0.024 C 
HETATM   34  C18 UNL     1      -3.635  22.215   8.508  1.00  0.00     0.128 C 
HETATM   35  N3  UNL     1      -4.596  23.264   8.398  1.00  0.00    -0.334 N 
HETATM   36  C19 UNL     1      -5.974  23.048   8.578  1.00  0.00     0.318 C 
HETATM   37  C24 UNL     1      -4.136  24.608   8.099  1.00  0.00     0.128 C 
HETATM   38  O3  UNL     1      -6.798  24.019   8.462  1.00  0.00    -0.247 OA
HETATM   39  N4  UNL     1      -6.537  21.793   8.889  1.00  0.00    -0.335 N 
ATOM     40  H4  UNL     1      -5.920  20.986   8.991  1.00  0.00     0.165 HD
HETATM   41  C25 UNL     1      -3.170  24.613   6.956  1.00  0.00     0.024 C 
BRANCH  39  42
HETATM   42  C20 UNL     1      -7.968  21.610   9.069  1.00  0.00     0.023 C 
HETATM   43  C21 UNL     1      -8.399  22.405  10.281  1.00  0.00     0.037 C 
HETATM   44  C22 UNL     1      -8.749  22.087   7.876  1.00  0.00     0.037 C 
HETATM   45  C23 UNL     1      -8.255  20.155   9.391  1.00  0.00     0.037 C 
ENDBRANCH  39  42
ENDBRANCH  31  32
ENDBRANCH  30  31
ENDBRANCH  28  30
ENDBRANCH  25  26
ENDBRANCH  24  25
ENDBRANCH   1  24
TORSDOF 18
ENDMDL
MODEL 5
REMARK VINA RESULT: -9.216759261      1.588      2.010
REMARK  18 active torsions:
REMARK  status: ('A' for Active; 'I' for Inactive)
REMARK    1  A    between atoms: C2_2  and  C4_4 
REMARK    2  A    between atoms: C4_4  and  C5_5 
REMARK    3  A    between atoms: C5_5  and  N1_6 
REMARK    4  A    between atoms: C5_5  and  C26_36 
REMARK       I    between atoms: N1_6  and  C6_8 
REMARK    5  A    between atoms: C6_8  and  C7_10 
REMARK    6  A    between atoms: C7_10  and  C8_11 
REMARK    7  A    between atoms: C8_11  and  C9_12 
REMARK    8  A    between atoms: C9_12  and  C10_13 
REMARK    9  A    between atoms: C10_13  and  C11_14 
REMARK   10  A    between atoms: C11_14  and  C12_15 
REMARK   11  A    between atoms: C12_15  and  C13_16 
REMARK       I    between atoms: C13_16  and  N2_18 
REMARK   12  A    between atoms: N2_18  and  C14_20 
REMARK   13  A    between atoms: C14_20  and  C15_21 
REMARK   14  A    between atoms: C15_21  and  C16_22 
REMARK       I    between atoms: N3_25  and  C19_26 
REMARK       I    between atoms: C19_26  and  N4_28 
REMARK   15  A    between atoms: N4_28  and  C20_30 
REMARK   16  A    between atoms: C26_36  and  O4_37 
REMARK   17  A    between atoms: C26_36  and  N5_39 
REMARK   18  A    between atoms: C29_42  and  O5_43 
ROOT
HETATM    1  C10 UNL     1       4.501  23.579   5.990  1.00  0.00     0.000 C 
ENDROOT
BRANCH   1   2
HETATM    2  C9  UNL     1       5.979  23.566   6.420  1.00  0.00     0.000 C 
BRANCH   2   3
HETATM    3  C8  UNL     1       6.791  24.510   5.612  1.00  0.00     0.009 C 
BRANCH   3   4
HETATM    4  C7  UNL     1       7.302  24.024   4.310  1.00  0.00     0.103 C 
BRANCH   4   5
HETATM    5  C6  UNL     1       7.454  25.087   3.267  1.00  0.00     0.218 C 
HETATM    6  N1  UNL     1       8.325  24.905   2.168  1.00  0.00    -0.352 N 
ATOM      7  H1  UNL     1       8.837  24.024   2.108  1.00  0.00     0.163 HD
HETATM    8  O1  UNL     1       6.757  26.110   3.467  1.00  0.00    -0.274 OA
BRANCH   6   9
HETATM    9  C5  UNL     1       8.545  25.896   1.105  1.00  0.00     0.144 C 
BRANCH   9  10
HETATM   10  C4  UNL     1       9.667  26.777   1.497  1.00  0.00     0.033 C 
BRANCH  10  11
HETATM   11  C2  UNL     1       9.327  28.167   1.917  1.00  0.00    -0.021 C 
HETATM   12  C1  UNL     1       8.031  28.687   1.372  1.00  0.00     0.009 C 
HETATM   13  C3  UNL     1       9.414  28.449   3.382  1.00  0.00     0.009 C 
ENDBRANCH  10  11
ENDBRANCH   9  10
BRANCH   9  14
HETATM   14  C26 UNL     1       8.705  25.095  -0.156  1.00  0.00     0.379 C 
BRANCH  14  15
HETATM   15  O4  UNL     1       7.789  23.976   0.071  1.00  0.00    -0.366 OA
ATOM     16  H4  UNL     1       6.995  24.278  -0.354  1.00  0.00     0.212 HD
ENDBRANCH  14  15
BRANCH  14  17
HETATM   17  N5  UNL     1       8.138  25.652  -1.354  1.00  0.00     0.121 N 
HETATM   18  C27 UNL     1       8.634  26.822  -1.908  1.00  0.00     0.278 C 
HETATM   19  C28 UNL     1       8.220  26.812  -3.368  1.00  0.00     0.064 C 
HETATM   20  C29 UNL     1       7.793  25.391  -3.598  1.00  0.00     0.148 C 
HETATM   21  C30 UNL     1       8.296  24.630  -2.404  1.00  0.00     0.307 C 
BRANCH  20  22
HETATM   22  O5  UNL     1       8.331  24.951  -4.796  1.00  0.00    -0.394 OA
ATOM     23  H5  UNL     1       8.940  24.245  -4.617  1.00  0.00     0.210 HD
ENDBRANCH  20  22
ENDBRANCH  14  17
ENDBRANCH   9  14
ENDBRANCH   6   9
ENDBRANCH   4   5
ENDBRANCH   3   4
ENDBRANCH   2   3
ENDBRANCH   1   2
BRANCH   1  24
HETATM   24  C11 UNL     1       3.760  22.581   6.822  1.00  0.00     0.009 C 
BRANCH  24  25
HETATM   25  C12 UNL     1       2.802  23.215   7.771  1.00  0.00     0.103 C 
BRANCH  25  26
HETATM   26  C13 UNL     1       1.401  22.831   7.592  1.00  0.00     0.217 C 
HETATM   27  O2  UNL     1       0.850  22.805   6.471  1.00  0.00    -0.274 OA
HETATM   28  N2  UNL     1       0.644  22.473   8.760  1.00  0.00    -0.361 N 
ATOM     29  H2  UNL     1       1.065  22.482   9.689  1.00  0.00     0.162 HD
BRANCH  28  30
HETATM   30  C14 UNL     1      -0.745  22.097   8.561  1.00  0.00     0.123 C 
BRANCH  30  31
HETATM   31  C15 UNL     1      -1.584  23.336   8.571  1.00  0.00     0.024 C 
BRANCH  31  32
HETATM   32  C16 UNL     1      -2.561  23.376   7.445  1.00  0.00    -0.010 C 
HETATM   33  C17 UNL     1      -3.334  22.098   7.285  1.00  0.00     0.024 C 
HETATM   34  C18 UNL     1      -4.273  21.927   8.456  1.00  0.00     0.128 C 
HETATM   35  N3  UNL     1      -5.136  23.060   8.535  1.00  0.00    -0.334 N 
HETATM   36  C19 UNL     1      -6.537  22.941   8.593  1.00  0.00     0.318 C 
HETATM   37  C24 UNL     1      -4.550  24.387   8.567  1.00  0.00     0.128 C 
HETATM   38  O3  UNL     1      -7.269  23.986   8.655  1.00  0.00    -0.247 OA
HETATM   39  N4  UNL     1      -7.219  21.706   8.587  1.00  0.00    -0.335 N 
ATOM     40  H4  UNL     1      -6.678  20.843   8.537  1.00  0.00     0.165 HD
HETATM   41  C25 UNL     1      -3.509  24.551   7.504  1.00  0.00     0.024 C 
BRANCH  39  42
HETATM   42  C20 UNL     1      -8.670  21.624   8.649  1.00  0.00     0.023 C 
HETATM   43  C21 UNL     1      -9.062  20.163   8.645  1.00  0.00     0.037 C 
HETATM   44  C22 UNL     1      -9.215  22.267   9.894  1.00  0.00     0.037 C 
HETATM   45  C23 UNL     1      -9.265  22.228   7.391  1.00  0.00     0.037 C 
ENDBRANCH  39  42
ENDBRANCH  31  32
ENDBRANCH  30  31
ENDBRANCH  28  30
ENDBRANCH  25  26
ENDBRANCH  24  25
ENDBRANCH   1  24
TORSDOF 18
ENDMDL
