MODEL 1
REMARK VINA RESULT: -7.084609826      0.000      0.000
REMARK  15 active torsions:
REMARK  status: ('A' for Active; 'I' for Inactive)
REMARK    1  A    between atoms: C2_2  and  C3_3 
REMARK    2  A    between atoms: C3_3  and  C4_4 
REMARK    3  A    between atoms: C4_4  and  C5_5 
REMARK    4  A    between atoms: C5_5  and  C6_6 
REMARK    5  A    between atoms: C6_6  and  C7_7 
REMARK    6  A    between atoms: C7_7  and  C8_8 
REMARK    7  A    between atoms: C10_12  and  C11_13 
REMARK    8  A    between atoms: C11_13  and  C12_14 
REMARK    9  A    between atoms: C12_14  and  C13_15 
REMARK   10  A    between atoms: C13_15  and  N1_16 
REMARK   11  A    between atoms: C24_34  and  C25_35 
REMARK   12  A    between atoms: C25_35  and  C26_36 
REMARK   13  A    between atoms: C26_36  and  C27_37 
REMARK   14  A    between atoms: C27_37  and  C28_38 
REMARK   15  A    between atoms: C28_38  and  N5_39 
ROOT
HETATM    1  C8  UNL     1       7.822  27.178   0.768  1.00  0.00     0.223 C 
HETATM    2  O1  UNL     1       8.802  26.293   0.313  1.00  0.00    -0.305 OA
HETATM    3  C9  UNL     1       9.922  26.473  -0.410  1.00  0.00     0.273 C 
HETATM    4  O2  UNL     1      10.074  25.773  -1.482  1.00  0.00    -0.264 OA
HETATM    5  C10 UNL     1      11.059  27.389  -0.156  1.00  0.00     0.147 C 
HETATM    6  S1  UNL     1      10.793  28.654   1.048  1.00  0.00    -0.154 SA
HETATM    7  C15 UNL     1      10.159  30.209   0.448  1.00  0.00     0.075 C 
HETATM    8  C16 UNL     1      10.702  31.405   1.212  1.00  0.00     0.010 C 
HETATM    9  C17 UNL     1      10.862  31.126   2.668  1.00  0.00     0.001 C 
HETATM   10  C18 UNL     1       9.832  31.813   3.546  1.00  0.00     0.000 C 
HETATM   11  C19 UNL     1       8.540  31.045   3.415  1.00  0.00     0.000 C 
HETATM   12  C20 UNL     1       7.707  31.032   4.641  1.00  0.00     0.002 C 
HETATM   13  C21 UNL     1       7.626  29.716   5.360  1.00  0.00     0.020 C 
HETATM   14  C22 UNL     1       7.545  28.521   4.441  1.00  0.00     0.122 C 
HETATM   15  N4  UNL     1       8.793  27.786   4.399  1.00  0.00    -0.359 N 
ATOM     16  H4  UNL     1       9.619  28.257   4.768  1.00  0.00     0.162 HD
HETATM   17  C23 UNL     1       8.975  26.478   3.895  1.00  0.00     0.240 C 
HETATM   18  O3  UNL     1      10.166  26.125   3.665  1.00  0.00    -0.271 OA
HETATM   19  C24 UNL     1       7.916  25.483   3.611  1.00  0.00     0.176 C 
HETATM   20  N6  UNL     1       6.803  26.026   2.850  1.00  0.00    -0.346 N 
ATOM     21  H6  UNL     1       5.938  26.193   3.366  1.00  0.00     0.163 HD
HETATM   22  C29 UNL     1       6.786  26.348   1.479  1.00  0.00     0.248 C 
HETATM   23  O4  UNL     1       5.850  25.935   0.740  1.00  0.00    -0.271 OA
ENDROOT
BRANCH   5  24
HETATM   24  C11 UNL     1      11.574  27.905  -1.485  1.00  0.00     0.027 C 
BRANCH  24  25
HETATM   25  C12 UNL     1      13.062  27.824  -1.623  1.00  0.00     0.021 C 
BRANCH  25  26
HETATM   26  C13 UNL     1      13.405  26.686  -2.587  1.00  0.00     0.122 C 
BRANCH  26  27
HETATM   27  N1  UNL     1      12.260  26.371  -3.406  1.00  0.00    -0.367 N 
HETATM   28  C14 UNL     1      12.279  25.333  -4.165  1.00  0.00     0.196 C 
HETATM   29  N2  UNL     1      11.163  25.005  -4.978  1.00  0.00    -0.067 NA
HETATM   30  N3  UNL     1      13.422  24.495  -4.199  1.00  0.00    -0.067 NA
ATOM     31  H1  UNL     1      11.436  26.972  -3.384  1.00  0.00     0.161 HD
ENDBRANCH  26  27
ENDBRANCH  25  26
ENDBRANCH  24  25
ENDBRANCH   5  24
BRANCH   1  32
HETATM   32  C7  UNL     1       7.159  27.905  -0.412  1.00  0.00     0.042 C 
BRANCH  32  33
HETATM   33  C6  UNL     1       6.784  29.306  -0.079  1.00  0.00     0.003 C 
BRANCH  33  34
HETATM   34  C5  UNL     1       6.360  30.092  -1.284  1.00  0.00     0.000 C 
BRANCH  34  35
HETATM   35  C4  UNL     1       6.009  31.522  -0.932  1.00  0.00     0.000 C 
BRANCH  35  36
HETATM   36  C3  UNL     1       6.775  31.945   0.291  1.00  0.00    -0.000 C 
BRANCH  36  37
HETATM   37  C2  UNL     1       5.861  32.741   1.203  1.00  0.00    -0.005 C 
HETATM   38  C1  UNL     1       5.046  31.860   2.092  1.00  0.00     0.005 C 
ENDBRANCH  36  37
ENDBRANCH  35  36
ENDBRANCH  34  35
ENDBRANCH  33  34
ENDBRANCH  32  33
ENDBRANCH   1  32
BRANCH  19  39
HETATM   39  C25 UNL     1       7.397  24.842   4.906  1.00  0.00     0.035 C 
BRANCH  39  40
HETATM   40  C26 UNL     1       5.930  24.992   5.101  1.00  0.00     0.004 C 
BRANCH  40  41
HETATM   41  C27 UNL     1       5.236  23.730   5.577  1.00  0.00     0.027 C 
BRANCH  41  42
HETATM   42  C28 UNL     1       3.723  23.938   5.615  1.00  0.00     0.229 C 
BRANCH  42  43
HETATM   43  N5  UNL     1       3.435  24.901   4.562  1.00  0.00    -0.079 N 
ATOM     44  H53 UNL     1       3.923  25.789   4.675  1.00  0.00     0.274 HD
ATOM     45  H52 UNL     1       3.841  24.654   3.659  1.00  0.00     0.274 HD
ATOM     46  H51 UNL     1       2.419  24.990   4.543  1.00  0.00     0.274 HD
ENDBRANCH  42  43
ENDBRANCH  41  42
ENDBRANCH  40  41
ENDBRANCH  39  40
ENDBRANCH  19  39
TORSDOF 15
ENDMDL
MODEL 2
REMARK VINA RESULT: -6.916212955      1.435      1.759
REMARK  15 active torsions:
REMARK  status: ('A' for Active; 'I' for Inactive)
REMARK    1  A    between atoms: C2_2  and  C3_3 
REMARK    2  A    between atoms: C3_3  and  C4_4 
REMARK    3  A    between atoms: C4_4  and  C5_5 
REMARK    4  A    between atoms: C5_5  and  C6_6 
REMARK    5  A    between atoms: C6_6  and  C7_7 
REMARK    6  A    between atoms: C7_7  and  C8_8 
REMARK    7  A    between atoms: C10_12  and  C11_13 
REMARK    8  A    between atoms: C11_13  and  C12_14 
REMARK    9  A    between atoms: C12_14  and  C13_15 
REMARK   10  A    between atoms: C13_15  and  N1_16 
REMARK   11  A    between atoms: C24_34  and  C25_35 
REMARK   12  A    between atoms: C25_35  and  C26_36 
REMARK   13  A    between atoms: C26_36  and  C27_37 
REMARK   14  A    between atoms: C27_37  and  C28_38 
REMARK   15  A    between atoms: C28_38  and  N5_39 
ROOT
HETATM    1  C8  UNL     1       7.821  27.173   0.754  1.00  0.00     0.223 C 
HETATM    2  O1  UNL     1       8.795  26.294   0.278  1.00  0.00    -0.305 OA
HETATM    3  C9  UNL     1       9.908  26.483  -0.454  1.00  0.00     0.273 C 
HETATM    4  O2  UNL     1      10.048  25.796  -1.537  1.00  0.00    -0.264 OA
HETATM    5  C10 UNL     1      11.048  27.395  -0.201  1.00  0.00     0.147 C 
HETATM    6  S1  UNL     1      10.795  28.645   1.021  1.00  0.00    -0.154 SA
HETATM    7  C15 UNL     1      10.155  30.208   0.447  1.00  0.00     0.075 C 
HETATM    8  C16 UNL     1      10.706  31.394   1.219  1.00  0.00     0.010 C 
HETATM    9  C17 UNL     1      10.882  31.098   2.670  1.00  0.00     0.001 C 
HETATM   10  C18 UNL     1       9.861  31.773   3.567  1.00  0.00     0.000 C 
HETATM   11  C19 UNL     1       8.568  31.007   3.441  1.00  0.00     0.000 C 
HETATM   12  C20 UNL     1       7.747  30.979   4.675  1.00  0.00     0.002 C 
HETATM   13  C21 UNL     1       7.673  29.655   5.379  1.00  0.00     0.020 C 
HETATM   14  C22 UNL     1       7.582  28.471   4.446  1.00  0.00     0.122 C 
HETATM   15  N4  UNL     1       8.830  27.737   4.382  1.00  0.00    -0.359 N 
ATOM     16  H4  UNL     1       9.660  28.203   4.748  1.00  0.00     0.162 HD
HETATM   17  C23 UNL     1       9.005  26.434   3.860  1.00  0.00     0.240 C 
HETATM   18  O3  UNL     1      10.194  26.085   3.613  1.00  0.00    -0.271 OA
HETATM   19  C24 UNL     1       7.944  25.444   3.575  1.00  0.00     0.176 C 
HETATM   20  N6  UNL     1       6.823  25.996   2.833  1.00  0.00    -0.346 N 
ATOM     21  H6  UNL     1       5.964  26.157   3.360  1.00  0.00     0.163 HD
HETATM   22  C29 UNL     1       6.792  26.335   1.466  1.00  0.00     0.248 C 
HETATM   23  O4  UNL     1       5.848  25.931   0.731  1.00  0.00    -0.271 OA
ENDROOT
BRANCH   5  24
HETATM   24  C11 UNL     1      11.549  27.927  -1.529  1.00  0.00     0.027 C 
BRANCH  24  25
HETATM   25  C12 UNL     1      12.912  28.539  -1.453  1.00  0.00     0.021 C 
BRANCH  25  26
HETATM   26  C13 UNL     1      13.922  27.568  -2.070  1.00  0.00     0.122 C 
BRANCH  26  27
HETATM   27  N1  UNL     1      15.265  28.043  -1.843  1.00  0.00    -0.367 N 
HETATM   28  C14 UNL     1      15.906  28.635  -2.788  1.00  0.00     0.196 C 
HETATM   29  N2  UNL     1      17.227  29.110  -2.586  1.00  0.00    -0.067 NA
HETATM   30  N3  UNL     1      15.296  28.823  -4.054  1.00  0.00    -0.067 NA
ATOM     31  H1  UNL     1      15.707  27.909  -0.934  1.00  0.00     0.161 HD
ENDBRANCH  26  27
ENDBRANCH  25  26
ENDBRANCH  24  25
ENDBRANCH   5  24
BRANCH   1  32
HETATM   32  C7  UNL     1       7.145  27.915  -0.410  1.00  0.00     0.042 C 
BRANCH  32  33
HETATM   33  C6  UNL     1       6.745  29.301  -0.046  1.00  0.00     0.003 C 
BRANCH  33  34
HETATM   34  C5  UNL     1       6.249  30.087  -1.223  1.00  0.00     0.000 C 
BRANCH  34  35
HETATM   35  C4  UNL     1       5.978  31.533  -0.866  1.00  0.00     0.000 C 
BRANCH  35  36
HETATM   36  C3  UNL     1       6.788  31.915   0.343  1.00  0.00    -0.000 C 
BRANCH  36  37
HETATM   37  C2  UNL     1       5.923  32.723   1.289  1.00  0.00    -0.005 C 
HETATM   38  C1  UNL     1       4.972  31.864   2.057  1.00  0.00     0.005 C 
ENDBRANCH  36  37
ENDBRANCH  35  36
ENDBRANCH  34  35
ENDBRANCH  33  34
ENDBRANCH  32  33
ENDBRANCH   1  32
BRANCH  19  39
HETATM   39  C25 UNL     1       7.438  24.787   4.867  1.00  0.00     0.035 C 
BRANCH  39  40
HETATM   40  C26 UNL     1       5.978  24.957   5.092  1.00  0.00     0.004 C 
BRANCH  40  41
HETATM   41  C27 UNL     1       5.274  23.701   5.569  1.00  0.00     0.027 C 
BRANCH  41  42
HETATM   42  C28 UNL     1       3.764  23.929   5.630  1.00  0.00     0.229 C 
BRANCH  42  43
HETATM   43  N5  UNL     1       3.477  24.914   4.598  1.00  0.00    -0.079 N 
ATOM     44  H53 UNL     1       2.481  25.086   4.462  1.00  0.00     0.274 HD
ATOM     45  H52 UNL     1       3.729  25.867   4.860  1.00  0.00     0.274 HD
ATOM     46  H51 UNL     1       3.954  24.580   3.760  1.00  0.00     0.274 HD
ENDBRANCH  42  43
ENDBRANCH  41  42
ENDBRANCH  40  41
ENDBRANCH  39  40
ENDBRANCH  19  39
TORSDOF 15
ENDMDL
MODEL 3
REMARK VINA RESULT: -6.876572075      1.050      2.011
REMARK  15 active torsions:
REMARK  status: ('A' for Active; 'I' for Inactive)
REMARK    1  A    between atoms: C2_2  and  C3_3 
REMARK    2  A    between atoms: C3_3  and  C4_4 
REMARK    3  A    between atoms: C4_4  and  C5_5 
REMARK    4  A    between atoms: C5_5  and  C6_6 
REMARK    5  A    between atoms: C6_6  and  C7_7 
REMARK    6  A    between atoms: C7_7  and  C8_8 
REMARK    7  A    between atoms: C10_12  and  C11_13 
REMARK    8  A    between atoms: C11_13  and  C12_14 
REMARK    9  A    between atoms: C12_14  and  C13_15 
REMARK   10  A    between atoms: C13_15  and  N1_16 
REMARK   11  A    between atoms: C24_34  and  C25_35 
REMARK   12  A    between atoms: C25_35  and  C26_36 
REMARK   13  A    between atoms: C26_36  and  C27_37 
REMARK   14  A    between atoms: C27_37  and  C28_38 
REMARK   15  A    between atoms: C28_38  and  N5_39 
ROOT
HETATM    1  C8  UNL     1       7.757  27.083   0.822  1.00  0.00     0.223 C 
HETATM    2  O1  UNL     1       8.709  26.136   0.442  1.00  0.00    -0.305 OA
HETATM    3  C9  UNL     1       9.858  26.232  -0.252  1.00  0.00     0.273 C 
HETATM    4  O2  UNL     1      10.011  25.474  -1.284  1.00  0.00    -0.264 OA
HETATM    5  C10 UNL     1      11.027  27.109  -0.005  1.00  0.00     0.147 C 
HETATM    6  S1  UNL     1      10.781  28.441   1.128  1.00  0.00    -0.154 SA
HETATM    7  C15 UNL     1      10.236  29.992   0.434  1.00  0.00     0.075 C 
HETATM    8  C16 UNL     1      10.808  31.199   1.157  1.00  0.00     0.010 C 
HETATM    9  C17 UNL     1      10.911  30.986   2.629  1.00  0.00     0.001 C 
HETATM   10  C18 UNL     1       9.886  31.758   3.439  1.00  0.00     0.000 C 
HETATM   11  C19 UNL     1       8.566  31.041   3.303  1.00  0.00     0.000 C 
HETATM   12  C20 UNL     1       7.696  31.124   4.501  1.00  0.00     0.002 C 
HETATM   13  C21 UNL     1       7.534  29.850   5.278  1.00  0.00     0.020 C 
HETATM   14  C22 UNL     1       7.427  28.616   4.415  1.00  0.00     0.122 C 
HETATM   15  N4  UNL     1       8.643  27.827   4.449  1.00  0.00    -0.359 N 
ATOM     16  H4  UNL     1       9.477  28.280   4.822  1.00  0.00     0.162 HD
HETATM   17  C23 UNL     1       8.781  26.489   4.015  1.00  0.00     0.240 C 
HETATM   18  O3  UNL     1       9.961  26.074   3.840  1.00  0.00    -0.271 OA
HETATM   19  C24 UNL     1       7.688  25.528   3.744  1.00  0.00     0.176 C 
HETATM   20  N6  UNL     1       6.624  26.081   2.922  1.00  0.00    -0.346 N 
ATOM     21  H6  UNL     1       5.752  26.310   3.401  1.00  0.00     0.163 HD
HETATM   22  C29 UNL     1       6.663  26.335   1.537  1.00  0.00     0.248 C 
HETATM   23  O4  UNL     1       5.733  25.927   0.788  1.00  0.00    -0.271 OA
ENDROOT
BRANCH   5  24
HETATM   24  C11 UNL     1      11.605  27.536  -1.340  1.00  0.00     0.027 C 
BRANCH  24  25
HETATM   25  C12 UNL     1      13.084  27.335  -1.444  1.00  0.00     0.021 C 
BRANCH  25  26
HETATM   26  C13 UNL     1      13.386  26.566  -2.732  1.00  0.00     0.122 C 
BRANCH  26  27
HETATM   27  N1  UNL     1      12.160  26.071  -3.310  1.00  0.00    -0.367 N 
HETATM   28  C14 UNL     1      12.182  25.035  -4.072  1.00  0.00     0.196 C 
HETATM   29  N2  UNL     1      10.989  24.532  -4.651  1.00  0.00    -0.067 NA
HETATM   30  N3  UNL     1      13.408  24.378  -4.346  1.00  0.00    -0.067 NA
ATOM     31  H1  UNL     1      11.277  26.542  -3.115  1.00  0.00     0.161 HD
ENDBRANCH  26  27
ENDBRANCH  25  26
ENDBRANCH  24  25
ENDBRANCH   5  24
BRANCH   1  32
HETATM   32  C7  UNL     1       7.163  27.780  -0.413  1.00  0.00     0.042 C 
BRANCH  32  33
HETATM   33  C6  UNL     1       6.838  29.209  -0.159  1.00  0.00     0.003 C 
BRANCH  33  34
HETATM   34  C5  UNL     1       7.004  30.065  -1.379  1.00  0.00     0.000 C 
BRANCH  34  35
HETATM   35  C4  UNL     1       7.813  29.368  -2.454  1.00  0.00     0.000 C 
BRANCH  35  36
HETATM   36  C3  UNL     1       7.012  29.301  -3.725  1.00  0.00    -0.000 C 
BRANCH  36  37
HETATM   37  C2  UNL     1       7.406  28.057  -4.498  1.00  0.00    -0.005 C 
HETATM   38  C1  UNL     1       8.574  27.357  -3.883  1.00  0.00     0.005 C 
ENDBRANCH  36  37
ENDBRANCH  35  36
ENDBRANCH  34  35
ENDBRANCH  33  34
ENDBRANCH  32  33
ENDBRANCH   1  32
BRANCH  19  39
HETATM   39  C25 UNL     1       7.101  24.975   5.050  1.00  0.00     0.035 C 
BRANCH  39  40
HETATM   40  C26 UNL     1       5.617  24.889   5.050  1.00  0.00     0.004 C 
BRANCH  40  41
HETATM   41  C27 UNL     1       5.061  23.758   5.894  1.00  0.00     0.027 C 
BRANCH  41  42
HETATM   42  C28 UNL     1       3.537  23.712   5.784  1.00  0.00     0.229 C 
BRANCH  42  43
HETATM   43  N5  UNL     1       3.186  24.736   4.812  1.00  0.00    -0.079 N 
ATOM     44  H53 UNL     1       3.941  24.965   4.167  1.00  0.00     0.274 HD
ATOM     45  H52 UNL     1       2.518  24.421   4.108  1.00  0.00     0.274 HD
ATOM     46  H51 UNL     1       2.858  25.533   5.360  1.00  0.00     0.274 HD
ENDBRANCH  42  43
ENDBRANCH  41  42
ENDBRANCH  40  41
ENDBRANCH  39  40
ENDBRANCH  19  39
TORSDOF 15
ENDMDL
MODEL 4
REMARK VINA RESULT: -6.589980443      1.331      2.182
REMARK  15 active torsions:
REMARK  status: ('A' for Active; 'I' for Inactive)
REMARK    1  A    between atoms: C2_2  and  C3_3 
REMARK    2  A    between atoms: C3_3  and  C4_4 
REMARK    3  A    between atoms: C4_4  and  C5_5 
REMARK    4  A    between atoms: C5_5  and  C6_6 
REMARK    5  A    between atoms: C6_6  and  C7_7 
REMARK    6  A    between atoms: C7_7  and  C8_8 
REMARK    7  A    between atoms: C10_12  and  C11_13 
REMARK    8  A    between atoms: C11_13  and  C12_14 
REMARK    9  A    between atoms: C12_14  and  C13_15 
REMARK   10  A    between atoms: C13_15  and  N1_16 
REMARK   11  A    between atoms: C24_34  and  C25_35 
REMARK   12  A    between atoms: C25_35  and  C26_36 
REMARK   13  A    between atoms: C26_36  and  C27_37 
REMARK   14  A    between atoms: C27_37  and  C28_38 
REMARK   15  A    between atoms: C28_38  and  N5_39 
ROOT
HETATM    1  C8  UNL     1       7.818  27.322   0.773  1.00  0.00     0.223 C 
HETATM    2  O1  UNL     1       8.829  26.590   0.147  1.00  0.00    -0.305 OA
HETATM    3  C9  UNL     1       9.864  26.956  -0.631  1.00  0.00     0.273 C 
HETATM    4  O2  UNL     1       9.985  26.396  -1.786  1.00  0.00    -0.264 OA
HETATM    5  C10 UNL     1      10.934  27.944  -0.356  1.00  0.00     0.147 C 
HETATM    6  S1  UNL     1      10.661  29.037   1.004  1.00  0.00    -0.154 SA
HETATM    7  C15 UNL     1       9.846  30.581   0.638  1.00  0.00     0.075 C 
HETATM    8  C16 UNL     1      10.344  31.732   1.494  1.00  0.00     0.010 C 
HETATM    9  C17 UNL     1      10.650  31.313   2.892  1.00  0.00     0.001 C 
HETATM   10  C18 UNL     1       9.642  31.796   3.918  1.00  0.00     0.000 C 
HETATM   11  C19 UNL     1       8.416  30.926   3.794  1.00  0.00     0.000 C 
HETATM   12  C20 UNL     1       7.693  30.699   5.069  1.00  0.00     0.002 C 
HETATM   13  C21 UNL     1       7.788  29.310   5.632  1.00  0.00     0.020 C 
HETATM   14  C22 UNL     1       7.734  28.221   4.589  1.00  0.00     0.122 C 
HETATM   15  N4  UNL     1       9.034  27.619   4.369  1.00  0.00    -0.359 N 
ATOM     16  H4  UNL     1       9.844  28.124   4.729  1.00  0.00     0.162 HD
HETATM   17  C23 UNL     1       9.286  26.397   3.703  1.00  0.00     0.240 C 
HETATM   18  O3  UNL     1      10.480  26.189   3.346  1.00  0.00    -0.271 OA
HETATM   19  C24 UNL     1       8.299  25.342   3.384  1.00  0.00     0.176 C 
HETATM   20  N6  UNL     1       7.082  25.856   2.777  1.00  0.00    -0.346 N 
ATOM     21  H6  UNL     1       6.253  25.881   3.371  1.00  0.00     0.163 HD
HETATM   22  C29 UNL     1       6.921  26.323   1.457  1.00  0.00     0.248 C 
HETATM   23  O4  UNL     1       5.966  25.905   0.746  1.00  0.00    -0.271 OA
ENDROOT
BRANCH   5  24
HETATM   24  C11 UNL     1      11.288  28.649  -1.650  1.00  0.00     0.027 C 
BRANCH  24  25
HETATM   25  C12 UNL     1      12.399  29.642  -1.507  1.00  0.00     0.021 C 
BRANCH  25  26
HETATM   26  C13 UNL     1      13.582  29.182  -2.362  1.00  0.00     0.122 C 
BRANCH  26  27
HETATM   27  N1  UNL     1      13.271  27.926  -2.999  1.00  0.00    -0.367 N 
HETATM   28  C14 UNL     1      13.875  26.852  -2.630  1.00  0.00     0.196 C 
HETATM   29  N2  UNL     1      13.585  25.606  -3.244  1.00  0.00    -0.067 NA
HETATM   30  N3  UNL     1      14.846  26.898  -1.598  1.00  0.00    -0.067 NA
ATOM     31  H1  UNL     1      12.574  27.889  -3.743  1.00  0.00     0.161 HD
ENDBRANCH  26  27
ENDBRANCH  25  26
ENDBRANCH  24  25
ENDBRANCH   5  24
BRANCH   1  32
HETATM   32  C7  UNL     1       6.996  28.106  -0.262  1.00  0.00     0.042 C 
BRANCH  32  33
HETATM   33  C6  UNL     1       6.700  29.495   0.182  1.00  0.00     0.003 C 
BRANCH  33  34
HETATM   34  C5  UNL     1       6.432  30.423  -0.965  1.00  0.00     0.000 C 
BRANCH  34  35
HETATM   35  C4  UNL     1       7.156  29.991  -2.224  1.00  0.00     0.000 C 
BRANCH  35  36
HETATM   36  C3  UNL     1       6.189  29.958  -3.376  1.00  0.00    -0.000 C 
BRANCH  36  37
HETATM   37  C2  UNL     1       6.740  29.057  -4.464  1.00  0.00    -0.005 C 
HETATM   38  C1  UNL     1       7.722  28.065  -3.932  1.00  0.00     0.005 C 
ENDBRANCH  36  37
ENDBRANCH  35  36
ENDBRANCH  34  35
ENDBRANCH  33  34
ENDBRANCH  32  33
ENDBRANCH   1  32
BRANCH  19  39
HETATM   39  C25 UNL     1       7.948  24.517   4.630  1.00  0.00     0.035 C 
BRANCH  39  40
HETATM   40  C26 UNL     1       6.594  24.800   5.174  1.00  0.00     0.004 C 
BRANCH  40  41
HETATM   41  C27 UNL     1       6.024  23.684   6.029  1.00  0.00     0.027 C 
BRANCH  41  42
HETATM   42  C28 UNL     1       4.505  23.616   5.870  1.00  0.00     0.229 C 
BRANCH  42  43
HETATM   43  N5  UNL     1       4.050  22.661   6.869  1.00  0.00    -0.079 N 
ATOM     44  H53 UNL     1       3.143  22.248   6.657  1.00  0.00     0.274 HD
ATOM     45  H52 UNL     1       4.581  21.790   6.876  1.00  0.00     0.274 HD
ATOM     46  H51 UNL     1       4.075  23.163   7.758  1.00  0.00     0.274 HD
ENDBRANCH  42  43
ENDBRANCH  41  42
ENDBRANCH  40  41
ENDBRANCH  39  40
ENDBRANCH  19  39
TORSDOF 15
ENDMDL
MODEL 5
REMARK VINA RESULT: -6.547025657      2.205      8.129
REMARK  15 active torsions:
REMARK  status: ('A' for Active; 'I' for Inactive)
REMARK    1  A    between atoms: C2_2  and  C3_3 
REMARK    2  A    between atoms: C3_3  and  C4_4 
REMARK    3  A    between atoms: C4_4  and  C5_5 
REMARK    4  A    between atoms: C5_5  and  C6_6 
REMARK    5  A    between atoms: C6_6  and  C7_7 
REMARK    6  A    between atoms: C7_7  and  C8_8 
REMARK    7  A    between atoms: C10_12  and  C11_13 
REMARK    8  A    between atoms: C11_13  and  C12_14 
REMARK    9  A    between atoms: C12_14  and  C13_15 
REMARK   10  A    between atoms: C13_15  and  N1_16 
REMARK   11  A    between atoms: C24_34  and  C25_35 
REMARK   12  A    between atoms: C25_35  and  C26_36 
REMARK   13  A    between atoms: C26_36  and  C27_37 
REMARK   14  A    between atoms: C27_37  and  C28_38 
REMARK   15  A    between atoms: C28_38  and  N5_39 
ROOT
HETATM    1  C8  UNL     1      10.570  27.355  -0.105  1.00  0.00     0.223 C 
HETATM    2  O1  UNL     1      10.205  26.505   0.940  1.00  0.00    -0.305 OA
HETATM    3  C9  UNL     1       9.512  26.709   2.076  1.00  0.00     0.273 C 
HETATM    4  O2  UNL     1      10.060  26.370   3.192  1.00  0.00    -0.264 OA
HETATM    5  C10 UNL     1       8.159  27.287   2.252  1.00  0.00     0.147 C 
HETATM    6  S1  UNL     1       7.479  28.130   0.857  1.00  0.00    -0.154 SA
HETATM    7  C15 UNL     1       7.804  29.881   0.744  1.00  0.00     0.075 C 
HETATM    8  C16 UNL     1       6.649  30.660   0.138  1.00  0.00     0.010 C 
HETATM    9  C17 UNL     1       5.968  29.911  -0.957  1.00  0.00     0.001 C 
HETATM   10  C18 UNL     1       6.253  30.451  -2.346  1.00  0.00     0.000 C 
HETATM   11  C19 UNL     1       7.640  29.998  -2.733  1.00  0.00     0.000 C 
HETATM   12  C20 UNL     1       7.821  29.741  -4.181  1.00  0.00     0.002 C 
HETATM   13  C21 UNL     1       7.979  28.300  -4.572  1.00  0.00     0.020 C 
HETATM   14  C22 UNL     1       8.808  27.491  -3.605  1.00  0.00     0.122 C 
HETATM   15  N4  UNL     1       7.990  26.604  -2.803  1.00  0.00    -0.359 N 
ATOM     16  H4  UNL     1       6.986  26.784  -2.793  1.00  0.00     0.162 HD
HETATM   17  C23 UNL     1       8.452  25.512  -2.032  1.00  0.00     0.240 C 
HETATM   18  O3  UNL     1       7.648  25.051  -1.173  1.00  0.00    -0.271 OA
HETATM   19  C24 UNL     1       9.775  24.857  -2.128  1.00  0.00     0.176 C 
HETATM   20  N6  UNL     1      10.885  25.797  -2.149  1.00  0.00    -0.346 N 
ATOM     21  H6  UNL     1      11.344  25.937  -3.049  1.00  0.00     0.163 HD
HETATM   22  C29 UNL     1      11.394  26.534  -1.062  1.00  0.00     0.248 C 
HETATM   23  O4  UNL     1      12.634  26.545  -0.825  1.00  0.00    -0.271 OA
ENDROOT
BRANCH   5  24
HETATM   24  C11 UNL     1       8.140  28.100   3.530  1.00  0.00     0.027 C 
BRANCH  24  25
HETATM   25  C12 UNL     1       7.236  27.541   4.583  1.00  0.00     0.021 C 
BRANCH  25  26
HETATM   26  C13 UNL     1       6.561  26.282   4.034  1.00  0.00     0.122 C 
BRANCH  26  27
HETATM   27  N1  UNL     1       6.576  25.239   5.031  1.00  0.00    -0.367 N 
HETATM   28  C14 UNL     1       5.507  24.566   5.272  1.00  0.00     0.196 C 
HETATM   29  N2  UNL     1       5.499  23.537   6.249  1.00  0.00    -0.067 NA
HETATM   30  N3  UNL     1       4.313  24.846   4.561  1.00  0.00    -0.067 NA
ATOM     31  H1  UNL     1       7.433  25.036   5.545  1.00  0.00     0.161 HD
ENDBRANCH  26  27
ENDBRANCH  25  26
ENDBRANCH  24  25
ENDBRANCH   5  24
BRANCH   1  32
HETATM   32  C7  UNL     1      11.423  28.522   0.418  1.00  0.00     0.042 C 
BRANCH  32  33
HETATM   33  C6  UNL     1      11.210  29.774  -0.357  1.00  0.00     0.003 C 
BRANCH  33  34
HETATM   34  C5  UNL     1      12.394  30.137  -1.204  1.00  0.00     0.000 C 
BRANCH  34  35
HETATM   35  C4  UNL     1      12.169  29.807  -2.664  1.00  0.00     0.000 C 
BRANCH  35  36
HETATM   36  C3  UNL     1      13.348  29.039  -3.197  1.00  0.00    -0.000 C 
BRANCH  36  37
HETATM   37  C2  UNL     1      14.571  29.358  -2.359  1.00  0.00    -0.005 C 
HETATM   38  C1  UNL     1      15.469  28.175  -2.199  1.00  0.00     0.005 C 
ENDBRANCH  36  37
ENDBRANCH  35  36
ENDBRANCH  34  35
ENDBRANCH  33  34
ENDBRANCH  32  33
ENDBRANCH   1  32
BRANCH  19  39
HETATM   39  C25 UNL     1       9.851  23.938  -3.356  1.00  0.00     0.035 C 
BRANCH  39  40
HETATM   40  C26 UNL     1      10.660  24.496  -4.471  1.00  0.00     0.004 C 
BRANCH  40  41
HETATM   41  C27 UNL     1      11.524  23.471  -5.183  1.00  0.00     0.027 C 
BRANCH  41  42
HETATM   42  C28 UNL     1      12.890  23.367  -4.507  1.00  0.00     0.229 C 
BRANCH  42  43
HETATM   43  N5  UNL     1      13.215  21.949  -4.499  1.00  0.00    -0.079 N 
ATOM     44  H53 UNL     1      12.412  21.344  -4.669  1.00  0.00     0.274 HD
ATOM     45  H52 UNL     1      13.764  21.649  -5.305  1.00  0.00     0.274 HD
ATOM     46  H51 UNL     1      13.675  21.778  -3.604  1.00  0.00     0.274 HD
ENDBRANCH  42  43
ENDBRANCH  41  42
ENDBRANCH  40  41
ENDBRANCH  39  40
ENDBRANCH  19  39
TORSDOF 15
ENDMDL
