MODEL 1
REMARK VINA RESULT: -7.985794760      0.000      0.000
REMARK  17 active torsions:
REMARK  status: ('A' for Active; 'I' for Inactive)
REMARK    1  A    between atoms: C2_2  and  C4_4 
REMARK    2  A    between atoms: C4_4  and  C5_5 
REMARK    3  A    between atoms: C5_5  and  N1_6 
REMARK    4  A    between atoms: C5_5  and  C14_18 
REMARK       I    between atoms: N1_6  and  C6_8 
REMARK    5  A    between atoms: C6_8  and  C7_10 
REMARK    6  A    between atoms: C7_10  and  N2_11 
REMARK    7  A    between atoms: N2_11  and  C8_12 
REMARK    8  A    between atoms: N2_11  and  C11_15 
REMARK       I    between atoms: C14_18  and  N3_20 
REMARK    9  A    between atoms: N3_20  and  C15_22 
REMARK   10  A    between atoms: C15_22  and  C16_23 
REMARK   11  A    between atoms: C15_22  and  C26_42 
REMARK       I    between atoms: C16_23  and  N4_25 
REMARK   12  A    between atoms: N4_25  and  C17_27 
REMARK   13  A    between atoms: C17_27  and  C18_28 
REMARK   14  A    between atoms: C17_27  and  C25_35 
REMARK   15  A    between atoms: C18_28  and  C19_29 
REMARK   16  A    between atoms: C25_35  and  N5_36 
REMARK   17  A    between atoms: C25_35  and  O4_40 
ROOT
HETATM    1  C15 UNL     1       7.446  26.870   0.045  1.00  0.00     0.180 C 
ENDROOT
BRANCH   1   2
HETATM    2  N3  UNL     1       8.707  26.480  -0.641  1.00  0.00    -0.346 N 
HETATM    3  C14 UNL     1       8.676  25.691  -1.799  1.00  0.00     0.241 C 
HETATM    4  O2  UNL     1       7.500  25.368  -2.193  1.00  0.00    -0.271 OA
ATOM      5  H3  UNL     1       9.604  26.790  -0.266  1.00  0.00     0.163 HD
BRANCH   3   6
HETATM    6  C5  UNL     1       9.819  25.193  -2.593  1.00  0.00     0.177 C 
BRANCH   6   7
HETATM    7  C4  UNL     1      10.828  26.204  -2.991  1.00  0.00     0.038 C 
BRANCH   7   8
HETATM    8  C2  UNL     1      12.074  26.275  -2.196  1.00  0.00    -0.020 C 
HETATM    9  C1  UNL     1      13.316  26.368  -3.062  1.00  0.00     0.009 C 
HETATM   10  C3  UNL     1      12.096  27.537  -1.323  1.00  0.00     0.009 C 
ENDBRANCH   7   8
ENDBRANCH   6   7
BRANCH   6  11
HETATM   11  N1  UNL     1       9.192  24.628  -3.813  1.00  0.00    -0.346 N 
HETATM   12  C6  UNL     1       8.974  23.246  -3.944  1.00  0.00     0.246 C 
HETATM   13  O1  UNL     1       9.339  22.532  -2.962  1.00  0.00    -0.272 OA
ATOM     14  H1  UNL     1       8.914  25.254  -4.570  1.00  0.00     0.163 HD
BRANCH  12  15
HETATM   15  C7  UNL     1       8.363  22.562  -5.085  1.00  0.00     0.375 C 
BRANCH  15  16
HETATM   16  N2  UNL     1       7.993  23.562  -6.112  1.00  0.00     0.105 N 
BRANCH  16  17
HETATM   17  C8  UNL     1       6.568  23.643  -6.073  1.00  0.00     0.216 C 
HETATM   18  C9  UNL     1       5.738  23.065  -7.120  1.00  0.00     0.042 C 
HETATM   19  C10 UNL     1       6.186  25.085  -5.825  1.00  0.00     0.042 C 
ENDBRANCH  16  17
BRANCH  16  20
HETATM   20  C11 UNL     1       8.560  23.167  -7.363  1.00  0.00     0.216 C 
HETATM   21  C12 UNL     1       9.303  24.194  -8.155  1.00  0.00     0.042 C 
HETATM   22  C13 UNL     1       9.232  21.815  -7.381  1.00  0.00     0.042 C 
ENDBRANCH  16  20
ENDBRANCH  15  16
ENDBRANCH  12  15
ENDBRANCH   6  11
ENDBRANCH   3   6
ENDBRANCH   1   2
BRANCH   1  23
HETATM   23  C16 UNL     1       7.330  25.922   1.183  1.00  0.00     0.241 C 
HETATM   24  O3  UNL     1       7.544  24.696   0.981  1.00  0.00    -0.271 OA
HETATM   25  N4  UNL     1       6.986  26.303   2.492  1.00  0.00    -0.350 N 
ATOM     26  H4  UNL     1       6.818  27.289   2.688  1.00  0.00     0.163 HD
BRANCH  25  27
HETATM   27  C17 UNL     1       6.859  25.318   3.600  1.00  0.00     0.140 C 
BRANCH  27  28
HETATM   28  C18 UNL     1       5.584  25.617   4.289  1.00  0.00     0.034 C 
BRANCH  28  29
HETATM   29  C19 UNL     1       4.935  24.625   5.147  1.00  0.00    -0.013 C 
HETATM   30  C20 UNL     1       5.515  23.271   5.288  1.00  0.00     0.005 C 
HETATM   31  C21 UNL     1       5.167  22.780   6.704  1.00  0.00     0.000 C 
HETATM   32  C22 UNL     1       3.760  23.241   7.053  1.00  0.00     0.000 C 
HETATM   33  C23 UNL     1       2.924  23.394   5.796  1.00  0.00     0.000 C 
HETATM   34  C24 UNL     1       3.438  24.477   4.877  1.00  0.00     0.005 C 
ENDBRANCH  28  29
ENDBRANCH  27  28
BRANCH  27  35
HETATM   35  C25 UNL     1       8.121  25.389   4.408  1.00  0.00     0.339 C 
BRANCH  35  36
HETATM   36  N5  UNL     1       8.742  26.706   4.335  1.00  0.00    -0.051 N 
ATOM     37  H53 UNL     1       9.161  26.868   3.419  1.00  0.00     0.277 HD
ATOM     38  H52 UNL     1       8.040  27.446   4.323  1.00  0.00     0.277 HD
ATOM     39  H51 UNL     1       9.420  26.849   5.082  1.00  0.00     0.277 HD
ENDBRANCH  35  36
BRANCH  35  40
HETATM   40  O4  UNL     1       9.010  24.461   3.780  1.00  0.00    -0.368 OA
ATOM     41  H4  UNL     1       9.872  24.845   3.881  1.00  0.00     0.212 HD
ENDBRANCH  35  40
ENDBRANCH  27  35
ENDBRANCH  25  27
ENDBRANCH   1  23
BRANCH   1  42
HETATM   42  C26 UNL     1       7.557  28.297   0.404  1.00  0.00     0.018 C 
HETATM   43  C27 UNL     1       6.882  29.266  -0.516  1.00  0.00     0.007 C 
HETATM   44  C28 UNL     1       7.377  30.666  -0.127  1.00  0.00     0.000 C 
HETATM   45  C29 UNL     1       7.707  30.731   1.354  1.00  0.00     0.000 C 
HETATM   46  C30 UNL     1       8.900  29.869   1.696  1.00  0.00     0.000 C 
HETATM   47  C31 UNL     1       8.963  28.780   0.624  1.00  0.00     0.007 C 
ENDBRANCH   1  42
TORSDOF 17
ENDMDL
MODEL 2
REMARK VINA RESULT: -7.890791443      1.068      1.901
REMARK  17 active torsions:
REMARK  status: ('A' for Active; 'I' for Inactive)
REMARK    1  A    between atoms: C2_2  and  C4_4 
REMARK    2  A    between atoms: C4_4  and  C5_5 
REMARK    3  A    between atoms: C5_5  and  N1_6 
REMARK    4  A    between atoms: C5_5  and  C14_18 
REMARK       I    between atoms: N1_6  and  C6_8 
REMARK    5  A    between atoms: C6_8  and  C7_10 
REMARK    6  A    between atoms: C7_10  and  N2_11 
REMARK    7  A    between atoms: N2_11  and  C8_12 
REMARK    8  A    between atoms: N2_11  and  C11_15 
REMARK       I    between atoms: C14_18  and  N3_20 
REMARK    9  A    between atoms: N3_20  and  C15_22 
REMARK   10  A    between atoms: C15_22  and  C16_23 
REMARK   11  A    between atoms: C15_22  and  C26_42 
REMARK       I    between atoms: C16_23  and  N4_25 
REMARK   12  A    between atoms: N4_25  and  C17_27 
REMARK   13  A    between atoms: C17_27  and  C18_28 
REMARK   14  A    between atoms: C17_27  and  C25_35 
REMARK   15  A    between atoms: C18_28  and  C19_29 
REMARK   16  A    between atoms: C25_35  and  N5_36 
REMARK   17  A    between atoms: C25_35  and  O4_40 
ROOT
HETATM    1  C15 UNL     1       7.571  26.870   0.061  1.00  0.00     0.180 C 
ENDROOT
BRANCH   1   2
HETATM    2  N3  UNL     1       8.929  26.578  -0.472  1.00  0.00    -0.346 N 
HETATM    3  C14 UNL     1       9.123  26.334  -1.838  1.00  0.00     0.241 C 
HETATM    4  O2  UNL     1       8.058  26.401  -2.549  1.00  0.00    -0.271 OA
ATOM      5  H3  UNL     1       9.727  26.555   0.163  1.00  0.00     0.163 HD
BRANCH   3   6
HETATM    6  C5  UNL     1      10.385  26.007  -2.535  1.00  0.00     0.177 C 
BRANCH   6   7
HETATM    7  C4  UNL     1      11.449  27.038  -2.478  1.00  0.00     0.038 C 
BRANCH   7   8
HETATM    8  C2  UNL     1      12.185  27.188  -1.203  1.00  0.00    -0.020 C 
HETATM    9  C1  UNL     1      13.683  27.006  -1.367  1.00  0.00     0.009 C 
HETATM   10  C3  UNL     1      12.013  28.603  -0.633  1.00  0.00     0.009 C 
ENDBRANCH   7   8
ENDBRANCH   6   7
BRANCH   6  11
HETATM   11  N1  UNL     1       9.976  25.812  -3.948  1.00  0.00    -0.346 N 
HETATM   12  C6  UNL     1      10.112  24.563  -4.578  1.00  0.00     0.246 C 
HETATM   13  O1  UNL     1      10.595  23.633  -3.864  1.00  0.00    -0.272 OA
ATOM     14  H1  UNL     1       9.589  26.598  -4.472  1.00  0.00     0.163 HD
BRANCH  12  15
HETATM   15  C7  UNL     1       9.746  24.234  -5.956  1.00  0.00     0.375 C 
BRANCH  15  16
HETATM   16  N2  UNL     1       9.707  22.763  -6.113  1.00  0.00     0.105 N 
BRANCH  16  17
HETATM   17  C8  UNL     1      10.715  22.453  -7.076  1.00  0.00     0.216 C 
HETATM   18  C9  UNL     1      12.085  22.156  -6.684  1.00  0.00     0.042 C 
HETATM   19  C10 UNL     1      10.687  23.519  -8.147  1.00  0.00     0.042 C 
ENDBRANCH  16  17
BRANCH  16  20
HETATM   20  C11 UNL     1       8.376  22.372  -6.457  1.00  0.00     0.216 C 
HETATM   21  C12 UNL     1       8.018  20.924  -6.351  1.00  0.00     0.042 C 
HETATM   22  C13 UNL     1       7.278  23.284  -5.968  1.00  0.00     0.042 C 
ENDBRANCH  16  20
ENDBRANCH  15  16
ENDBRANCH  12  15
ENDBRANCH   6  11
ENDBRANCH   3   6
ENDBRANCH   1   2
BRANCH   1  23
HETATM   23  C16 UNL     1       7.382  25.891   1.163  1.00  0.00     0.241 C 
HETATM   24  O3  UNL     1       7.561  24.666   0.927  1.00  0.00    -0.271 OA
HETATM   25  N4  UNL     1       7.004  26.242   2.470  1.00  0.00    -0.350 N 
ATOM     26  H4  UNL     1       6.863  27.227   2.693  1.00  0.00     0.163 HD
BRANCH  25  27
HETATM   27  C17 UNL     1       6.804  25.227   3.540  1.00  0.00     0.140 C 
BRANCH  27  28
HETATM   28  C18 UNL     1       5.497  25.525   4.167  1.00  0.00     0.034 C 
BRANCH  28  29
HETATM   29  C19 UNL     1       4.874  24.588   5.102  1.00  0.00    -0.013 C 
HETATM   30  C20 UNL     1       5.461  23.244   5.311  1.00  0.00     0.005 C 
HETATM   31  C21 UNL     1       5.153  22.842   6.764  1.00  0.00     0.000 C 
HETATM   32  C22 UNL     1       3.755  23.324   7.122  1.00  0.00     0.000 C 
HETATM   33  C23 UNL     1       2.884  23.398   5.882  1.00  0.00     0.000 C 
HETATM   34  C24 UNL     1       3.371  24.422   4.884  1.00  0.00     0.005 C 
ENDBRANCH  28  29
ENDBRANCH  27  28
BRANCH  27  35
HETATM   35  C25 UNL     1       8.021  25.256   4.417  1.00  0.00     0.339 C 
BRANCH  35  36
HETATM   36  N5  UNL     1       8.636  26.577   4.452  1.00  0.00    -0.051 N 
ATOM     37  H53 UNL     1       9.214  26.738   3.628  1.00  0.00     0.277 HD
ATOM     38  H52 UNL     1       7.943  27.312   4.309  1.00  0.00     0.277 HD
ATOM     39  H51 UNL     1       9.165  26.728   5.311  1.00  0.00     0.277 HD
ENDBRANCH  35  36
BRANCH  35  40
HETATM   40  O4  UNL     1       8.947  24.368   3.786  1.00  0.00    -0.368 OA
ATOM     41  H4  UNL     1       9.239  24.833   3.011  1.00  0.00     0.212 HD
ENDBRANCH  35  40
ENDBRANCH  27  35
ENDBRANCH  25  27
ENDBRANCH   1  23
BRANCH   1  42
HETATM   42  C26 UNL     1       7.543  28.293   0.453  1.00  0.00     0.018 C 
HETATM   43  C27 UNL     1       7.102  29.261  -0.601  1.00  0.00     0.007 C 
HETATM   44  C28 UNL     1       7.438  30.666  -0.082  1.00  0.00     0.000 C 
HETATM   45  C29 UNL     1       7.370  30.712   1.435  1.00  0.00     0.000 C 
HETATM   46  C30 UNL     1       8.457  29.876   2.066  1.00  0.00     0.000 C 
HETATM   47  C31 UNL     1       8.829  28.808   1.036  1.00  0.00     0.007 C 
ENDBRANCH   1  42
TORSDOF 17
ENDMDL
MODEL 3
REMARK VINA RESULT: -7.829736690      1.441      1.877
REMARK  17 active torsions:
REMARK  status: ('A' for Active; 'I' for Inactive)
REMARK    1  A    between atoms: C2_2  and  C4_4 
REMARK    2  A    between atoms: C4_4  and  C5_5 
REMARK    3  A    between atoms: C5_5  and  N1_6 
REMARK    4  A    between atoms: C5_5  and  C14_18 
REMARK       I    between atoms: N1_6  and  C6_8 
REMARK    5  A    between atoms: C6_8  and  C7_10 
REMARK    6  A    between atoms: C7_10  and  N2_11 
REMARK    7  A    between atoms: N2_11  and  C8_12 
REMARK    8  A    between atoms: N2_11  and  C11_15 
REMARK       I    between atoms: C14_18  and  N3_20 
REMARK    9  A    between atoms: N3_20  and  C15_22 
REMARK   10  A    between atoms: C15_22  and  C16_23 
REMARK   11  A    between atoms: C15_22  and  C26_42 
REMARK       I    between atoms: C16_23  and  N4_25 
REMARK   12  A    between atoms: N4_25  and  C17_27 
REMARK   13  A    between atoms: C17_27  and  C18_28 
REMARK   14  A    between atoms: C17_27  and  C25_35 
REMARK   15  A    between atoms: C18_28  and  C19_29 
REMARK   16  A    between atoms: C25_35  and  N5_36 
REMARK   17  A    between atoms: C25_35  and  O4_40 
ROOT
HETATM    1  C15 UNL     1       7.516  26.689   1.463  1.00  0.00     0.180 C 
ENDROOT
BRANCH   1   2
HETATM    2  N3  UNL     1       8.656  26.064   0.737  1.00  0.00    -0.346 N 
HETATM    3  C14 UNL     1       8.618  25.912  -0.655  1.00  0.00     0.241 C 
HETATM    4  O2  UNL     1       7.554  26.359  -1.213  1.00  0.00    -0.271 OA
ATOM      5  H3  UNL     1       9.472  25.744   1.259  1.00  0.00     0.163 HD
BRANCH   3   6
HETATM    6  C5  UNL     1       9.638  25.298  -1.532  1.00  0.00     0.177 C 
BRANCH   6   7
HETATM    7  C4  UNL     1      10.774  26.168  -1.921  1.00  0.00     0.038 C 
BRANCH   7   8
HETATM    8  C2  UNL     1      11.615  26.717  -0.834  1.00  0.00    -0.020 C 
HETATM    9  C1  UNL     1      13.091  26.727  -1.184  1.00  0.00     0.009 C 
HETATM   10  C3  UNL     1      11.259  28.183  -0.553  1.00  0.00     0.009 C 
ENDBRANCH   7   8
ENDBRANCH   6   7
BRANCH   6  11
HETATM   11  N1  UNL     1       8.882  24.915  -2.750  1.00  0.00    -0.346 N 
HETATM   12  C6  UNL     1       9.046  23.650  -3.339  1.00  0.00     0.246 C 
HETATM   13  O1  UNL     1       9.865  22.873  -2.762  1.00  0.00    -0.272 OA
ATOM     14  H1  UNL     1       8.233  25.582  -3.168  1.00  0.00     0.163 HD
BRANCH  12  15
HETATM   15  C7  UNL     1       8.363  23.146  -4.531  1.00  0.00     0.375 C 
BRANCH  15  16
HETATM   16  N2  UNL     1       9.296  23.183  -5.680  1.00  0.00     0.105 N 
BRANCH  16  17
HETATM   17  C8  UNL     1       9.290  24.536  -6.136  1.00  0.00     0.216 C 
HETATM   18  C9  UNL     1       8.516  24.951  -7.297  1.00  0.00     0.042 C 
HETATM   19  C10 UNL     1      10.725  24.997  -6.259  1.00  0.00     0.042 C 
ENDBRANCH  16  17
BRANCH  16  20
HETATM   20  C11 UNL     1       8.886  22.203  -6.636  1.00  0.00     0.216 C 
HETATM   21  C12 UNL     1       9.948  21.466  -7.388  1.00  0.00     0.042 C 
HETATM   22  C13 UNL     1       7.743  21.312  -6.213  1.00  0.00     0.042 C 
ENDBRANCH  16  20
ENDBRANCH  15  16
ENDBRANCH  12  15
ENDBRANCH   6  11
ENDBRANCH   3   6
ENDBRANCH   1   2
BRANCH   1  23
HETATM   23  C16 UNL     1       7.151  25.701   2.510  1.00  0.00     0.241 C 
HETATM   24  O3  UNL     1       7.894  24.699   2.689  1.00  0.00    -0.271 OA
HETATM   25  N4  UNL     1       6.012  25.804   3.325  1.00  0.00    -0.350 N 
ATOM     26  H4  UNL     1       5.397  26.610   3.211  1.00  0.00     0.163 HD
BRANCH  25  27
HETATM   27  C17 UNL     1       5.670  24.781   4.349  1.00  0.00     0.140 C 
BRANCH  27  28
HETATM   28  C18 UNL     1       4.206  24.861   4.558  1.00  0.00     0.034 C 
BRANCH  28  29
HETATM   29  C19 UNL     1       3.552  24.119   5.636  1.00  0.00    -0.013 C 
HETATM   30  C20 UNL     1       4.070  22.794   6.047  1.00  0.00     0.005 C 
HETATM   31  C21 UNL     1       3.769  22.643   7.549  1.00  0.00     0.000 C 
HETATM   32  C22 UNL     1       2.406  23.252   7.841  1.00  0.00     0.000 C 
HETATM   33  C23 UNL     1       1.516  23.180   6.614  1.00  0.00     0.000 C 
HETATM   34  C24 UNL     1       2.038  24.006   5.462  1.00  0.00     0.005 C 
ENDBRANCH  28  29
ENDBRANCH  27  28
BRANCH  27  35
HETATM   35  C25 UNL     1       6.557  25.019   5.535  1.00  0.00     0.339 C 
BRANCH  35  36
HETATM   36  N5  UNL     1       7.276  26.283   5.431  1.00  0.00    -0.051 N 
ATOM     37  H53 UNL     1       7.137  26.715   4.518  1.00  0.00     0.277 HD
ATOM     38  H52 UNL     1       6.849  27.002   6.015  1.00  0.00     0.277 HD
ATOM     39  H51 UNL     1       8.268  26.175   5.642  1.00  0.00     0.277 HD
ENDBRANCH  35  36
BRANCH  35  40
HETATM   40  O4  UNL     1       7.526  23.969   5.484  1.00  0.00    -0.368 OA
ATOM     41  H4  UNL     1       8.358  24.398   5.645  1.00  0.00     0.212 HD
ENDBRANCH  35  40
ENDBRANCH  27  35
ENDBRANCH  25  27
ENDBRANCH   1  23
BRANCH   1  42
HETATM   42  C26 UNL     1       7.968  28.007   1.950  1.00  0.00     0.018 C 
HETATM   43  C27 UNL     1       7.955  29.123   0.951  1.00  0.00     0.007 C 
HETATM   44  C28 UNL     1       8.733  30.288   1.577  1.00  0.00     0.000 C 
HETATM   45  C29 UNL     1       8.601  30.276   3.090  1.00  0.00     0.000 C 
HETATM   46  C30 UNL     1       9.288  29.076   3.698  1.00  0.00     0.000 C 
HETATM   47  C31 UNL     1       9.318  28.002   2.610  1.00  0.00     0.007 C 
ENDBRANCH   1  42
TORSDOF 17
ENDMDL
MODEL 4
REMARK VINA RESULT: -7.764513792      2.126      9.750
REMARK  17 active torsions:
REMARK  status: ('A' for Active; 'I' for Inactive)
REMARK    1  A    between atoms: C2_2  and  C4_4 
REMARK    2  A    between atoms: C4_4  and  C5_5 
REMARK    3  A    between atoms: C5_5  and  N1_6 
REMARK    4  A    between atoms: C5_5  and  C14_18 
REMARK       I    between atoms: N1_6  and  C6_8 
REMARK    5  A    between atoms: C6_8  and  C7_10 
REMARK    6  A    between atoms: C7_10  and  N2_11 
REMARK    7  A    between atoms: N2_11  and  C8_12 
REMARK    8  A    between atoms: N2_11  and  C11_15 
REMARK       I    between atoms: C14_18  and  N3_20 
REMARK    9  A    between atoms: N3_20  and  C15_22 
REMARK   10  A    between atoms: C15_22  and  C16_23 
REMARK   11  A    between atoms: C15_22  and  C26_42 
REMARK       I    between atoms: C16_23  and  N4_25 
REMARK   12  A    between atoms: N4_25  and  C17_27 
REMARK   13  A    between atoms: C17_27  and  C18_28 
REMARK   14  A    between atoms: C17_27  and  C25_35 
REMARK   15  A    between atoms: C18_28  and  C19_29 
REMARK   16  A    between atoms: C25_35  and  N5_36 
REMARK   17  A    between atoms: C25_35  and  O4_40 
ROOT
HETATM    1  C15 UNL     1       9.720  23.303  -3.836  1.00  0.00     0.180 C 
ENDROOT
BRANCH   1   2
HETATM    2  N3  UNL     1       9.272  24.558  -3.174  1.00  0.00    -0.346 N 
HETATM    3  C14 UNL     1       8.930  24.566  -1.815  1.00  0.00     0.241 C 
HETATM    4  O2  UNL     1       9.051  23.433  -1.228  1.00  0.00    -0.271 OA
ATOM      5  H3  UNL     1       9.214  25.421  -3.714  1.00  0.00     0.163 HD
BRANCH   3   6
HETATM    6  C5  UNL     1       8.446  25.703  -1.005  1.00  0.00     0.177 C 
BRANCH   6   7
HETATM    7  C4  UNL     1       9.110  27.006  -1.246  1.00  0.00     0.038 C 
BRANCH   7   8
HETATM    8  C2  UNL     1      10.319  27.313  -0.450  1.00  0.00    -0.020 C 
HETATM    9  C1  UNL     1      11.547  27.537  -1.312  1.00  0.00     0.009 C 
HETATM   10  C3  UNL     1      10.139  28.618   0.339  1.00  0.00     0.009 C 
ENDBRANCH   7   8
ENDBRANCH   6   7
BRANCH   6  11
HETATM   11  N1  UNL     1       8.701  25.282   0.395  1.00  0.00    -0.346 N 
HETATM   12  C6  UNL     1       7.716  25.421   1.387  1.00  0.00     0.246 C 
HETATM   13  O1  UNL     1       6.613  25.917   1.006  1.00  0.00    -0.272 OA
ATOM     14  H1  UNL     1       9.609  24.884   0.642  1.00  0.00     0.163 HD
BRANCH  12  15
HETATM   15  C7  UNL     1       7.834  25.043   2.796  1.00  0.00     0.375 C 
BRANCH  15  16
HETATM   16  N2  UNL     1       6.868  25.830   3.595  1.00  0.00     0.105 N 
BRANCH  16  17
HETATM   17  C8  UNL     1       7.658  26.676   4.430  1.00  0.00     0.216 C 
HETATM   18  C9  UNL     1       7.176  27.973   4.883  1.00  0.00     0.042 C 
HETATM   19  C10 UNL     1       9.029  26.806   3.805  1.00  0.00     0.042 C 
ENDBRANCH  16  17
BRANCH  16  20
HETATM   20  C11 UNL     1       5.992  24.927   4.275  1.00  0.00     0.216 C 
HETATM   21  C12 UNL     1       6.387  24.457   5.638  1.00  0.00     0.042 C 
HETATM   22  C13 UNL     1       4.519  25.237   4.166  1.00  0.00     0.042 C 
ENDBRANCH  16  20
ENDBRANCH  15  16
ENDBRANCH  12  15
ENDBRANCH   6  11
ENDBRANCH   3   6
ENDBRANCH   1   2
BRANCH   1  23
HETATM   23  C16 UNL     1       8.856  23.184  -5.039  1.00  0.00     0.241 C 
HETATM   24  O3  UNL     1       8.605  24.219  -5.714  1.00  0.00    -0.271 OA
HETATM   25  N4  UNL     1       8.284  21.979  -5.481  1.00  0.00    -0.350 N 
ATOM     26  H4  UNL     1       8.478  21.124  -4.961  1.00  0.00     0.163 HD
BRANCH  25  27
HETATM   27  C17 UNL     1       7.406  21.907  -6.679  1.00  0.00     0.140 C 
BRANCH  27  28
HETATM   28  C18 UNL     1       6.109  22.506  -6.292  1.00  0.00     0.034 C 
BRANCH  28  29
HETATM   29  C19 UNL     1       5.485  23.552  -7.102  1.00  0.00    -0.013 C 
HETATM   30  C20 UNL     1       6.141  24.023  -8.343  1.00  0.00     0.005 C 
HETATM   31  C21 UNL     1       5.021  24.450  -9.307  1.00  0.00     0.000 C 
HETATM   32  C22 UNL     1       3.918  25.130  -8.511  1.00  0.00     0.000 C 
HETATM   33  C23 UNL     1       4.487  25.780  -7.262  1.00  0.00     0.000 C 
HETATM   34  C24 UNL     1       5.065  24.777  -6.291  1.00  0.00     0.005 C 
ENDBRANCH  28  29
ENDBRANCH  27  28
BRANCH  27  35
HETATM   35  C25 UNL     1       7.404  20.482  -7.148  1.00  0.00     0.339 C 
BRANCH  35  36
HETATM   36  N5  UNL     1       6.090  19.865  -7.008  1.00  0.00    -0.051 N 
ATOM     37  H53 UNL     1       5.818  19.790  -6.028  1.00  0.00     0.277 HD
ATOM     38  H52 UNL     1       5.351  20.490  -7.332  1.00  0.00     0.277 HD
ATOM     39  H51 UNL     1       6.043  18.961  -7.476  1.00  0.00     0.277 HD
ENDBRANCH  35  36
BRANCH  35  40
HETATM   40  O4  UNL     1       8.292  19.803  -6.257  1.00  0.00    -0.368 OA
ATOM     41  H4  UNL     1       8.483  18.978  -6.686  1.00  0.00     0.212 HD
ENDBRANCH  35  40
ENDBRANCH  27  35
ENDBRANCH  25  27
ENDBRANCH   1  23
BRANCH   1  42
HETATM   42  C26 UNL     1      11.168  23.427  -4.093  1.00  0.00     0.018 C 
HETATM   43  C27 UNL     1      11.786  24.753  -3.775  1.00  0.00     0.007 C 
HETATM   44  C28 UNL     1      13.190  24.749  -4.392  1.00  0.00     0.000 C 
HETATM   45  C29 UNL     1      13.763  23.342  -4.424  1.00  0.00     0.000 C 
HETATM   46  C30 UNL     1      12.998  22.452  -5.375  1.00  0.00     0.000 C 
HETATM   47  C31 UNL     1      11.594  23.048  -5.483  1.00  0.00     0.007 C 
ENDBRANCH   1  42
TORSDOF 17
ENDMDL
MODEL 5
REMARK VINA RESULT: -7.753303542      3.521      9.737
REMARK  17 active torsions:
REMARK  status: ('A' for Active; 'I' for Inactive)
REMARK    1  A    between atoms: C2_2  and  C4_4 
REMARK    2  A    between atoms: C4_4  and  C5_5 
REMARK    3  A    between atoms: C5_5  and  N1_6 
REMARK    4  A    between atoms: C5_5  and  C14_18 
REMARK       I    between atoms: N1_6  and  C6_8 
REMARK    5  A    between atoms: C6_8  and  C7_10 
REMARK    6  A    between atoms: C7_10  and  N2_11 
REMARK    7  A    between atoms: N2_11  and  C8_12 
REMARK    8  A    between atoms: N2_11  and  C11_15 
REMARK       I    between atoms: C14_18  and  N3_20 
REMARK    9  A    between atoms: N3_20  and  C15_22 
REMARK   10  A    between atoms: C15_22  and  C16_23 
REMARK   11  A    between atoms: C15_22  and  C26_42 
REMARK       I    between atoms: C16_23  and  N4_25 
REMARK   12  A    between atoms: N4_25  and  C17_27 
REMARK   13  A    between atoms: C17_27  and  C18_28 
REMARK   14  A    between atoms: C17_27  and  C25_35 
REMARK   15  A    between atoms: C18_28  and  C19_29 
REMARK   16  A    between atoms: C25_35  and  N5_36 
REMARK   17  A    between atoms: C25_35  and  O4_40 
ROOT
HETATM    1  C15 UNL     1       7.197  26.562   3.954  1.00  0.00     0.180 C 
ENDROOT
BRANCH   1   2
HETATM    2  N3  UNL     1       8.047  27.318   4.914  1.00  0.00    -0.346 N 
HETATM    3  C14 UNL     1       7.634  28.562   5.408  1.00  0.00     0.241 C 
HETATM    4  O2  UNL     1       6.493  28.956   4.976  1.00  0.00    -0.271 OA
ATOM      5  H3  UNL     1       8.939  26.925   5.215  1.00  0.00     0.163 HD
BRANCH   3   6
HETATM    6  C5  UNL     1       8.352  29.455   6.341  1.00  0.00     0.177 C 
BRANCH   6   7
HETATM    7  C4  UNL     1       7.740  29.629   7.680  1.00  0.00     0.038 C 
BRANCH   7   8
HETATM    8  C2  UNL     1       8.642  29.585   8.853  1.00  0.00    -0.020 C 
HETATM    9  C1  UNL     1       9.146  30.958   9.256  1.00  0.00     0.009 C 
HETATM   10  C3  UNL     1       7.908  29.047  10.089  1.00  0.00     0.009 C 
ENDBRANCH   7   8
ENDBRANCH   6   7
BRANCH   6  11
HETATM   11  N1  UNL     1       8.370  30.765   5.643  1.00  0.00    -0.346 N 
HETATM   12  C6  UNL     1       9.014  30.919   4.404  1.00  0.00     0.246 C 
HETATM   13  O1  UNL     1       9.562  29.878   3.932  1.00  0.00    -0.272 OA
ATOM     14  H1  UNL     1       7.907  31.568   6.072  1.00  0.00     0.163 HD
BRANCH  12  15
HETATM   15  C7  UNL     1       9.102  32.146   3.612  1.00  0.00     0.375 C 
BRANCH  15  16
HETATM   16  N2  UNL     1       8.099  32.097   2.524  1.00  0.00     0.105 N 
BRANCH  16  17
HETATM   17  C8  UNL     1       8.605  32.950   1.496  1.00  0.00     0.216 C 
HETATM   18  C9  UNL     1       8.398  32.656   0.086  1.00  0.00     0.042 C 
HETATM   19  C10 UNL     1      10.068  33.210   1.778  1.00  0.00     0.042 C 
ENDBRANCH  16  17
BRANCH  16  20
HETATM   20  C11 UNL     1       6.824  32.457   3.060  1.00  0.00     0.216 C 
HETATM   21  C12 UNL     1       6.523  33.910   3.244  1.00  0.00     0.042 C 
HETATM   22  C13 UNL     1       5.646  31.678   2.528  1.00  0.00     0.042 C 
ENDBRANCH  16  20
ENDBRANCH  15  16
ENDBRANCH  12  15
ENDBRANCH   6  11
ENDBRANCH   3   6
ENDBRANCH   1   2
BRANCH   1  23
HETATM   23  C16 UNL     1       8.089  26.289   2.798  1.00  0.00     0.241 C 
HETATM   24  O3  UNL     1       9.336  26.383   2.953  1.00  0.00    -0.271 OA
HETATM   25  N4  UNL     1       7.631  25.933   1.518  1.00  0.00    -0.350 N 
ATOM     26  H4  UNL     1       6.627  25.838   1.364  1.00  0.00     0.163 HD
BRANCH  25  27
HETATM   27  C17 UNL     1       8.557  25.688   0.380  1.00  0.00     0.140 C 
BRANCH  27  28
HETATM   28  C18 UNL     1       8.607  26.943  -0.404  1.00  0.00     0.034 C 
BRANCH  28  29
HETATM   29  C19 UNL     1       9.774  27.823  -0.354  1.00  0.00    -0.013 C 
HETATM   30  C20 UNL     1      11.107  27.273  -0.017  1.00  0.00     0.005 C 
HETATM   31  C21 UNL     1      12.145  28.129  -0.764  1.00  0.00     0.000 C 
HETATM   32  C22 UNL     1      11.694  29.581  -0.741  1.00  0.00     0.000 C 
HETATM   33  C23 UNL     1      10.845  29.856   0.486  1.00  0.00     0.000 C 
HETATM   34  C24 UNL     1       9.550  29.079   0.488  1.00  0.00     0.005 C 
ENDBRANCH  28  29
ENDBRANCH  27  28
BRANCH  27  35
HETATM   35  C25 UNL     1       8.089  24.447  -0.320  1.00  0.00     0.339 C 
BRANCH  35  36
HETATM   36  N5  UNL     1       9.190  23.532  -0.600  1.00  0.00    -0.051 N 
ATOM     37  H53 UNL     1       9.613  23.728  -1.507  1.00  0.00     0.277 HD
ATOM     38  H52 UNL     1       9.993  23.726  -0.003  1.00  0.00     0.277 HD
ATOM     39  H51 UNL     1       8.901  22.557  -0.530  1.00  0.00     0.277 HD
ENDBRANCH  35  36
BRANCH  35  40
HETATM   40  O4  UNL     1       7.582  24.904  -1.576  1.00  0.00    -0.368 OA
ATOM     41  H4  UNL     1       7.187  24.137  -1.972  1.00  0.00     0.212 HD
ENDBRANCH  35  40
ENDBRANCH  27  35
ENDBRANCH  25  27
ENDBRANCH   1  23
BRANCH   1  42
HETATM   42  C26 UNL     1       6.675  25.376   4.659  1.00  0.00     0.018 C 
HETATM   43  C27 UNL     1       7.548  24.159   4.645  1.00  0.00     0.007 C 
HETATM   44  C28 UNL     1       6.693  22.993   5.157  1.00  0.00     0.000 C 
HETATM   45  C29 UNL     1       5.647  23.482   6.144  1.00  0.00     0.000 C 
HETATM   46  C30 UNL     1       4.615  24.356   5.472  1.00  0.00     0.000 C 
HETATM   47  C31 UNL     1       5.296  24.952   4.239  1.00  0.00     0.007 C 
ENDBRANCH   1  42
TORSDOF 17
ENDMDL
