MODEL 1
REMARK VINA RESULT: -7.714681800      0.000      0.000
REMARK  18 active torsions:
REMARK  status: ('A' for Active; 'I' for Inactive)
REMARK    1  A    between atoms: C2_2  and  C3_3 
REMARK    2  A    between atoms: C10_10  and  C11_11 
REMARK    3  A    between atoms: C11_11  and  N1_12 
REMARK    4  A    between atoms: C14_15  and  C15_16 
REMARK    5  A    between atoms: C15_16  and  N2_17 
REMARK       I    between atoms: N2_17  and  C16_19 
REMARK    6  A    between atoms: C16_19  and  C17_21 
REMARK    7  A    between atoms: C17_21  and  C18_22 
REMARK    8  A    between atoms: C17_21  and  N4_29 
REMARK    9  A    between atoms: C18_22  and  N3_23 
REMARK   10  A    between atoms: N3_23  and  C19_25 
REMARK   11  A    between atoms: N4_29  and  C23_31 
REMARK   12  A    between atoms: C23_31  and  C24_32 
REMARK   13  A    between atoms: C24_32  and  C26_34 
REMARK   14  A    between atoms: C28_38  and  C29_39 
REMARK   15  A    between atoms: C29_39  and  C30_40 
REMARK   16  A    between atoms: C30_40  and  C31_41 
REMARK   17  A    between atoms: C31_41  and  C32_42 
REMARK   18  A    between atoms: C32_42  and  N6_43 
ROOT
HETATM    1  N1  UNL     1      10.866  24.740  -4.025  1.00  0.00    -0.325 N 
HETATM    2  C12 UNL     1      10.351  23.568  -3.355  1.00  0.00     0.133 C 
HETATM    3  C13 UNL     1       9.010  23.934  -2.728  1.00  0.00     0.046 C 
HETATM    4  C14 UNL     1       9.273  24.769  -1.467  1.00  0.00     0.096 C 
HETATM    5  N5  UNL     1       9.458  26.120  -1.799  1.00  0.00    -0.403 N 
ATOM      6  H5  UNL     1       8.673  26.771  -1.838  1.00  0.00     0.154 HD
HETATM    7  C28 UNL     1      10.814  26.549  -2.085  1.00  0.00     0.170 C 
HETATM    8  C33 UNL     1      11.158  26.021  -3.418  1.00  0.00     0.246 C 
HETATM    9  O2  UNL     1      11.819  26.811  -4.175  1.00  0.00    -0.271 OA
ENDROOT
BRANCH   4  10
HETATM   10  C15 UNL     1       8.098  24.560  -0.559  1.00  0.00     0.147 C 
BRANCH  10  11
HETATM   11  N2  UNL     1       8.391  24.795   0.854  1.00  0.00    -0.357 N 
HETATM   12  C16 UNL     1       7.406  25.512   1.581  1.00  0.00     0.245 C 
HETATM   13  O1  UNL     1       6.354  25.880   0.954  1.00  0.00    -0.271 OA
ATOM     14  H2  UNL     1       9.251  24.464   1.291  1.00  0.00     0.162 HD
BRANCH  12  15
HETATM   15  C17 UNL     1       7.555  25.844   3.002  1.00  0.00     0.208 C 
BRANCH  15  16
HETATM   16  C18 UNL     1       7.941  27.252   3.322  1.00  0.00     0.090 C 
BRANCH  16  17
HETATM   17  N3  UNL     1       7.884  28.276   2.398  1.00  0.00    -0.392 N 
ATOM     18  H3  UNL     1       6.980  28.722   2.248  1.00  0.00     0.159 HD
BRANCH  17  19
HETATM   19  C19 UNL     1       8.962  28.751   1.653  1.00  0.00     0.018 C 
HETATM   20  C20 UNL     1       8.770  28.833   0.193  1.00  0.00     0.037 C 
HETATM   21  C21 UNL     1       9.308  30.187   2.129  1.00  0.00     0.037 C 
HETATM   22  C22 UNL     1      10.257  27.974   1.901  1.00  0.00     0.037 C 
ENDBRANCH  17  19
ENDBRANCH  16  17
ENDBRANCH  15  16
BRANCH  15  23
HETATM   23  N4  UNL     1       6.398  25.433   3.745  1.00  0.00    -0.405 N 
ATOM     24  H4  UNL     1       5.504  25.909   3.626  1.00  0.00     0.154 HD
BRANCH  23  25
HETATM   25  C23 UNL     1       6.529  24.380   4.621  1.00  0.00     0.119 C 
BRANCH  25  26
HETATM   26  C24 UNL     1       5.373  24.381   5.681  1.00  0.00    -0.002 C 
HETATM   27  C25 UNL     1       4.132  24.623   4.844  1.00  0.00     0.011 C 
BRANCH  26  28
HETATM   28  C26 UNL     1       5.402  23.007   6.256  1.00  0.00     0.001 C 
HETATM   29  C27 UNL     1       4.111  22.577   6.868  1.00  0.00     0.005 C 
ENDBRANCH  26  28
ENDBRANCH  25  26
ENDBRANCH  23  25
ENDBRANCH  15  23
ENDBRANCH  12  15
ENDBRANCH  10  11
ENDBRANCH   4  10
BRANCH   7  30
HETATM   30  C29 UNL     1      11.809  26.185  -1.042  1.00  0.00     0.034 C 
BRANCH  30  31
HETATM   31  C30 UNL     1      12.860  27.239  -0.825  1.00  0.00     0.004 C 
BRANCH  31  32
HETATM   32  C31 UNL     1      12.308  28.608  -1.117  1.00  0.00     0.027 C 
BRANCH  32  33
HETATM   33  C32 UNL     1      13.281  29.422  -1.965  1.00  0.00     0.229 C 
BRANCH  33  34
HETATM   34  N6  UNL     1      13.985  28.515  -2.863  1.00  0.00    -0.079 N 
ATOM     35  H63 UNL     1      13.958  27.548  -2.541  1.00  0.00     0.274 HD
ATOM     36  H62 UNL     1      13.495  28.382  -3.748  1.00  0.00     0.274 HD
ATOM     37  H61 UNL     1      14.937  28.858  -2.990  1.00  0.00     0.274 HD
ENDBRANCH  33  34
ENDBRANCH  32  33
ENDBRANCH  31  32
ENDBRANCH  30  31
ENDBRANCH   7  30
BRANCH   1  38
HETATM   38  C11 UNL     1      11.090  24.749  -5.414  1.00  0.00     0.106 C 
BRANCH  38  39
HETATM   39  C10 UNL     1      10.953  23.655  -6.332  1.00  0.00    -0.008 A 
HETATM   40  C3  UNL     1      12.146  22.878  -6.473  1.00  0.00    -0.046 A 
HETATM   41  C4  UNL     1      12.168  21.842  -7.373  1.00  0.00     0.014 A 
HETATM   42  C5  UNL     1      11.071  21.540  -8.136  1.00  0.00    -0.061 A 
HETATM   43  C6  UNL     1      11.136  20.408  -9.099  1.00  0.00     0.048 C 
HETATM   44  C7  UNL     1       9.946  22.298  -7.980  1.00  0.00     0.014 A 
HETATM   45  C8  UNL     1       9.841  23.379  -7.080  1.00  0.00    -0.049 A 
HETATM   46  C9  UNL     1       8.566  24.131  -7.069  1.00  0.00     0.049 C 
BRANCH  40  47
HETATM   47  C2  UNL     1      13.344  23.157  -5.624  1.00  0.00     0.035 C 
HETATM   48  C1  UNL     1      13.526  22.138  -4.513  1.00  0.00     0.010 C 
ENDBRANCH  40  47
ENDBRANCH  38  39
ENDBRANCH   1  38
TORSDOF 18
ENDMDL
MODEL 2
REMARK VINA RESULT: -7.435268790      0.513      1.914
REMARK  18 active torsions:
REMARK  status: ('A' for Active; 'I' for Inactive)
REMARK    1  A    between atoms: C2_2  and  C3_3 
REMARK    2  A    between atoms: C10_10  and  C11_11 
REMARK    3  A    between atoms: C11_11  and  N1_12 
REMARK    4  A    between atoms: C14_15  and  C15_16 
REMARK    5  A    between atoms: C15_16  and  N2_17 
REMARK       I    between atoms: N2_17  and  C16_19 
REMARK    6  A    between atoms: C16_19  and  C17_21 
REMARK    7  A    between atoms: C17_21  and  C18_22 
REMARK    8  A    between atoms: C17_21  and  N4_29 
REMARK    9  A    between atoms: C18_22  and  N3_23 
REMARK   10  A    between atoms: N3_23  and  C19_25 
REMARK   11  A    between atoms: N4_29  and  C23_31 
REMARK   12  A    between atoms: C23_31  and  C24_32 
REMARK   13  A    between atoms: C24_32  and  C26_34 
REMARK   14  A    between atoms: C28_38  and  C29_39 
REMARK   15  A    between atoms: C29_39  and  C30_40 
REMARK   16  A    between atoms: C30_40  and  C31_41 
REMARK   17  A    between atoms: C31_41  and  C32_42 
REMARK   18  A    between atoms: C32_42  and  N6_43 
ROOT
HETATM    1  N1  UNL     1      10.864  24.834  -4.085  1.00  0.00    -0.325 N 
HETATM    2  C12 UNL     1      10.549  23.609  -3.387  1.00  0.00     0.133 C 
HETATM    3  C13 UNL     1       9.200  23.791  -2.701  1.00  0.00     0.046 C 
HETATM    4  C14 UNL     1       9.399  24.669  -1.457  1.00  0.00     0.096 C 
HETATM    5  N5  UNL     1       9.378  26.028  -1.803  1.00  0.00    -0.403 N 
ATOM      6  H5  UNL     1       8.509  26.563  -1.809  1.00  0.00     0.154 HD
HETATM    7  C28 UNL     1      10.646  26.639  -2.153  1.00  0.00     0.170 C 
HETATM    8  C33 UNL     1      11.001  26.150  -3.498  1.00  0.00     0.246 C 
HETATM    9  O2  UNL     1      11.511  27.017  -4.288  1.00  0.00    -0.271 OA
ENDROOT
BRANCH   4  10
HETATM   10  C15 UNL     1       8.307  24.307  -0.495  1.00  0.00     0.147 C 
BRANCH  10  11
HETATM   11  N2  UNL     1       8.597  24.663   0.893  1.00  0.00    -0.357 N 
HETATM   12  C16 UNL     1       7.605  25.430   1.557  1.00  0.00     0.245 C 
HETATM   13  O1  UNL     1       6.551  25.734   0.902  1.00  0.00    -0.271 OA
ATOM     14  H2  UNL     1       9.460  24.378   1.356  1.00  0.00     0.162 HD
BRANCH  12  15
HETATM   15  C17 UNL     1       7.751  25.882   2.945  1.00  0.00     0.208 C 
BRANCH  15  16
HETATM   16  C18 UNL     1       8.111  27.318   3.145  1.00  0.00     0.090 C 
BRANCH  16  17
HETATM   17  N3  UNL     1       7.797  28.307   2.235  1.00  0.00    -0.392 N 
ATOM     18  H3  UNL     1       6.808  28.513   2.090  1.00  0.00     0.159 HD
BRANCH  17  19
HETATM   19  C19 UNL     1       8.718  29.048   1.497  1.00  0.00     0.018 C 
HETATM   20  C20 UNL     1       8.855  30.472   1.853  1.00  0.00     0.037 C 
HETATM   21  C21 UNL     1      10.125  28.417   1.671  1.00  0.00     0.037 C 
HETATM   22  C22 UNL     1       8.481  28.974  -0.013  1.00  0.00     0.037 C 
ENDBRANCH  17  19
ENDBRANCH  16  17
ENDBRANCH  15  16
BRANCH  15  23
HETATM   23  N4  UNL     1       6.603  25.513   3.723  1.00  0.00    -0.405 N 
ATOM     24  H4  UNL     1       5.692  25.938   3.547  1.00  0.00     0.154 HD
BRANCH  23  25
HETATM   25  C23 UNL     1       6.764  24.570   4.713  1.00  0.00     0.119 C 
BRANCH  25  26
HETATM   26  C24 UNL     1       5.475  24.456   5.599  1.00  0.00    -0.002 C 
HETATM   27  C25 UNL     1       4.358  24.815   4.638  1.00  0.00     0.011 C 
BRANCH  26  28
HETATM   28  C26 UNL     1       5.431  23.022   5.999  1.00  0.00     0.001 C 
HETATM   29  C27 UNL     1       4.210  22.643   6.768  1.00  0.00     0.005 C 
ENDBRANCH  26  28
ENDBRANCH  25  26
ENDBRANCH  23  25
ENDBRANCH  15  23
ENDBRANCH  12  15
ENDBRANCH  10  11
ENDBRANCH   4  10
BRANCH   7  30
HETATM   30  C29 UNL     1      11.729  26.429  -1.155  1.00  0.00     0.034 C 
BRANCH  30  31
HETATM   31  C30 UNL     1      12.634  27.619  -0.996  1.00  0.00     0.004 C 
BRANCH  31  32
HETATM   32  C31 UNL     1      14.047  27.266  -1.373  1.00  0.00     0.027 C 
BRANCH  32  33
HETATM   33  C32 UNL     1      14.670  28.351  -2.246  1.00  0.00     0.229 C 
BRANCH  33  34
HETATM   34  N6  UNL     1      13.983  28.364  -3.531  1.00  0.00    -0.079 N 
ATOM     35  H63 UNL     1      14.611  28.176  -4.312  1.00  0.00     0.274 HD
ATOM     36  H62 UNL     1      13.364  27.562  -3.652  1.00  0.00     0.274 HD
ATOM     37  H61 UNL     1      13.493  29.254  -3.629  1.00  0.00     0.274 HD
ENDBRANCH  33  34
ENDBRANCH  32  33
ENDBRANCH  31  32
ENDBRANCH  30  31
ENDBRANCH   7  30
BRANCH   1  38
HETATM   38  C11 UNL     1      11.022  24.860  -5.483  1.00  0.00     0.106 C 
BRANCH  38  39
HETATM   39  C10 UNL     1      11.277  23.751  -6.358  1.00  0.00    -0.008 A 
HETATM   40  C3  UNL     1      10.216  23.501  -7.283  1.00  0.00    -0.046 A 
HETATM   41  C4  UNL     1      10.306  22.424  -8.131  1.00  0.00     0.014 A 
HETATM   42  C5  UNL     1      11.392  21.590  -8.105  1.00  0.00    -0.061 A 
HETATM   43  C6  UNL     1      11.451  20.435  -9.042  1.00  0.00     0.048 C 
HETATM   44  C7  UNL     1      12.390  21.853  -7.212  1.00  0.00     0.014 A 
HETATM   45  C8  UNL     1      12.375  22.935  -6.308  1.00  0.00    -0.049 A 
HETATM   46  C9  UNL     1      13.514  23.051  -5.369  1.00  0.00     0.049 C 
BRANCH  40  47
HETATM   47  C2  UNL     1       9.039  24.419  -7.362  1.00  0.00     0.035 C 
HETATM   48  C1  UNL     1       7.856  23.794  -8.081  1.00  0.00     0.010 C 
ENDBRANCH  40  47
ENDBRANCH  38  39
ENDBRANCH   1  38
TORSDOF 18
ENDMDL
MODEL 3
REMARK VINA RESULT: -7.295116145      2.583     10.895
REMARK  18 active torsions:
REMARK  status: ('A' for Active; 'I' for Inactive)
REMARK    1  A    between atoms: C2_2  and  C3_3 
REMARK    2  A    between atoms: C10_10  and  C11_11 
REMARK    3  A    between atoms: C11_11  and  N1_12 
REMARK    4  A    between atoms: C14_15  and  C15_16 
REMARK    5  A    between atoms: C15_16  and  N2_17 
REMARK       I    between atoms: N2_17  and  C16_19 
REMARK    6  A    between atoms: C16_19  and  C17_21 
REMARK    7  A    between atoms: C17_21  and  C18_22 
REMARK    8  A    between atoms: C17_21  and  N4_29 
REMARK    9  A    between atoms: C18_22  and  N3_23 
REMARK   10  A    between atoms: N3_23  and  C19_25 
REMARK   11  A    between atoms: N4_29  and  C23_31 
REMARK   12  A    between atoms: C23_31  and  C24_32 
REMARK   13  A    between atoms: C24_32  and  C26_34 
REMARK   14  A    between atoms: C28_38  and  C29_39 
REMARK   15  A    between atoms: C29_39  and  C30_40 
REMARK   16  A    between atoms: C30_40  and  C31_41 
REMARK   17  A    between atoms: C31_41  and  C32_42 
REMARK   18  A    between atoms: C32_42  and  N6_43 
ROOT
HETATM    1  N1  UNL     1       8.588  27.267   4.281  1.00  0.00    -0.325 N 
HETATM    2  C12 UNL     1       9.500  26.613   3.370  1.00  0.00     0.133 C 
HETATM    3  C13 UNL     1       8.836  26.556   1.998  1.00  0.00     0.046 C 
HETATM    4  C14 UNL     1       7.768  25.453   2.018  1.00  0.00     0.096 C 
HETATM    5  N5  UNL     1       6.565  25.940   2.552  1.00  0.00    -0.403 N 
ATOM      6  H5  UNL     1       5.850  26.360   1.958  1.00  0.00     0.154 HD
HETATM    7  C28 UNL     1       6.385  25.820   3.986  1.00  0.00     0.170 C 
HETATM    8  C33 UNL     1       7.247  26.839   4.614  1.00  0.00     0.246 C 
HETATM    9  O2  UNL     1       6.742  27.455   5.614  1.00  0.00    -0.271 OA
ENDROOT
BRANCH   4  10
HETATM   10  C15 UNL     1       7.614  24.976   0.605  1.00  0.00     0.147 C 
BRANCH  10  11
HETATM   11  N2  UNL     1       8.875  24.876  -0.128  1.00  0.00    -0.357 N 
HETATM   12  C16 UNL     1       8.766  24.765  -1.538  1.00  0.00     0.245 C 
HETATM   13  O1  UNL     1       7.593  24.771  -2.047  1.00  0.00    -0.271 OA
ATOM     14  H2  UNL     1       9.778  24.885   0.346  1.00  0.00     0.162 HD
BRANCH  12  15
HETATM   15  C17 UNL     1       9.935  24.639  -2.415  1.00  0.00     0.208 C 
BRANCH  15  16
HETATM   16  C18 UNL     1       9.998  23.415  -3.271  1.00  0.00     0.090 C 
BRANCH  16  17
HETATM   17  N3  UNL     1       8.898  22.891  -3.918  1.00  0.00    -0.392 N 
ATOM     18  H3  UNL     1       8.287  22.277  -3.380  1.00  0.00     0.159 HD
BRANCH  17  19
HETATM   19  C19 UNL     1       8.552  23.133  -5.246  1.00  0.00     0.018 C 
HETATM   20  C20 UNL     1       9.634  23.590  -6.137  1.00  0.00     0.037 C 
HETATM   21  C21 UNL     1       7.998  21.823  -5.868  1.00  0.00     0.037 C 
HETATM   22  C22 UNL     1       7.388  24.116  -5.398  1.00  0.00     0.037 C 
ENDBRANCH  17  19
ENDBRANCH  16  17
ENDBRANCH  15  16
BRANCH  15  23
HETATM   23  N4  UNL     1      10.121  25.833  -3.189  1.00  0.00    -0.405 N 
ATOM     24  H4  UNL     1       9.701  25.929  -4.114  1.00  0.00     0.154 HD
BRANCH  23  25
HETATM   25  C23 UNL     1      10.882  26.845  -2.648  1.00  0.00     0.119 C 
BRANCH  25  26
HETATM   26  C24 UNL     1      12.213  26.283  -2.037  1.00  0.00    -0.002 C 
HETATM   27  C25 UNL     1      13.174  26.307  -3.209  1.00  0.00     0.011 C 
BRANCH  26  28
HETATM   28  C26 UNL     1      12.582  27.277  -0.989  1.00  0.00     0.001 C 
HETATM   29  C27 UNL     1      11.414  27.857  -0.265  1.00  0.00     0.005 C 
ENDBRANCH  26  28
ENDBRANCH  25  26
ENDBRANCH  23  25
ENDBRANCH  15  23
ENDBRANCH  12  15
ENDBRANCH  10  11
ENDBRANCH   4  10
BRANCH   7  30
HETATM   30  C29 UNL     1       6.614  24.454   4.526  1.00  0.00     0.034 C 
BRANCH  30  31
HETATM   31  C30 UNL     1       5.461  23.930   5.336  1.00  0.00     0.004 C 
BRANCH  31  32
HETATM   32  C31 UNL     1       4.173  24.581   4.911  1.00  0.00     0.027 C 
BRANCH  32  33
HETATM   33  C32 UNL     1       2.978  23.945   5.616  1.00  0.00     0.229 C 
BRANCH  33  34
HETATM   34  N6  UNL     1       1.755  24.448   5.004  1.00  0.00    -0.079 N 
ATOM     35  H63 UNL     1       0.926  24.241   5.559  1.00  0.00     0.274 HD
ATOM     36  H62 UNL     1       1.693  25.466   5.034  1.00  0.00     0.274 HD
ATOM     37  H61 UNL     1       1.692  24.081   4.055  1.00  0.00     0.274 HD
ENDBRANCH  33  34
ENDBRANCH  32  33
ENDBRANCH  31  32
ENDBRANCH  30  31
ENDBRANCH   7  30
BRANCH   1  38
HETATM   38  C11 UNL     1       8.931  28.475   4.916  1.00  0.00     0.106 C 
BRANCH  38  39
HETATM   39  C10 UNL     1       8.365  29.775   4.694  1.00  0.00    -0.008 A 
HETATM   40  C3  UNL     1       8.058  30.476   5.902  1.00  0.00    -0.046 A 
HETATM   41  C4  UNL     1       7.448  31.703   5.828  1.00  0.00     0.014 A 
HETATM   42  C5  UNL     1       7.131  32.267   4.620  1.00  0.00    -0.061 A 
HETATM   43  C6  UNL     1       6.472  33.601   4.584  1.00  0.00     0.048 C 
HETATM   44  C7  UNL     1       7.437  31.576   3.483  1.00  0.00     0.014 A 
HETATM   45  C8  UNL     1       8.061  30.311   3.472  1.00  0.00    -0.049 A 
HETATM   46  C9  UNL     1       8.278  29.674   2.154  1.00  0.00     0.049 C 
BRANCH  40  47
HETATM   47  C2  UNL     1       8.429  29.904   7.232  1.00  0.00     0.035 C 
HETATM   48  C1  UNL     1       7.255  29.844   8.193  1.00  0.00     0.010 C 
ENDBRANCH  40  47
ENDBRANCH  38  39
ENDBRANCH   1  38
TORSDOF 18
ENDMDL
MODEL 4
REMARK VINA RESULT: -7.231886152      1.936      5.332
REMARK  18 active torsions:
REMARK  status: ('A' for Active; 'I' for Inactive)
REMARK    1  A    between atoms: C2_2  and  C3_3 
REMARK    2  A    between atoms: C10_10  and  C11_11 
REMARK    3  A    between atoms: C11_11  and  N1_12 
REMARK    4  A    between atoms: C14_15  and  C15_16 
REMARK    5  A    between atoms: C15_16  and  N2_17 
REMARK       I    between atoms: N2_17  and  C16_19 
REMARK    6  A    between atoms: C16_19  and  C17_21 
REMARK    7  A    between atoms: C17_21  and  C18_22 
REMARK    8  A    between atoms: C17_21  and  N4_29 
REMARK    9  A    between atoms: C18_22  and  N3_23 
REMARK   10  A    between atoms: N3_23  and  C19_25 
REMARK   11  A    between atoms: N4_29  and  C23_31 
REMARK   12  A    between atoms: C23_31  and  C24_32 
REMARK   13  A    between atoms: C24_32  and  C26_34 
REMARK   14  A    between atoms: C28_38  and  C29_39 
REMARK   15  A    between atoms: C29_39  and  C30_40 
REMARK   16  A    between atoms: C30_40  and  C31_41 
REMARK   17  A    between atoms: C31_41  and  C32_42 
REMARK   18  A    between atoms: C32_42  and  N6_43 
ROOT
HETATM    1  N1  UNL     1      11.193  25.633  -3.334  1.00  0.00    -0.325 N 
HETATM    2  C12 UNL     1      10.339  26.470  -2.523  1.00  0.00     0.133 C 
HETATM    3  C13 UNL     1       9.973  25.691  -1.264  1.00  0.00     0.046 C 
HETATM    4  C14 UNL     1       8.913  24.642  -1.630  1.00  0.00     0.096 C 
HETATM    5  N5  UNL     1       9.520  23.484  -2.139  1.00  0.00    -0.403 N 
ATOM      6  H5  UNL     1       9.798  22.715  -1.529  1.00  0.00     0.154 HD
HETATM    7  C28 UNL     1       9.735  23.429  -3.573  1.00  0.00     0.170 C 
HETATM    8  C33 UNL     1      10.864  24.330  -3.872  1.00  0.00     0.246 C 
HETATM    9  O2  UNL     1      11.697  23.906  -4.744  1.00  0.00    -0.271 OA
ENDROOT
BRANCH   4  10
HETATM   10  C15 UNL     1       8.126  24.372  -0.383  1.00  0.00     0.147 C 
BRANCH  10  11
HETATM   11  N2  UNL     1       8.831  24.717   0.851  1.00  0.00    -0.357 N 
HETATM   12  C16 UNL     1       8.082  25.444   1.811  1.00  0.00     0.245 C 
HETATM   13  O1  UNL     1       6.869  25.728   1.529  1.00  0.00    -0.271 OA
ATOM     14  H2  UNL     1       9.803  24.450   1.011  1.00  0.00     0.162 HD
BRANCH  12  15
HETATM   15  C17 UNL     1       8.649  25.880   3.092  1.00  0.00     0.208 C 
BRANCH  15  16
HETATM   16  C18 UNL     1       9.402  27.171   3.085  1.00  0.00     0.090 C 
BRANCH  16  17
HETATM   17  N3  UNL     1      10.195  27.574   2.029  1.00  0.00    -0.392 N 
ATOM     18  H3  UNL     1      10.917  26.927   1.713  1.00  0.00     0.159 HD
BRANCH  17  19
HETATM   19  C19 UNL     1      10.091  28.791   1.359  1.00  0.00     0.018 C 
HETATM   20  C20 UNL     1      10.989  28.989   0.206  1.00  0.00     0.037 C 
HETATM   21  C21 UNL     1       8.644  28.945   0.819  1.00  0.00     0.037 C 
HETATM   22  C22 UNL     1      10.255  30.003   2.279  1.00  0.00     0.037 C 
ENDBRANCH  17  19
ENDBRANCH  16  17
ENDBRANCH  15  16
BRANCH  15  23
HETATM   23  N4  UNL     1       7.652  25.858   4.123  1.00  0.00    -0.405 N 
ATOM     24  H4  UNL     1       7.095  26.687   4.332  1.00  0.00     0.154 HD
BRANCH  23  25
HETATM   25  C23 UNL     1       7.466  24.687   4.822  1.00  0.00     0.119 C 
BRANCH  25  26
HETATM   26  C24 UNL     1       6.064  24.667   5.527  1.00  0.00    -0.002 C 
HETATM   27  C25 UNL     1       5.102  24.991   4.400  1.00  0.00     0.011 C 
BRANCH  26  28
HETATM   28  C26 UNL     1       5.915  23.264   6.005  1.00  0.00     0.001 C 
HETATM   29  C27 UNL     1       4.556  22.943   6.530  1.00  0.00     0.005 C 
ENDBRANCH  26  28
ENDBRANCH  25  26
ENDBRANCH  23  25
ENDBRANCH  15  23
ENDBRANCH  12  15
ENDBRANCH  10  11
ENDBRANCH   4  10
BRANCH   7  30
HETATM   30  C29 UNL     1       8.527  23.721  -4.390  1.00  0.00     0.034 C 
BRANCH  30  31
HETATM   31  C30 UNL     1       8.098  22.568  -5.255  1.00  0.00     0.004 C 
BRANCH  31  32
HETATM   32  C31 UNL     1       8.892  22.537  -6.532  1.00  0.00     0.027 C 
BRANCH  32  33
HETATM   33  C32 UNL     1       8.829  21.158  -7.184  1.00  0.00     0.229 C 
BRANCH  33  34
HETATM   34  N6  UNL     1       8.167  20.241  -6.266  1.00  0.00    -0.079 N 
ATOM     35  H63 UNL     1       8.676  19.364  -6.155  1.00  0.00     0.274 HD
ATOM     36  H62 UNL     1       8.216  20.555  -5.296  1.00  0.00     0.274 HD
ATOM     37  H61 UNL     1       7.208  20.099  -6.583  1.00  0.00     0.274 HD
ENDBRANCH  33  34
ENDBRANCH  32  33
ENDBRANCH  31  32
ENDBRANCH  30  31
ENDBRANCH   7  30
BRANCH   1  38
HETATM   38  C11 UNL     1      12.512  26.014  -3.643  1.00  0.00     0.106 C 
BRANCH  38  39
HETATM   39  C10 UNL     1      13.118  27.302  -3.459  1.00  0.00    -0.008 A 
HETATM   40  C3  UNL     1      13.096  28.114  -4.636  1.00  0.00    -0.046 A 
HETATM   41  C4  UNL     1      13.706  29.344  -4.612  1.00  0.00     0.014 A 
HETATM   42  C5  UNL     1      14.331  29.805  -3.484  1.00  0.00    -0.061 A 
HETATM   43  C6  UNL     1      14.979  31.145  -3.500  1.00  0.00     0.048 C 
HETATM   44  C7  UNL     1      14.336  29.008  -2.376  1.00  0.00     0.014 A 
HETATM   45  C8  UNL     1      13.736  27.734  -2.317  1.00  0.00    -0.049 A 
HETATM   46  C9  UNL     1      13.875  26.976  -1.053  1.00  0.00     0.049 C 
BRANCH  40  47
HETATM   47  C2  UNL     1      12.384  27.656  -5.868  1.00  0.00     0.035 C 
HETATM   48  C1  UNL     1      11.078  28.395  -6.099  1.00  0.00     0.010 C 
ENDBRANCH  40  47
ENDBRANCH  38  39
ENDBRANCH   1  38
TORSDOF 18
ENDMDL
MODEL 5
REMARK VINA RESULT: -7.169711424      1.996      5.597
REMARK  18 active torsions:
REMARK  status: ('A' for Active; 'I' for Inactive)
REMARK    1  A    between atoms: C2_2  and  C3_3 
REMARK    2  A    between atoms: C10_10  and  C11_11 
REMARK    3  A    between atoms: C11_11  and  N1_12 
REMARK    4  A    between atoms: C14_15  and  C15_16 
REMARK    5  A    between atoms: C15_16  and  N2_17 
REMARK       I    between atoms: N2_17  and  C16_19 
REMARK    6  A    between atoms: C16_19  and  C17_21 
REMARK    7  A    between atoms: C17_21  and  C18_22 
REMARK    8  A    between atoms: C17_21  and  N4_29 
REMARK    9  A    between atoms: C18_22  and  N3_23 
REMARK   10  A    between atoms: N3_23  and  C19_25 
REMARK   11  A    between atoms: N4_29  and  C23_31 
REMARK   12  A    between atoms: C23_31  and  C24_32 
REMARK   13  A    between atoms: C24_32  and  C26_34 
REMARK   14  A    between atoms: C28_38  and  C29_39 
REMARK   15  A    between atoms: C29_39  and  C30_40 
REMARK   16  A    between atoms: C30_40  and  C31_41 
REMARK   17  A    between atoms: C31_41  and  C32_42 
REMARK   18  A    between atoms: C32_42  and  N6_43 
ROOT
HETATM    1  N1  UNL     1      10.624  26.271  -3.715  1.00  0.00    -0.325 N 
HETATM    2  C12 UNL     1       9.580  26.751  -2.839  1.00  0.00     0.133 C 
HETATM    3  C13 UNL     1       9.567  25.871  -1.595  1.00  0.00     0.046 C 
HETATM    4  C14 UNL     1       8.910  24.530  -1.952  1.00  0.00     0.096 C 
HETATM    5  N5  UNL     1       9.847  23.659  -2.527  1.00  0.00    -0.403 N 
ATOM      6  H5  UNL     1      10.401  23.020  -1.956  1.00  0.00     0.154 HD
HETATM    7  C28 UNL     1       9.993  23.708  -3.969  1.00  0.00     0.170 C 
HETATM    8  C33 UNL     1      10.731  24.945  -4.284  1.00  0.00     0.246 C 
HETATM    9  O2  UNL     1      11.612  24.848  -5.205  1.00  0.00    -0.271 OA
ENDROOT
BRANCH   4  10
HETATM   10  C15 UNL     1       8.326  23.984  -0.683  1.00  0.00     0.147 C 
BRANCH  10  11
HETATM   11  N2  UNL     1       8.855  24.608   0.529  1.00  0.00    -0.357 N 
HETATM   12  C16 UNL     1       7.938  25.396   1.272  1.00  0.00     0.245 C 
HETATM   13  O1  UNL     1       6.741  25.489   0.833  1.00  0.00    -0.271 OA
ATOM     14  H2  UNL     1       9.824  24.484   0.824  1.00  0.00     0.162 HD
BRANCH  12  15
HETATM   15  C17 UNL     1       8.315  26.102   2.501  1.00  0.00     0.208 C 
BRANCH  15  16
HETATM   16  C18 UNL     1       8.722  27.532   2.352  1.00  0.00     0.090 C 
BRANCH  16  17
HETATM   17  N3  UNL     1       8.644  28.216   1.156  1.00  0.00    -0.392 N 
ATOM     18  H3  UNL     1       7.809  28.072   0.588  1.00  0.00     0.159 HD
BRANCH  17  19
HETATM   19  C19 UNL     1       9.611  29.088   0.660  1.00  0.00     0.018 C 
HETATM   20  C20 UNL     1      10.951  28.521   0.423  1.00  0.00     0.037 C 
HETATM   21  C21 UNL     1       9.128  29.653  -0.702  1.00  0.00     0.037 C 
HETATM   22  C22 UNL     1       9.791  30.342   1.519  1.00  0.00     0.037 C 
ENDBRANCH  17  19
ENDBRANCH  16  17
ENDBRANCH  15  16
BRANCH  15  23
HETATM   23  N4  UNL     1       7.306  25.943   3.508  1.00  0.00    -0.405 N 
ATOM     24  H4  UNL     1       6.565  26.636   3.621  1.00  0.00     0.154 HD
BRANCH  23  25
HETATM   25  C23 UNL     1       7.364  24.832   4.318  1.00  0.00     0.119 C 
BRANCH  25  26
HETATM   26  C24 UNL     1       6.094  24.734   5.234  1.00  0.00    -0.002 C 
HETATM   27  C25 UNL     1       4.960  25.109   4.300  1.00  0.00     0.011 C 
BRANCH  26  28
HETATM   28  C26 UNL     1       6.041  23.299   5.633  1.00  0.00     0.001 C 
HETATM   29  C27 UNL     1       4.840  22.938   6.441  1.00  0.00     0.005 C 
ENDBRANCH  26  28
ENDBRANCH  25  26
ENDBRANCH  23  25
ENDBRANCH  15  23
ENDBRANCH  12  15
ENDBRANCH  10  11
ENDBRANCH   4  10
BRANCH   7  30
HETATM   30  C29 UNL     1       8.718  23.584  -4.724  1.00  0.00     0.034 C 
BRANCH  30  31
HETATM   31  C30 UNL     1       8.825  22.707  -5.940  1.00  0.00     0.004 C 
BRANCH  31  32
HETATM   32  C31 UNL     1       7.517  22.018  -6.216  1.00  0.00     0.027 C 
BRANCH  32  33
HETATM   33  C32 UNL     1       7.740  20.573  -6.656  1.00  0.00     0.229 C 
BRANCH  33  34
HETATM   34  N6  UNL     1       6.452  19.892  -6.684  1.00  0.00    -0.079 N 
ATOM     35  H63 UNL     1       6.181  19.530  -5.769  1.00  0.00     0.274 HD
ATOM     36  H62 UNL     1       5.671  20.536  -6.815  1.00  0.00     0.274 HD
ATOM     37  H61 UNL     1       6.483  19.166  -7.398  1.00  0.00     0.274 HD
ENDBRANCH  33  34
ENDBRANCH  32  33
ENDBRANCH  31  32
ENDBRANCH  30  31
ENDBRANCH   7  30
BRANCH   1  38
HETATM   38  C11 UNL     1      11.716  27.086  -4.066  1.00  0.00     0.106 C 
BRANCH  38  39
HETATM   39  C10 UNL     1      12.076  28.360  -3.509  1.00  0.00    -0.008 A 
HETATM   40  C3  UNL     1      13.119  28.280  -2.534  1.00  0.00    -0.046 A 
HETATM   41  C4  UNL     1      13.509  29.419  -1.875  1.00  0.00     0.014 A 
HETATM   42  C5  UNL     1      12.918  30.628  -2.136  1.00  0.00    -0.061 A 
HETATM   43  C6  UNL     1      13.372  31.840  -1.401  1.00  0.00     0.048 C 
HETATM   44  C7  UNL     1      11.925  30.674  -3.072  1.00  0.00     0.014 A 
HETATM   45  C8  UNL     1      11.466  29.551  -3.791  1.00  0.00    -0.049 A 
HETATM   46  C9  UNL     1      10.345  29.763  -4.735  1.00  0.00     0.049 C 
BRANCH  40  47
HETATM   47  C2  UNL     1      13.811  26.983  -2.259  1.00  0.00     0.035 C 
HETATM   48  C1  UNL     1      15.074  27.156  -1.433  1.00  0.00     0.010 C 
ENDBRANCH  40  47
ENDBRANCH  38  39
ENDBRANCH   1  38
TORSDOF 18
ENDMDL
