MODEL 1
REMARK VINA RESULT: -9.210569870      0.000      0.000
REMARK  16 active torsions:
REMARK  status: ('A' for Active; 'I' for Inactive)
REMARK    1  A    between atoms: C3_3  and  N1_4 
REMARK       I    between atoms: N1_4  and  C4_6 
REMARK    2  A    between atoms: C4_6  and  C5_8 
REMARK    3  A    between atoms: C5_8  and  N2_9 
REMARK    4  A    between atoms: C5_8  and  C19_38 
REMARK    5  A    between atoms: N2_9  and  S1_11 
REMARK    6  A    between atoms: S1_11  and  C6_14 
REMARK    7  A    between atoms: C6_14  and  C7_15 
REMARK    8  A    between atoms: C7_15  and  C8_16 
REMARK    9  A    between atoms: C8_16  and  C9_17 
REMARK   10  A    between atoms: C10_20  and  C11_21 
REMARK   11  A    between atoms: C11_21  and  C12_22 
REMARK   12  A    between atoms: C11_21  and  N5_30 
REMARK   13  A    between atoms: C12_22  and  C13_23 
REMARK   14  A    between atoms: C13_23  and  C14_24 
REMARK   15  A    between atoms: C14_24  and  C15_25 
REMARK   16  A    between atoms: C15_25  and  N4_26 
REMARK       I    between atoms: N5_30  and  C16_32 
ROOT
HETATM    1  C1  UNL     1       8.620  27.920  -1.894  1.00  0.00     0.015 C 
HETATM    2  C2  UNL     1       9.223  27.049  -1.333  1.00  0.00    -0.086 C 
HETATM    3  C3  UNL     1       9.945  26.006  -0.631  1.00  0.00     0.096 C 
HETATM    4  C25 UNL     1       9.546  24.613  -1.057  1.00  0.00     0.044 C 
HETATM    5  C26 UNL     1      10.125  24.530  -2.453  1.00  0.00     0.004 C 
HETATM    6  C27 UNL     1      11.273  25.508  -2.498  1.00  0.00     0.004 C 
HETATM    7  C28 UNL     1      11.414  26.026  -1.061  1.00  0.00     0.044 C 
ENDROOT
BRANCH   3   8
HETATM    8  N1  UNL     1       9.815  26.142   0.804  1.00  0.00    -0.336 N 
HETATM    9  C4  UNL     1       8.621  25.963   1.495  1.00  0.00     0.266 C 
HETATM   10  O1  UNL     1       7.569  25.669   0.798  1.00  0.00    -0.266 OA
ATOM     11  H1  UNL     1      10.648  26.384   1.340  1.00  0.00     0.164 HD
BRANCH   9  12
HETATM   12  C5  UNL     1       8.358  26.064   2.932  1.00  0.00     0.091 C 
BRANCH  12  13
HETATM   13  N2  UNL     1       7.422  25.073   3.397  1.00  0.00    -0.282 N 
ATOM     14  H2  UNL     1       6.558  24.876   2.892  1.00  0.00     0.178 HD
BRANCH  13  15
HETATM   15  S1  UNL     1       7.819  24.257   4.811  1.00  0.00     0.230 S 
HETATM   16  O2  UNL     1       9.316  24.045   4.902  1.00  0.00    -0.206 OA
HETATM   17  O3  UNL     1       7.386  25.110   6.005  1.00  0.00    -0.206 OA
BRANCH  15  18
HETATM   18  C6  UNL     1       6.962  22.716   4.943  1.00  0.00     0.164 C 
BRANCH  18  19
HETATM   19  C7  UNL     1       5.946  22.817   6.059  1.00  0.00     0.024 C 
BRANCH  19  20
HETATM   20  C8  UNL     1       4.638  23.388   5.641  1.00  0.00     0.077 C 
BRANCH  20  21
HETATM   21  C9  UNL     1       3.462  22.809   6.312  1.00  0.00     0.081 A 
HETATM   22  N3  UNL     1       2.252  23.441   6.290  1.00  0.00    -0.346 N 
HETATM   23  C10 UNL     1       1.366  22.689   6.949  1.00  0.00     0.049 A 
ATOM     24  H3  UNL     1       2.057  24.338   5.846  1.00  0.00     0.167 HD
HETATM   25  C18 UNL     1       2.048  21.588   7.376  1.00  0.00     0.116 A 
HETATM   26  N6  UNL     1       3.355  21.652   6.984  1.00  0.00    -0.354 N 
ATOM     27  H6  UNL     1       4.091  20.968   7.164  1.00  0.00     0.166 HD
BRANCH  23  28
HETATM   28  C11 UNL     1      -0.092  22.997   7.183  1.00  0.00     0.136 C 
BRANCH  28  29
HETATM   29  C12 UNL     1      -0.577  22.138   8.309  1.00  0.00     0.031 C 
BRANCH  29  30
HETATM   30  C13 UNL     1      -1.628  21.166   7.865  1.00  0.00     0.004 C 
BRANCH  30  31
HETATM   31  C14 UNL     1      -2.787  21.801   7.150  1.00  0.00     0.027 C 
BRANCH  31  32
HETATM   32  C15 UNL     1      -3.732  22.353   8.218  1.00  0.00     0.229 C 
BRANCH  32  33
HETATM   33  N4  UNL     1      -3.966  23.749   7.818  1.00  0.00    -0.079 N 
ATOM     34  H43 UNL     1      -4.884  24.108   8.081  1.00  0.00     0.274 HD
ATOM     35  H42 UNL     1      -3.421  24.430   8.348  1.00  0.00     0.274 HD
ATOM     36  H41 UNL     1      -3.785  23.763   6.815  1.00  0.00     0.274 HD
ENDBRANCH  32  33
ENDBRANCH  31  32
ENDBRANCH  30  31
ENDBRANCH  29  30
ENDBRANCH  28  29
BRANCH  28  37
HETATM   37  N5  UNL     1      -0.198  24.408   7.477  1.00  0.00    -0.351 N 
HETATM   38  C16 UNL     1      -1.085  25.259   6.779  1.00  0.00     0.214 C 
HETATM   39  C17 UNL     1      -1.176  26.718   7.106  1.00  0.00     0.117 C 
HETATM   40  O4  UNL     1      -1.802  24.765   5.874  1.00  0.00    -0.274 OA
ATOM     41  H5  UNL     1       0.387  24.803   8.213  1.00  0.00     0.163 HD
ENDBRANCH  28  37
ENDBRANCH  23  28
ENDBRANCH  20  21
ENDBRANCH  19  20
ENDBRANCH  18  19
ENDBRANCH  15  18
ENDBRANCH  13  15
ENDBRANCH  12  13
BRANCH  12  42
HETATM   42  C19 UNL     1       8.217  27.375   3.557  1.00  0.00     0.042 C 
HETATM   43  C20 UNL     1       9.201  27.625   4.676  1.00  0.00     0.011 C 
HETATM   44  C21 UNL     1       8.605  28.814   5.456  1.00  0.00     0.001 C 
HETATM   45  C22 UNL     1       8.764  30.024   4.583  1.00  0.00     0.000 C 
HETATM   46  C23 UNL     1       8.837  29.769   3.121  1.00  0.00     0.001 C 
HETATM   47  C24 UNL     1       8.149  28.553   2.612  1.00  0.00     0.011 C 
ENDBRANCH  12  42
ENDBRANCH   9  12
ENDBRANCH   3   8
TORSDOF 16
ENDMDL
MODEL 2
REMARK VINA RESULT: -9.144164721      1.502      4.369
REMARK  16 active torsions:
REMARK  status: ('A' for Active; 'I' for Inactive)
REMARK    1  A    between atoms: C3_3  and  N1_4 
REMARK       I    between atoms: N1_4  and  C4_6 
REMARK    2  A    between atoms: C4_6  and  C5_8 
REMARK    3  A    between atoms: C5_8  and  N2_9 
REMARK    4  A    between atoms: C5_8  and  C19_38 
REMARK    5  A    between atoms: N2_9  and  S1_11 
REMARK    6  A    between atoms: S1_11  and  C6_14 
REMARK    7  A    between atoms: C6_14  and  C7_15 
REMARK    8  A    between atoms: C7_15  and  C8_16 
REMARK    9  A    between atoms: C8_16  and  C9_17 
REMARK   10  A    between atoms: C10_20  and  C11_21 
REMARK   11  A    between atoms: C11_21  and  C12_22 
REMARK   12  A    between atoms: C11_21  and  N5_30 
REMARK   13  A    between atoms: C12_22  and  C13_23 
REMARK   14  A    between atoms: C13_23  and  C14_24 
REMARK   15  A    between atoms: C14_24  and  C15_25 
REMARK   16  A    between atoms: C15_25  and  N4_26 
REMARK       I    between atoms: N5_30  and  C16_32 
ROOT
HETATM    1  C1  UNL     1       7.631  28.740   6.903  1.00  0.00     0.015 C 
HETATM    2  C2  UNL     1       7.822  28.956   5.739  1.00  0.00    -0.086 C 
HETATM    3  C3  UNL     1       8.046  29.192   4.326  1.00  0.00     0.096 C 
HETATM    4  C25 UNL     1       7.262  30.363   3.784  1.00  0.00     0.044 C 
HETATM    5  C26 UNL     1       7.965  31.539   4.427  1.00  0.00     0.004 C 
HETATM    6  C27 UNL     1       9.371  31.083   4.732  1.00  0.00     0.004 C 
HETATM    7  C28 UNL     1       9.479  29.683   4.113  1.00  0.00     0.044 C 
ENDROOT
BRANCH   3   8
HETATM    8  N1  UNL     1       7.773  28.007   3.540  1.00  0.00    -0.336 N 
HETATM    9  C4  UNL     1       8.535  26.844   3.599  1.00  0.00     0.266 C 
HETATM   10  O1  UNL     1       9.553  26.841   4.401  1.00  0.00    -0.266 OA
ATOM     11  H1  UNL     1       6.975  28.026   2.906  1.00  0.00     0.164 HD
BRANCH   9  12
HETATM   12  C5  UNL     1       8.364  25.587   2.870  1.00  0.00     0.091 C 
BRANCH  12  13
HETATM   13  N2  UNL     1       8.295  24.442   3.742  1.00  0.00    -0.282 N 
ATOM     14  H2  UNL     1       9.056  23.764   3.794  1.00  0.00     0.178 HD
BRANCH  13  15
HETATM   15  S1  UNL     1       6.905  24.276   4.670  1.00  0.00     0.230 S 
HETATM   16  O2  UNL     1       6.930  25.232   5.845  1.00  0.00    -0.206 OA
HETATM   17  O3  UNL     1       5.694  24.623   3.801  1.00  0.00    -0.206 OA
BRANCH  15  18
HETATM   18  C6  UNL     1       6.680  22.612   5.224  1.00  0.00     0.164 C 
BRANCH  18  19
HETATM   19  C7  UNL     1       5.673  22.606   6.353  1.00  0.00     0.024 C 
BRANCH  19  20
HETATM   20  C8  UNL     1       4.328  23.114   5.971  1.00  0.00     0.077 C 
BRANCH  20  21
HETATM   21  C9  UNL     1       3.199  22.470   6.663  1.00  0.00     0.081 A 
HETATM   22  N3  UNL     1       1.910  22.848   6.417  1.00  0.00    -0.346 N 
HETATM   23  C10 UNL     1       1.095  22.090   7.155  1.00  0.00     0.049 A 
ATOM     24  H3  UNL     1       1.618  23.586   5.777  1.00  0.00     0.167 HD
HETATM   25  C18 UNL     1       1.900  21.243   7.858  1.00  0.00     0.116 A 
HETATM   26  N6  UNL     1       3.214  21.471   7.559  1.00  0.00    -0.354 N 
ATOM     27  H6  UNL     1       4.029  20.987   7.936  1.00  0.00     0.166 HD
BRANCH  23  28
HETATM   28  C11 UNL     1      -0.411  22.159   7.210  1.00  0.00     0.136 C 
BRANCH  28  29
HETATM   29  C12 UNL     1      -0.892  21.131   8.186  1.00  0.00     0.031 C 
BRANCH  29  30
HETATM   30  C13 UNL     1      -2.385  21.137   8.320  1.00  0.00     0.004 C 
BRANCH  30  31
HETATM   31  C14 UNL     1      -3.116  20.807   7.050  1.00  0.00     0.027 C 
BRANCH  31  32
HETATM   32  C15 UNL     1      -4.397  20.070   7.442  1.00  0.00     0.229 C 
BRANCH  32  33
HETATM   33  N4  UNL     1      -4.917  19.531   6.176  1.00  0.00    -0.079 N 
ATOM     34  H43 UNL     1      -5.935  19.536   6.109  1.00  0.00     0.274 HD
ATOM     35  H42 UNL     1      -4.746  20.130   5.368  1.00  0.00     0.274 HD
ATOM     36  H41 UNL     1      -4.499  18.603   6.101  1.00  0.00     0.274 HD
ENDBRANCH  32  33
ENDBRANCH  31  32
ENDBRANCH  30  31
ENDBRANCH  29  30
ENDBRANCH  28  29
BRANCH  28  37
HETATM   37  N5  UNL     1      -0.771  23.504   7.599  1.00  0.00    -0.351 N 
HETATM   38  C16 UNL     1      -0.837  24.566   6.670  1.00  0.00     0.214 C 
HETATM   39  C17 UNL     1      -1.215  25.951   7.101  1.00  0.00     0.117 C 
HETATM   40  O4  UNL     1      -0.571  24.326   5.465  1.00  0.00    -0.274 OA
ATOM     41  H5  UNL     1      -0.986  23.692   8.579  1.00  0.00     0.163 HD
ENDBRANCH  28  37
ENDBRANCH  23  28
ENDBRANCH  20  21
ENDBRANCH  19  20
ENDBRANCH  18  19
ENDBRANCH  15  18
ENDBRANCH  13  15
ENDBRANCH  12  13
BRANCH  12  42
HETATM   42  C19 UNL     1       9.092  25.360   1.626  1.00  0.00     0.042 C 
HETATM   43  C20 UNL     1       8.324  24.549   0.609  1.00  0.00     0.011 C 
HETATM   44  C21 UNL     1       9.395  24.064  -0.388  1.00  0.00     0.001 C 
HETATM   45  C22 UNL     1       9.832  25.268  -1.169  1.00  0.00     0.000 C 
HETATM   46  C23 UNL     1       9.669  26.581  -0.492  1.00  0.00     0.001 C 
HETATM   47  C24 UNL     1       9.716  26.584   0.994  1.00  0.00     0.011 C 
ENDBRANCH  12  42
ENDBRANCH   9  12
ENDBRANCH   3   8
TORSDOF 16
ENDMDL
MODEL 3
REMARK VINA RESULT: -9.012772070      1.173      1.721
REMARK  16 active torsions:
REMARK  status: ('A' for Active; 'I' for Inactive)
REMARK    1  A    between atoms: C3_3  and  N1_4 
REMARK       I    between atoms: N1_4  and  C4_6 
REMARK    2  A    between atoms: C4_6  and  C5_8 
REMARK    3  A    between atoms: C5_8  and  N2_9 
REMARK    4  A    between atoms: C5_8  and  C19_38 
REMARK    5  A    between atoms: N2_9  and  S1_11 
REMARK    6  A    between atoms: S1_11  and  C6_14 
REMARK    7  A    between atoms: C6_14  and  C7_15 
REMARK    8  A    between atoms: C7_15  and  C8_16 
REMARK    9  A    between atoms: C8_16  and  C9_17 
REMARK   10  A    between atoms: C10_20  and  C11_21 
REMARK   11  A    between atoms: C11_21  and  C12_22 
REMARK   12  A    between atoms: C11_21  and  N5_30 
REMARK   13  A    between atoms: C12_22  and  C13_23 
REMARK   14  A    between atoms: C13_23  and  C14_24 
REMARK   15  A    between atoms: C14_24  and  C15_25 
REMARK   16  A    between atoms: C15_25  and  N4_26 
REMARK       I    between atoms: N5_30  and  C16_32 
ROOT
HETATM    1  C1  UNL     1       9.370  23.438  -0.865  1.00  0.00     0.015 C 
HETATM    2  C2  UNL     1       9.627  24.609  -0.860  1.00  0.00    -0.086 C 
HETATM    3  C3  UNL     1       9.931  26.026  -0.827  1.00  0.00     0.096 C 
HETATM    4  C25 UNL     1      11.301  26.355  -1.370  1.00  0.00     0.044 C 
HETATM    5  C26 UNL     1      11.127  26.092  -2.851  1.00  0.00     0.004 C 
HETATM    6  C27 UNL     1       9.656  26.258  -3.144  1.00  0.00     0.004 C 
HETATM    7  C28 UNL     1       9.042  26.761  -1.831  1.00  0.00     0.044 C 
ENDROOT
BRANCH   3   8
HETATM    8  N1  UNL     1       9.783  26.571   0.506  1.00  0.00    -0.336 N 
HETATM    9  C4  UNL     1       8.616  26.474   1.258  1.00  0.00     0.266 C 
HETATM   10  O1  UNL     1       7.608  25.867   0.715  1.00  0.00    -0.266 OA
ATOM     11  H1  UNL     1      10.580  27.054   0.918  1.00  0.00     0.164 HD
BRANCH   9  12
HETATM   12  C5  UNL     1       8.340  26.971   2.607  1.00  0.00     0.091 C 
BRANCH  12  13
HETATM   13  N2  UNL     1       7.532  26.062   3.380  1.00  0.00    -0.282 N 
ATOM     14  H2  UNL     1       6.747  25.561   2.965  1.00  0.00     0.178 HD
BRANCH  13  15
HETATM   15  S1  UNL     1       7.943  25.869   4.998  1.00  0.00     0.230 S 
HETATM   16  O2  UNL     1       9.400  26.211   5.223  1.00  0.00    -0.206 OA
HETATM   17  O3  UNL     1       7.094  26.828   5.835  1.00  0.00    -0.206 OA
BRANCH  15  18
HETATM   18  C6  UNL     1       7.590  24.235   5.574  1.00  0.00     0.164 C 
BRANCH  18  19
HETATM   19  C7  UNL     1       6.510  23.633   4.703  1.00  0.00     0.024 C 
BRANCH  19  20
HETATM   20  C8  UNL     1       5.153  24.194   4.941  1.00  0.00     0.077 C 
BRANCH  20  21
HETATM   21  C9  UNL     1       4.284  23.376   5.804  1.00  0.00     0.081 A 
HETATM   22  N3  UNL     1       2.943  23.623   5.895  1.00  0.00    -0.346 N 
HETATM   23  C10 UNL     1       2.399  22.724   6.720  1.00  0.00     0.049 A 
ATOM     24  H3  UNL     1       2.442  24.369   5.414  1.00  0.00     0.167 HD
HETATM   25  C18 UNL     1       3.422  21.923   7.134  1.00  0.00     0.116 A 
HETATM   26  N6  UNL     1       4.601  22.320   6.569  1.00  0.00    -0.354 N 
ATOM     27  H6  UNL     1       5.523  21.904   6.701  1.00  0.00     0.166 HD
BRANCH  23  28
HETATM   28  C11 UNL     1       0.949  22.618   7.121  1.00  0.00     0.136 C 
BRANCH  28  29
HETATM   29  C12 UNL     1       0.856  21.715   8.310  1.00  0.00     0.031 C 
BRANCH  29  30
HETATM   30  C13 UNL     1      -0.289  20.755   8.200  1.00  0.00     0.004 C 
BRANCH  30  31
HETATM   31  C14 UNL     1      -1.634  21.372   8.461  1.00  0.00     0.027 C 
BRANCH  31  32
HETATM   32  C15 UNL     1      -2.579  20.882   7.364  1.00  0.00     0.229 C 
BRANCH  32  33
HETATM   33  N4  UNL     1      -3.367  22.068   6.997  1.00  0.00    -0.079 N 
ATOM     34  H43 UNL     1      -4.201  22.206   7.569  1.00  0.00     0.274 HD
ATOM     35  H42 UNL     1      -2.919  22.954   7.232  1.00  0.00     0.274 HD
ATOM     36  H41 UNL     1      -3.559  21.951   6.002  1.00  0.00     0.274 HD
ENDBRANCH  32  33
ENDBRANCH  31  32
ENDBRANCH  30  31
ENDBRANCH  29  30
ENDBRANCH  28  29
BRANCH  28  37
HETATM   37  N5  UNL     1       0.476  23.955   7.403  1.00  0.00    -0.351 N 
HETATM   38  C16 UNL     1      -0.657  24.505   6.762  1.00  0.00     0.214 C 
HETATM   39  C17 UNL     1      -1.126  25.893   7.075  1.00  0.00     0.117 C 
HETATM   40  O4  UNL     1      -1.269  23.802   5.920  1.00  0.00    -0.274 OA
ATOM     41  H5  UNL     1       0.978  24.521   8.088  1.00  0.00     0.163 HD
ENDBRANCH  28  37
ENDBRANCH  23  28
ENDBRANCH  20  21
ENDBRANCH  19  20
ENDBRANCH  18  19
ENDBRANCH  15  18
ENDBRANCH  13  15
ENDBRANCH  12  13
BRANCH  12  42
HETATM   42  C19 UNL     1       8.038  28.383   2.817  1.00  0.00     0.042 C 
HETATM   43  C20 UNL     1       9.085  29.118   3.619  1.00  0.00     0.011 C 
HETATM   44  C21 UNL     1       8.379  30.406   4.089  1.00  0.00     0.001 C 
HETATM   45  C22 UNL     1       8.209  31.270   2.875  1.00  0.00     0.000 C 
HETATM   46  C23 UNL     1       8.153  30.560   1.570  1.00  0.00     0.001 C 
HETATM   47  C24 UNL     1       7.643  29.163   1.583  1.00  0.00     0.011 C 
ENDBRANCH  12  42
ENDBRANCH   9  12
ENDBRANCH   3   8
TORSDOF 16
ENDMDL
MODEL 4
REMARK VINA RESULT: -9.000219419      3.441      6.009
REMARK  16 active torsions:
REMARK  status: ('A' for Active; 'I' for Inactive)
REMARK    1  A    between atoms: C3_3  and  N1_4 
REMARK       I    between atoms: N1_4  and  C4_6 
REMARK    2  A    between atoms: C4_6  and  C5_8 
REMARK    3  A    between atoms: C5_8  and  N2_9 
REMARK    4  A    between atoms: C5_8  and  C19_38 
REMARK    5  A    between atoms: N2_9  and  S1_11 
REMARK    6  A    between atoms: S1_11  and  C6_14 
REMARK    7  A    between atoms: C6_14  and  C7_15 
REMARK    8  A    between atoms: C7_15  and  C8_16 
REMARK    9  A    between atoms: C8_16  and  C9_17 
REMARK   10  A    between atoms: C10_20  and  C11_21 
REMARK   11  A    between atoms: C11_21  and  C12_22 
REMARK   12  A    between atoms: C11_21  and  N5_30 
REMARK   13  A    between atoms: C12_22  and  C13_23 
REMARK   14  A    between atoms: C13_23  and  C14_24 
REMARK   15  A    between atoms: C14_24  and  C15_25 
REMARK   16  A    between atoms: C15_25  and  N4_26 
REMARK       I    between atoms: N5_30  and  C16_32 
ROOT
HETATM    1  C1  UNL     1       7.871  27.885  10.709  1.00  0.00     0.015 C 
HETATM    2  C2  UNL     1       8.056  28.814   9.974  1.00  0.00    -0.086 C 
HETATM    3  C3  UNL     1       8.285  29.919   9.064  1.00  0.00     0.096 C 
HETATM    4  C25 UNL     1       7.121  30.876   8.981  1.00  0.00     0.044 C 
HETATM    5  C26 UNL     1       7.168  31.552  10.334  1.00  0.00     0.004 C 
HETATM    6  C27 UNL     1       8.594  31.448  10.814  1.00  0.00     0.004 C 
HETATM    7  C28 UNL     1       9.367  30.835   9.639  1.00  0.00     0.044 C 
ENDROOT
BRANCH   3   8
HETATM    8  N1  UNL     1       8.640  29.453   7.740  1.00  0.00    -0.336 N 
HETATM    9  C4  UNL     1       7.785  28.726   6.918  1.00  0.00     0.266 C 
HETATM   10  O1  UNL     1       6.608  28.446   7.384  1.00  0.00    -0.266 OA
ATOM     11  H1  UNL     1       9.572  29.671   7.389  1.00  0.00     0.164 HD
BRANCH   9  12
HETATM   12  C5  UNL     1       8.015  28.206   5.569  1.00  0.00     0.091 C 
BRANCH  12  13
HETATM   13  N2  UNL     1       8.995  27.150   5.540  1.00  0.00    -0.282 N 
ATOM     14  H2  UNL     1       9.901  27.250   5.997  1.00  0.00     0.178 HD
BRANCH  13  15
HETATM   15  S1  UNL     1       8.573  25.747   4.718  1.00  0.00     0.230 S 
HETATM   16  O2  UNL     1       7.950  26.080   3.378  1.00  0.00    -0.206 OA
HETATM   17  O3  UNL     1       9.843  24.931   4.462  1.00  0.00    -0.206 OA
BRANCH  15  18
HETATM   18  C6  UNL     1       7.491  24.726   5.673  1.00  0.00     0.164 C 
BRANCH  18  19
HETATM   19  C7  UNL     1       6.068  25.193   5.462  1.00  0.00     0.024 C 
BRANCH  19  20
HETATM   20  C8  UNL     1       5.186  24.183   4.816  1.00  0.00     0.077 C 
BRANCH  20  21
HETATM   21  C9  UNL     1       4.369  23.384   5.744  1.00  0.00     0.081 A 
HETATM   22  N3  UNL     1       3.011  23.518   5.786  1.00  0.00    -0.346 N 
HETATM   23  C10 UNL     1       2.526  22.665   6.691  1.00  0.00     0.049 A 
ATOM     24  H3  UNL     1       2.459  24.163   5.221  1.00  0.00     0.167 HD
HETATM   25  C18 UNL     1       3.603  22.005   7.205  1.00  0.00     0.116 A 
HETATM   26  N6  UNL     1       4.757  22.445   6.622  1.00  0.00    -0.354 N 
ATOM     27  H6  UNL     1       5.709  22.130   6.812  1.00  0.00     0.166 HD
BRANCH  23  28
HETATM   28  C11 UNL     1       1.080  22.472   7.076  1.00  0.00     0.136 C 
BRANCH  28  29
HETATM   29  C12 UNL     1       1.019  21.454   8.172  1.00  0.00     0.031 C 
BRANCH  29  30
HETATM   30  C13 UNL     1      -0.359  21.329   8.748  1.00  0.00     0.004 C 
BRANCH  30  31
HETATM   31  C14 UNL     1      -1.420  21.000   7.736  1.00  0.00     0.027 C 
BRANCH  31  32
HETATM   32  C15 UNL     1      -2.639  21.865   8.059  1.00  0.00     0.229 C 
BRANCH  32  33
HETATM   33  N4  UNL     1      -3.127  22.320   6.748  1.00  0.00    -0.079 N 
ATOM     34  H43 UNL     1      -2.393  22.660   6.127  1.00  0.00     0.274 HD
ATOM     35  H42 UNL     1      -3.451  21.568   6.141  1.00  0.00     0.274 HD
ATOM     36  H41 UNL     1      -3.841  23.015   6.968  1.00  0.00     0.274 HD
ENDBRANCH  32  33
ENDBRANCH  31  32
ENDBRANCH  30  31
ENDBRANCH  29  30
ENDBRANCH  28  29
BRANCH  28  37
HETATM   37  N5  UNL     1       0.563  23.757   7.486  1.00  0.00    -0.351 N 
HETATM   38  C16 UNL     1      -0.365  24.481   6.703  1.00  0.00     0.214 C 
HETATM   39  C17 UNL     1      -0.886  25.812   7.152  1.00  0.00     0.117 C 
HETATM   40  O4  UNL     1      -0.748  23.983   5.615  1.00  0.00    -0.274 OA
ATOM     41  H5  UNL     1       0.878  24.156   8.370  1.00  0.00     0.163 HD
ENDBRANCH  28  37
ENDBRANCH  23  28
ENDBRANCH  20  21
ENDBRANCH  19  20
ENDBRANCH  18  19
ENDBRANCH  15  18
ENDBRANCH  13  15
ENDBRANCH  12  13
BRANCH  12  42
HETATM   42  C19 UNL     1       8.075  29.123   4.435  1.00  0.00     0.042 C 
HETATM   43  C20 UNL     1       7.011  30.193   4.460  1.00  0.00     0.011 C 
HETATM   44  C21 UNL     1       6.972  30.735   3.017  1.00  0.00     0.001 C 
HETATM   45  C22 UNL     1       8.238  31.515   2.817  1.00  0.00     0.000 C 
HETATM   46  C23 UNL     1       9.390  31.121   3.670  1.00  0.00     0.001 C 
HETATM   47  C24 UNL     1       9.436  29.709   4.131  1.00  0.00     0.011 C 
ENDBRANCH  12  42
ENDBRANCH   9  12
ENDBRANCH   3   8
TORSDOF 16
ENDMDL
MODEL 5
REMARK VINA RESULT: -8.594604905      1.197      2.521
REMARK  16 active torsions:
REMARK  status: ('A' for Active; 'I' for Inactive)
REMARK    1  A    between atoms: C3_3  and  N1_4 
REMARK       I    between atoms: N1_4  and  C4_6 
REMARK    2  A    between atoms: C4_6  and  C5_8 
REMARK    3  A    between atoms: C5_8  and  N2_9 
REMARK    4  A    between atoms: C5_8  and  C19_38 
REMARK    5  A    between atoms: N2_9  and  S1_11 
REMARK    6  A    between atoms: S1_11  and  C6_14 
REMARK    7  A    between atoms: C6_14  and  C7_15 
REMARK    8  A    between atoms: C7_15  and  C8_16 
REMARK    9  A    between atoms: C8_16  and  C9_17 
REMARK   10  A    between atoms: C10_20  and  C11_21 
REMARK   11  A    between atoms: C11_21  and  C12_22 
REMARK   12  A    between atoms: C11_21  and  N5_30 
REMARK   13  A    between atoms: C12_22  and  C13_23 
REMARK   14  A    between atoms: C13_23  and  C14_24 
REMARK   15  A    between atoms: C14_24  and  C15_25 
REMARK   16  A    between atoms: C15_25  and  N4_26 
REMARK       I    between atoms: N5_30  and  C16_32 
ROOT
HETATM    1  C1  UNL     1       9.364  23.671  -1.207  1.00  0.00     0.015 C 
HETATM    2  C2  UNL     1       9.770  24.744  -0.859  1.00  0.00    -0.086 C 
HETATM    3  C3  UNL     1      10.252  26.037  -0.414  1.00  0.00     0.096 C 
HETATM    4  C25 UNL     1      11.730  26.238  -0.650  1.00  0.00     0.044 C 
HETATM    5  C26 UNL     1      11.795  26.366  -2.157  1.00  0.00     0.004 C 
HETATM    6  C27 UNL     1      10.438  26.852  -2.604  1.00  0.00     0.004 C 
HETATM    7  C28 UNL     1       9.668  27.133  -1.307  1.00  0.00     0.044 C 
ENDROOT
BRANCH   3   8
HETATM    8  N1  UNL     1       9.937  26.270   0.980  1.00  0.00    -0.336 N 
HETATM    9  C4  UNL     1       8.643  26.281   1.492  1.00  0.00     0.266 C 
HETATM   10  O1  UNL     1       7.672  26.081   0.657  1.00  0.00    -0.266 OA
ATOM     11  H1  UNL     1      10.709  26.436   1.625  1.00  0.00     0.164 HD
BRANCH   9  12
HETATM   12  C5  UNL     1       8.193  26.495   2.868  1.00  0.00     0.091 C 
BRANCH  12  13
HETATM   13  N2  UNL     1       7.105  25.627   3.240  1.00  0.00    -0.282 N 
ATOM     14  H2  UNL     1       6.314  25.466   2.616  1.00  0.00     0.178 HD
BRANCH  13  15
HETATM   15  S1  UNL     1       7.200  24.894   4.748  1.00  0.00     0.230 S 
HETATM   16  O2  UNL     1       8.643  24.628   5.123  1.00  0.00    -0.206 OA
HETATM   17  O3  UNL     1       6.604  25.843   5.790  1.00  0.00    -0.206 OA
BRANCH  15  18
HETATM   18  C6  UNL     1       6.254  23.401   4.813  1.00  0.00     0.164 C 
BRANCH  18  19
HETATM   19  C7  UNL     1       5.011  23.646   5.639  1.00  0.00     0.024 C 
BRANCH  19  20
HETATM   20  C8  UNL     1       4.807  22.663   6.737  1.00  0.00     0.077 C 
BRANCH  20  21
HETATM   21  C9  UNL     1       3.407  22.267   6.965  1.00  0.00     0.081 A 
HETATM   22  N3  UNL     1       2.395  23.182   6.908  1.00  0.00    -0.346 N 
HETATM   23  C10 UNL     1       1.238  22.553   7.128  1.00  0.00     0.049 A 
ATOM     24  H3  UNL     1       2.504  24.180   6.729  1.00  0.00     0.167 HD
HETATM   25  C18 UNL     1       1.552  21.240   7.321  1.00  0.00     0.116 A 
HETATM   26  N6  UNL     1       2.902  21.050   7.222  1.00  0.00    -0.354 N 
ATOM     27  H6  UNL     1       3.414  20.174   7.321  1.00  0.00     0.166 HD
BRANCH  23  28
HETATM   28  C11 UNL     1      -0.139  23.167   7.164  1.00  0.00     0.136 C 
BRANCH  28  29
HETATM   29  C12 UNL     1      -0.297  24.036   5.956  1.00  0.00     0.031 C 
BRANCH  29  30
HETATM   30  C13 UNL     1      -1.139  25.244   6.236  1.00  0.00     0.004 C 
BRANCH  30  31
HETATM   31  C14 UNL     1      -0.686  26.045   7.424  1.00  0.00     0.027 C 
BRANCH  31  32
HETATM   32  C15 UNL     1      -1.007  27.511   7.132  1.00  0.00     0.229 C 
BRANCH  32  33
HETATM   33  N4  UNL     1      -0.074  28.270   7.980  1.00  0.00    -0.079 N 
ATOM     34  H43 UNL     1       0.382  27.710   8.700  1.00  0.00     0.274 HD
ATOM     35  H42 UNL     1       0.779  28.560   7.502  1.00  0.00     0.274 HD
ATOM     36  H41 UNL     1      -0.630  29.044   8.344  1.00  0.00     0.274 HD
ENDBRANCH  32  33
ENDBRANCH  31  32
ENDBRANCH  30  31
ENDBRANCH  29  30
ENDBRANCH  28  29
BRANCH  28  37
HETATM   37  N5  UNL     1      -1.098  22.086   7.196  1.00  0.00    -0.351 N 
HETATM   38  C16 UNL     1      -2.270  22.140   7.985  1.00  0.00     0.214 C 
HETATM   39  C17 UNL     1      -3.248  21.005   7.998  1.00  0.00     0.117 C 
HETATM   40  O4  UNL     1      -2.478  23.167   8.679  1.00  0.00    -0.274 OA
ATOM     41  H5  UNL     1      -0.923  21.255   6.630  1.00  0.00     0.163 HD
ENDBRANCH  28  37
ENDBRANCH  23  28
ENDBRANCH  20  21
ENDBRANCH  19  20
ENDBRANCH  18  19
ENDBRANCH  15  18
ENDBRANCH  13  15
ENDBRANCH  12  13
BRANCH  12  42
HETATM   42  C19 UNL     1       8.100  27.850   3.403  1.00  0.00     0.042 C 
HETATM   43  C20 UNL     1       9.139  28.164   4.453  1.00  0.00     0.011 C 
HETATM   44  C21 UNL     1       8.597  29.416   5.171  1.00  0.00     0.001 C 
HETATM   45  C22 UNL     1       8.731  30.556   4.206  1.00  0.00     0.000 C 
HETATM   46  C23 UNL     1       8.731  30.195   2.764  1.00  0.00     0.001 C 
HETATM   47  C24 UNL     1       8.003  28.958   2.378  1.00  0.00     0.011 C 
ENDBRANCH  12  42
ENDBRANCH   9  12
ENDBRANCH   3   8
TORSDOF 16
ENDMDL
