MODEL 1
REMARK VINA RESULT: -7.365564434      0.000      0.000
REMARK  15 active torsions:
REMARK  status: ('A' for Active; 'I' for Inactive)
REMARK    1  A    between atoms: C2_2  and  C3_3 
REMARK    2  A    between atoms: C3_3  and  C5_5 
REMARK    3  A    between atoms: C5_5  and  C6_6 
REMARK    4  A    between atoms: C5_5  and  N1_13 
REMARK    5  A    between atoms: C6_6  and  C7_7 
REMARK       I    between atoms: N1_13  and  C13_15 
REMARK    6  A    between atoms: C13_15  and  C14_17 
REMARK    7  A    between atoms: C17_23  and  C18_24 
REMARK    8  A    between atoms: C18_24  and  C19_25 
REMARK    9  A    between atoms: C19_25  and  C20_26 
REMARK       I    between atoms: C20_26  and  N3_28 
REMARK   10  A    between atoms: N3_28  and  C21_29 
REMARK   11  A    between atoms: C21_29  and  C22_30 
REMARK   12  A    between atoms: C22_30  and  C23_31 
REMARK   13  A    between atoms: C23_31  and  N4_32 
REMARK   14  A    between atoms: C25_39  and  C26_40 
REMARK   15  A    between atoms: C26_40  and  C27_41 
ROOT
HETATM    1  N4  UNL     1       1.618  23.201   6.062  1.00  0.00    -0.368 N 
ATOM      2  H4  UNL     1       2.161  23.945   5.624  1.00  0.00     0.161 HD
HETATM    3  C24 UNL     1       0.406  23.399   6.349  1.00  0.00     0.348 C 
HETATM    4  O4  UNL     1      -0.752  23.771   6.542  1.00  0.00    -0.284 OA
ENDROOT
BRANCH   1   5
HETATM    5  C23 UNL     1       2.240  21.945   6.343  1.00  0.00     0.128 C 
BRANCH   5   6
HETATM    6  C22 UNL     1       3.112  22.006   7.585  1.00  0.00     0.079 C 
BRANCH   6   7
HETATM    7  C21 UNL     1       4.569  21.888   7.085  1.00  0.00     0.160 C 
BRANCH   7   8
HETATM    8  N3  UNL     1       5.003  22.916   6.307  1.00  0.00    -0.388 NA
HETATM    9  C20 UNL     1       5.430  23.947   5.519  1.00  0.00     0.290 C 
HETATM   10  O3  UNL     1       4.855  24.406   4.505  1.00  0.00    -0.257 OA
BRANCH   9  11
HETATM   11  C19 UNL     1       6.743  24.675   5.848  1.00  0.00     0.121 C 
BRANCH  11  12
HETATM   12  C18 UNL     1       7.512  24.931   4.606  1.00  0.00     0.053 C 
BRANCH  12  13
HETATM   13  C17 UNL     1       7.706  26.383   4.304  1.00  0.00     0.278 C 
HETATM   14  C16 UNL     1       9.086  26.839   4.105  1.00  0.00     0.249 C 
HETATM   15  N2  UNL     1       9.253  28.251   3.859  1.00  0.00    -0.340 N 
HETATM   16  O2  UNL     1      10.124  26.093   4.138  1.00  0.00    -0.271 OA
HETATM   17  C14 UNL     1       8.334  29.146   4.614  1.00  0.00     0.138 C 
ATOM     18  H2  UNL     1       9.953  28.611   3.211  1.00  0.00     0.163 HD
HETATM   19  C15 UNL     1       7.148  29.463   3.696  1.00  0.00     0.051 C 
HETATM   20  C25 UNL     1       7.863  28.332   5.764  1.00  0.00     0.224 C 
HETATM   21  N5  UNL     1       7.070  27.182   5.341  1.00  0.00    -0.055 N 
ATOM     22  H52 UNL     1       6.138  27.474   5.048  1.00  0.00     0.278 HD
ATOM     23  H51 UNL     1       6.823  26.601   6.141  1.00  0.00     0.278 HD
BRANCH  17  24
HETATM   24  C13 UNL     1       9.096  30.355   4.930  1.00  0.00     0.248 C 
HETATM   25  N1  UNL     1       8.761  31.327   5.873  1.00  0.00    -0.354 N 
ATOM     26  H1  UNL     1       7.890  31.134   6.366  1.00  0.00     0.162 HD
HETATM   27  O1  UNL     1      10.179  30.480   4.231  1.00  0.00    -0.271 OA
BRANCH  25  28
HETATM   28  C5  UNL     1       9.400  32.544   6.285  1.00  0.00     0.088 C 
BRANCH  28  29
HETATM   29  C3  UNL     1       8.865  33.669   5.505  1.00  0.00     0.004 C 
HETATM   30  C4  UNL     1       7.522  33.471   4.844  1.00  0.00     0.012 C 
BRANCH  29  31
HETATM   31  C2  UNL     1       9.803  34.039   4.343  1.00  0.00     0.002 C 
HETATM   32  C1  UNL     1      11.228  33.827   4.722  1.00  0.00     0.005 C 
ENDBRANCH  29  31
ENDBRANCH  28  29
BRANCH  28  33
HETATM   33  C6  UNL     1       9.381  32.627   7.780  1.00  0.00     0.030 C 
BRANCH  33  34
HETATM   34  C7  UNL     1       8.329  33.427   8.460  1.00  0.00    -0.013 C 
HETATM   35  C8  UNL     1       8.732  33.552   9.978  1.00  0.00     0.005 C 
HETATM   36  C9  UNL     1       8.288  32.368  10.781  1.00  0.00     0.000 C 
HETATM   37  C10 UNL     1       6.793  32.510  11.025  1.00  0.00     0.000 C 
HETATM   38  C11 UNL     1       6.231  33.192   9.786  1.00  0.00     0.000 C 
HETATM   39  C12 UNL     1       7.033  32.646   8.570  1.00  0.00     0.005 C 
ENDBRANCH  33  34
ENDBRANCH  28  33
ENDBRANCH  25  28
ENDBRANCH  17  24
BRANCH  20  40
HETATM   40  C26 UNL     1       7.058  29.093   6.761  1.00  0.00     0.042 C 
BRANCH  40  41
HETATM   41  C27 UNL     1       7.190  28.640   8.198  1.00  0.00     0.013 C 
HETATM   42  C28 UNL     1       8.435  29.165   8.851  1.00  0.00     0.008 C 
HETATM   43  C29 UNL     1       8.458  28.626  10.272  1.00  0.00     0.028 C 
HETATM   44  C30 UNL     1       7.179  28.817  11.007  1.00  0.00     0.232 C 
HETATM   45  N6  UNL     1       5.985  28.635  10.249  1.00  0.00    -0.075 N 
HETATM   46  C31 UNL     1       6.008  29.249   8.959  1.00  0.00     0.237 C 
ATOM     47  H62 UNL     1       5.764  27.643  10.167  1.00  0.00     0.277 HD
ATOM     48  H61 UNL     1       5.175  28.951  10.780  1.00  0.00     0.277 HD
ENDBRANCH  40  41
ENDBRANCH  20  40
ENDBRANCH  12  13
ENDBRANCH  11  12
ENDBRANCH   9  11
ENDBRANCH   7   8
ENDBRANCH   6   7
ENDBRANCH   5   6
ENDBRANCH   1   5
TORSDOF 15
ENDMDL
MODEL 2
REMARK VINA RESULT: -7.237994443      0.795      1.305
REMARK  15 active torsions:
REMARK  status: ('A' for Active; 'I' for Inactive)
REMARK    1  A    between atoms: C2_2  and  C3_3 
REMARK    2  A    between atoms: C3_3  and  C5_5 
REMARK    3  A    between atoms: C5_5  and  C6_6 
REMARK    4  A    between atoms: C5_5  and  N1_13 
REMARK    5  A    between atoms: C6_6  and  C7_7 
REMARK       I    between atoms: N1_13  and  C13_15 
REMARK    6  A    between atoms: C13_15  and  C14_17 
REMARK    7  A    between atoms: C17_23  and  C18_24 
REMARK    8  A    between atoms: C18_24  and  C19_25 
REMARK    9  A    between atoms: C19_25  and  C20_26 
REMARK       I    between atoms: C20_26  and  N3_28 
REMARK   10  A    between atoms: N3_28  and  C21_29 
REMARK   11  A    between atoms: C21_29  and  C22_30 
REMARK   12  A    between atoms: C22_30  and  C23_31 
REMARK   13  A    between atoms: C23_31  and  N4_32 
REMARK   14  A    between atoms: C25_39  and  C26_40 
REMARK   15  A    between atoms: C26_40  and  C27_41 
ROOT
HETATM    1  N4  UNL     1       1.824  23.250   6.354  1.00  0.00    -0.368 N 
ATOM      2  H4  UNL     1       2.288  23.461   5.471  1.00  0.00     0.161 HD
HETATM    3  C24 UNL     1       0.569  23.344   6.438  1.00  0.00     0.348 C 
HETATM    4  O4  UNL     1      -0.650  23.478   6.324  1.00  0.00    -0.284 OA
ENDROOT
BRANCH   1   5
HETATM    5  C23 UNL     1       2.604  22.851   7.484  1.00  0.00     0.128 C 
BRANCH   5   6
HETATM    6  C22 UNL     1       3.373  21.567   7.221  1.00  0.00     0.079 C 
BRANCH   6   7
HETATM    7  C21 UNL     1       4.836  21.995   6.970  1.00  0.00     0.160 C 
BRANCH   7   8
HETATM    8  N3  UNL     1       5.008  22.954   6.022  1.00  0.00    -0.388 NA
HETATM    9  C20 UNL     1       5.170  23.919   5.069  1.00  0.00     0.290 C 
HETATM   10  O3  UNL     1       4.270  24.611   4.538  1.00  0.00    -0.257 OA
BRANCH   9  11
HETATM   11  C19 UNL     1       6.575  24.255   4.544  1.00  0.00     0.121 C 
BRANCH  11  12
HETATM   12  C18 UNL     1       7.290  25.123   5.511  1.00  0.00     0.053 C 
BRANCH  12  13
HETATM   13  C17 UNL     1       7.488  26.526   5.033  1.00  0.00     0.278 C 
HETATM   14  C16 UNL     1       8.830  26.880   4.556  1.00  0.00     0.249 C 
HETATM   15  N2  UNL     1       9.008  28.250   4.141  1.00  0.00    -0.340 N 
HETATM   16  O2  UNL     1       9.826  26.081   4.490  1.00  0.00    -0.271 OA
HETATM   17  C14 UNL     1       8.272  29.264   4.944  1.00  0.00     0.138 C 
ATOM     18  H2  UNL     1       9.598  28.506   3.350  1.00  0.00     0.163 HD
HETATM   19  C15 UNL     1       6.958  29.561   4.212  1.00  0.00     0.051 C 
HETATM   20  C25 UNL     1       7.975  28.592   6.235  1.00  0.00     0.224 C 
HETATM   21  N5  UNL     1       7.075  27.455   6.073  1.00  0.00    -0.055 N 
ATOM     22  H52 UNL     1       6.119  27.772   5.914  1.00  0.00     0.278 HD
ATOM     23  H51 UNL     1       6.947  26.968   6.960  1.00  0.00     0.278 HD
BRANCH  17  24
HETATM   24  C13 UNL     1       9.126  30.452   4.999  1.00  0.00     0.248 C 
HETATM   25  N1  UNL     1       8.910  31.597   5.766  1.00  0.00    -0.354 N 
ATOM     26  H1  UNL     1       8.060  31.558   6.328  1.00  0.00     0.162 HD
HETATM   27  O1  UNL     1      10.170  30.373   4.238  1.00  0.00    -0.271 OA
BRANCH  25  28
HETATM   28  C5  UNL     1       9.647  32.818   5.921  1.00  0.00     0.088 C 
BRANCH  28  29
HETATM   29  C3  UNL     1       9.126  33.829   4.990  1.00  0.00     0.004 C 
HETATM   30  C4  UNL     1       9.278  35.276   5.390  1.00  0.00     0.012 C 
BRANCH  29  31
HETATM   31  C2  UNL     1       7.613  33.659   4.771  1.00  0.00     0.002 C 
HETATM   32  C1  UNL     1       7.307  33.437   3.330  1.00  0.00     0.005 C 
ENDBRANCH  29  31
ENDBRANCH  28  29
BRANCH  28  33
HETATM   33  C6  UNL     1       9.740  33.155   7.377  1.00  0.00     0.030 C 
BRANCH  33  34
HETATM   34  C7  UNL     1       8.932  32.390   8.363  1.00  0.00    -0.013 C 
HETATM   35  C8  UNL     1       7.631  33.225   8.664  1.00  0.00     0.005 C 
HETATM   36  C9  UNL     1       7.856  34.262   9.720  1.00  0.00     0.000 C 
HETATM   37  C10 UNL     1       7.876  33.553  11.067  1.00  0.00     0.000 C 
HETATM   38  C11 UNL     1       8.493  32.186  10.808  1.00  0.00     0.000 C 
HETATM   39  C12 UNL     1       9.594  32.386   9.728  1.00  0.00     0.005 C 
ENDBRANCH  33  34
ENDBRANCH  28  33
ENDBRANCH  25  28
ENDBRANCH  17  24
BRANCH  20  40
HETATM   40  C26 UNL     1       7.389  29.489   7.269  1.00  0.00     0.042 C 
BRANCH  40  41
HETATM   41  C27 UNL     1       7.095  28.849   8.608  1.00  0.00     0.013 C 
HETATM   42  C28 UNL     1       8.291  28.848   9.515  1.00  0.00     0.008 C 
HETATM   43  C29 UNL     1       7.873  28.165  10.807  1.00  0.00     0.028 C 
HETATM   44  C30 UNL     1       6.598  28.681  11.373  1.00  0.00     0.232 C 
HETATM   45  N6  UNL     1       5.576  28.999  10.432  1.00  0.00    -0.075 N 
HETATM   46  C31 UNL     1       6.034  29.721   9.287  1.00  0.00     0.237 C 
ATOM     47  H62 UNL     1       5.081  28.155  10.145  1.00  0.00     0.277 HD
ATOM     48  H61 UNL     1       4.815  29.500  10.888  1.00  0.00     0.277 HD
ENDBRANCH  40  41
ENDBRANCH  20  40
ENDBRANCH  12  13
ENDBRANCH  11  12
ENDBRANCH   9  11
ENDBRANCH   7   8
ENDBRANCH   6   7
ENDBRANCH   5   6
ENDBRANCH   1   5
TORSDOF 15
ENDMDL
MODEL 3
REMARK VINA RESULT: -7.055184793      3.357      6.578
REMARK  15 active torsions:
REMARK  status: ('A' for Active; 'I' for Inactive)
REMARK    1  A    between atoms: C2_2  and  C3_3 
REMARK    2  A    between atoms: C3_3  and  C5_5 
REMARK    3  A    between atoms: C5_5  and  C6_6 
REMARK    4  A    between atoms: C5_5  and  N1_13 
REMARK    5  A    between atoms: C6_6  and  C7_7 
REMARK       I    between atoms: N1_13  and  C13_15 
REMARK    6  A    between atoms: C13_15  and  C14_17 
REMARK    7  A    between atoms: C17_23  and  C18_24 
REMARK    8  A    between atoms: C18_24  and  C19_25 
REMARK    9  A    between atoms: C19_25  and  C20_26 
REMARK       I    between atoms: C20_26  and  N3_28 
REMARK   10  A    between atoms: N3_28  and  C21_29 
REMARK   11  A    between atoms: C21_29  and  C22_30 
REMARK   12  A    between atoms: C22_30  and  C23_31 
REMARK   13  A    between atoms: C23_31  and  N4_32 
REMARK   14  A    between atoms: C25_39  and  C26_40 
REMARK   15  A    between atoms: C26_40  and  C27_41 
ROOT
HETATM    1  N4  UNL     1      -0.211  23.009   6.350  1.00  0.00    -0.368 N 
ATOM      2  H4  UNL     1      -0.149  22.486   5.476  1.00  0.00     0.161 HD
HETATM    3  C24 UNL     1      -1.343  23.322   6.810  1.00  0.00     0.348 C 
HETATM    4  O4  UNL     1      -2.522  23.524   7.104  1.00  0.00    -0.284 OA
ENDROOT
BRANCH   1   5
HETATM    5  C23 UNL     1       0.986  23.378   7.040  1.00  0.00     0.128 C 
BRANCH   5   6
HETATM    6  C22 UNL     1       1.472  22.277   7.966  1.00  0.00     0.079 C 
BRANCH   6   7
HETATM    7  C21 UNL     1       2.533  21.489   7.165  1.00  0.00     0.160 C 
BRANCH   7   8
HETATM    8  N3  UNL     1       3.507  22.244   6.590  1.00  0.00    -0.388 NA
HETATM    9  C20 UNL     1       4.478  23.008   6.006  1.00  0.00     0.290 C 
HETATM   10  O3  UNL     1       4.307  23.963   5.212  1.00  0.00    -0.257 OA
BRANCH   9  11
HETATM   11  C19 UNL     1       5.959  22.734   6.308  1.00  0.00     0.121 C 
BRANCH  11  12
HETATM   12  C18 UNL     1       6.741  23.992   6.226  1.00  0.00     0.053 C 
BRANCH  12  13
HETATM   13  C17 UNL     1       7.120  24.378   4.831  1.00  0.00     0.278 C 
HETATM   14  C16 UNL     1       8.472  24.017   4.389  1.00  0.00     0.249 C 
HETATM   15  N2  UNL     1       8.830  24.437   3.057  1.00  0.00    -0.340 N 
HETATM   16  O2  UNL     1       9.331  23.377   5.086  1.00  0.00    -0.271 OA
HETATM   17  C14 UNL     1       8.299  25.764   2.638  1.00  0.00     0.138 C 
ATOM     18  H2  UNL     1       9.408  23.864   2.443  1.00  0.00     0.163 HD
HETATM   19  C15 UNL     1       7.007  25.512   1.854  1.00  0.00     0.051 C 
HETATM   20  C25 UNL     1       7.977  26.466   3.907  1.00  0.00     0.224 C 
HETATM   21  N5  UNL     1       6.909  25.805   4.650  1.00  0.00    -0.055 N 
ATOM     22  H52 UNL     1       6.004  25.983   4.215  1.00  0.00     0.278 HD
ATOM     23  H51 UNL     1       6.758  26.264   5.548  1.00  0.00     0.278 HD
BRANCH  17  24
HETATM   24  C13 UNL     1       9.323  26.373   1.789  1.00  0.00     0.248 C 
HETATM   25  N1  UNL     1       9.226  26.628   0.421  1.00  0.00    -0.354 N 
ATOM     26  H1  UNL     1       8.335  26.343   0.015  1.00  0.00     0.162 HD
HETATM   27  O1  UNL     1      10.406  26.686   2.427  1.00  0.00    -0.271 OA
BRANCH  25  28
HETATM   28  C5  UNL     1      10.132  27.211  -0.528  1.00  0.00     0.088 C 
BRANCH  28  29
HETATM   29  C3  UNL     1      11.094  26.195  -0.978  1.00  0.00     0.004 C 
HETATM   30  C4  UNL     1      12.546  26.601  -1.035  1.00  0.00     0.012 C 
BRANCH  29  31
HETATM   31  C2  UNL     1      10.781  25.723  -2.408  1.00  0.00     0.002 C 
HETATM   32  C1  UNL     1       9.986  24.463  -2.390  1.00  0.00     0.005 C 
ENDBRANCH  29  31
ENDBRANCH  28  29
BRANCH  28  33
HETATM   33  C6  UNL     1       9.347  27.968  -1.555  1.00  0.00     0.030 C 
BRANCH  33  34
HETATM   34  C7  UNL     1       9.193  29.441  -1.423  1.00  0.00    -0.013 C 
HETATM   35  C8  UNL     1       8.711  29.740   0.047  1.00  0.00     0.005 C 
HETATM   36  C9  UNL     1       7.226  29.615   0.192  1.00  0.00     0.000 C 
HETATM   37  C10 UNL     1       6.596  30.862  -0.413  1.00  0.00     0.000 C 
HETATM   38  C11 UNL     1       7.495  31.260  -1.575  1.00  0.00     0.000 C 
HETATM   39  C12 UNL     1       8.004  29.940  -2.222  1.00  0.00     0.005 C 
ENDBRANCH  33  34
ENDBRANCH  28  33
ENDBRANCH  25  28
ENDBRANCH  17  24
BRANCH  20  40
HETATM   40  C26 UNL     1       7.589  27.894   3.731  1.00  0.00     0.042 C 
BRANCH  40  41
HETATM   41  C27 UNL     1       8.467  28.907   4.432  1.00  0.00     0.013 C 
HETATM   42  C28 UNL     1       8.687  30.141   3.606  1.00  0.00     0.008 C 
HETATM   43  C29 UNL     1       9.593  31.061   4.408  1.00  0.00     0.028 C 
HETATM   44  C30 UNL     1       9.153  31.261   5.814  1.00  0.00     0.232 C 
HETATM   45  N6  UNL     1       8.623  30.114   6.475  1.00  0.00    -0.075 N 
HETATM   46  C31 UNL     1       7.708  29.351   5.686  1.00  0.00     0.237 C 
ATOM     47  H62 UNL     1       9.377  29.521   6.819  1.00  0.00     0.277 HD
ATOM     48  H61 UNL     1       8.193  30.381   7.361  1.00  0.00     0.277 HD
ENDBRANCH  40  41
ENDBRANCH  20  40
ENDBRANCH  12  13
ENDBRANCH  11  12
ENDBRANCH   9  11
ENDBRANCH   7   8
ENDBRANCH   6   7
ENDBRANCH   5   6
ENDBRANCH   1   5
TORSDOF 15
ENDMDL
MODEL 4
REMARK VINA RESULT: -6.949805294      0.976      1.352
REMARK  15 active torsions:
REMARK  status: ('A' for Active; 'I' for Inactive)
REMARK    1  A    between atoms: C2_2  and  C3_3 
REMARK    2  A    between atoms: C3_3  and  C5_5 
REMARK    3  A    between atoms: C5_5  and  C6_6 
REMARK    4  A    between atoms: C5_5  and  N1_13 
REMARK    5  A    between atoms: C6_6  and  C7_7 
REMARK       I    between atoms: N1_13  and  C13_15 
REMARK    6  A    between atoms: C13_15  and  C14_17 
REMARK    7  A    between atoms: C17_23  and  C18_24 
REMARK    8  A    between atoms: C18_24  and  C19_25 
REMARK    9  A    between atoms: C19_25  and  C20_26 
REMARK       I    between atoms: C20_26  and  N3_28 
REMARK   10  A    between atoms: N3_28  and  C21_29 
REMARK   11  A    between atoms: C21_29  and  C22_30 
REMARK   12  A    between atoms: C22_30  and  C23_31 
REMARK   13  A    between atoms: C23_31  and  N4_32 
REMARK   14  A    between atoms: C25_39  and  C26_40 
REMARK   15  A    between atoms: C26_40  and  C27_41 
ROOT
HETATM    1  N4  UNL     1       1.191  22.331   6.348  1.00  0.00    -0.368 N 
ATOM      2  H4  UNL     1       0.640  22.207   5.498  1.00  0.00     0.161 HD
HETATM    3  C24 UNL     1       0.858  23.214   7.184  1.00  0.00     0.348 C 
HETATM    4  O4  UNL     1       0.376  24.109   7.879  1.00  0.00    -0.284 OA
ENDROOT
BRANCH   1   5
HETATM    5  C23 UNL     1       2.331  21.499   6.578  1.00  0.00     0.128 C 
BRANCH   5   6
HETATM    6  C22 UNL     1       3.266  22.090   7.619  1.00  0.00     0.079 C 
BRANCH   6   7
HETATM    7  C21 UNL     1       4.686  21.985   7.021  1.00  0.00     0.160 C 
BRANCH   7   8
HETATM    8  N3  UNL     1       4.991  22.914   6.076  1.00  0.00    -0.388 NA
HETATM    9  C20 UNL     1       5.286  23.851   5.126  1.00  0.00     0.290 C 
HETATM   10  O3  UNL     1       4.475  24.588   4.519  1.00  0.00    -0.257 OA
BRANCH   9  11
HETATM   11  C19 UNL     1       6.745  24.088   4.706  1.00  0.00     0.121 C 
BRANCH  11  12
HETATM   12  C18 UNL     1       7.397  25.044   5.634  1.00  0.00     0.053 C 
BRANCH  12  13
HETATM   13  C17 UNL     1       7.487  26.439   5.099  1.00  0.00     0.278 C 
HETATM   14  C16 UNL     1       8.766  26.835   4.499  1.00  0.00     0.249 C 
HETATM   15  N2  UNL     1       8.843  28.197   4.030  1.00  0.00    -0.340 N 
HETATM   16  O2  UNL     1       9.788  26.080   4.370  1.00  0.00    -0.271 OA
HETATM   17  C14 UNL     1       8.132  29.204   4.863  1.00  0.00     0.138 C 
ATOM     18  H2  UNL     1       9.352  28.453   3.183  1.00  0.00     0.163 HD
HETATM   19  C15 UNL     1       6.748  29.418   4.240  1.00  0.00     0.051 C 
HETATM   20  C25 UNL     1       7.979  28.562   6.194  1.00  0.00     0.224 C 
HETATM   21  N5  UNL     1       7.122  27.382   6.144  1.00  0.00    -0.055 N 
ATOM     22  H52 UNL     1       6.142  27.651   6.059  1.00  0.00     0.278 HD
ATOM     23  H51 UNL     1       7.093  26.920   7.053  1.00  0.00     0.278 HD
BRANCH  17  24
HETATM   24  C13 UNL     1       8.931  30.430   4.810  1.00  0.00     0.248 C 
HETATM   25  N1  UNL     1       8.505  31.716   5.142  1.00  0.00    -0.354 N 
ATOM     26  H1  UNL     1       7.533  31.758   5.446  1.00  0.00     0.162 HD
HETATM   27  O1  UNL     1      10.146  30.237   4.406  1.00  0.00    -0.271 OA
BRANCH  25  28
HETATM   28  C5  UNL     1       9.165  32.991   5.140  1.00  0.00     0.088 C 
BRANCH  28  29
HETATM   29  C3  UNL     1       8.843  33.709   3.899  1.00  0.00     0.004 C 
HETATM   30  C4  UNL     1       7.523  33.388   3.241  1.00  0.00     0.012 C 
BRANCH  29  31
HETATM   31  C2  UNL     1       9.885  33.426   2.803  1.00  0.00     0.002 C 
HETATM   32  C1  UNL     1      11.263  33.421   3.369  1.00  0.00     0.005 C 
ENDBRANCH  29  31
ENDBRANCH  28  29
BRANCH  28  33
HETATM   33  C6  UNL     1       8.924  33.670   6.452  1.00  0.00     0.030 C 
BRANCH  33  34
HETATM   34  C7  UNL     1       9.896  33.491   7.563  1.00  0.00    -0.013 C 
HETATM   35  C8  UNL     1       9.387  32.296   8.453  1.00  0.00     0.005 C 
HETATM   36  C9  UNL     1       8.376  32.736   9.467  1.00  0.00     0.000 C 
HETATM   37  C10 UNL     1       9.126  33.433  10.593  1.00  0.00     0.000 C 
HETATM   38  C11 UNL     1      10.308  34.132   9.937  1.00  0.00     0.000 C 
HETATM   39  C12 UNL     1       9.816  34.640   8.551  1.00  0.00     0.005 C 
ENDBRANCH  33  34
ENDBRANCH  28  33
ENDBRANCH  25  28
ENDBRANCH  17  24
BRANCH  20  40
HETATM   40  C26 UNL     1       7.441  29.467   7.249  1.00  0.00     0.042 C 
BRANCH  40  41
HETATM   41  C27 UNL     1       7.160  28.823   8.589  1.00  0.00     0.013 C 
HETATM   42  C28 UNL     1       8.349  28.868   9.504  1.00  0.00     0.008 C 
HETATM   43  C29 UNL     1       7.947  28.178  10.797  1.00  0.00     0.028 C 
HETATM   44  C30 UNL     1       6.651  28.652  11.352  1.00  0.00     0.232 C 
HETATM   45  N6  UNL     1       5.624  28.929  10.402  1.00  0.00    -0.075 N 
HETATM   46  C31 UNL     1       6.065  29.661   9.256  1.00  0.00     0.237 C 
ATOM     47  H62 UNL     1       5.161  28.067  10.116  1.00  0.00     0.277 HD
ATOM     48  H61 UNL     1       4.843  29.406  10.850  1.00  0.00     0.277 HD
ENDBRANCH  40  41
ENDBRANCH  20  40
ENDBRANCH  12  13
ENDBRANCH  11  12
ENDBRANCH   9  11
ENDBRANCH   7   8
ENDBRANCH   6   7
ENDBRANCH   5   6
ENDBRANCH   1   5
TORSDOF 15
ENDMDL
MODEL 5
REMARK VINA RESULT: -6.766320013      1.579      2.870
REMARK  15 active torsions:
REMARK  status: ('A' for Active; 'I' for Inactive)
REMARK    1  A    between atoms: C2_2  and  C3_3 
REMARK    2  A    between atoms: C3_3  and  C5_5 
REMARK    3  A    between atoms: C5_5  and  C6_6 
REMARK    4  A    between atoms: C5_5  and  N1_13 
REMARK    5  A    between atoms: C6_6  and  C7_7 
REMARK       I    between atoms: N1_13  and  C13_15 
REMARK    6  A    between atoms: C13_15  and  C14_17 
REMARK    7  A    between atoms: C17_23  and  C18_24 
REMARK    8  A    between atoms: C18_24  and  C19_25 
REMARK    9  A    between atoms: C19_25  and  C20_26 
REMARK       I    between atoms: C20_26  and  N3_28 
REMARK   10  A    between atoms: N3_28  and  C21_29 
REMARK   11  A    between atoms: C21_29  and  C22_30 
REMARK   12  A    between atoms: C22_30  and  C23_31 
REMARK   13  A    between atoms: C23_31  and  N4_32 
REMARK   14  A    between atoms: C25_39  and  C26_40 
REMARK   15  A    between atoms: C26_40  and  C27_41 
ROOT
HETATM    1  N4  UNL     1       1.167  22.261   6.374  1.00  0.00    -0.368 N 
ATOM      2  H4  UNL     1       0.434  21.759   5.874  1.00  0.00     0.161 HD
HETATM    3  C24 UNL     1       0.858  23.207   7.148  1.00  0.00     0.348 C 
HETATM    4  O4  UNL     1       0.367  24.084   7.860  1.00  0.00    -0.284 OA
ENDROOT
BRANCH   1   5
HETATM    5  C23 UNL     1       2.534  21.883   6.191  1.00  0.00     0.128 C 
BRANCH   5   6
HETATM    6  C22 UNL     1       3.327  21.969   7.483  1.00  0.00     0.079 C 
BRANCH   6   7
HETATM    7  C21 UNL     1       4.814  22.000   7.066  1.00  0.00     0.160 C 
BRANCH   7   8
HETATM    8  N3  UNL     1       5.132  22.912   6.109  1.00  0.00    -0.388 NA
HETATM    9  C20 UNL     1       5.441  23.832   5.147  1.00  0.00     0.290 C 
HETATM   10  O3  UNL     1       4.637  24.553   4.511  1.00  0.00    -0.257 OA
BRANCH   9  11
HETATM   11  C19 UNL     1       6.906  24.069   4.750  1.00  0.00     0.121 C 
BRANCH  11  12
HETATM   12  C18 UNL     1       7.522  25.081   5.643  1.00  0.00     0.053 C 
BRANCH  12  13
HETATM   13  C17 UNL     1       7.554  26.459   5.063  1.00  0.00     0.278 C 
HETATM   14  C16 UNL     1       8.751  26.827   4.298  1.00  0.00     0.249 C 
HETATM   15  N2  UNL     1       8.778  28.175   3.785  1.00  0.00    -0.340 N 
HETATM   16  O2  UNL     1       9.745  26.059   4.065  1.00  0.00    -0.271 OA
HETATM   17  C14 UNL     1       8.182  29.211   4.672  1.00  0.00     0.138 C 
ATOM     18  H2  UNL     1       9.180  28.404   2.876  1.00  0.00     0.163 HD
HETATM   19  C15 UNL     1       6.732  29.422   4.219  1.00  0.00     0.051 C 
HETATM   20  C25 UNL     1       8.190  28.607   6.029  1.00  0.00     0.224 C 
HETATM   21  N5  UNL     1       7.327  27.434   6.118  1.00  0.00    -0.055 N 
ATOM     22  H52 UNL     1       6.345  27.710   6.147  1.00  0.00     0.278 HD
ATOM     23  H51 UNL     1       7.408  26.996   7.036  1.00  0.00     0.278 HD
BRANCH  17  24
HETATM   24  C13 UNL     1       8.975  30.427   4.486  1.00  0.00     0.248 C 
HETATM   25  N1  UNL     1       8.515  31.741   4.562  1.00  0.00    -0.354 N 
ATOM     26  H1  UNL     1       7.519  31.813   4.768  1.00  0.00     0.162 HD
HETATM   27  O1  UNL     1      10.223  30.195   4.228  1.00  0.00    -0.271 OA
BRANCH  25  28
HETATM   28  C5  UNL     1       9.164  33.012   4.406  1.00  0.00     0.088 C 
BRANCH  28  29
HETATM   29  C3  UNL     1       8.426  33.825   3.431  1.00  0.00     0.004 C 
HETATM   30  C4  UNL     1       7.226  33.189   2.771  1.00  0.00     0.012 C 
BRANCH  29  31
HETATM   31  C2  UNL     1       9.325  34.239   2.253  1.00  0.00     0.002 C 
HETATM   32  C1  UNL     1      10.178  33.102   1.811  1.00  0.00     0.005 C 
ENDBRANCH  29  31
ENDBRANCH  28  29
BRANCH  28  33
HETATM   33  C6  UNL     1       9.451  33.586   5.759  1.00  0.00     0.030 C 
BRANCH  33  34
HETATM   34  C7  UNL     1      10.850  33.920   6.135  1.00  0.00    -0.013 C 
HETATM   35  C8  UNL     1      10.978  35.490   6.149  1.00  0.00     0.005 C 
HETATM   36  C9  UNL     1      11.258  36.047   4.787  1.00  0.00     0.000 C 
HETATM   37  C10 UNL     1      12.726  35.794   4.478  1.00  0.00     0.000 C 
HETATM   38  C11 UNL     1      13.072  34.473   5.149  1.00  0.00     0.000 C 
HETATM   39  C12 UNL     1      11.816  33.562   5.022  1.00  0.00     0.005 C 
ENDBRANCH  33  34
ENDBRANCH  28  33
ENDBRANCH  25  28
ENDBRANCH  17  24
BRANCH  20  40
HETATM   40  C26 UNL     1       7.793  29.544   7.117  1.00  0.00     0.042 C 
BRANCH  40  41
HETATM   41  C27 UNL     1       7.362  28.901   8.416  1.00  0.00     0.013 C 
HETATM   42  C28 UNL     1       8.424  28.986   9.474  1.00  0.00     0.008 C 
HETATM   43  C29 UNL     1       7.880  28.292  10.713  1.00  0.00     0.028 C 
HETATM   44  C30 UNL     1       6.511  28.733  11.094  1.00  0.00     0.232 C 
HETATM   45  N6  UNL     1       5.606  28.974  10.019  1.00  0.00    -0.075 N 
HETATM   46  C31 UNL     1       6.169  29.711   8.932  1.00  0.00     0.237 C 
ATOM     47  H62 UNL     1       5.207  28.098   9.686  1.00  0.00     0.277 HD
ATOM     48  H61 UNL     1       4.762  29.432  10.361  1.00  0.00     0.277 HD
ENDBRANCH  40  41
ENDBRANCH  20  40
ENDBRANCH  12  13
ENDBRANCH  11  12
ENDBRANCH   9  11
ENDBRANCH   7   8
ENDBRANCH   6   7
ENDBRANCH   5   6
ENDBRANCH   1   5
TORSDOF 15
ENDMDL
