MODEL 1
REMARK VINA RESULT: -7.495555890      0.000      0.000
REMARK  10 active torsions:
REMARK  status: ('A' for Active; 'I' for Inactive)
REMARK    1  A    between atoms: C2_2  and  C3_3 
REMARK    2  A    between atoms: C3_3  and  C4_4 
REMARK    3  A    between atoms: C4_4  and  C5_5 
REMARK    4  A    between atoms: C5_5  and  C6_6 
REMARK    5  A    between atoms: C6_6  and  C7_7 
REMARK    6  A    between atoms: C7_7  and  C8_8 
REMARK    7  A    between atoms: C8_8  and  C9_9 
REMARK    8  A    between atoms: C9_9  and  C10_10 
REMARK    9  A    between atoms: C10_10  and  N1_11 
REMARK   10  A    between atoms: C19_24  and  N3_25 
ROOT
HETATM    1  C10 UNL     1      -3.481   9.084 -15.466  1.00  0.00     0.227 C 
HETATM    2  C15 UNL     1      -3.649  10.538 -15.618  1.00  0.00     0.137 C 
HETATM    3  C16 UNL     1      -4.757  10.736 -16.606  1.00  0.00     0.170 C 
HETATM    4  O2  UNL     1      -5.351  11.815 -16.878  1.00  0.00    -0.292 OA
HETATM    5  C17 UNL     1      -5.033   9.450 -17.207  1.00  0.00     0.104 A 
HETATM    6  C18 UNL     1      -4.313   8.474 -16.569  1.00  0.00     0.089 A 
HETATM    7  N2  UNL     1      -4.446   7.207 -16.995  1.00  0.00    -0.192 N 
ATOM      8  H2  UNL     1      -3.914   6.473 -16.526  1.00  0.00     0.184 HD
HETATM    9  C19 UNL     1      -5.252   6.870 -18.014  1.00  0.00     0.679 A 
HETATM   10  N4  UNL     1      -5.945   7.834 -18.621  1.00  0.00    -0.155 N 
ATOM     11  H4  UNL     1      -6.559   7.584 -19.395  1.00  0.00     0.187 HD
HETATM   12  C20 UNL     1      -5.864   9.112 -18.254  1.00  0.00     0.275 A 
HETATM   13  O3  UNL     1      -6.531   9.978 -18.853  1.00  0.00    -0.267 OA
ENDROOT
BRANCH   1  14
HETATM   14  C9  UNL     1      -3.804   8.515 -14.165  1.00  0.00     0.017 C 
BRANCH  14  15
HETATM   15  C8  UNL     1      -4.773   9.099 -13.240  1.00  0.00    -0.028 C 
BRANCH  15  16
HETATM   16  C7  UNL     1      -6.217   9.144 -13.512  1.00  0.00     0.027 C 
BRANCH  16  17
HETATM   17  C6  UNL     1      -6.912  10.425 -13.083  1.00  0.00     0.004 C 
BRANCH  17  18
HETATM   18  C5  UNL     1      -5.892  11.511 -12.836  1.00  0.00     0.000 C 
BRANCH  18  19
HETATM   19  C4  UNL     1      -6.565  12.848 -12.624  1.00  0.00     0.000 C 
BRANCH  19  20
HETATM   20  C3  UNL     1      -7.770  12.689 -11.730  1.00  0.00    -0.000 C 
BRANCH  20  21
HETATM   21  C2  UNL     1      -8.155  14.080 -11.247  1.00  0.00    -0.005 C 
HETATM   22  C1  UNL     1      -7.325  15.140 -11.928  1.00  0.00     0.005 C 
ENDBRANCH  20  21
ENDBRANCH  19  20
ENDBRANCH  18  19
ENDBRANCH  17  18
ENDBRANCH  16  17
ENDBRANCH  15  16
ENDBRANCH  14  15
ENDBRANCH   1  14
BRANCH   1  23
HETATM   23  N1  UNL     1      -2.102   8.698 -15.837  1.00  0.00     0.112 N 
HETATM   24  C11 UNL     1      -1.337   9.801 -16.267  1.00  0.00     0.300 C 
HETATM   25  C12 UNL     1       0.141   9.682 -16.048  1.00  0.00     0.198 C 
HETATM   26  O1  UNL     1       0.518   8.335 -15.959  1.00  0.00    -0.388 OA
HETATM   27  C13 UNL     1      -0.024   7.883 -14.756  1.00  0.00     0.198 C 
HETATM   28  C14 UNL     1      -1.518   7.790 -14.924  1.00  0.00     0.300 C 
ENDBRANCH   1  23
BRANCH   9  29
HETATM   29  N3  UNL     1      -5.338   5.646 -18.374  1.00  0.00    -0.234 N 
ATOM     30  H32 UNL     1      -4.661   4.946 -18.070  1.00  0.00     0.174 HD
ATOM     31  H31 UNL     1      -6.101   5.352 -18.983  1.00  0.00     0.174 HD
ENDBRANCH   9  29
TORSDOF 10
ENDMDL
MODEL 2
REMARK VINA RESULT: -7.198532530      0.778      1.010
REMARK  10 active torsions:
REMARK  status: ('A' for Active; 'I' for Inactive)
REMARK    1  A    between atoms: C2_2  and  C3_3 
REMARK    2  A    between atoms: C3_3  and  C4_4 
REMARK    3  A    between atoms: C4_4  and  C5_5 
REMARK    4  A    between atoms: C5_5  and  C6_6 
REMARK    5  A    between atoms: C6_6  and  C7_7 
REMARK    6  A    between atoms: C7_7  and  C8_8 
REMARK    7  A    between atoms: C8_8  and  C9_9 
REMARK    8  A    between atoms: C9_9  and  C10_10 
REMARK    9  A    between atoms: C10_10  and  N1_11 
REMARK   10  A    between atoms: C19_24  and  N3_25 
ROOT
HETATM    1  C10 UNL     1      -3.180   9.003 -15.879  1.00  0.00     0.227 C 
HETATM    2  C15 UNL     1      -3.439  10.446 -15.998  1.00  0.00     0.137 C 
HETATM    3  C16 UNL     1      -4.730  10.585 -16.744  1.00  0.00     0.170 C 
HETATM    4  O2  UNL     1      -5.415  11.635 -16.894  1.00  0.00    -0.292 OA
HETATM    5  C17 UNL     1      -5.064   9.282 -17.274  1.00  0.00     0.104 A 
HETATM    6  C18 UNL     1      -4.188   8.345 -16.792  1.00  0.00     0.089 A 
HETATM    7  N2  UNL     1      -4.347   7.068 -17.179  1.00  0.00    -0.192 N 
ATOM      8  H2  UNL     1      -3.701   6.364 -16.824  1.00  0.00     0.184 HD
HETATM    9  C19 UNL     1      -5.326   6.685 -18.014  1.00  0.00     0.679 A 
HETATM   10  N4  UNL     1      -6.168   7.612 -18.473  1.00  0.00    -0.155 N 
ATOM     11  H4  UNL     1      -6.914   7.327 -19.107  1.00  0.00     0.187 HD
HETATM   12  C20 UNL     1      -6.072   8.896 -18.133  1.00  0.00     0.275 A 
HETATM   13  O3  UNL     1      -6.884   9.726 -18.588  1.00  0.00    -0.267 OA
ENDROOT
BRANCH   1  14
HETATM   14  C9  UNL     1      -3.210   8.435 -14.538  1.00  0.00     0.017 C 
BRANCH  14  15
HETATM   15  C8  UNL     1      -4.135   8.867 -13.493  1.00  0.00    -0.028 C 
BRANCH  15  16
HETATM   16  C7  UNL     1      -3.902  10.051 -12.654  1.00  0.00     0.027 C 
BRANCH  16  17
HETATM   17  C6  UNL     1      -5.003  11.098 -12.699  1.00  0.00     0.004 C 
BRANCH  17  18
HETATM   18  C5  UNL     1      -6.227  10.534 -13.381  1.00  0.00     0.000 C 
BRANCH  18  19
HETATM   19  C4  UNL     1      -7.491  11.126 -12.801  1.00  0.00     0.000 C 
BRANCH  19  20
HETATM   20  C3  UNL     1      -7.182  11.865 -11.522  1.00  0.00    -0.000 C 
BRANCH  20  21
HETATM   21  C2  UNL     1      -7.926  13.191 -11.581  1.00  0.00    -0.005 C 
HETATM   22  C1  UNL     1      -7.072  14.265 -12.209  1.00  0.00     0.005 C 
ENDBRANCH  20  21
ENDBRANCH  19  20
ENDBRANCH  18  19
ENDBRANCH  17  18
ENDBRANCH  16  17
ENDBRANCH  15  16
ENDBRANCH  14  15
ENDBRANCH   1  14
BRANCH   1  23
HETATM   23  N1  UNL     1      -1.888   8.672 -16.518  1.00  0.00     0.112 N 
HETATM   24  C11 UNL     1      -1.237   9.814 -17.028  1.00  0.00     0.300 C 
HETATM   25  C12 UNL     1       0.257   9.726 -17.094  1.00  0.00     0.198 C 
HETATM   26  O1  UNL     1       0.670   8.388 -17.142  1.00  0.00    -0.388 OA
HETATM   27  C13 UNL     1       0.370   7.867 -15.884  1.00  0.00     0.198 C 
HETATM   28  C14 UNL     1      -1.127   7.741 -15.776  1.00  0.00     0.300 C 
ENDBRANCH   1  23
BRANCH   9  29
HETATM   29  N3  UNL     1      -5.427   5.456 -18.347  1.00  0.00    -0.234 N 
ATOM     30  H32 UNL     1      -5.537   4.716 -17.653  1.00  0.00     0.174 HD
ATOM     31  H31 UNL     1      -5.397   5.196 -19.333  1.00  0.00     0.174 HD
ENDBRANCH   9  29
TORSDOF 10
ENDMDL
MODEL 3
REMARK VINA RESULT: -7.101374909      1.141      1.627
REMARK  10 active torsions:
REMARK  status: ('A' for Active; 'I' for Inactive)
REMARK    1  A    between atoms: C2_2  and  C3_3 
REMARK    2  A    between atoms: C3_3  and  C4_4 
REMARK    3  A    between atoms: C4_4  and  C5_5 
REMARK    4  A    between atoms: C5_5  and  C6_6 
REMARK    5  A    between atoms: C6_6  and  C7_7 
REMARK    6  A    between atoms: C7_7  and  C8_8 
REMARK    7  A    between atoms: C8_8  and  C9_9 
REMARK    8  A    between atoms: C9_9  and  C10_10 
REMARK    9  A    between atoms: C10_10  and  N1_11 
REMARK   10  A    between atoms: C19_24  and  N3_25 
ROOT
HETATM    1  C10 UNL     1      -4.458   8.517 -16.409  1.00  0.00     0.227 C 
HETATM    2  C15 UNL     1      -5.007   9.781 -16.924  1.00  0.00     0.137 C 
HETATM    3  C16 UNL     1      -5.855   9.426 -18.106  1.00  0.00     0.170 C 
HETATM    4  O2  UNL     1      -6.659  10.179 -18.721  1.00  0.00    -0.292 OA
HETATM    5  C17 UNL     1      -5.586   8.042 -18.429  1.00  0.00     0.104 A 
HETATM    6  C18 UNL     1      -4.783   7.488 -17.466  1.00  0.00     0.089 A 
HETATM    7  N2  UNL     1      -4.428   6.199 -17.601  1.00  0.00    -0.192 N 
ATOM      8  H2  UNL     1      -3.832   5.778 -16.889  1.00  0.00     0.184 HD
HETATM    9  C19 UNL     1      -4.831   5.445 -18.636  1.00  0.00     0.679 A 
HETATM   10  N4  UNL     1      -5.612   6.003 -19.562  1.00  0.00    -0.155 N 
ATOM     11  H4  UNL     1      -5.921   5.435 -20.350  1.00  0.00     0.187 HD
HETATM   12  C20 UNL     1      -6.003   7.274 -19.495  1.00  0.00     0.275 A 
HETATM   13  O3  UNL     1      -6.733   7.752 -20.386  1.00  0.00    -0.267 OA
ENDROOT
BRANCH   1  14
HETATM   14  C9  UNL     1      -4.899   8.095 -15.087  1.00  0.00     0.017 C 
BRANCH  14  15
HETATM   15  C8  UNL     1      -5.566   8.977 -14.132  1.00  0.00    -0.028 C 
BRANCH  15  16
HETATM   16  C7  UNL     1      -4.838   9.862 -13.211  1.00  0.00     0.027 C 
BRANCH  16  17
HETATM   17  C6  UNL     1      -5.585  11.120 -12.802  1.00  0.00     0.004 C 
BRANCH  17  18
HETATM   18  C5  UNL     1      -7.054  10.818 -12.625  1.00  0.00     0.000 C 
BRANCH  18  19
HETATM   19  C4  UNL     1      -7.773  11.979 -11.980  1.00  0.00     0.000 C 
BRANCH  19  20
HETATM   20  C3  UNL     1      -7.022  13.263 -12.234  1.00  0.00    -0.000 C 
BRANCH  20  21
HETATM   21  C2  UNL     1      -7.763  14.368 -11.496  1.00  0.00    -0.005 C 
HETATM   22  C1  UNL     1      -7.230  15.728 -11.876  1.00  0.00     0.005 C 
ENDBRANCH  20  21
ENDBRANCH  19  20
ENDBRANCH  18  19
ENDBRANCH  17  18
ENDBRANCH  16  17
ENDBRANCH  15  16
ENDBRANCH  14  15
ENDBRANCH   1  14
BRANCH   1  23
HETATM   23  N1  UNL     1      -2.980   8.566 -16.436  1.00  0.00     0.112 N 
HETATM   24  C11 UNL     1      -2.494   9.859 -16.718  1.00  0.00     0.300 C 
HETATM   25  C12 UNL     1      -1.140  10.173 -16.158  1.00  0.00     0.198 C 
HETATM   26  O1  UNL     1      -0.416   8.994 -15.934  1.00  0.00    -0.388 OA
HETATM   27  C13 UNL     1      -1.065   8.362 -14.874  1.00  0.00     0.198 C 
HETATM   28  C14 UNL     1      -2.384   7.840 -15.380  1.00  0.00     0.300 C 
ENDBRANCH   1  23
BRANCH   9  29
HETATM   29  N3  UNL     1      -4.461   4.224 -18.709  1.00  0.00    -0.234 N 
ATOM     30  H32 UNL     1      -4.127   3.711 -17.893  1.00  0.00     0.174 HD
ATOM     31  H31 UNL     1      -4.497   3.739 -19.606  1.00  0.00     0.174 HD
ENDBRANCH   9  29
TORSDOF 10
ENDMDL
MODEL 4
REMARK VINA RESULT: -7.008972962      1.313      1.707
REMARK  10 active torsions:
REMARK  status: ('A' for Active; 'I' for Inactive)
REMARK    1  A    between atoms: C2_2  and  C3_3 
REMARK    2  A    between atoms: C3_3  and  C4_4 
REMARK    3  A    between atoms: C4_4  and  C5_5 
REMARK    4  A    between atoms: C5_5  and  C6_6 
REMARK    5  A    between atoms: C6_6  and  C7_7 
REMARK    6  A    between atoms: C7_7  and  C8_8 
REMARK    7  A    between atoms: C8_8  and  C9_9 
REMARK    8  A    between atoms: C9_9  and  C10_10 
REMARK    9  A    between atoms: C10_10  and  N1_11 
REMARK   10  A    between atoms: C19_24  and  N3_25 
ROOT
HETATM    1  C10 UNL     1      -4.082   8.927 -16.200  1.00  0.00     0.227 C 
HETATM    2  C15 UNL     1      -5.016  10.048 -16.389  1.00  0.00     0.137 C 
HETATM    3  C16 UNL     1      -6.104   9.548 -17.287  1.00  0.00     0.170 C 
HETATM    4  O2  UNL     1      -7.200  10.117 -17.547  1.00  0.00    -0.292 OA
HETATM    5  C17 UNL     1      -5.673   8.274 -17.818  1.00  0.00     0.104 A 
HETATM    6  C18 UNL     1      -4.508   7.887 -17.209  1.00  0.00     0.089 A 
HETATM    7  N2  UNL     1      -3.957   6.718 -17.577  1.00  0.00    -0.192 N 
ATOM      8  H2  UNL     1      -3.091   6.421 -17.129  1.00  0.00     0.184 HD
HETATM    9  C19 UNL     1      -4.505   5.927 -18.513  1.00  0.00     0.679 A 
HETATM   10  N4  UNL     1      -5.638   6.322 -19.094  1.00  0.00    -0.155 N 
ATOM     11  H4  UNL     1      -6.059   5.724 -19.806  1.00  0.00     0.187 HD
HETATM   12  C20 UNL     1      -6.241   7.466 -18.781  1.00  0.00     0.275 A 
HETATM   13  O3  UNL     1      -7.300   7.793 -19.352  1.00  0.00    -0.267 OA
ENDROOT
BRANCH   1  14
HETATM   14  C9  UNL     1      -3.980   8.372 -14.858  1.00  0.00     0.017 C 
BRANCH  14  15
HETATM   15  C8  UNL     1      -4.690   8.909 -13.699  1.00  0.00    -0.028 C 
BRANCH  15  16
HETATM   16  C7  UNL     1      -4.196  10.049 -12.912  1.00  0.00     0.027 C 
BRANCH  16  17
HETATM   17  C6  UNL     1      -5.209  11.157 -12.680  1.00  0.00     0.004 C 
BRANCH  17  18
HETATM   18  C5  UNL     1      -6.595  10.676 -13.034  1.00  0.00     0.000 C 
BRANCH  18  19
HETATM   19  C4  UNL     1      -7.651  11.495 -12.328  1.00  0.00     0.000 C 
BRANCH  19  20
HETATM   20  C3  UNL     1      -7.119  12.872 -12.015  1.00  0.00    -0.000 C 
BRANCH  20  21
HETATM   21  C2  UNL     1      -8.201  13.602 -11.233  1.00  0.00    -0.005 C 
HETATM   22  C1  UNL     1      -7.983  15.095 -11.269  1.00  0.00     0.005 C 
ENDBRANCH  20  21
ENDBRANCH  19  20
ENDBRANCH  18  19
ENDBRANCH  17  18
ENDBRANCH  16  17
ENDBRANCH  15  16
ENDBRANCH  14  15
ENDBRANCH   1  14
BRANCH   1  23
HETATM   23  N1  UNL     1      -2.734   9.314 -16.671  1.00  0.00     0.112 N 
HETATM   24  C11 UNL     1      -2.764  10.458 -17.494  1.00  0.00     0.300 C 
HETATM   25  C12 UNL     1      -1.515  11.285 -17.490  1.00  0.00     0.198 C 
HETATM   26  O1  UNL     1      -0.412  10.509 -17.108  1.00  0.00    -0.388 OA
HETATM   27  C13 UNL     1      -0.616  10.224 -15.759  1.00  0.00     0.198 C 
HETATM   28  C14 UNL     1      -1.754   9.243 -15.655  1.00  0.00     0.300 C 
ENDBRANCH   1  23
BRANCH   9  29
HETATM   29  N3  UNL     1      -3.935   4.826 -18.822  1.00  0.00    -0.234 N 
ATOM     30  H32 UNL     1      -3.004   4.584 -18.480  1.00  0.00     0.174 HD
ATOM     31  H31 UNL     1      -4.415   4.161 -19.429  1.00  0.00     0.174 HD
ENDBRANCH   9  29
TORSDOF 10
ENDMDL
MODEL 5
REMARK VINA RESULT: -6.879458949      3.242      6.196
REMARK  10 active torsions:
REMARK  status: ('A' for Active; 'I' for Inactive)
REMARK    1  A    between atoms: C2_2  and  C3_3 
REMARK    2  A    between atoms: C3_3  and  C4_4 
REMARK    3  A    between atoms: C4_4  and  C5_5 
REMARK    4  A    between atoms: C5_5  and  C6_6 
REMARK    5  A    between atoms: C6_6  and  C7_7 
REMARK    6  A    between atoms: C7_7  and  C8_8 
REMARK    7  A    between atoms: C8_8  and  C9_9 
REMARK    8  A    between atoms: C9_9  and  C10_10 
REMARK    9  A    between atoms: C10_10  and  N1_11 
REMARK   10  A    between atoms: C19_24  and  N3_25 
ROOT
HETATM    1  C10 UNL     1      -4.330  10.362 -14.322  1.00  0.00     0.227 C 
HETATM    2  C15 UNL     1      -4.928   9.085 -13.901  1.00  0.00     0.137 C 
HETATM    3  C16 UNL     1      -6.291   9.409 -13.372  1.00  0.00     0.170 C 
HETATM    4  O2  UNL     1      -7.212   8.594 -13.089  1.00  0.00    -0.292 OA
HETATM    5  C17 UNL     1      -6.371  10.847 -13.238  1.00  0.00     0.104 A 
HETATM    6  C18 UNL     1      -5.253  11.427 -13.778  1.00  0.00     0.089 A 
HETATM    7  N2  UNL     1      -5.154  12.766 -13.745  1.00  0.00    -0.192 N 
ATOM      8  H2  UNL     1      -4.326  13.207 -14.146  1.00  0.00     0.184 HD
HETATM    9  C19 UNL     1      -6.104  13.546 -13.204  1.00  0.00     0.679 A 
HETATM   10  N4  UNL     1      -7.183  12.962 -12.683  1.00  0.00    -0.155 N 
ATOM     11  H4  UNL     1      -7.908  13.549 -12.271  1.00  0.00     0.187 HD
HETATM   12  C20 UNL     1      -7.351  11.641 -12.680  1.00  0.00     0.275 A 
HETATM   13  O3  UNL     1      -8.378  11.141 -12.180  1.00  0.00    -0.267 OA
ENDROOT
BRANCH   1  14
HETATM   14  C9  UNL     1      -4.078  10.536 -15.746  1.00  0.00     0.017 C 
BRANCH  14  15
HETATM   15  C8  UNL     1      -5.134  10.676 -16.746  1.00  0.00    -0.028 C 
BRANCH  15  16
HETATM   16  C7  UNL     1      -5.264   9.784 -17.908  1.00  0.00     0.027 C 
BRANCH  16  17
HETATM   17  C6  UNL     1      -6.281   8.667 -17.750  1.00  0.00     0.004 C 
BRANCH  17  18
HETATM   18  C5  UNL     1      -5.664   7.344 -18.135  1.00  0.00     0.000 C 
BRANCH  18  19
HETATM   19  C4  UNL     1      -4.654   6.896 -17.105  1.00  0.00     0.000 C 
BRANCH  19  20
HETATM   20  C3  UNL     1      -3.308   6.681 -17.753  1.00  0.00    -0.000 C 
BRANCH  20  21
HETATM   21  C2  UNL     1      -2.288   7.455 -16.931  1.00  0.00    -0.005 C 
HETATM   22  C1  UNL     1      -1.648   8.550 -17.750  1.00  0.00     0.005 C 
ENDBRANCH  20  21
ENDBRANCH  19  20
ENDBRANCH  18  19
ENDBRANCH  17  18
ENDBRANCH  16  17
ENDBRANCH  15  16
ENDBRANCH  14  15
ENDBRANCH   1  14
BRANCH   1  23
HETATM   23  N1  UNL     1      -3.075  10.597 -13.574  1.00  0.00     0.112 N 
HETATM   24  C11 UNL     1      -3.239  10.413 -12.186  1.00  0.00     0.300 C 
HETATM   25  C12 UNL     1      -2.007   9.993 -11.444  1.00  0.00     0.198 C 
HETATM   26  O1  UNL     1      -0.856  10.372 -12.148  1.00  0.00    -0.388 OA
HETATM   27  C13 UNL     1      -0.840   9.563 -13.284  1.00  0.00     0.198 C 
HETATM   28  C14 UNL     1      -1.945  10.023 -14.199  1.00  0.00     0.300 C 
ENDBRANCH   1  23
BRANCH   9  29
HETATM   29  N3  UNL     1      -5.953  14.815 -13.202  1.00  0.00    -0.234 N 
ATOM     30  H32 UNL     1      -6.585  15.435 -13.709  1.00  0.00     0.174 HD
ATOM     31  H31 UNL     1      -5.182  15.231 -12.680  1.00  0.00     0.174 HD
ENDBRANCH   9  29
TORSDOF 10
ENDMDL
