MODEL 1
REMARK VINA RESULT: -6.553038003      0.000      0.000
REMARK  10 active torsions:
REMARK  status: ('A' for Active; 'I' for Inactive)
REMARK    1  A    between atoms: C13_13  and  C14_14 
REMARK    2  A    between atoms: C13_13  and  C20_24 
REMARK    3  A    between atoms: C15_15  and  C16_16 
REMARK    4  A    between atoms: C16_16  and  O1_17 
REMARK    5  A    between atoms: C16_16  and  C17_19 
REMARK    6  A    between atoms: C17_19  and  C18_20 
REMARK    7  A    between atoms: C18_20  and  O2_22 
REMARK    8  A    between atoms: C20_24  and  O3_25 
REMARK    9  A    between atoms: O3_25  and  C21_26 
REMARK   10  A    between atoms: C21_26  and  C22_27 
ROOT
HETATM    1  C1  UNL     1      -4.391   7.079 -16.592  1.00  0.00     0.016 C 
HETATM    2  C2  UNL     1      -3.437   7.912 -16.968  1.00  0.00    -0.065 C 
HETATM    3  C3  UNL     1      -2.008   7.762 -16.713  1.00  0.00    -0.016 C 
HETATM    4  C4  UNL     1      -1.298   6.798 -17.612  1.00  0.00     0.020 C 
HETATM    5  C5  UNL     1      -1.641   7.430 -15.283  1.00  0.00     0.014 C 
HETATM    6  C6  UNL     1      -0.151   7.423 -15.143  1.00  0.00     0.001 C 
HETATM    7  C7  UNL     1       0.635   8.421 -15.870  1.00  0.00     0.000 C 
HETATM    8  C8  UNL     1      -0.057   9.308 -16.850  1.00  0.00     0.006 C 
HETATM    9  C9  UNL     1      -1.524   9.197 -16.865  1.00  0.00     0.007 C 
HETATM   10  C10 UNL     1      -2.289   9.747 -17.993  1.00  0.00    -0.026 C 
HETATM   11  C11 UNL     1      -1.765   9.511 -19.353  1.00  0.00     0.016 C 
HETATM   12  C12 UNL     1      -2.270  11.280 -17.799  1.00  0.00     0.016 C 
HETATM   13  C13 UNL     1      -3.652   9.192 -17.741  1.00  0.00     0.029 C 
ENDROOT
BRANCH  13  14
HETATM   14  C14 UNL     1      -4.356  10.193 -16.875  1.00  0.00    -0.011 C 
HETATM   15  C15 UNL     1      -4.826   9.858 -15.687  1.00  0.00     0.002 C 
BRANCH  15  16
HETATM   16  C16 UNL     1      -5.526  10.855 -14.830  1.00  0.00     0.143 C 
BRANCH  16  17
HETATM   17  O1  UNL     1      -5.423  12.143 -15.373  1.00  0.00    -0.392 OA
ATOM     18  H1  UNL     1      -6.160  12.681 -15.112  1.00  0.00     0.210 HD
ENDBRANCH  16  17
BRANCH  16  19
HETATM   19  C17 UNL     1      -5.002  10.833 -13.412  1.00  0.00     0.067 C 
BRANCH  19  20
HETATM   20  C18 UNL     1      -5.951  11.543 -12.462  1.00  0.00     0.116 C 
HETATM   21  C19 UNL     1      -7.336  10.953 -12.610  1.00  0.00     0.039 C 
BRANCH  20  22
HETATM   22  O2  UNL     1      -6.040  12.889 -12.826  1.00  0.00    -0.396 OA
ATOM     23  H2  UNL     1      -6.493  13.366 -12.142  1.00  0.00     0.210 HD
ENDBRANCH  20  22
ENDBRANCH  19  20
ENDBRANCH  16  19
ENDBRANCH  15  16
ENDBRANCH  13  14
BRANCH  13  24
HETATM   24  C20 UNL     1      -4.502   8.903 -18.915  1.00  0.00     0.187 C 
BRANCH  24  25
HETATM   25  O3  UNL     1      -5.599   9.758 -19.011  1.00  0.00    -0.381 OA
BRANCH  25  26
HETATM   26  C21 UNL     1      -6.537   9.313 -19.918  1.00  0.00     0.267 C 
BRANCH  26  27
HETATM   27  C22 UNL     1      -7.679   8.750 -19.189  1.00  0.00     0.254 C 
HETATM   28  N1  UNL     1      -8.865   8.297 -19.830  1.00  0.00    -0.060 NA
HETATM   29  O4  UNL     1      -7.637   8.651 -17.935  1.00  0.00    -0.275 OA
ENDBRANCH  26  27
ENDBRANCH  25  26
ENDBRANCH  24  25
ENDBRANCH  13  24
TORSDOF 10
ENDMDL
MODEL 2
REMARK VINA RESULT: -6.552359015      3.550      6.381
REMARK  10 active torsions:
REMARK  status: ('A' for Active; 'I' for Inactive)
REMARK    1  A    between atoms: C13_13  and  C14_14 
REMARK    2  A    between atoms: C13_13  and  C20_24 
REMARK    3  A    between atoms: C15_15  and  C16_16 
REMARK    4  A    between atoms: C16_16  and  O1_17 
REMARK    5  A    between atoms: C16_16  and  C17_19 
REMARK    6  A    between atoms: C17_19  and  C18_20 
REMARK    7  A    between atoms: C18_20  and  O2_22 
REMARK    8  A    between atoms: C20_24  and  O3_25 
REMARK    9  A    between atoms: O3_25  and  C21_26 
REMARK   10  A    between atoms: C21_26  and  C22_27 
ROOT
HETATM    1  C1  UNL     1      -4.293   9.131 -21.162  1.00  0.00     0.016 C 
HETATM    2  C2  UNL     1      -5.590   8.905 -21.268  1.00  0.00    -0.065 C 
HETATM    3  C3  UNL     1      -6.432   9.225 -22.417  1.00  0.00    -0.016 C 
HETATM    4  C4  UNL     1      -6.335   8.269 -23.565  1.00  0.00     0.020 C 
HETATM    5  C5  UNL     1      -6.275  10.629 -22.959  1.00  0.00     0.014 C 
HETATM    6  C6  UNL     1      -7.275  10.854 -24.049  1.00  0.00     0.001 C 
HETATM    7  C7  UNL     1      -8.617  10.288 -23.909  1.00  0.00     0.000 C 
HETATM    8  C8  UNL     1      -8.897   9.372 -22.765  1.00  0.00     0.006 C 
HETATM    9  C9  UNL     1      -7.812   9.260 -21.776  1.00  0.00     0.007 C 
HETATM   10  C10 UNL     1      -7.817   8.156 -20.806  1.00  0.00    -0.026 C 
HETATM   11  C11 UNL     1      -8.170   6.811 -21.302  1.00  0.00     0.016 C 
HETATM   12  C12 UNL     1      -8.907   8.517 -19.772  1.00  0.00     0.016 C 
HETATM   13  C13 UNL     1      -6.454   8.265 -20.207  1.00  0.00     0.029 C 
ENDROOT
BRANCH  13  14
HETATM   14  C14 UNL     1      -6.586   9.194 -19.037  1.00  0.00    -0.011 C 
HETATM   15  C15 UNL     1      -6.000   8.929 -17.884  1.00  0.00     0.002 C 
BRANCH  15  16
HETATM   16  C16 UNL     1      -6.135   9.853 -16.724  1.00  0.00     0.143 C 
BRANCH  16  17
HETATM   17  O1  UNL     1      -5.554  11.097 -17.005  1.00  0.00    -0.392 OA
ATOM     18  H1  UNL     1      -4.963  11.361 -16.310  1.00  0.00     0.210 HD
ENDBRANCH  16  17
BRANCH  16  19
HETATM   19  C17 UNL     1      -5.538   9.260 -15.468  1.00  0.00     0.067 C 
BRANCH  19  20
HETATM   20  C18 UNL     1      -6.304   9.698 -14.233  1.00  0.00     0.116 C 
HETATM   21  C19 UNL     1      -5.321  10.070 -13.145  1.00  0.00     0.039 C 
BRANCH  20  22
HETATM   22  O2  UNL     1      -7.054   8.622 -13.754  1.00  0.00    -0.396 OA
ATOM     23  H2  UNL     1      -6.829   8.467 -12.844  1.00  0.00     0.210 HD
ENDBRANCH  20  22
ENDBRANCH  19  20
ENDBRANCH  16  19
ENDBRANCH  15  16
ENDBRANCH  13  14
BRANCH  13  24
HETATM   24  C20 UNL     1      -5.803   7.020 -19.751  1.00  0.00     0.187 C 
BRANCH  24  25
HETATM   25  O3  UNL     1      -5.287   6.263 -20.803  1.00  0.00    -0.381 OA
BRANCH  25  26
HETATM   26  C21 UNL     1      -4.496   5.223 -20.366  1.00  0.00     0.267 C 
BRANCH  26  27
HETATM   27  C22 UNL     1      -5.355   4.130 -19.898  1.00  0.00     0.254 C 
HETATM   28  N1  UNL     1      -5.179   3.482 -18.645  1.00  0.00    -0.060 NA
HETATM   29  O4  UNL     1      -6.304   3.725 -20.619  1.00  0.00    -0.275 OA
ENDBRANCH  26  27
ENDBRANCH  25  26
ENDBRANCH  24  25
ENDBRANCH  13  24
TORSDOF 10
ENDMDL
MODEL 3
REMARK VINA RESULT: -6.544612868      1.288      1.484
REMARK  10 active torsions:
REMARK  status: ('A' for Active; 'I' for Inactive)
REMARK    1  A    between atoms: C13_13  and  C14_14 
REMARK    2  A    between atoms: C13_13  and  C20_24 
REMARK    3  A    between atoms: C15_15  and  C16_16 
REMARK    4  A    between atoms: C16_16  and  O1_17 
REMARK    5  A    between atoms: C16_16  and  C17_19 
REMARK    6  A    between atoms: C17_19  and  C18_20 
REMARK    7  A    between atoms: C18_20  and  O2_22 
REMARK    8  A    between atoms: C20_24  and  O3_25 
REMARK    9  A    between atoms: O3_25  and  C21_26 
REMARK   10  A    between atoms: C21_26  and  C22_27 
ROOT
HETATM    1  C1  UNL     1      -3.746   6.777 -17.147  1.00  0.00     0.016 C 
HETATM    2  C2  UNL     1      -2.773   7.645 -17.357  1.00  0.00    -0.065 C 
HETATM    3  C3  UNL     1      -1.439   7.608 -16.765  1.00  0.00    -0.016 C 
HETATM    4  C4  UNL     1      -0.490   6.635 -17.394  1.00  0.00     0.020 C 
HETATM    5  C5  UNL     1      -1.404   7.397 -15.267  1.00  0.00     0.014 C 
HETATM    6  C6  UNL     1       0.009   7.499 -14.786  1.00  0.00     0.001 C 
HETATM    7  C7  UNL     1       0.895   8.496 -15.388  1.00  0.00     0.000 C 
HETATM    8  C8  UNL     1       0.412   9.267 -16.570  1.00  0.00     0.006 C 
HETATM    9  C9  UNL     1      -1.004   9.058 -16.916  1.00  0.00     0.007 C 
HETATM   10  C10 UNL     1      -1.506   9.480 -18.231  1.00  0.00    -0.026 C 
HETATM   11  C11 UNL     1      -0.665   9.189 -19.409  1.00  0.00     0.016 C 
HETATM   12  C12 UNL     1      -1.609  11.020 -18.162  1.00  0.00     0.016 C 
HETATM   13  C13 UNL     1      -2.861   8.853 -18.259  1.00  0.00     0.029 C 
ENDROOT
BRANCH  13  14
HETATM   14  C14 UNL     1      -3.798   9.861 -17.662  1.00  0.00    -0.011 C 
HETATM   15  C15 UNL     1      -4.552   9.561 -16.621  1.00  0.00     0.002 C 
BRANCH  15  16
HETATM   16  C16 UNL     1      -5.482  10.565 -16.032  1.00  0.00     0.143 C 
BRANCH  16  17
HETATM   17  O1  UNL     1      -5.182  11.855 -16.491  1.00  0.00    -0.392 OA
ATOM     18  H1  UNL     1      -5.222  12.484 -15.781  1.00  0.00     0.210 HD
ENDBRANCH  16  17
BRANCH  16  19
HETATM   19  C17 UNL     1      -5.463  10.520 -14.521  1.00  0.00     0.067 C 
BRANCH  19  20
HETATM   20  C18 UNL     1      -6.659   9.759 -13.977  1.00  0.00     0.116 C 
HETATM   21  C19 UNL     1      -7.070  10.362 -12.652  1.00  0.00     0.039 C 
BRANCH  20  22
HETATM   22  O2  UNL     1      -6.284   8.438 -13.724  1.00  0.00    -0.396 OA
ATOM     23  H2  UNL     1      -5.500   8.435 -13.187  1.00  0.00     0.210 HD
ENDBRANCH  20  22
ENDBRANCH  19  20
ENDBRANCH  16  19
ENDBRANCH  15  16
ENDBRANCH  13  14
BRANCH  13  24
HETATM   24  C20 UNL     1      -3.394   8.430 -19.570  1.00  0.00     0.187 C 
BRANCH  24  25
HETATM   25  O3  UNL     1      -4.351   9.311 -20.074  1.00  0.00    -0.381 OA
BRANCH  25  26
HETATM   26  C21 UNL     1      -5.404   8.658 -20.677  1.00  0.00     0.267 C 
BRANCH  26  27
HETATM   27  C22 UNL     1      -6.652   9.359 -20.353  1.00  0.00     0.254 C 
HETATM   28  N1  UNL     1      -7.833   9.247 -21.136  1.00  0.00    -0.060 NA
HETATM   29  O4  UNL     1      -6.710  10.101 -19.339  1.00  0.00    -0.275 OA
ENDBRANCH  26  27
ENDBRANCH  25  26
ENDBRANCH  24  25
ENDBRANCH  13  24
TORSDOF 10
ENDMDL
MODEL 4
REMARK VINA RESULT: -6.544141063      1.709      2.264
REMARK  10 active torsions:
REMARK  status: ('A' for Active; 'I' for Inactive)
REMARK    1  A    between atoms: C13_13  and  C14_14 
REMARK    2  A    between atoms: C13_13  and  C20_24 
REMARK    3  A    between atoms: C15_15  and  C16_16 
REMARK    4  A    between atoms: C16_16  and  O1_17 
REMARK    5  A    between atoms: C16_16  and  C17_19 
REMARK    6  A    between atoms: C17_19  and  C18_20 
REMARK    7  A    between atoms: C18_20  and  O2_22 
REMARK    8  A    between atoms: C20_24  and  O3_25 
REMARK    9  A    between atoms: O3_25  and  C21_26 
REMARK   10  A    between atoms: C21_26  and  C22_27 
ROOT
HETATM    1  C1  UNL     1      -1.736   7.302 -15.332  1.00  0.00     0.016 C 
HETATM    2  C2  UNL     1      -1.840   8.347 -16.134  1.00  0.00    -0.065 C 
HETATM    3  C3  UNL     1      -0.743   9.181 -16.613  1.00  0.00    -0.016 C 
HETATM    4  C4  UNL     1       0.055   8.599 -17.738  1.00  0.00     0.020 C 
HETATM    5  C5  UNL     1       0.222   9.652 -15.546  1.00  0.00     0.014 C 
HETATM    6  C6  UNL     1       1.218  10.586 -16.158  1.00  0.00     0.001 C 
HETATM    7  C7  UNL     1       0.771  11.529 -17.184  1.00  0.00     0.000 C 
HETATM    8  C8  UNL     1      -0.623  11.420 -17.703  1.00  0.00     0.006 C 
HETATM    9  C9  UNL     1      -1.480  10.457 -16.993  1.00  0.00     0.007 C 
HETATM   10  C10 UNL     1      -2.740  10.010 -17.603  1.00  0.00    -0.026 C 
HETATM   11  C11 UNL     1      -2.725   9.685 -19.043  1.00  0.00     0.016 C 
HETATM   12  C12 UNL     1      -3.718  11.197 -17.454  1.00  0.00     0.016 C 
HETATM   13  C13 UNL     1      -3.131   8.879 -16.710  1.00  0.00     0.029 C 
ENDROOT
BRANCH  13  14
HETATM   14  C14 UNL     1      -3.962   9.480 -15.616  1.00  0.00    -0.011 C 
HETATM   15  C15 UNL     1      -4.649   8.721 -14.783  1.00  0.00     0.002 C 
BRANCH  15  16
HETATM   16  C16 UNL     1      -5.474   9.322 -13.699  1.00  0.00     0.143 C 
BRANCH  16  17
HETATM   17  O1  UNL     1      -6.633   8.567 -13.474  1.00  0.00    -0.392 OA
ATOM     18  H1  UNL     1      -7.315   8.800 -14.092  1.00  0.00     0.210 HD
ENDBRANCH  16  17
BRANCH  16  19
HETATM   19  C17 UNL     1      -5.827  10.761 -14.002  1.00  0.00     0.067 C 
BRANCH  19  20
HETATM   20  C18 UNL     1      -5.398  11.684 -12.876  1.00  0.00     0.116 C 
HETATM   21  C19 UNL     1      -6.117  13.007 -13.016  1.00  0.00     0.039 C 
BRANCH  20  22
HETATM   22  O2  UNL     1      -4.032  11.948 -12.996  1.00  0.00    -0.396 OA
ATOM     23  H2  UNL     1      -3.820  12.726 -12.494  1.00  0.00     0.210 HD
ENDBRANCH  20  22
ENDBRANCH  19  20
ENDBRANCH  16  19
ENDBRANCH  15  16
ENDBRANCH  13  14
BRANCH  13  24
HETATM   24  C20 UNL     1      -3.882   7.758 -17.312  1.00  0.00     0.187 C 
BRANCH  24  25
HETATM   25  O3  UNL     1      -5.264   7.934 -17.242  1.00  0.00    -0.381 OA
BRANCH  25  26
HETATM   26  C21 UNL     1      -5.838   8.094 -18.484  1.00  0.00     0.267 C 
BRANCH  26  27
HETATM   27  C22 UNL     1      -6.531   9.386 -18.529  1.00  0.00     0.254 C 
HETATM   28  N1  UNL     1      -7.204   9.949 -17.409  1.00  0.00    -0.060 NA
HETATM   29  O4  UNL     1      -6.549  10.053 -19.596  1.00  0.00    -0.275 OA
ENDBRANCH  26  27
ENDBRANCH  25  26
ENDBRANCH  24  25
ENDBRANCH  13  24
TORSDOF 10
ENDMDL
MODEL 5
REMARK VINA RESULT: -6.373943827      1.935      2.566
REMARK  10 active torsions:
REMARK  status: ('A' for Active; 'I' for Inactive)
REMARK    1  A    between atoms: C13_13  and  C14_14 
REMARK    2  A    between atoms: C13_13  and  C20_24 
REMARK    3  A    between atoms: C15_15  and  C16_16 
REMARK    4  A    between atoms: C16_16  and  O1_17 
REMARK    5  A    between atoms: C16_16  and  C17_19 
REMARK    6  A    between atoms: C17_19  and  C18_20 
REMARK    7  A    between atoms: C18_20  and  O2_22 
REMARK    8  A    between atoms: C20_24  and  O3_25 
REMARK    9  A    between atoms: O3_25  and  C21_26 
REMARK   10  A    between atoms: C21_26  and  C22_27 
ROOT
HETATM    1  C1  UNL     1      -1.101   7.276 -15.300  1.00  0.00     0.016 C 
HETATM    2  C2  UNL     1      -1.253   8.240 -16.191  1.00  0.00    -0.065 C 
HETATM    3  C3  UNL     1      -0.189   8.901 -16.940  1.00  0.00    -0.016 C 
HETATM    4  C4  UNL     1       0.345   8.129 -18.105  1.00  0.00     0.020 C 
HETATM    5  C5  UNL     1       0.985   9.373 -16.109  1.00  0.00     0.014 C 
HETATM    6  C6  UNL     1       1.936  10.131 -16.982  1.00  0.00     0.001 C 
HETATM    7  C7  UNL     1       1.398  11.007 -18.024  1.00  0.00     0.000 C 
HETATM    8  C8  UNL     1      -0.070  10.995 -18.288  1.00  0.00     0.006 C 
HETATM    9  C9  UNL     1      -0.868  10.203 -17.339  1.00  0.00     0.007 C 
HETATM   10  C10 UNL     1      -2.250   9.833 -17.676  1.00  0.00    -0.026 C 
HETATM   11  C11 UNL     1      -2.517   9.365 -19.050  1.00  0.00     0.016 C 
HETATM   12  C12 UNL     1      -3.080  11.125 -17.507  1.00  0.00     0.016 C 
HETATM   13  C13 UNL     1      -2.574   8.845 -16.604  1.00  0.00     0.029 C 
ENDROOT
BRANCH  13  14
HETATM   14  C14 UNL     1      -3.144   9.637 -15.466  1.00  0.00    -0.011 C 
HETATM   15  C15 UNL     1      -2.699   9.481 -14.233  1.00  0.00     0.002 C 
BRANCH  15  16
HETATM   16  C16 UNL     1      -3.268  10.269 -13.105  1.00  0.00     0.143 C 
BRANCH  16  17
HETATM   17  O1  UNL     1      -2.845   9.757 -11.871  1.00  0.00    -0.392 OA
ATOM     18  H1  UNL     1      -3.497   9.173 -11.504  1.00  0.00     0.210 HD
ENDBRANCH  16  17
BRANCH  16  19
HETATM   19  C17 UNL     1      -4.778  10.320 -13.169  1.00  0.00     0.067 C 
BRANCH  19  20
HETATM   20  C18 UNL     1      -5.283  11.752 -13.162  1.00  0.00     0.116 C 
HETATM   21  C19 UNL     1      -6.594  11.812 -12.409  1.00  0.00     0.039 C 
BRANCH  20  22
HETATM   22  O2  UNL     1      -5.548  12.149 -14.474  1.00  0.00    -0.396 OA
ATOM     23  H2  UNL     1      -5.337  13.071 -14.568  1.00  0.00     0.210 HD
ENDBRANCH  20  22
ENDBRANCH  19  20
ENDBRANCH  16  19
ENDBRANCH  15  16
ENDBRANCH  13  14
BRANCH  13  24
HETATM   24  C20 UNL     1      -3.513   7.754 -16.938  1.00  0.00     0.187 C 
BRANCH  24  25
HETATM   25  O3  UNL     1      -4.829   8.045 -16.576  1.00  0.00    -0.381 OA
BRANCH  25  26
HETATM   26  C21 UNL     1      -5.667   8.138 -17.666  1.00  0.00     0.267 C 
BRANCH  26  27
HETATM   27  C22 UNL     1      -6.236   9.489 -17.719  1.00  0.00     0.254 C 
HETATM   28  N1  UNL     1      -6.553  10.247 -16.559  1.00  0.00    -0.060 NA
HETATM   29  O4  UNL     1      -6.466  10.030 -18.832  1.00  0.00    -0.275 OA
ENDBRANCH  26  27
ENDBRANCH  25  26
ENDBRANCH  24  25
ENDBRANCH  13  24
TORSDOF 10
ENDMDL
