MODEL 1
REMARK VINA RESULT: -7.672907090      0.000      0.000
REMARK  12 active torsions:
REMARK  status: ('A' for Active; 'I' for Inactive)
REMARK    1  A    between atoms: C2_2  and  C3_3 
REMARK    2  A    between atoms: C3_3  and  N1_4 
REMARK    3  A    between atoms: N1_4  and  C4_6 
REMARK    4  A    between atoms: N3_10  and  C6_12 
REMARK    5  A    between atoms: C6_12  and  C7_13 
REMARK    6  A    between atoms: C7_13  and  C8_14 
REMARK    7  A    between atoms: C8_14  and  S1_15 
REMARK    8  A    between atoms: S1_15  and  C9_16 
REMARK    9  A    between atoms: C11_21  and  N5_22 
REMARK   10  A    between atoms: N5_22  and  C12_24 
REMARK   11  A    between atoms: C12_24  and  C13_25 
REMARK   12  A    between atoms: C13_25  and  C14_26 
ROOT
HETATM    1  C4  UNL     1      -4.184  10.860 -12.687  1.00  0.00     0.707 A 
HETATM    2  N2  UNL     1      -4.272   9.801 -13.538  1.00  0.00    -0.022 N 
ATOM      3  H2  UNL     1      -3.427   9.273 -13.753  1.00  0.00     0.203 HD
HETATM    4  C5  UNL     1      -5.429   9.426 -14.104  1.00  0.00     0.707 A 
HETATM    5  N3  UNL     1      -5.533   8.436 -14.905  1.00  0.00    -0.225 N 
ATOM      6  H3  UNL     1      -6.461   8.237 -15.279  1.00  0.00     0.177 HD
HETATM    7  N4  UNL     1      -6.535  10.168 -13.783  1.00  0.00    -0.022 N 
ATOM      8  H4  UNL     1      -7.438   9.921 -14.188  1.00  0.00     0.203 HD
HETATM    9  C11 UNL     1      -6.451  11.214 -12.943  1.00  0.00     0.707 A 
HETATM   10  N6  UNL     1      -5.281  11.576 -12.384  1.00  0.00    -0.022 N 
ATOM     11  H6  UNL     1      -5.228  12.371 -11.748  1.00  0.00     0.203 HD
ENDROOT
BRANCH   5  12
HETATM   12  C6  UNL     1      -4.480   7.590 -15.320  1.00  0.00     0.139 C 
BRANCH  12  13
HETATM   13  C7  UNL     1      -4.668   7.356 -16.828  1.00  0.00     0.031 C 
BRANCH  13  14
HETATM   14  C8  UNL     1      -4.005   8.507 -17.507  1.00  0.00     0.084 C 
BRANCH  14  15
HETATM   15  S1  UNL     1      -5.060   9.386 -18.675  1.00  0.00    -0.093 SA
BRANCH  15  16
HETATM   16  C9  UNL     1      -6.713   9.420 -18.052  1.00  0.00     0.182 C 
HETATM   17  C10 UNL     1      -7.774   8.617 -18.688  1.00  0.00     0.104 C 
HETATM   18  O1  UNL     1      -6.979  10.108 -17.092  1.00  0.00    -0.286 OA
ENDBRANCH  15  16
ENDBRANCH  14  15
ENDBRANCH  13  14
ENDBRANCH  12  13
ENDBRANCH   5  12
BRANCH   1  19
HETATM   19  N1  UNL     1      -3.076  11.233 -12.137  1.00  0.00    -0.222 N 
ATOM     20  H1  UNL     1      -2.787  12.211 -12.162  1.00  0.00     0.178 HD
BRANCH  19  21
HETATM   21  C3  UNL     1      -2.253  10.234 -11.483  1.00  0.00     0.164 C 
BRANCH  21  22
HETATM   22  C2  UNL     1      -2.177  10.458 -10.038  1.00  0.00    -0.017 C 
HETATM   23  C1  UNL     1      -1.473   9.650  -9.270  1.00  0.00     0.008 C 
ENDBRANCH  21  22
ENDBRANCH  19  21
ENDBRANCH   1  19
BRANCH   9  24
HETATM   24  N5  UNL     1      -7.514  11.892 -12.664  1.00  0.00    -0.225 N 
ATOM     25  H5  UNL     1      -8.379  11.717 -13.176  1.00  0.00     0.177 HD
BRANCH  24  26
HETATM   26  C12 UNL     1      -7.476  12.892 -11.632  1.00  0.00     0.138 C 
BRANCH  26  27
HETATM   27  C13 UNL     1      -7.014  14.203 -12.238  1.00  0.00     0.025 C 
BRANCH  27  28
HETATM   28  C14 UNL     1      -8.000  15.274 -11.863  1.00  0.00    -0.013 C 
HETATM   29  C15 UNL     1      -8.546  14.992 -10.482  1.00  0.00     0.005 C 
HETATM   30  C16 UNL     1      -8.360  16.292  -9.727  1.00  0.00     0.000 C 
HETATM   31  C17 UNL     1      -7.021  16.756 -10.305  1.00  0.00     0.000 C 
HETATM   32  C18 UNL     1      -7.277  16.607 -11.790  1.00  0.00     0.005 C 
ENDBRANCH  27  28
ENDBRANCH  26  27
ENDBRANCH  24  26
ENDBRANCH   9  24
TORSDOF 12
ENDMDL
MODEL 2
REMARK VINA RESULT: -7.619192209      3.008      5.739
REMARK  12 active torsions:
REMARK  status: ('A' for Active; 'I' for Inactive)
REMARK    1  A    between atoms: C2_2  and  C3_3 
REMARK    2  A    between atoms: C3_3  and  N1_4 
REMARK    3  A    between atoms: N1_4  and  C4_6 
REMARK    4  A    between atoms: N3_10  and  C6_12 
REMARK    5  A    between atoms: C6_12  and  C7_13 
REMARK    6  A    between atoms: C7_13  and  C8_14 
REMARK    7  A    between atoms: C8_14  and  S1_15 
REMARK    8  A    between atoms: S1_15  and  C9_16 
REMARK    9  A    between atoms: C11_21  and  N5_22 
REMARK   10  A    between atoms: N5_22  and  C12_24 
REMARK   11  A    between atoms: C12_24  and  C13_25 
REMARK   12  A    between atoms: C13_25  and  C14_26 
ROOT
HETATM    1  C4  UNL     1      -6.120   9.959 -14.607  1.00  0.00     0.707 A 
HETATM    2  N2  UNL     1      -4.774  10.115 -14.473  1.00  0.00    -0.022 N 
ATOM      3  H2  UNL     1      -4.156   9.610 -15.107  1.00  0.00     0.203 HD
HETATM    4  C5  UNL     1      -4.230  10.908 -13.538  1.00  0.00     0.707 A 
HETATM    5  N3  UNL     1      -2.970  11.068 -13.396  1.00  0.00    -0.225 N 
ATOM      6  H3  UNL     1      -2.663  11.695 -12.651  1.00  0.00     0.177 HD
HETATM    7  N4  UNL     1      -5.102  11.565 -12.711  1.00  0.00    -0.022 N 
ATOM      8  H4  UNL     1      -4.737  12.179 -11.984  1.00  0.00     0.203 HD
HETATM    9  C11 UNL     1      -6.432  11.413 -12.841  1.00  0.00     0.707 A 
HETATM   10  N6  UNL     1      -6.960  10.613 -13.785  1.00  0.00    -0.022 N 
ATOM     11  H6  UNL     1      -7.970  10.504 -13.875  1.00  0.00     0.203 HD
ENDROOT
BRANCH   5  12
HETATM   12  C6  UNL     1      -1.963  10.455 -14.174  1.00  0.00     0.139 C 
BRANCH  12  13
HETATM   13  C7  UNL     1      -1.198   9.503 -13.240  1.00  0.00     0.031 C 
BRANCH  13  14
HETATM   14  C8  UNL     1      -0.541  10.371 -12.220  1.00  0.00     0.084 C 
BRANCH  14  15
HETATM   15  S1  UNL     1       0.227   9.466 -10.863  1.00  0.00    -0.093 SA
BRANCH  15  16
HETATM   16  C9  UNL     1      -0.947   9.271  -9.557  1.00  0.00     0.182 C 
HETATM   17  C10 UNL     1      -1.934  10.328  -9.269  1.00  0.00     0.104 C 
HETATM   18  O1  UNL     1      -0.941   8.260  -8.891  1.00  0.00    -0.286 OA
ENDBRANCH  15  16
ENDBRANCH  14  15
ENDBRANCH  13  14
ENDBRANCH  12  13
ENDBRANCH   5  12
BRANCH   1  19
HETATM   19  N1  UNL     1      -6.657   9.198 -15.501  1.00  0.00    -0.222 N 
ATOM     20  H1  UNL     1      -7.330   8.479 -15.235  1.00  0.00     0.178 HD
BRANCH  19  21
HETATM   21  C3  UNL     1      -6.284   9.385 -16.890  1.00  0.00     0.164 C 
BRANCH  21  22
HETATM   22  C2  UNL     1      -7.367   9.002 -17.797  1.00  0.00    -0.017 C 
HETATM   23  C1  UNL     1      -7.107   8.634 -19.037  1.00  0.00     0.008 C 
ENDBRANCH  21  22
ENDBRANCH  19  21
ENDBRANCH   1  19
BRANCH   9  24
HETATM   24  N5  UNL     1      -7.224  12.046 -12.041  1.00  0.00    -0.225 N 
ATOM     25  H5  UNL     1      -7.834  11.527 -11.410  1.00  0.00     0.177 HD
BRANCH  24  26
HETATM   26  C12 UNL     1      -7.245  13.484 -12.044  1.00  0.00     0.138 C 
BRANCH  26  27
HETATM   27  C13 UNL     1      -8.207  13.962 -10.974  1.00  0.00     0.025 C 
BRANCH  27  28
HETATM   28  C14 UNL     1      -8.579  15.387 -11.271  1.00  0.00    -0.013 C 
HETATM   29  C15 UNL     1      -8.895  16.103  -9.978  1.00  0.00     0.005 C 
HETATM   30  C16 UNL     1      -8.050  17.361 -10.023  1.00  0.00     0.000 C 
HETATM   31  C17 UNL     1      -6.789  16.819 -10.697  1.00  0.00     0.000 C 
HETATM   32  C18 UNL     1      -7.382  16.092 -11.885  1.00  0.00     0.005 C 
ENDBRANCH  27  28
ENDBRANCH  26  27
ENDBRANCH  24  26
ENDBRANCH   9  24
TORSDOF 12
ENDMDL
MODEL 3
REMARK VINA RESULT: -7.607013462      1.270      1.900
REMARK  12 active torsions:
REMARK  status: ('A' for Active; 'I' for Inactive)
REMARK    1  A    between atoms: C2_2  and  C3_3 
REMARK    2  A    between atoms: C3_3  and  N1_4 
REMARK    3  A    between atoms: N1_4  and  C4_6 
REMARK    4  A    between atoms: N3_10  and  C6_12 
REMARK    5  A    between atoms: C6_12  and  C7_13 
REMARK    6  A    between atoms: C7_13  and  C8_14 
REMARK    7  A    between atoms: C8_14  and  S1_15 
REMARK    8  A    between atoms: S1_15  and  C9_16 
REMARK    9  A    between atoms: C11_21  and  N5_22 
REMARK   10  A    between atoms: N5_22  and  C12_24 
REMARK   11  A    between atoms: C12_24  and  C13_25 
REMARK   12  A    between atoms: C13_25  and  C14_26 
ROOT
HETATM    1  C4  UNL     1      -4.056   9.201 -13.474  1.00  0.00     0.707 A 
HETATM    2  N2  UNL     1      -4.072   8.489 -14.635  1.00  0.00    -0.022 N 
ATOM      3  H2  UNL     1      -3.210   8.042 -14.948  1.00  0.00     0.203 HD
HETATM    4  C5  UNL     1      -5.176   8.355 -15.383  1.00  0.00     0.707 A 
HETATM    5  N3  UNL     1      -5.212   7.692 -16.475  1.00  0.00    -0.225 N 
ATOM      6  H3  UNL     1      -6.106   7.654 -16.966  1.00  0.00     0.177 HD
HETATM    7  N4  UNL     1      -6.307   8.974 -14.920  1.00  0.00    -0.022 N 
ATOM      8  H4  UNL     1      -7.173   8.901 -15.454  1.00  0.00     0.203 HD
HETATM    9  C11 UNL     1      -6.296   9.677 -13.774  1.00  0.00     0.707 A 
HETATM   10  N6  UNL     1      -5.177   9.801 -13.037  1.00  0.00    -0.022 N 
ATOM     11  H6  UNL     1      -5.178  10.337 -12.169  1.00  0.00     0.203 HD
ENDROOT
BRANCH   5  12
HETATM   12  C6  UNL     1      -4.126   7.007 -17.066  1.00  0.00     0.139 C 
BRANCH  12  13
HETATM   13  C7  UNL     1      -3.668   7.854 -18.265  1.00  0.00     0.031 C 
BRANCH  13  14
HETATM   14  C8  UNL     1      -4.621   7.545 -19.372  1.00  0.00     0.084 C 
BRANCH  14  15
HETATM   15  S1  UNL     1      -5.535   8.975 -19.980  1.00  0.00    -0.093 SA
BRANCH  15  16
HETATM   16  C9  UNL     1      -7.049   9.122 -19.080  1.00  0.00     0.182 C 
HETATM   17  C10 UNL     1      -8.280   8.473 -19.567  1.00  0.00     0.104 C 
HETATM   18  O1  UNL     1      -7.076   9.761 -18.052  1.00  0.00    -0.286 OA
ENDBRANCH  15  16
ENDBRANCH  14  15
ENDBRANCH  13  14
ENDBRANCH  12  13
ENDBRANCH   5  12
BRANCH   1  19
HETATM   19  N1  UNL     1      -2.999   9.340 -12.746  1.00  0.00    -0.222 N 
ATOM     20  H1  UNL     1      -2.238   8.663 -12.799  1.00  0.00     0.178 HD
BRANCH  19  21
HETATM   21  C3  UNL     1      -2.915  10.479 -11.851  1.00  0.00     0.164 C 
BRANCH  21  22
HETATM   22  C2  UNL     1      -1.788  10.357 -10.926  1.00  0.00    -0.017 C 
HETATM   23  C1  UNL     1      -1.994  10.148  -9.640  1.00  0.00     0.008 C 
ENDBRANCH  21  22
ENDBRANCH  19  21
ENDBRANCH   1  19
BRANCH   9  24
HETATM   24  N5  UNL     1      -7.380  10.249 -13.369  1.00  0.00    -0.225 N 
ATOM     25  H5  UNL     1      -8.214  10.235 -13.956  1.00  0.00     0.177 HD
BRANCH  24  26
HETATM   26  C12 UNL     1      -7.408  10.906 -12.091  1.00  0.00     0.138 C 
BRANCH  26  27
HETATM   27  C13 UNL     1      -8.130  12.232 -12.238  1.00  0.00     0.025 C 
BRANCH  27  28
HETATM   28  C14 UNL     1      -7.300  13.300 -11.583  1.00  0.00    -0.013 C 
HETATM   29  C15 UNL     1      -6.591  14.107 -12.647  1.00  0.00     0.005 C 
HETATM   30  C16 UNL     1      -6.914  15.549 -12.311  1.00  0.00     0.000 C 
HETATM   31  C17 UNL     1      -8.357  15.400 -11.826  1.00  0.00     0.000 C 
HETATM   32  C18 UNL     1      -8.219  14.256 -10.843  1.00  0.00     0.005 C 
ENDBRANCH  27  28
ENDBRANCH  26  27
ENDBRANCH  24  26
ENDBRANCH   9  24
TORSDOF 12
ENDMDL
MODEL 4
REMARK VINA RESULT: -7.567260612      1.513      1.845
REMARK  12 active torsions:
REMARK  status: ('A' for Active; 'I' for Inactive)
REMARK    1  A    between atoms: C2_2  and  C3_3 
REMARK    2  A    between atoms: C3_3  and  N1_4 
REMARK    3  A    between atoms: N1_4  and  C4_6 
REMARK    4  A    between atoms: N3_10  and  C6_12 
REMARK    5  A    between atoms: C6_12  and  C7_13 
REMARK    6  A    between atoms: C7_13  and  C8_14 
REMARK    7  A    between atoms: C8_14  and  S1_15 
REMARK    8  A    between atoms: S1_15  and  C9_16 
REMARK    9  A    between atoms: C11_21  and  N5_22 
REMARK   10  A    between atoms: N5_22  and  C12_24 
REMARK   11  A    between atoms: C12_24  and  C13_25 
REMARK   12  A    between atoms: C13_25  and  C14_26 
ROOT
HETATM    1  C4  UNL     1      -4.246  11.050 -13.375  1.00  0.00     0.707 A 
HETATM    2  N2  UNL     1      -4.828  10.395 -14.417  1.00  0.00    -0.022 N 
ATOM      3  H2  UNL     1      -4.234  10.032 -15.162  1.00  0.00     0.203 HD
HETATM    4  C5  UNL     1      -6.153  10.208 -14.501  1.00  0.00     0.707 A 
HETATM    5  N3  UNL     1      -6.719   9.597 -15.470  1.00  0.00    -0.225 N 
ATOM      6  H3  UNL     1      -7.735   9.511 -15.434  1.00  0.00     0.177 HD
HETATM    7  N4  UNL     1      -6.908  10.714 -13.475  1.00  0.00    -0.022 N 
ATOM      8  H4  UNL     1      -7.921  10.597 -13.494  1.00  0.00     0.203 HD
HETATM    9  C11 UNL     1      -6.336  11.361 -12.445  1.00  0.00     0.707 A 
HETATM   10  N6  UNL     1      -5.004  11.539 -12.378  1.00  0.00    -0.022 N 
ATOM     11  H6  UNL     1      -4.580  12.032 -11.592  1.00  0.00     0.203 HD
ENDROOT
BRANCH   5  12
HETATM   12  C6  UNL     1      -6.067   9.028 -16.587  1.00  0.00     0.139 C 
BRANCH  12  13
HETATM   13  C7  UNL     1      -7.081   9.032 -17.742  1.00  0.00     0.031 C 
BRANCH  13  14
HETATM   14  C8  UNL     1      -6.310   9.407 -18.963  1.00  0.00     0.084 C 
BRANCH  14  15
HETATM   15  S1  UNL     1      -6.667   8.388 -20.407  1.00  0.00    -0.093 SA
BRANCH  15  16
HETATM   16  C9  UNL     1      -8.349   8.633 -20.888  1.00  0.00     0.182 C 
HETATM   17  C10 UNL     1      -8.680   9.167 -22.222  1.00  0.00     0.104 C 
HETATM   18  O1  UNL     1      -9.241   8.360 -20.116  1.00  0.00    -0.286 OA
ENDBRANCH  15  16
ENDBRANCH  14  15
ENDBRANCH  13  14
ENDBRANCH  12  13
ENDBRANCH   5  12
BRANCH   1  19
HETATM   19  N1  UNL     1      -2.972  11.238 -13.283  1.00  0.00    -0.222 N 
ATOM     20  H1  UNL     1      -2.536  12.056 -13.708  1.00  0.00     0.178 HD
BRANCH  19  21
HETATM   21  C3  UNL     1      -2.174  10.264 -12.563  1.00  0.00     0.164 C 
BRANCH  21  22
HETATM   22  C2  UNL     1      -1.616  10.826 -11.332  1.00  0.00    -0.017 C 
HETATM   23  C1  UNL     1      -2.063  10.436 -10.153  1.00  0.00     0.008 C 
ENDBRANCH  21  22
ENDBRANCH  19  21
ENDBRANCH   1  19
BRANCH   9  24
HETATM   24  N5  UNL     1      -7.079  11.827 -11.497  1.00  0.00    -0.225 N 
ATOM     25  H5  UNL     1      -7.034  11.416 -10.564  1.00  0.00     0.177 HD
BRANCH  24  26
HETATM   26  C12 UNL     1      -7.969  12.925 -11.759  1.00  0.00     0.138 C 
BRANCH  26  27
HETATM   27  C13 UNL     1      -7.148  14.183 -11.964  1.00  0.00     0.025 C 
BRANCH  27  28
HETATM   28  C14 UNL     1      -8.037  15.374 -11.740  1.00  0.00    -0.013 C 
HETATM   29  C15 UNL     1      -8.645  15.294 -10.358  1.00  0.00     0.005 C 
HETATM   30  C16 UNL     1      -8.356  16.645  -9.737  1.00  0.00     0.000 C 
HETATM   31  C17 UNL     1      -6.965  16.919 -10.310  1.00  0.00     0.000 C 
HETATM   32  C18 UNL     1      -7.193  16.635 -11.780  1.00  0.00     0.005 C 
ENDBRANCH  27  28
ENDBRANCH  26  27
ENDBRANCH  24  26
ENDBRANCH   9  24
TORSDOF 12
ENDMDL
MODEL 5
REMARK VINA RESULT: -7.565906756      1.951      4.192
REMARK  12 active torsions:
REMARK  status: ('A' for Active; 'I' for Inactive)
REMARK    1  A    between atoms: C2_2  and  C3_3 
REMARK    2  A    between atoms: C3_3  and  N1_4 
REMARK    3  A    between atoms: N1_4  and  C4_6 
REMARK    4  A    between atoms: N3_10  and  C6_12 
REMARK    5  A    between atoms: C6_12  and  C7_13 
REMARK    6  A    between atoms: C7_13  and  C8_14 
REMARK    7  A    between atoms: C8_14  and  S1_15 
REMARK    8  A    between atoms: S1_15  and  C9_16 
REMARK    9  A    between atoms: C11_21  and  N5_22 
REMARK   10  A    between atoms: N5_22  and  C12_24 
REMARK   11  A    between atoms: C12_24  and  C13_25 
REMARK   12  A    between atoms: C13_25  and  C14_26 
ROOT
HETATM    1  C4  UNL     1      -6.161   9.953 -14.645  1.00  0.00     0.707 A 
HETATM    2  N2  UNL     1      -4.804  10.064 -14.655  1.00  0.00    -0.022 N 
ATOM      3  H2  UNL     1      -4.283   9.643 -15.424  1.00  0.00     0.203 HD
HETATM    4  C5  UNL     1      -4.127  10.707 -13.693  1.00  0.00     0.707 A 
HETATM    5  N3  UNL     1      -2.854  10.822 -13.684  1.00  0.00    -0.225 N 
ATOM      6  H3  UNL     1      -2.440  11.332 -12.903  1.00  0.00     0.177 HD
HETATM    7  N4  UNL     1      -4.872  11.256 -12.683  1.00  0.00    -0.022 N 
ATOM      8  H4  UNL     1      -4.402  11.755 -11.928  1.00  0.00     0.203 HD
HETATM    9  C11 UNL     1      -6.212  11.149 -12.670  1.00  0.00     0.707 A 
HETATM   10  N6  UNL     1      -6.875  10.499 -13.645  1.00  0.00    -0.022 N 
ATOM     11  H6  UNL     1      -7.892  10.423 -13.625  1.00  0.00     0.203 HD
ENDROOT
BRANCH   5  12
HETATM   12  C6  UNL     1      -1.967  10.308 -14.656  1.00  0.00     0.139 C 
BRANCH  12  13
HETATM   13  C7  UNL     1      -1.190   9.162 -13.987  1.00  0.00     0.031 C 
BRANCH  13  14
HETATM   14  C8  UNL     1      -1.287   8.002 -14.920  1.00  0.00     0.084 C 
BRANCH  14  15
HETATM   15  S1  UNL     1      -2.099   8.378 -16.485  1.00  0.00    -0.093 SA
BRANCH  15  16
HETATM   16  C9  UNL     1      -3.564   7.400 -16.628  1.00  0.00     0.182 C 
HETATM   17  C10 UNL     1      -3.860   6.665 -17.872  1.00  0.00     0.104 C 
HETATM   18  O1  UNL     1      -4.333   7.332 -15.696  1.00  0.00    -0.286 OA
ENDBRANCH  15  16
ENDBRANCH  14  15
ENDBRANCH  13  14
ENDBRANCH  12  13
ENDBRANCH   5  12
BRANCH   1  19
HETATM   19  N1  UNL     1      -6.826   9.336 -15.563  1.00  0.00    -0.222 N 
ATOM     20  H1  UNL     1      -7.503   8.613 -15.318  1.00  0.00     0.178 HD
BRANCH  19  21
HETATM   21  C3  UNL     1      -6.590   9.690 -16.950  1.00  0.00     0.164 C 
BRANCH  21  22
HETATM   22  C2  UNL     1      -7.224   8.739 -17.865  1.00  0.00    -0.017 C 
HETATM   23  C1  UNL     1      -7.025   8.824 -19.167  1.00  0.00     0.008 C 
ENDBRANCH  21  22
ENDBRANCH  19  21
ENDBRANCH   1  19
BRANCH   9  24
HETATM   24  N5  UNL     1      -6.882  11.677 -11.701  1.00  0.00    -0.225 N 
ATOM     25  H5  UNL     1      -6.764  11.328 -10.749  1.00  0.00     0.177 HD
BRANCH  24  26
HETATM   26  C12 UNL     1      -7.793  12.757 -11.965  1.00  0.00     0.138 C 
BRANCH  26  27
HETATM   27  C13 UNL     1      -7.006  14.050 -12.060  1.00  0.00     0.025 C 
BRANCH  27  28
HETATM   28  C14 UNL     1      -7.950  15.198 -11.839  1.00  0.00    -0.013 C 
HETATM   29  C15 UNL     1      -8.610  15.051 -10.487  1.00  0.00     0.005 C 
HETATM   30  C16 UNL     1      -8.401  16.393  -9.813  1.00  0.00     0.000 C 
HETATM   31  C17 UNL     1      -6.999  16.737 -10.319  1.00  0.00     0.000 C 
HETATM   32  C18 UNL     1      -7.155  16.491 -11.805  1.00  0.00     0.005 C 
ENDBRANCH  27  28
ENDBRANCH  26  27
ENDBRANCH  24  26
ENDBRANCH   9  24
TORSDOF 12
ENDMDL
