MODEL 1
REMARK VINA RESULT: -8.544081052      0.000      0.000
REMARK  10 active torsions:
REMARK  status: ('A' for Active; 'I' for Inactive)
REMARK    1  A    between atoms: N1_2  and  C2_4 
REMARK    2  A    between atoms: C2_4  and  C7_11 
REMARK    3  A    between atoms: N2_5  and  C3_7 
REMARK    4  A    between atoms: C3_7  and  C4_8 
REMARK       I    between atoms: N3_16  and  C11_17 
REMARK    5  A    between atoms: C11_17  and  C12_19 
REMARK    6  A    between atoms: C12_19  and  N4_20 
REMARK    7  A    between atoms: C12_19  and  C13_24 
REMARK    8  A    between atoms: C13_24  and  C14_25 
REMARK    9  A    between atoms: C14_25  and  C15_26 
REMARK   10  A    between atoms: C15_26  and  C16_27 
ROOT
HETATM    1  C7  UNL     1      -3.855   9.355 -13.796  1.00  0.00     0.178 C 
HETATM    2  C8  UNL     1      -3.839   8.364 -14.929  1.00  0.00     0.200 C 
HETATM    3  O1  UNL     1      -3.425   8.905 -16.129  1.00  0.00    -0.387 OA
HETATM    4  C9  UNL     1      -3.997  10.118 -16.430  1.00  0.00     0.187 C 
HETATM    5  C10 UNL     1      -5.180  10.445 -15.541  1.00  0.00     0.153 C 
HETATM    6  N3  UNL     1      -4.815  10.396 -14.142  1.00  0.00    -0.335 N 
HETATM    7  C11 UNL     1      -5.333  11.288 -13.161  1.00  0.00     0.251 C 
HETATM    8  O2  UNL     1      -4.909  11.122 -11.979  1.00  0.00    -0.271 OA
ENDROOT
BRANCH   1   9
HETATM    9  C2  UNL     1      -2.522   9.925 -13.520  1.00  0.00     0.098 C 
HETATM   10  N2  UNL     1      -2.012   9.752 -12.352  1.00  0.00    -0.378 N 
ATOM     11  H2  UNL     1      -2.561   9.223 -11.674  1.00  0.00     0.160 HD
BRANCH   9  12
HETATM   12  N1  UNL     1      -1.803  10.649 -14.487  1.00  0.00    -0.383 N 
HETATM   13  C1  UNL     1      -0.583  10.118 -15.100  1.00  0.00     0.147 C 
ATOM     14  H1  UNL     1      -2.139  11.570 -14.769  1.00  0.00     0.160 HD
ENDBRANCH   9  12
BRANCH  10  15
HETATM   15  C3  UNL     1      -0.739  10.241 -11.928  1.00  0.00     0.124 C 
BRANCH  15  16
HETATM   16  C4  UNL     1      -0.681  10.649 -10.480  1.00  0.00    -0.005 C 
HETATM   17  C5  UNL     1      -0.704  12.165 -10.384  1.00  0.00     0.011 C 
HETATM   18  C6  UNL     1      -1.855  10.142  -9.675  1.00  0.00     0.011 C 
ENDBRANCH  15  16
ENDBRANCH  10  15
ENDBRANCH   1   9
BRANCH   7  19
HETATM   19  C12 UNL     1      -6.302  12.354 -13.439  1.00  0.00     0.275 C 
BRANCH  19  20
HETATM   20  N4  UNL     1      -5.547  13.572 -13.780  1.00  0.00    -0.067 N 
ATOM     21  H43 UNL     1      -4.993  13.925 -13.000  1.00  0.00     0.275 HD
ATOM     22  H42 UNL     1      -4.776  13.392 -14.424  1.00  0.00     0.275 HD
ATOM     23  H41 UNL     1      -6.210  14.260 -14.139  1.00  0.00     0.275 HD
ENDBRANCH  19  20
BRANCH  19  24
HETATM   24  C13 UNL     1      -7.134  12.674 -12.186  1.00  0.00     0.042 C 
BRANCH  24  25
HETATM   25  C14 UNL     1      -7.206  14.182 -12.005  1.00  0.00     0.003 C 
BRANCH  25  26
HETATM   26  C15 UNL     1      -8.246  14.577 -11.013  1.00  0.00     0.005 C 
BRANCH  26  27
HETATM   27  C16 UNL     1      -8.378  16.062 -10.971  1.00  0.00    -0.014 C 
HETATM   28  C17 UNL     1      -7.079  16.742 -11.441  1.00  0.00     0.004 C 
HETATM   29  C18 UNL     1      -7.406  18.215 -11.560  1.00  0.00     0.000 C 
HETATM   30  C19 UNL     1      -7.563  18.738 -10.149  1.00  0.00     0.000 C 
HETATM   31  C20 UNL     1      -8.585  17.995  -9.362  1.00  0.00     0.000 C 
HETATM   32  C21 UNL     1      -8.617  16.519  -9.556  1.00  0.00     0.004 C 
ENDBRANCH  26  27
ENDBRANCH  25  26
ENDBRANCH  24  25
ENDBRANCH  19  24
ENDBRANCH   7  19
TORSDOF 10
ENDMDL
MODEL 2
REMARK VINA RESULT: -8.392289776      1.151      2.874
REMARK  10 active torsions:
REMARK  status: ('A' for Active; 'I' for Inactive)
REMARK    1  A    between atoms: N1_2  and  C2_4 
REMARK    2  A    between atoms: C2_4  and  C7_11 
REMARK    3  A    between atoms: N2_5  and  C3_7 
REMARK    4  A    between atoms: C3_7  and  C4_8 
REMARK       I    between atoms: N3_16  and  C11_17 
REMARK    5  A    between atoms: C11_17  and  C12_19 
REMARK    6  A    between atoms: C12_19  and  N4_20 
REMARK    7  A    between atoms: C12_19  and  C13_24 
REMARK    8  A    between atoms: C13_24  and  C14_25 
REMARK    9  A    between atoms: C14_25  and  C15_26 
REMARK   10  A    between atoms: C15_26  and  C16_27 
ROOT
HETATM    1  C7  UNL     1      -3.820   9.492 -14.032  1.00  0.00     0.178 C 
HETATM    2  C8  UNL     1      -4.155   8.229 -14.778  1.00  0.00     0.200 C 
HETATM    3  O1  UNL     1      -4.295   8.412 -16.138  1.00  0.00    -0.387 OA
HETATM    4  C9  UNL     1      -5.052   9.505 -16.486  1.00  0.00     0.187 C 
HETATM    5  C10 UNL     1      -5.820  10.084 -15.314  1.00  0.00     0.153 C 
HETATM    6  N3  UNL     1      -4.934  10.415 -14.219  1.00  0.00    -0.335 N 
HETATM    7  C11 UNL     1      -5.110  11.551 -13.379  1.00  0.00     0.251 C 
HETATM    8  O2  UNL     1      -4.244  11.708 -12.469  1.00  0.00    -0.271 OA
ENDROOT
BRANCH   1   9
HETATM    9  C2  UNL     1      -2.547  10.094 -14.472  1.00  0.00     0.098 C 
HETATM   10  N2  UNL     1      -2.075   9.755 -15.620  1.00  0.00    -0.378 N 
ATOM     11  H2  UNL     1      -2.612   9.085 -16.169  1.00  0.00     0.160 HD
BRANCH   9  12
HETATM   12  N1  UNL     1      -1.840  11.014 -13.679  1.00  0.00    -0.383 N 
HETATM   13  C1  UNL     1      -1.022  10.585 -12.542  1.00  0.00     0.147 C 
ATOM     14  H1  UNL     1      -1.899  12.008 -13.900  1.00  0.00     0.160 HD
ENDBRANCH   9  12
BRANCH  10  15
HETATM   15  C3  UNL     1      -0.858  10.244 -16.186  1.00  0.00     0.124 C 
BRANCH  15  16
HETATM   16  C4  UNL     1      -1.046  11.285 -17.258  1.00  0.00    -0.005 C 
HETATM   17  C5  UNL     1       0.277  11.522 -17.966  1.00  0.00     0.011 C 
HETATM   18  C6  UNL     1      -2.040  10.871 -18.316  1.00  0.00     0.011 C 
ENDBRANCH  15  16
ENDBRANCH  10  15
ENDBRANCH   1   9
BRANCH   7  19
HETATM   19  C12 UNL     1      -6.207  12.516 -13.510  1.00  0.00     0.275 C 
BRANCH  19  20
HETATM   20  N4  UNL     1      -5.618  13.828 -13.828  1.00  0.00    -0.067 N 
ATOM     21  H43 UNL     1      -4.627  13.883 -13.596  1.00  0.00     0.275 HD
ATOM     22  H42 UNL     1      -5.532  13.991 -14.831  1.00  0.00     0.275 HD
ATOM     23  H41 UNL     1      -6.175  14.543 -13.358  1.00  0.00     0.275 HD
ENDBRANCH  19  20
BRANCH  19  24
HETATM   24  C13 UNL     1      -6.959  12.669 -12.178  1.00  0.00     0.042 C 
BRANCH  24  25
HETATM   25  C14 UNL     1      -7.038  14.144 -11.814  1.00  0.00     0.003 C 
BRANCH  25  26
HETATM   26  C15 UNL     1      -8.315  14.482 -11.124  1.00  0.00     0.005 C 
BRANCH  26  27
HETATM   27  C16 UNL     1      -8.443  15.960 -10.977  1.00  0.00    -0.014 C 
HETATM   28  C17 UNL     1      -7.189  16.676 -11.514  1.00  0.00     0.004 C 
HETATM   29  C18 UNL     1      -7.525  18.152 -11.509  1.00  0.00     0.000 C 
HETATM   30  C19 UNL     1      -7.559  18.583 -10.060  1.00  0.00     0.000 C 
HETATM   31  C20 UNL     1      -8.509  17.786  -9.237  1.00  0.00     0.000 C 
HETATM   32  C21 UNL     1      -8.558  16.326  -9.520  1.00  0.00     0.004 C 
ENDBRANCH  26  27
ENDBRANCH  25  26
ENDBRANCH  24  25
ENDBRANCH  19  24
ENDBRANCH   7  19
TORSDOF 10
ENDMDL
MODEL 3
REMARK VINA RESULT: -8.340872030      0.840      1.006
REMARK  10 active torsions:
REMARK  status: ('A' for Active; 'I' for Inactive)
REMARK    1  A    between atoms: N1_2  and  C2_4 
REMARK    2  A    between atoms: C2_4  and  C7_11 
REMARK    3  A    between atoms: N2_5  and  C3_7 
REMARK    4  A    between atoms: C3_7  and  C4_8 
REMARK       I    between atoms: N3_16  and  C11_17 
REMARK    5  A    between atoms: C11_17  and  C12_19 
REMARK    6  A    between atoms: C12_19  and  N4_20 
REMARK    7  A    between atoms: C12_19  and  C13_24 
REMARK    8  A    between atoms: C13_24  and  C14_25 
REMARK    9  A    between atoms: C14_25  and  C15_26 
REMARK   10  A    between atoms: C15_26  and  C16_27 
ROOT
HETATM    1  C7  UNL     1      -4.151   9.126 -14.115  1.00  0.00     0.178 C 
HETATM    2  C8  UNL     1      -4.466   8.048 -15.116  1.00  0.00     0.200 C 
HETATM    3  O1  UNL     1      -4.340   8.458 -16.427  1.00  0.00    -0.387 OA
HETATM    4  C9  UNL     1      -4.912   9.679 -16.694  1.00  0.00     0.187 C 
HETATM    5  C10 UNL     1      -5.818  10.159 -15.579  1.00  0.00     0.153 C 
HETATM    6  N3  UNL     1      -5.116  10.200 -14.314  1.00  0.00    -0.335 N 
HETATM    7  C11 UNL     1      -5.330  11.203 -13.326  1.00  0.00     0.251 C 
HETATM    8  O2  UNL     1      -4.632  11.105 -12.274  1.00  0.00    -0.271 OA
ENDROOT
BRANCH   1   9
HETATM    9  C2  UNL     1      -2.766   9.623 -14.230  1.00  0.00     0.098 C 
HETATM   10  N2  UNL     1      -1.960   9.420 -13.249  1.00  0.00    -0.378 N 
ATOM     11  H2  UNL     1      -2.324   8.921 -12.437  1.00  0.00     0.160 HD
BRANCH   9  12
HETATM   12  N1  UNL     1      -2.309  10.308 -15.369  1.00  0.00    -0.383 N 
HETATM   13  C1  UNL     1      -1.349   9.707 -16.298  1.00  0.00     0.147 C 
ATOM     14  H1  UNL     1      -2.655  11.250 -15.554  1.00  0.00     0.160 HD
ENDBRANCH   9  12
BRANCH  10  15
HETATM   15  C3  UNL     1      -0.595   9.839 -13.205  1.00  0.00     0.124 C 
BRANCH  15  16
HETATM   16  C4  UNL     1      -0.165  10.419 -11.883  1.00  0.00    -0.005 C 
HETATM   17  C5  UNL     1       1.274  10.895 -11.986  1.00  0.00     0.011 C 
HETATM   18  C6  UNL     1      -0.992  11.612 -11.464  1.00  0.00     0.011 C 
ENDBRANCH  15  16
ENDBRANCH  10  15
ENDBRANCH   1   9
BRANCH   7  19
HETATM   19  C12 UNL     1      -6.286  12.308 -13.460  1.00  0.00     0.275 C 
BRANCH  19  20
HETATM   20  N4  UNL     1      -5.528  13.520 -13.816  1.00  0.00    -0.067 N 
ATOM     21  H43 UNL     1      -4.817  13.347 -14.526  1.00  0.00     0.275 HD
ATOM     22  H42 UNL     1      -6.085  14.194 -14.342  1.00  0.00     0.275 HD
ATOM     23  H41 UNL     1      -5.143  13.911 -12.956  1.00  0.00     0.275 HD
ENDBRANCH  19  20
BRANCH  19  24
HETATM   24  C13 UNL     1      -6.985  12.589 -12.120  1.00  0.00     0.042 C 
BRANCH  24  25
HETATM   25  C14 UNL     1      -7.109  14.092 -11.925  1.00  0.00     0.003 C 
BRANCH  25  26
HETATM   26  C15 UNL     1      -8.308  14.455 -11.117  1.00  0.00     0.005 C 
BRANCH  26  27
HETATM   27  C16 UNL     1      -8.418  15.937 -11.000  1.00  0.00    -0.014 C 
HETATM   28  C17 UNL     1      -7.130  16.624 -11.489  1.00  0.00     0.004 C 
HETATM   29  C18 UNL     1      -7.442  18.105 -11.524  1.00  0.00     0.000 C 
HETATM   30  C19 UNL     1      -7.536  18.561 -10.085  1.00  0.00     0.000 C 
HETATM   31  C20 UNL     1      -8.536  17.793  -9.294  1.00  0.00     0.000 C 
HETATM   32  C21 UNL     1      -8.594  16.328  -9.556  1.00  0.00     0.004 C 
ENDBRANCH  26  27
ENDBRANCH  25  26
ENDBRANCH  24  25
ENDBRANCH  19  24
ENDBRANCH   7  19
TORSDOF 10
ENDMDL
MODEL 4
REMARK VINA RESULT: -8.289291841      1.440      2.081
REMARK  10 active torsions:
REMARK  status: ('A' for Active; 'I' for Inactive)
REMARK    1  A    between atoms: N1_2  and  C2_4 
REMARK    2  A    between atoms: C2_4  and  C7_11 
REMARK    3  A    between atoms: N2_5  and  C3_7 
REMARK    4  A    between atoms: C3_7  and  C4_8 
REMARK       I    between atoms: N3_16  and  C11_17 
REMARK    5  A    between atoms: C11_17  and  C12_19 
REMARK    6  A    between atoms: C12_19  and  N4_20 
REMARK    7  A    between atoms: C12_19  and  C13_24 
REMARK    8  A    between atoms: C13_24  and  C14_25 
REMARK    9  A    between atoms: C14_25  and  C15_26 
REMARK   10  A    between atoms: C15_26  and  C16_27 
ROOT
HETATM    1  C7  UNL     1      -4.210   8.442 -15.399  1.00  0.00     0.178 C 
HETATM    2  C8  UNL     1      -4.118   8.112 -16.864  1.00  0.00     0.200 C 
HETATM    3  O1  UNL     1      -3.451   9.068 -17.604  1.00  0.00    -0.387 OA
HETATM    4  C9  UNL     1      -3.824  10.361 -17.325  1.00  0.00     0.187 C 
HETATM    5  C10 UNL     1      -5.095  10.440 -16.502  1.00  0.00     0.153 C 
HETATM    6  N3  UNL     1      -4.975   9.677 -15.278  1.00  0.00    -0.335 N 
HETATM    7  C11 UNL     1      -5.545  10.083 -14.038  1.00  0.00     0.251 C 
HETATM    8  O2  UNL     1      -5.345   9.309 -13.055  1.00  0.00    -0.271 OA
ENDROOT
BRANCH   1   9
HETATM    9  C2  UNL     1      -2.886   8.567 -14.759  1.00  0.00     0.098 C 
HETATM   10  N2  UNL     1      -2.631   9.632 -14.084  1.00  0.00    -0.378 N 
ATOM     11  H2  UNL     1      -3.365  10.338 -14.027  1.00  0.00     0.160 HD
BRANCH   9  12
HETATM   12  N1  UNL     1      -1.905   7.567 -14.868  1.00  0.00    -0.383 N 
HETATM   13  C1  UNL     1      -0.804   7.666 -15.830  1.00  0.00     0.147 C 
ATOM     14  H1  UNL     1      -1.960   6.749 -14.261  1.00  0.00     0.160 HD
ENDBRANCH   9  12
BRANCH  10  15
HETATM   15  C3  UNL     1      -1.401   9.905 -13.410  1.00  0.00     0.124 C 
BRANCH  15  16
HETATM   16  C4  UNL     1      -1.487  11.003 -12.383  1.00  0.00    -0.005 C 
HETATM   17  C5  UNL     1      -2.617  10.699 -11.414  1.00  0.00     0.011 C 
HETATM   18  C6  UNL     1      -0.229  11.141 -11.558  1.00  0.00     0.011 C 
ENDBRANCH  15  16
ENDBRANCH  10  15
ENDBRANCH   1   9
BRANCH   7  19
HETATM   19  C12 UNL     1      -6.327  11.309 -13.847  1.00  0.00     0.275 C 
BRANCH  19  20
HETATM   20  N4  UNL     1      -5.398  12.378 -13.443  1.00  0.00    -0.067 N 
ATOM     21  H43 UNL     1      -5.178  12.355 -12.447  1.00  0.00     0.275 HD
ATOM     22  H42 UNL     1      -4.452  12.234 -13.794  1.00  0.00     0.275 HD
ATOM     23  H41 UNL     1      -5.798  13.269 -13.740  1.00  0.00     0.275 HD
ENDBRANCH  19  20
BRANCH  19  24
HETATM   24  C13 UNL     1      -7.341  11.136 -12.704  1.00  0.00     0.042 C 
BRANCH  24  25
HETATM   25  C14 UNL     1      -7.070  12.179 -11.631  1.00  0.00     0.003 C 
BRANCH  25  26
HETATM   26  C15 UNL     1      -8.166  13.186 -11.541  1.00  0.00     0.005 C 
BRANCH  26  27
HETATM   27  C16 UNL     1      -7.620  14.499 -11.091  1.00  0.00    -0.014 C 
HETATM   28  C17 UNL     1      -8.717  15.351 -10.427  1.00  0.00     0.004 C 
HETATM   29  C18 UNL     1      -8.003  16.545  -9.828  1.00  0.00     0.000 C 
HETATM   30  C19 UNL     1      -7.564  17.412 -10.988  1.00  0.00     0.000 C 
HETATM   31  C20 UNL     1      -6.717  16.684 -11.972  1.00  0.00     0.000 C 
HETATM   32  C21 UNL     1      -7.120  15.284 -12.275  1.00  0.00     0.004 C 
ENDBRANCH  26  27
ENDBRANCH  25  26
ENDBRANCH  24  25
ENDBRANCH  19  24
ENDBRANCH   7  19
TORSDOF 10
ENDMDL
MODEL 5
REMARK VINA RESULT: -8.255502258      2.763      5.279
REMARK  10 active torsions:
REMARK  status: ('A' for Active; 'I' for Inactive)
REMARK    1  A    between atoms: N1_2  and  C2_4 
REMARK    2  A    between atoms: C2_4  and  C7_11 
REMARK    3  A    between atoms: N2_5  and  C3_7 
REMARK    4  A    between atoms: C3_7  and  C4_8 
REMARK       I    between atoms: N3_16  and  C11_17 
REMARK    5  A    between atoms: C11_17  and  C12_19 
REMARK    6  A    between atoms: C12_19  and  N4_20 
REMARK    7  A    between atoms: C12_19  and  C13_24 
REMARK    8  A    between atoms: C13_24  and  C14_25 
REMARK    9  A    between atoms: C14_25  and  C15_26 
REMARK   10  A    between atoms: C15_26  and  C16_27 
ROOT
HETATM    1  C7  UNL     1      -4.414   9.519 -16.650  1.00  0.00     0.178 C 
HETATM    2  C8  UNL     1      -2.930   9.414 -16.879  1.00  0.00     0.200 C 
HETATM    3  O1  UNL     1      -2.345   8.349 -16.224  1.00  0.00    -0.387 OA
HETATM    4  C9  UNL     1      -2.739   8.206 -14.915  1.00  0.00     0.187 C 
HETATM    5  C10 UNL     1      -3.480   9.419 -14.389  1.00  0.00     0.153 C 
HETATM    6  N3  UNL     1      -4.619   9.740 -15.223  1.00  0.00    -0.335 N 
HETATM    7  C11 UNL     1      -5.855  10.229 -14.714  1.00  0.00     0.251 C 
HETATM    8  O2  UNL     1      -6.759  10.456 -15.572  1.00  0.00    -0.271 OA
ENDROOT
BRANCH   1   9
HETATM    9  C2  UNL     1      -5.149   8.330 -17.118  1.00  0.00     0.098 C 
HETATM   10  N2  UNL     1      -4.503   7.225 -17.255  1.00  0.00    -0.378 N 
ATOM     11  H2  UNL     1      -3.509   7.233 -17.029  1.00  0.00     0.160 HD
BRANCH   9  12
HETATM   12  N1  UNL     1      -6.521   8.368 -17.420  1.00  0.00    -0.383 N 
HETATM   13  C1  UNL     1      -7.023   8.967 -18.660  1.00  0.00     0.147 C 
ATOM     14  H1  UNL     1      -7.187   7.970 -16.758  1.00  0.00     0.160 HD
ENDBRANCH   9  12
BRANCH  10  15
HETATM   15  C3  UNL     1      -5.068   5.991 -17.700  1.00  0.00     0.124 C 
BRANCH  15  16
HETATM   16  C4  UNL     1      -4.476   5.464 -18.980  1.00  0.00    -0.005 C 
HETATM   17  C5  UNL     1      -4.749   3.972 -19.083  1.00  0.00     0.011 C 
HETATM   18  C6  UNL     1      -5.070   6.103 -20.213  1.00  0.00     0.011 C 
ENDBRANCH  15  16
ENDBRANCH  10  15
ENDBRANCH   1   9
BRANCH   7  19
HETATM   19  C12 UNL     1      -6.127  10.475 -13.293  1.00  0.00     0.275 C 
BRANCH  19  20
HETATM   20  N4  UNL     1      -7.404   9.822 -12.959  1.00  0.00    -0.067 N 
ATOM     21  H43 UNL     1      -8.088   9.882 -13.712  1.00  0.00     0.275 HD
ATOM     22  H42 UNL     1      -7.330   8.805 -12.923  1.00  0.00     0.275 HD
ATOM     23  H41 UNL     1      -7.741  10.224 -12.084  1.00  0.00     0.275 HD
ENDBRANCH  19  20
BRANCH  19  24
HETATM   24  C13 UNL     1      -6.306  11.979 -13.027  1.00  0.00     0.042 C 
BRANCH  24  25
HETATM   25  C14 UNL     1      -7.029  12.170 -11.702  1.00  0.00     0.003 C 
BRANCH  25  26
HETATM   26  C15 UNL     1      -8.076  13.228 -11.785  1.00  0.00     0.005 C 
BRANCH  26  27
HETATM   27  C16 UNL     1      -7.568  14.499 -11.194  1.00  0.00    -0.014 C 
HETATM   28  C17 UNL     1      -8.683  15.233 -10.426  1.00  0.00     0.004 C 
HETATM   29  C18 UNL     1      -8.002  16.375  -9.703  1.00  0.00     0.000 C 
HETATM   30  C19 UNL     1      -7.608  17.383 -10.761  1.00  0.00     0.000 C 
HETATM   31  C20 UNL     1      -6.751  16.800 -11.830  1.00  0.00     0.000 C 
HETATM   32  C21 UNL     1      -7.111  15.430 -12.286  1.00  0.00     0.004 C 
ENDBRANCH  26  27
ENDBRANCH  25  26
ENDBRANCH  24  25
ENDBRANCH  19  24
ENDBRANCH   7  19
TORSDOF 10
ENDMDL
