MODEL 1
REMARK VINA RESULT: -6.529846613      0.000      0.000
REMARK  12 active torsions:
REMARK  status: ('A' for Active; 'I' for Inactive)
REMARK    1  A    between atoms: C2_2  and  N1_3 
REMARK    2  A    between atoms: N1_3  and  C3_4 
REMARK    3  A    between atoms: N1_3  and  C8_9 
REMARK    4  A    between atoms: C3_4  and  C4_5 
REMARK    5  A    between atoms: C8_9  and  C9_10 
REMARK    6  A    between atoms: C8_9  and  C10_13 
REMARK    7  A    between atoms: C9_10  and  O1_11 
REMARK       I    between atoms: C10_13  and  N2_15 
REMARK    8  A    between atoms: N2_15  and  C11_17 
REMARK    9  A    between atoms: C11_17  and  C12_18 
REMARK   10  A    between atoms: C11_17  and  C18_27 
REMARK   11  A    between atoms: C12_18  and  N3_19 
REMARK   12  A    between atoms: N3_19  and  C13_22 
ROOT
HETATM    1  C10 UNL     1      -3.886   9.347 -15.295  1.00  0.00     0.254 C 
HETATM    2  O2  UNL     1      -4.357   8.282 -14.812  1.00  0.00    -0.271 OA
HETATM    3  N2  UNL     1      -3.402  10.354 -14.395  1.00  0.00    -0.352 N 
ATOM      4  H2  UNL     1      -3.020  11.214 -14.787  1.00  0.00     0.163 HD
ENDROOT
BRANCH   3   5
HETATM    5  C11 UNL     1      -3.431  10.206 -12.971  1.00  0.00     0.117 C 
BRANCH   5   6
HETATM    6  C12 UNL     1      -4.339  11.258 -12.389  1.00  0.00     0.258 C 
BRANCH   6   7
HETATM    7  N3  UNL     1      -4.925  12.044 -13.467  1.00  0.00    -0.069 N 
ATOM      8  H32 UNL     1      -4.336  12.842 -13.707  1.00  0.00     0.277 HD
ATOM      9  H31 UNL     1      -4.884  11.543 -14.355  1.00  0.00     0.277 HD
BRANCH   7  10
HETATM   10  C13 UNL     1      -6.264  12.456 -13.161  1.00  0.00     0.186 C 
HETATM   11  C14 UNL     1      -6.829  11.907 -11.892  1.00  0.00     0.033 C 
HETATM   12  C15 UNL     1      -7.947  12.861 -11.559  1.00  0.00     0.002 C 
HETATM   13  C16 UNL     1      -7.411  14.202 -11.957  1.00  0.00     0.002 C 
HETATM   14  C17 UNL     1      -6.263  13.950 -12.892  1.00  0.00     0.033 C 
ENDBRANCH   7  10
ENDBRANCH   6   7
ENDBRANCH   5   6
BRANCH   5  15
HETATM   15  C18 UNL     1      -2.073  10.280 -12.312  1.00  0.00    -0.029 C 
HETATM   16  C19 UNL     1      -1.057   9.428 -13.068  1.00  0.00     0.016 C 
HETATM   17  C20 UNL     1      -2.111   9.767 -10.891  1.00  0.00     0.016 C 
HETATM   18  C21 UNL     1      -1.510  11.675 -12.273  1.00  0.00     0.016 C 
ENDBRANCH   5  15
ENDBRANCH   3   5
BRANCH   1  19
HETATM   19  C8  UNL     1      -3.792   9.644 -16.746  1.00  0.00     0.337 C 
BRANCH  19  20
HETATM   20  N1  UNL     1      -3.423   8.526 -17.559  1.00  0.00     0.104 N 
BRANCH  20  21
HETATM   21  C2  UNL     1      -2.020   8.438 -17.792  1.00  0.00     0.269 C 
HETATM   22  C1  UNL     1      -1.410   7.179 -17.186  1.00  0.00     0.037 C 
ENDBRANCH  20  21
BRANCH  20  23
HETATM   23  C3  UNL     1      -4.169   8.426 -18.748  1.00  0.00     0.282 C 
BRANCH  23  24
HETATM   24  C4  UNL     1      -4.896   7.165 -19.056  1.00  0.00    -0.025 C 
HETATM   25  C5  UNL     1      -5.036   6.220 -17.889  1.00  0.00     0.016 C 
HETATM   26  C6  UNL     1      -6.363   7.629 -19.328  1.00  0.00     0.016 C 
HETATM   27  C7  UNL     1      -4.504   6.414 -20.270  1.00  0.00     0.016 C 
ENDBRANCH  23  24
ENDBRANCH  20  23
ENDBRANCH  19  20
BRANCH  19  28
HETATM   28  C9  UNL     1      -4.974  10.434 -17.231  1.00  0.00     0.210 C 
BRANCH  28  29
HETATM   29  O1  UNL     1      -5.186  11.625 -16.533  1.00  0.00    -0.398 OA
ATOM     30  H1  UNL     1      -5.319  11.507 -15.599  1.00  0.00     0.209 HD
ENDBRANCH  28  29
ENDBRANCH  19  28
ENDBRANCH   1  19
TORSDOF 12
ENDMDL
MODEL 2
REMARK VINA RESULT: -6.344996580      3.012      7.004
REMARK  12 active torsions:
REMARK  status: ('A' for Active; 'I' for Inactive)
REMARK    1  A    between atoms: C2_2  and  N1_3 
REMARK    2  A    between atoms: N1_3  and  C3_4 
REMARK    3  A    between atoms: N1_3  and  C8_9 
REMARK    4  A    between atoms: C3_4  and  C4_5 
REMARK    5  A    between atoms: C8_9  and  C9_10 
REMARK    6  A    between atoms: C8_9  and  C10_13 
REMARK    7  A    between atoms: C9_10  and  O1_11 
REMARK       I    between atoms: C10_13  and  N2_15 
REMARK    8  A    between atoms: N2_15  and  C11_17 
REMARK    9  A    between atoms: C11_17  and  C12_18 
REMARK   10  A    between atoms: C11_17  and  C18_27 
REMARK   11  A    between atoms: C12_18  and  N3_19 
REMARK   12  A    between atoms: N3_19  and  C13_22 
ROOT
HETATM    1  C10 UNL     1      -1.727  10.439 -11.864  1.00  0.00     0.254 C 
HETATM    2  O2  UNL     1      -1.557  11.664 -12.108  1.00  0.00    -0.271 OA
HETATM    3  N2  UNL     1      -2.821   9.758 -12.495  1.00  0.00    -0.352 N 
ATOM      4  H2  UNL     1      -2.957   8.767 -12.297  1.00  0.00     0.163 HD
ENDROOT
BRANCH   3   5
HETATM    5  C11 UNL     1      -3.732  10.408 -13.389  1.00  0.00     0.117 C 
BRANCH   5   6
HETATM    6  C12 UNL     1      -4.780  11.128 -12.581  1.00  0.00     0.258 C 
BRANCH   6   7
HETATM    7  N3  UNL     1      -5.109  12.391 -13.229  1.00  0.00    -0.069 N 
ATOM      8  H32 UNL     1      -4.442  13.121 -12.980  1.00  0.00     0.277 HD
ATOM      9  H31 UNL     1      -4.933  12.350 -14.233  1.00  0.00     0.277 HD
BRANCH   7  10
HETATM   10  C13 UNL     1      -6.457  12.798 -12.953  1.00  0.00     0.186 C 
HETATM   11  C14 UNL     1      -7.056  12.225 -11.710  1.00  0.00     0.033 C 
HETATM   12  C15 UNL     1      -8.183  13.173 -11.391  1.00  0.00     0.002 C 
HETATM   13  C16 UNL     1      -7.636  14.521 -11.747  1.00  0.00     0.002 C 
HETATM   14  C17 UNL     1      -6.462  14.286 -12.654  1.00  0.00     0.033 C 
ENDBRANCH   7  10
ENDBRANCH   6   7
ENDBRANCH   5   6
BRANCH   5  15
HETATM   15  C18 UNL     1      -4.397   9.479 -14.379  1.00  0.00    -0.029 C 
HETATM   16  C19 UNL     1      -5.757   9.018 -13.861  1.00  0.00     0.016 C 
HETATM   17  C20 UNL     1      -3.572   8.237 -14.623  1.00  0.00     0.016 C 
HETATM   18  C21 UNL     1      -4.649  10.122 -15.716  1.00  0.00     0.016 C 
ENDBRANCH   5  15
ENDBRANCH   3   5
BRANCH   1  19
HETATM   19  C8  UNL     1      -0.869   9.634 -10.960  1.00  0.00     0.337 C 
BRANCH  19  20
HETATM   20  N1  UNL     1       0.521   9.971 -11.003  1.00  0.00     0.104 N 
BRANCH  20  21
HETATM   21  C2  UNL     1       1.356   8.870 -11.350  1.00  0.00     0.269 C 
HETATM   22  C1  UNL     1       2.085   8.293 -10.142  1.00  0.00     0.037 C 
ENDBRANCH  20  21
BRANCH  20  23
HETATM   23  C3  UNL     1       0.972  10.642  -9.851  1.00  0.00     0.282 C 
BRANCH  23  24
HETATM   24  C4  UNL     1       1.452  12.046  -9.958  1.00  0.00    -0.025 C 
HETATM   25  C5  UNL     1       0.434  13.089  -9.572  1.00  0.00     0.016 C 
HETATM   26  C6  UNL     1       2.537  12.162  -8.839  1.00  0.00     0.016 C 
HETATM   27  C7  UNL     1       2.144  12.452 -11.202  1.00  0.00     0.016 C 
ENDBRANCH  23  24
ENDBRANCH  20  23
ENDBRANCH  19  20
BRANCH  19  28
HETATM   28  C9  UNL     1      -1.464   9.517  -9.585  1.00  0.00     0.210 C 
BRANCH  28  29
HETATM   29  O1  UNL     1      -1.332   8.249  -9.015  1.00  0.00    -0.398 OA
ATOM     30  H1  UNL     1      -0.450   7.898  -9.054  1.00  0.00     0.209 HD
ENDBRANCH  28  29
ENDBRANCH  19  28
ENDBRANCH   1  19
TORSDOF 12
ENDMDL
MODEL 3
REMARK VINA RESULT: -6.337147287      3.060      7.275
REMARK  12 active torsions:
REMARK  status: ('A' for Active; 'I' for Inactive)
REMARK    1  A    between atoms: C2_2  and  N1_3 
REMARK    2  A    between atoms: N1_3  and  C3_4 
REMARK    3  A    between atoms: N1_3  and  C8_9 
REMARK    4  A    between atoms: C3_4  and  C4_5 
REMARK    5  A    between atoms: C8_9  and  C9_10 
REMARK    6  A    between atoms: C8_9  and  C10_13 
REMARK    7  A    between atoms: C9_10  and  O1_11 
REMARK       I    between atoms: C10_13  and  N2_15 
REMARK    8  A    between atoms: N2_15  and  C11_17 
REMARK    9  A    between atoms: C11_17  and  C12_18 
REMARK   10  A    between atoms: C11_17  and  C18_27 
REMARK   11  A    between atoms: C12_18  and  N3_19 
REMARK   12  A    between atoms: N3_19  and  C13_22 
ROOT
HETATM    1  C10 UNL     1      -1.581  10.541 -11.811  1.00  0.00     0.254 C 
HETATM    2  O2  UNL     1      -1.733  11.782 -11.967  1.00  0.00    -0.271 OA
HETATM    3  N2  UNL     1      -2.272   9.647 -12.695  1.00  0.00    -0.352 N 
ATOM      4  H2  UNL     1      -2.147   8.644 -12.569  1.00  0.00     0.163 HD
ENDROOT
BRANCH   3   5
HETATM    5  C11 UNL     1      -3.131  10.102 -13.748  1.00  0.00     0.117 C 
BRANCH   5   6
HETATM    6  C12 UNL     1      -4.456  10.509 -13.156  1.00  0.00     0.258 C 
BRANCH   6   7
HETATM    7  N3  UNL     1      -4.713  11.911 -13.461  1.00  0.00    -0.069 N 
ATOM      8  H32 UNL     1      -4.070  12.524 -12.959  1.00  0.00     0.277 HD
ATOM      9  H31 UNL     1      -4.438  12.139 -14.416  1.00  0.00     0.277 HD
BRANCH   7  10
HETATM   10  C13 UNL     1      -6.079  12.270 -13.211  1.00  0.00     0.186 C 
HETATM   11  C14 UNL     1      -6.672  11.703 -11.963  1.00  0.00     0.033 C 
HETATM   12  C15 UNL     1      -7.840  12.611 -11.680  1.00  0.00     0.002 C 
HETATM   13  C16 UNL     1      -7.343  13.972 -12.062  1.00  0.00     0.002 C 
HETATM   14  C17 UNL     1      -6.148  13.763 -12.949  1.00  0.00     0.033 C 
ENDBRANCH   7  10
ENDBRANCH   6   7
ENDBRANCH   5   6
BRANCH   5  15
HETATM   15  C18 UNL     1      -3.351   9.090 -14.848  1.00  0.00    -0.029 C 
HETATM   16  C19 UNL     1      -4.622   8.283 -14.597  1.00  0.00     0.016 C 
HETATM   17  C20 UNL     1      -2.211   8.104 -14.939  1.00  0.00     0.016 C 
HETATM   18  C21 UNL     1      -3.512   9.719 -16.206  1.00  0.00     0.016 C 
ENDBRANCH   5  15
ENDBRANCH   3   5
BRANCH   1  19
HETATM   19  C8  UNL     1      -0.727   9.922 -10.766  1.00  0.00     0.337 C 
BRANCH  19  20
HETATM   20  N1  UNL     1       0.469  10.648 -10.470  1.00  0.00     0.104 N 
BRANCH  20  21
HETATM   21  C2  UNL     1       1.633  10.084 -11.069  1.00  0.00     0.269 C 
HETATM   22  C1  UNL     1       2.298  11.038 -12.055  1.00  0.00     0.037 C 
ENDBRANCH  20  21
BRANCH  20  23
HETATM   23  C3  UNL     1       0.646  10.904  -9.098  1.00  0.00     0.282 C 
BRANCH  23  24
HETATM   24  C4  UNL     1       0.767  12.307  -8.621  1.00  0.00    -0.025 C 
HETATM   25  C5  UNL     1       0.521  13.353  -9.678  1.00  0.00     0.016 C 
HETATM   26  C6  UNL     1      -0.443  12.482  -7.646  1.00  0.00     0.016 C 
HETATM   27  C7  UNL     1       1.956  12.670  -7.818  1.00  0.00     0.016 C 
ENDBRANCH  23  24
ENDBRANCH  20  23
ENDBRANCH  19  20
BRANCH  19  28
HETATM   28  C9  UNL     1      -1.532   9.488  -9.575  1.00  0.00     0.210 C 
BRANCH  28  29
HETATM   29  O1  UNL     1      -1.252   8.190  -9.143  1.00  0.00    -0.398 OA
ATOM     30  H1  UNL     1      -1.764   7.518  -9.579  1.00  0.00     0.209 HD
ENDBRANCH  28  29
ENDBRANCH  19  28
ENDBRANCH   1  19
TORSDOF 12
ENDMDL
MODEL 4
REMARK VINA RESULT: -6.253285727      1.598      2.852
REMARK  12 active torsions:
REMARK  status: ('A' for Active; 'I' for Inactive)
REMARK    1  A    between atoms: C2_2  and  N1_3 
REMARK    2  A    between atoms: N1_3  and  C3_4 
REMARK    3  A    between atoms: N1_3  and  C8_9 
REMARK    4  A    between atoms: C3_4  and  C4_5 
REMARK    5  A    between atoms: C8_9  and  C9_10 
REMARK    6  A    between atoms: C8_9  and  C10_13 
REMARK    7  A    between atoms: C9_10  and  O1_11 
REMARK       I    between atoms: C10_13  and  N2_15 
REMARK    8  A    between atoms: N2_15  and  C11_17 
REMARK    9  A    between atoms: C11_17  and  C12_18 
REMARK   10  A    between atoms: C11_17  and  C18_27 
REMARK   11  A    between atoms: C12_18  and  N3_19 
REMARK   12  A    between atoms: N3_19  and  C13_22 
ROOT
HETATM    1  C10 UNL     1      -3.341   8.387 -14.099  1.00  0.00     0.254 C 
HETATM    2  O2  UNL     1      -4.485   8.323 -13.574  1.00  0.00    -0.271 OA
HETATM    3  N2  UNL     1      -2.379   9.293 -13.541  1.00  0.00    -0.352 N 
ATOM      4  H2  UNL     1      -1.454   9.343 -13.966  1.00  0.00     0.163 HD
ENDROOT
BRANCH   3   5
HETATM    5  C11 UNL     1      -2.660  10.132 -12.415  1.00  0.00     0.117 C 
BRANCH   5   6
HETATM    6  C12 UNL     1      -3.116  11.480 -12.910  1.00  0.00     0.258 C 
BRANCH   6   7
HETATM    7  N3  UNL     1      -4.459  11.364 -13.463  1.00  0.00    -0.069 N 
ATOM      8  H32 UNL     1      -4.532  11.838 -14.363  1.00  0.00     0.277 HD
ATOM      9  H31 UNL     1      -4.654  10.411 -13.768  1.00  0.00     0.277 HD
BRANCH   7  10
HETATM   10  C13 UNL     1      -5.457  11.832 -12.544  1.00  0.00     0.186 C 
HETATM   11  C14 UNL     1      -6.092  13.137 -12.899  1.00  0.00     0.033 C 
HETATM   12  C15 UNL     1      -7.387  13.122 -12.128  1.00  0.00     0.002 C 
HETATM   13  C16 UNL     1      -7.840  11.697 -12.206  1.00  0.00     0.002 C 
HETATM   14  C17 UNL     1      -6.637  10.879 -12.583  1.00  0.00     0.033 C 
ENDBRANCH   7  10
ENDBRANCH   6   7
ENDBRANCH   5   6
BRANCH   5  15
HETATM   15  C18 UNL     1      -1.498  10.302 -11.464  1.00  0.00    -0.029 C 
HETATM   16  C19 UNL     1      -1.872   9.831 -10.061  1.00  0.00     0.016 C 
HETATM   17  C20 UNL     1      -1.076  11.748 -11.347  1.00  0.00     0.016 C 
HETATM   18  C21 UNL     1      -0.284   9.509 -11.866  1.00  0.00     0.016 C 
ENDBRANCH   5  15
ENDBRANCH   3   5
BRANCH   1  19
HETATM   19  C8  UNL     1      -2.906   7.583 -15.269  1.00  0.00     0.337 C 
BRANCH  19  20
HETATM   20  N1  UNL     1      -3.734   7.721 -16.426  1.00  0.00     0.104 N 
BRANCH  20  21
HETATM   21  C2  UNL     1      -3.448   6.762 -17.440  1.00  0.00     0.269 C 
HETATM   22  C1  UNL     1      -4.701   6.045 -17.931  1.00  0.00     0.037 C 
ENDBRANCH  20  21
BRANCH  20  23
HETATM   23  C3  UNL     1      -3.781   9.034 -16.931  1.00  0.00     0.282 C 
BRANCH  23  24
HETATM   24  C4  UNL     1      -5.097   9.668 -17.212  1.00  0.00    -0.025 C 
HETATM   25  C5  UNL     1      -6.199   9.274 -16.261  1.00  0.00     0.016 C 
HETATM   26  C6  UNL     1      -4.865  11.181 -16.895  1.00  0.00     0.016 C 
HETATM   27  C7  UNL     1      -5.598   9.643 -18.604  1.00  0.00     0.016 C 
ENDBRANCH  23  24
ENDBRANCH  20  23
ENDBRANCH  19  20
BRANCH  19  28
HETATM   28  C9  UNL     1      -1.428   7.709 -15.511  1.00  0.00     0.210 C 
BRANCH  28  29
HETATM   29  O1  UNL     1      -0.638   7.082 -14.546  1.00  0.00    -0.398 OA
ATOM     30  H1  UNL     1      -1.134   6.692 -13.835  1.00  0.00     0.209 HD
ENDBRANCH  28  29
ENDBRANCH  19  28
ENDBRANCH   1  19
TORSDOF 12
ENDMDL
MODEL 5
REMARK VINA RESULT: -6.241426582      2.985      7.251
REMARK  12 active torsions:
REMARK  status: ('A' for Active; 'I' for Inactive)
REMARK    1  A    between atoms: C2_2  and  N1_3 
REMARK    2  A    between atoms: N1_3  and  C3_4 
REMARK    3  A    between atoms: N1_3  and  C8_9 
REMARK    4  A    between atoms: C3_4  and  C4_5 
REMARK    5  A    between atoms: C8_9  and  C9_10 
REMARK    6  A    between atoms: C8_9  and  C10_13 
REMARK    7  A    between atoms: C9_10  and  O1_11 
REMARK       I    between atoms: C10_13  and  N2_15 
REMARK    8  A    between atoms: N2_15  and  C11_17 
REMARK    9  A    between atoms: C11_17  and  C12_18 
REMARK   10  A    between atoms: C11_17  and  C18_27 
REMARK   11  A    between atoms: C12_18  and  N3_19 
REMARK   12  A    between atoms: N3_19  and  C13_22 
ROOT
HETATM    1  C10 UNL     1      -1.715  10.406 -11.955  1.00  0.00     0.254 C 
HETATM    2  O2  UNL     1      -2.010  11.621 -12.114  1.00  0.00    -0.271 OA
HETATM    3  N2  UNL     1      -2.209   9.450 -12.904  1.00  0.00    -0.352 N 
ATOM      4  H2  UNL     1      -1.968   8.467 -12.775  1.00  0.00     0.163 HD
ENDROOT
BRANCH   3   5
HETATM    5  C11 UNL     1      -3.026   9.812 -14.024  1.00  0.00     0.117 C 
BRANCH   5   6
HETATM    6  C12 UNL     1      -4.439  10.030 -13.548  1.00  0.00     0.258 C 
BRANCH   6   7
HETATM    7  N3  UNL     1      -4.841  11.401 -13.835  1.00  0.00    -0.069 N 
ATOM      8  H32 UNL     1      -4.040  11.975 -14.098  1.00  0.00     0.277 HD
ATOM      9  H31 UNL     1      -5.371  11.457 -14.704  1.00  0.00     0.277 HD
BRANCH   7  10
HETATM   10  C13 UNL     1      -5.565  11.985 -12.742  1.00  0.00     0.186 C 
HETATM   11  C14 UNL     1      -6.168  13.324 -13.018  1.00  0.00     0.033 C 
HETATM   12  C15 UNL     1      -7.249  13.447 -11.976  1.00  0.00     0.002 C 
HETATM   13  C16 UNL     1      -7.812  12.062 -11.870  1.00  0.00     0.002 C 
HETATM   14  C17 UNL     1      -6.790  11.133 -12.462  1.00  0.00     0.033 C 
ENDBRANCH   7  10
ENDBRANCH   6   7
ENDBRANCH   5   6
BRANCH   5  15
HETATM   15  C18 UNL     1      -3.014   8.805 -15.150  1.00  0.00    -0.029 C 
HETATM   16  C19 UNL     1      -1.807   7.877 -15.036  1.00  0.00     0.016 C 
HETATM   17  C20 UNL     1      -2.930   9.476 -16.501  1.00  0.00     0.016 C 
HETATM   18  C21 UNL     1      -4.230   7.918 -15.163  1.00  0.00     0.016 C 
ENDBRANCH   5  15
ENDBRANCH   3   5
BRANCH   1  19
HETATM   19  C8  UNL     1      -0.882   9.881 -10.846  1.00  0.00     0.337 C 
BRANCH  19  20
HETATM   20  N1  UNL     1       0.290  10.651 -10.566  1.00  0.00     0.104 N 
BRANCH  20  21
HETATM   21  C2  UNL     1       1.450  10.178 -11.246  1.00  0.00     0.269 C 
HETATM   22  C1  UNL     1       1.546   8.656 -11.238  1.00  0.00     0.037 C 
ENDBRANCH  20  21
BRANCH  20  23
HETATM   23  C3  UNL     1       0.520  10.847  -9.192  1.00  0.00     0.282 C 
BRANCH  23  24
HETATM   24  C4  UNL     1       0.417  12.214  -8.616  1.00  0.00    -0.025 C 
HETATM   25  C5  UNL     1      -0.691  12.391  -7.609  1.00  0.00     0.016 C 
HETATM   26  C6  UNL     1       1.716  12.364  -7.760  1.00  0.00     0.016 C 
HETATM   27  C7  UNL     1       0.441  13.365  -9.547  1.00  0.00     0.016 C 
ENDBRANCH  23  24
ENDBRANCH  20  23
ENDBRANCH  19  20
BRANCH  19  28
HETATM   28  C9  UNL     1      -1.714   9.513  -9.650  1.00  0.00     0.210 C 
BRANCH  28  29
HETATM   29  O1  UNL     1      -1.429   8.251  -9.126  1.00  0.00    -0.398 OA
ATOM     30  H1  UNL     1      -1.359   7.567  -9.781  1.00  0.00     0.209 HD
ENDBRANCH  28  29
ENDBRANCH  19  28
ENDBRANCH   1  19
TORSDOF 12
ENDMDL
