MODEL 1
REMARK VINA RESULT: -4.107096040      0.000      0.000
REMARK  4 active torsions:
REMARK  status: ('A' for Active; 'I' for Inactive)
REMARK    1  A    between atoms: N1_2  and  C2_4 
REMARK    2  A    between atoms: C2_4  and  N2_5 
REMARK    3  A    between atoms: N2_5  and  C3_7 
REMARK    4  A    between atoms: C3_7  and  N3_8 
ROOT
HETATM    1  N2  UNL     1      20.057  14.671  23.864  1.00  0.00    -0.304 N 
ATOM      2  H2  UNL     1      20.539  15.406  23.347  1.00  0.00     0.177 HD
ENDROOT
BRANCH   1   3
HETATM    3  C2  UNL     1      18.878  14.983  24.642  1.00  0.00     0.184 C 
BRANCH   3   4
HETATM    4  N1  UNL     1      18.901  14.237  25.838  1.00  0.00    -0.390 N 
HETATM    5  C1  UNL     1      18.013  14.622  26.871  1.00  0.00     0.147 C 
ATOM      6  H1  UNL     1      19.536  13.447  25.955  1.00  0.00     0.159 HD
ENDBRANCH   3   4
ENDBRANCH   1   3
BRANCH   1   7
HETATM    7  C3  UNL     1      20.487  13.489  23.828  1.00  0.00     0.045 C 
BRANCH   7   8
HETATM    8  N3  UNL     1      20.866  12.273  23.639  1.00  0.00    -0.352 N 
ATOM      9  H32 UNL     1      21.809  12.653  23.715  1.00  0.00     0.167 HD
ATOM     10  H31 UNL     1      21.040  11.280  23.484  1.00  0.00     0.167 HD
ENDBRANCH   7   8
ENDBRANCH   1   7
TORSDOF 4
ENDMDL
MODEL 2
REMARK VINA RESULT: -4.085526341      2.991      4.032
REMARK  4 active torsions:
REMARK  status: ('A' for Active; 'I' for Inactive)
REMARK    1  A    between atoms: N1_2  and  C2_4 
REMARK    2  A    between atoms: C2_4  and  N2_5 
REMARK    3  A    between atoms: N2_5  and  C3_7 
REMARK    4  A    between atoms: C3_7  and  N3_8 
ROOT
HETATM    1  N2  UNL     1      17.941  15.894  26.425  1.00  0.00    -0.304 N 
ATOM      2  H2  UNL     1      18.025  16.196  25.454  1.00  0.00     0.177 HD
ENDROOT
BRANCH   1   3
HETATM    3  C2  UNL     1      17.527  16.832  27.445  1.00  0.00     0.184 C 
BRANCH   3   4
HETATM    4  N1  UNL     1      16.280  17.385  27.088  1.00  0.00    -0.390 N 
HETATM    5  C1  UNL     1      16.272  18.682  26.521  1.00  0.00     0.147 C 
ATOM      6  H1  UNL     1      15.413  16.868  27.234  1.00  0.00     0.159 HD
ENDBRANCH   3   4
ENDBRANCH   1   3
BRANCH   1   7
HETATM    7  C3  UNL     1      18.197  14.702  26.739  1.00  0.00     0.045 C 
BRANCH   7   8
HETATM    8  N3  UNL     1      18.604  13.539  27.109  1.00  0.00    -0.352 N 
ATOM      9  H32 UNL     1      19.445  14.031  27.409  1.00  0.00     0.167 HD
ATOM     10  H31 UNL     1      18.813  12.572  27.359  1.00  0.00     0.167 HD
ENDBRANCH   7   8
ENDBRANCH   1   7
TORSDOF 4
ENDMDL
MODEL 3
REMARK VINA RESULT: -4.084262418      2.833      4.895
REMARK  4 active torsions:
REMARK  status: ('A' for Active; 'I' for Inactive)
REMARK    1  A    between atoms: N1_2  and  C2_4 
REMARK    2  A    between atoms: C2_4  and  N2_5 
REMARK    3  A    between atoms: N2_5  and  C3_7 
REMARK    4  A    between atoms: C3_7  and  N3_8 
ROOT
HETATM    1  N2  UNL     1      17.647  16.677  27.491  1.00  0.00    -0.304 N 
ATOM      2  H2  UNL     1      18.227  16.889  28.303  1.00  0.00     0.177 HD
ENDROOT
BRANCH   1   3
HETATM    3  C2  UNL     1      17.605  15.332  26.960  1.00  0.00     0.184 C 
BRANCH   3   4
HETATM    4  N1  UNL     1      18.801  15.071  26.262  1.00  0.00    -0.390 N 
HETATM    5  C1  UNL     1      18.706  14.763  24.883  1.00  0.00     0.147 C 
ATOM      6  H1  UNL     1      19.706  15.103  26.734  1.00  0.00     0.159 HD
ENDBRANCH   3   4
ENDBRANCH   1   3
BRANCH   1   7
HETATM    7  C3  UNL     1      16.967  17.585  26.947  1.00  0.00     0.045 C 
BRANCH   7   8
HETATM    8  N3  UNL     1      16.242  18.569  26.542  1.00  0.00    -0.352 N 
ATOM      9  H32 UNL     1      15.954  18.636  27.518  1.00  0.00     0.167 HD
ATOM     10  H31 UNL     1      15.717  19.325  26.104  1.00  0.00     0.167 HD
ENDBRANCH   7   8
ENDBRANCH   1   7
TORSDOF 4
ENDMDL
MODEL 4
REMARK VINA RESULT: -4.060703813      1.797      2.619
REMARK  4 active torsions:
REMARK  status: ('A' for Active; 'I' for Inactive)
REMARK    1  A    between atoms: N1_2  and  C2_4 
REMARK    2  A    between atoms: C2_4  and  N2_5 
REMARK    3  A    between atoms: N2_5  and  C3_7 
REMARK    4  A    between atoms: C3_7  and  N3_8 
ROOT
HETATM    1  N2  UNL     1      18.882  15.105  25.887  1.00  0.00    -0.304 N 
ATOM      2  H2  UNL     1      19.676  15.735  26.000  1.00  0.00     0.177 HD
ENDROOT
BRANCH   1   3
HETATM    3  C2  UNL     1      18.003  14.838  27.005  1.00  0.00     0.184 C 
BRANCH   3   4
HETATM    4  N1  UNL     1      16.915  15.734  26.963  1.00  0.00    -0.390 N 
HETATM    5  C1  UNL     1      17.168  17.093  27.267  1.00  0.00     0.147 C 
ATOM      6  H1  UNL     1      15.977  15.414  26.722  1.00  0.00     0.159 HD
ENDBRANCH   3   4
ENDBRANCH   1   3
BRANCH   1   7
HETATM    7  C3  UNL     1      18.664  14.557  24.776  1.00  0.00     0.045 C 
BRANCH   7   8
HETATM    8  N3  UNL     1      18.306  13.934  23.708  1.00  0.00    -0.352 N 
ATOM      9  H32 UNL     1      17.609  13.495  24.309  1.00  0.00     0.167 HD
ATOM     10  H31 UNL     1      18.117  13.506  22.802  1.00  0.00     0.167 HD
ENDBRANCH   7   8
ENDBRANCH   1   7
TORSDOF 4
ENDMDL
MODEL 5
REMARK VINA RESULT: -3.976977422      1.729      4.048
REMARK  4 active torsions:
REMARK  status: ('A' for Active; 'I' for Inactive)
REMARK    1  A    between atoms: N1_2  and  C2_4 
REMARK    2  A    between atoms: C2_4  and  N2_5 
REMARK    3  A    between atoms: N2_5  and  C3_7 
REMARK    4  A    between atoms: C3_7  and  N3_8 
ROOT
HETATM    1  N2  UNL     1      18.683  15.389  26.457  1.00  0.00    -0.304 N 
ATOM      2  H2  UNL     1      19.527  15.443  27.027  1.00  0.00     0.177 HD
ENDROOT
BRANCH   1   3
HETATM    3  C2  UNL     1      18.719  14.738  25.166  1.00  0.00     0.184 C 
BRANCH   3   4
HETATM    4  N1  UNL     1      19.513  13.576  25.254  1.00  0.00    -0.390 N 
HETATM    5  C1  UNL     1      20.378  13.285  24.172  1.00  0.00     0.147 C 
ATOM      6  H1  UNL     1      19.467  12.966  26.070  1.00  0.00     0.159 HD
ENDBRANCH   3   4
ENDBRANCH   1   3
BRANCH   1   7
HETATM    7  C3  UNL     1      17.606  15.888  26.875  1.00  0.00     0.045 C 
BRANCH   7   8
HETATM    8  N3  UNL     1      16.551  16.535  27.227  1.00  0.00    -0.352 N 
ATOM      9  H32 UNL     1      16.516  16.825  26.250  1.00  0.00     0.167 HD
ATOM     10  H31 UNL     1      15.735  17.001  27.624  1.00  0.00     0.167 HD
ENDBRANCH   7   8
ENDBRANCH   1   7
TORSDOF 4
ENDMDL
