MODEL 1
REMARK VINA RESULT: -5.506434452      0.000      0.000
REMARK  3 active torsions:
REMARK  status: ('A' for Active; 'I' for Inactive)
REMARK    1  A    between atoms: C2_2  and  C3_3 
REMARK    2  A    between atoms: C3_3  and  N1_4 
REMARK    3  A    between atoms: N1_4  and  C4_6 
ROOT
HETATM    1  N1  UNL     1      18.866  14.153  25.807  1.00  0.00    -0.383 N 
ATOM      2  H1  UNL     1      19.359  13.261  25.853  1.00  0.00     0.160 HD
ENDROOT
BRANCH   1   3
HETATM    3  C3  UNL     1      18.021  14.598  26.899  1.00  0.00     0.147 C 
BRANCH   3   4
HETATM    4  C2  UNL     1      17.771  16.044  26.694  1.00  0.00    -0.018 C 
HETATM    5  C1  UNL     1      17.047  16.795  27.475  1.00  0.00     0.008 C 
ENDBRANCH   3   4
ENDBRANCH   1   3
BRANCH   1   6
HETATM    6  C4  UNL     1      18.983  14.993  24.679  1.00  0.00     0.171 C 
HETATM    7  N2  UNL     1      19.841  14.693  23.733  1.00  0.00    -0.391 N 
HETATM    8  C5  UNL     1      20.641  13.507  23.874  1.00  0.00     0.147 C 
ATOM      9  H2  UNL     1      19.938  15.291  22.913  1.00  0.00     0.159 HD
ENDBRANCH   1   6
TORSDOF 3
ENDMDL
MODEL 2
REMARK VINA RESULT: -5.361224891      1.450      2.348
REMARK  3 active torsions:
REMARK  status: ('A' for Active; 'I' for Inactive)
REMARK    1  A    between atoms: C2_2  and  C3_3 
REMARK    2  A    between atoms: C3_3  and  N1_4 
REMARK    3  A    between atoms: N1_4  and  C4_6 
ROOT
HETATM    1  N1  UNL     1      17.058  15.324  26.863  1.00  0.00    -0.383 N 
ATOM      2  H1  UNL     1      16.305  15.082  26.218  1.00  0.00     0.160 HD
ENDROOT
BRANCH   1   3
HETATM    3  C3  UNL     1      17.035  16.569  27.607  1.00  0.00     0.147 C 
BRANCH   3   4
HETATM    4  C2  UNL     1      17.061  17.670  26.615  1.00  0.00    -0.018 C 
HETATM    5  C1  UNL     1      16.249  18.689  26.608  1.00  0.00     0.008 C 
ENDBRANCH   3   4
ENDBRANCH   1   3
BRANCH   1   6
HETATM    6  C4  UNL     1      18.153  14.457  27.061  1.00  0.00     0.171 C 
HETATM    7  N2  UNL     1      18.946  14.172  26.056  1.00  0.00    -0.391 N 
HETATM    8  C5  UNL     1      18.672  14.758  24.771  1.00  0.00     0.147 C 
ATOM      9  H2  UNL     1      19.741  13.547  26.183  1.00  0.00     0.159 HD
ENDBRANCH   1   6
TORSDOF 3
ENDMDL
MODEL 3
REMARK VINA RESULT: -5.253753915      1.340      1.805
REMARK  3 active torsions:
REMARK  status: ('A' for Active; 'I' for Inactive)
REMARK    1  A    between atoms: C2_2  and  C3_3 
REMARK    2  A    between atoms: C3_3  and  N1_4 
REMARK    3  A    between atoms: N1_4  and  C4_6 
ROOT
HETATM    1  N1  UNL     1      18.752  15.653  26.625  1.00  0.00    -0.383 N 
ATOM      2  H1  UNL     1      19.673  15.966  26.316  1.00  0.00     0.160 HD
ENDROOT
BRANCH   1   3
HETATM    3  C3  UNL     1      18.016  16.379  27.642  1.00  0.00     0.147 C 
BRANCH   3   4
HETATM    4  C2  UNL     1      16.810  16.940  26.990  1.00  0.00    -0.018 C 
HETATM    5  C1  UNL     1      16.659  18.187  26.644  1.00  0.00     0.008 C 
ENDBRANCH   3   4
ENDBRANCH   1   3
BRANCH   1   6
HETATM    6  C4  UNL     1      18.154  14.499  26.076  1.00  0.00     0.171 C 
HETATM    7  N2  UNL     1      18.315  14.227  24.803  1.00  0.00    -0.391 N 
HETATM    8  C5  UNL     1      19.104  15.121  23.999  1.00  0.00     0.147 C 
ATOM      9  H2  UNL     1      17.888  13.397  24.392  1.00  0.00     0.159 HD
ENDBRANCH   1   6
TORSDOF 3
ENDMDL
MODEL 4
REMARK VINA RESULT: -4.386705794      1.060      1.519
REMARK  3 active torsions:
REMARK  status: ('A' for Active; 'I' for Inactive)
REMARK    1  A    between atoms: C2_2  and  C3_3 
REMARK    2  A    between atoms: C3_3  and  N1_4 
REMARK    3  A    between atoms: N1_4  and  C4_6 
ROOT
HETATM    1  N1  UNL     1      19.193  15.082  25.111  1.00  0.00    -0.383 N 
ATOM      2  H1  UNL     1      19.878  14.586  25.681  1.00  0.00     0.160 HD
ENDROOT
BRANCH   1   3
HETATM    3  C3  UNL     1      18.176  15.918  25.720  1.00  0.00     0.147 C 
BRANCH   3   4
HETATM    4  C2  UNL     1      17.691  15.205  26.925  1.00  0.00    -0.018 C 
HETATM    5  C1  UNL     1      18.049  14.003  27.277  1.00  0.00     0.008 C 
ENDBRANCH   3   4
ENDBRANCH   1   3
BRANCH   1   6
HETATM    6  C4  UNL     1      19.205  14.979  23.704  1.00  0.00     0.171 C 
HETATM    7  N2  UNL     1      19.927  14.048  23.127  1.00  0.00    -0.391 N 
HETATM    8  C5  UNL     1      20.690  13.152  23.955  1.00  0.00     0.147 C 
ATOM      9  H2  UNL     1      19.946  13.960  22.111  1.00  0.00     0.159 HD
ENDBRANCH   1   6
TORSDOF 3
ENDMDL
MODEL 5
REMARK VINA RESULT: -4.357360062      2.032      4.292
REMARK  3 active torsions:
REMARK  status: ('A' for Active; 'I' for Inactive)
REMARK    1  A    between atoms: C2_2  and  C3_3 
REMARK    2  A    between atoms: C3_3  and  N1_4 
REMARK    3  A    between atoms: N1_4  and  C4_6 
ROOT
HETATM    1  N1  UNL     1      18.105  15.921  26.441  1.00  0.00    -0.383 N 
ATOM      2  H1  UNL     1      18.711  16.742  26.441  1.00  0.00     0.160 HD
ENDROOT
BRANCH   1   3
HETATM    3  C3  UNL     1      18.463  14.726  25.701  1.00  0.00     0.147 C 
BRANCH   3   4
HETATM    4  C2  UNL     1      18.928  15.164  24.364  1.00  0.00    -0.018 C 
HETATM    5  C1  UNL     1      19.607  14.428  23.531  1.00  0.00     0.008 C 
ENDBRANCH   3   4
ENDBRANCH   1   3
BRANCH   1   6
HETATM    6  C4  UNL     1      16.891  15.912  27.160  1.00  0.00     0.171 C 
HETATM    7  N2  UNL     1      16.185  17.014  27.257  1.00  0.00    -0.391 N 
HETATM    8  C5  UNL     1      16.675  18.207  26.621  1.00  0.00     0.147 C 
ATOM      9  H2  UNL     1      15.306  17.023  27.774  1.00  0.00     0.159 HD
ENDBRANCH   1   6
TORSDOF 3
ENDMDL
