MODEL 1
REMARK VINA RESULT: -4.891563000      0.000      0.000
REMARK  2 active torsions:
REMARK  status: ('A' for Active; 'I' for Inactive)
REMARK    1  A    between atoms: N1_2  and  N2_4 
REMARK    2  A    between atoms: C2_6  and  N3_7 
ROOT
HETATM    1  N2  UNL     1      16.936  15.668  27.052  1.00  0.00    -0.300 N 
ATOM      2  H2  UNL     1      16.515  14.795  27.371  1.00  0.00     0.187 HD
HETATM    3  C2  UNL     1      18.071  15.646  26.436  1.00  0.00     0.212 C 
ENDROOT
BRANCH   3   4
HETATM    4  N3  UNL     1      18.779  14.444  26.174  1.00  0.00    -0.301 N 
HETATM    5  N4  UNL     1      18.716  13.442  26.934  1.00  0.00    -0.344 N 
ATOM      6  H42 UNL     1      18.129  13.515  27.765  1.00  0.00     0.176 HD
ATOM      7  H41 UNL     1      19.225  12.578  26.746  1.00  0.00     0.176 HD
ATOM      8  H3  UNL     1      19.362  14.389  25.338  1.00  0.00     0.187 HD
ENDBRANCH   3   4
BRANCH   1   9
HETATM    9  N1  UNL     1      16.285  16.879  27.283  1.00  0.00    -0.340 N 
HETATM   10  C1  UNL     1      16.708  18.108  26.648  1.00  0.00     0.167 C 
ATOM     11  H1  UNL     1      15.487  16.898  27.919  1.00  0.00     0.179 HD
ENDBRANCH   1   9
TORSDOF 2
ENDMDL
MODEL 2
REMARK VINA RESULT: -4.824869407      2.296      3.326
REMARK  2 active torsions:
REMARK  status: ('A' for Active; 'I' for Inactive)
REMARK    1  A    between atoms: N1_2  and  N2_4 
REMARK    2  A    between atoms: C2_6  and  N3_7 
ROOT
HETATM    1  N2  UNL     1      19.245  13.671  25.752  1.00  0.00    -0.300 N 
ATOM      2  H2  UNL     1      20.039  13.036  25.842  1.00  0.00     0.187 HD
HETATM    3  C2  UNL     1      19.053  14.308  24.646  1.00  0.00     0.212 C 
ENDROOT
BRANCH   3   4
HETATM    4  N3  UNL     1      19.910  14.169  23.522  1.00  0.00    -0.301 N 
HETATM    5  N4  UNL     1      21.138  13.916  23.635  1.00  0.00    -0.344 N 
ATOM      6  H42 UNL     1      21.516  13.810  24.577  1.00  0.00     0.176 HD
ATOM      7  H41 UNL     1      21.754  13.817  22.828  1.00  0.00     0.176 HD
ATOM      8  H3  UNL     1      19.516  14.279  22.587  1.00  0.00     0.187 HD
ENDBRANCH   3   4
BRANCH   1   9
HETATM    9  N1  UNL     1      18.371  13.846  26.825  1.00  0.00    -0.340 N 
HETATM   10  C1  UNL     1      17.550  15.030  26.957  1.00  0.00     0.167 C 
ATOM     11  H1  UNL     1      18.310  13.118  27.537  1.00  0.00     0.179 HD
ENDBRANCH   1   9
TORSDOF 2
ENDMDL
MODEL 3
REMARK VINA RESULT: -4.560345487      1.944      2.591
REMARK  2 active torsions:
REMARK  status: ('A' for Active; 'I' for Inactive)
REMARK    1  A    between atoms: N1_2  and  N2_4 
REMARK    2  A    between atoms: C2_6  and  N3_7 
ROOT
HETATM    1  N2  UNL     1      18.888  14.362  26.102  1.00  0.00    -0.300 N 
ATOM      2  H2  UNL     1      19.222  13.477  26.484  1.00  0.00     0.187 HD
HETATM    3  C2  UNL     1      18.856  14.540  24.824  1.00  0.00     0.212 C 
ENDROOT
BRANCH   3   4
HETATM    4  N3  UNL     1      19.274  13.545  23.900  1.00  0.00    -0.301 N 
HETATM    5  N4  UNL     1      20.232  12.763  24.136  1.00  0.00    -0.344 N 
ATOM      6  H42 UNL     1      20.715  12.861  25.029  1.00  0.00     0.176 HD
ATOM      7  H41 UNL     1      20.532  12.049  23.473  1.00  0.00     0.176 HD
ATOM      8  H3  UNL     1      18.779  13.461  23.012  1.00  0.00     0.187 HD
ENDBRANCH   3   4
BRANCH   1   9
HETATM    9  N1  UNL     1      18.466  15.375  26.963  1.00  0.00    -0.340 N 
HETATM   10  C1  UNL     1      17.089  15.820  27.004  1.00  0.00     0.167 C 
ATOM     11  H1  UNL     1      19.147  15.814  27.581  1.00  0.00     0.179 HD
ENDBRANCH   1   9
TORSDOF 2
ENDMDL
MODEL 4
REMARK VINA RESULT: -4.554886095      1.439      1.730
REMARK  2 active torsions:
REMARK  status: ('A' for Active; 'I' for Inactive)
REMARK    1  A    between atoms: N1_2  and  N2_4 
REMARK    2  A    between atoms: C2_6  and  N3_7 
ROOT
HETATM    1  N2  UNL     1      18.740  15.429  26.643  1.00  0.00    -0.300 N 
ATOM      2  H2  UNL     1      19.668  15.428  27.067  1.00  0.00     0.187 HD
HETATM    3  C2  UNL     1      18.571  14.931  25.465  1.00  0.00     0.212 C 
ENDROOT
BRANCH   3   4
HETATM    4  N3  UNL     1      19.634  14.368  24.710  1.00  0.00    -0.301 N 
HETATM    5  N4  UNL     1      19.955  13.154  24.796  1.00  0.00    -0.344 N 
ATOM      6  H42 UNL     1      19.422  12.566  25.437  1.00  0.00     0.176 HD
ATOM      7  H41 UNL     1      20.719  12.749  24.254  1.00  0.00     0.176 HD
ATOM      8  H3  UNL     1      20.157  14.970  24.074  1.00  0.00     0.187 HD
ENDBRANCH   3   4
BRANCH   1   9
HETATM    9  N1  UNL     1      17.660  15.970  27.339  1.00  0.00    -0.340 N 
HETATM   10  C1  UNL     1      17.097  17.259  26.997  1.00  0.00     0.167 C 
ATOM     11  H1  UNL     1      17.255  15.442  28.112  1.00  0.00     0.179 HD
ENDBRANCH   1   9
TORSDOF 2
ENDMDL
MODEL 5
REMARK VINA RESULT: -4.543771376      2.105      4.544
REMARK  2 active torsions:
REMARK  status: ('A' for Active; 'I' for Inactive)
REMARK    1  A    between atoms: N1_2  and  N2_4 
REMARK    2  A    between atoms: C2_6  and  N3_7 
ROOT
HETATM    1  N2  UNL     1      16.416  17.376  27.114  1.00  0.00    -0.300 N 
ATOM      2  H2  UNL     1      15.528  17.086  27.523  1.00  0.00     0.187 HD
HETATM    3  C2  UNL     1      16.522  18.539  26.564  1.00  0.00     0.212 C 
ENDROOT
BRANCH   3   4
HETATM    4  N3  UNL     1      15.440  19.456  26.495  1.00  0.00    -0.301 N 
HETATM    5  N4  UNL     1      15.579  20.635  26.076  1.00  0.00    -0.344 N 
ATOM      6  H42 UNL     1      16.511  20.926  25.779  1.00  0.00     0.176 HD
ATOM      7  H41 UNL     1      14.802  21.295  26.027  1.00  0.00     0.176 HD
ATOM      8  H3  UNL     1      14.516  19.149  26.797  1.00  0.00     0.187 HD
ENDBRANCH   3   4
BRANCH   1   9
HETATM    9  N1  UNL     1      17.512  16.514  27.153  1.00  0.00    -0.340 N 
HETATM   10  C1  UNL     1      17.385  15.101  26.867  1.00  0.00     0.167 C 
ATOM     11  H1  UNL     1      18.430  16.891  27.389  1.00  0.00     0.179 HD
ENDBRANCH   1   9
TORSDOF 2
ENDMDL
