MODEL 1
REMARK VINA RESULT: -5.092897176      0.000      0.000
REMARK  3 active torsions:
REMARK  status: ('A' for Active; 'I' for Inactive)
REMARK    1  A    between atoms: N1_2  and  C2_4 
REMARK    2  A    between atoms: N2_5  and  N3_7 
REMARK    3  A    between atoms: N3_7  and  C3_9 
ROOT
HETATM    1  C2  UNL     1      17.674  15.315  26.808  1.00  0.00     0.192 C 
HETATM    2  N2  UNL     1      18.787  15.142  26.219  1.00  0.00    -0.296 N 
ATOM      3  H2  UNL     1      19.475  15.888  26.324  1.00  0.00     0.187 HD
ENDROOT
BRANCH   2   4
HETATM    4  N3  UNL     1      19.168  14.065  25.459  1.00  0.00    -0.296 N 
ATOM      5  H3  UNL     1      19.536  13.185  25.822  1.00  0.00     0.187 HD
BRANCH   4   6
HETATM    6  C3  UNL     1      18.968  14.375  24.066  1.00  0.00     0.190 C 
HETATM    7  N4  UNL     1      17.989  13.938  23.404  1.00  0.00    -0.394 N 
ATOM      8  H42 UNL     1      17.319  13.341  23.889  1.00  0.00     0.156 HD
ATOM      9  H41 UNL     1      17.847  14.157  22.418  1.00  0.00     0.156 HD
ENDBRANCH   4   6
ENDBRANCH   2   4
BRANCH   1  10
HETATM   10  N1  UNL     1      17.492  16.513  27.547  1.00  0.00    -0.389 N 
HETATM   11  C1  UNL     1      16.956  17.673  26.834  1.00  0.00     0.147 C 
ATOM     12  H1  UNL     1      17.727  16.563  28.539  1.00  0.00     0.159 HD
ENDBRANCH   1  10
TORSDOF 3
ENDMDL
MODEL 2
REMARK VINA RESULT: -5.010491481      1.314      4.032
REMARK  3 active torsions:
REMARK  status: ('A' for Active; 'I' for Inactive)
REMARK    1  A    between atoms: N1_2  and  C2_4 
REMARK    2  A    between atoms: N2_5  and  N3_7 
REMARK    3  A    between atoms: N3_7  and  C3_9 
ROOT
HETATM    1  C2  UNL     1      18.243  15.556  26.177  1.00  0.00     0.192 C 
HETATM    2  N2  UNL     1      17.146  15.498  26.817  1.00  0.00    -0.296 N 
ATOM      3  H2  UNL     1      16.766  14.565  26.978  1.00  0.00     0.187 HD
ENDROOT
BRANCH   2   4
HETATM    4  N3  UNL     1      16.415  16.547  27.316  1.00  0.00    -0.296 N 
ATOM      5  H3  UNL     1      15.659  16.470  27.996  1.00  0.00     0.187 HD
BRANCH   4   6
HETATM    6  C3  UNL     1      16.886  17.774  26.726  1.00  0.00     0.190 C 
HETATM    7  N4  UNL     1      16.142  18.776  26.549  1.00  0.00    -0.394 N 
ATOM      8  H42 UNL     1      15.167  18.698  26.842  1.00  0.00     0.156 HD
ATOM      9  H41 UNL     1      16.475  19.645  26.131  1.00  0.00     0.156 HD
ENDBRANCH   4   6
ENDBRANCH   2   4
BRANCH   1  10
HETATM   10  N1  UNL     1      18.830  14.336  25.752  1.00  0.00    -0.389 N 
HETATM   11  C1  UNL     1      19.234  14.233  24.349  1.00  0.00     0.147 C 
ATOM     12  H1  UNL     1      18.965  13.560  26.400  1.00  0.00     0.159 HD
ENDBRANCH   1  10
TORSDOF 3
ENDMDL
MODEL 3
REMARK VINA RESULT: -4.949355610      1.347      1.368
REMARK  3 active torsions:
REMARK  status: ('A' for Active; 'I' for Inactive)
REMARK    1  A    between atoms: N1_2  and  C2_4 
REMARK    2  A    between atoms: N2_5  and  N3_7 
REMARK    3  A    between atoms: N3_7  and  C3_9 
ROOT
HETATM    1  C2  UNL     1      18.085  15.086  26.043  1.00  0.00     0.192 C 
HETATM    2  N2  UNL     1      18.701  13.999  26.276  1.00  0.00    -0.296 N 
ATOM      3  H2  UNL     1      18.510  13.555  27.175  1.00  0.00     0.187 HD
ENDROOT
BRANCH   2   4
HETATM    4  N3  UNL     1      19.593  13.354  25.457  1.00  0.00    -0.296 N 
ATOM      5  H3  UNL     1      20.148  12.538  25.713  1.00  0.00     0.187 HD
BRANCH   4   6
HETATM    6  C3  UNL     1      19.622  14.015  24.176  1.00  0.00     0.190 C 
HETATM    7  N4  UNL     1      20.695  14.335  23.598  1.00  0.00    -0.394 N 
ATOM      8  H42 UNL     1      21.571  14.111  24.069  1.00  0.00     0.156 HD
ATOM      9  H41 UNL     1      20.716  14.803  22.692  1.00  0.00     0.156 HD
ENDBRANCH   4   6
ENDBRANCH   2   4
BRANCH   1  10
HETATM   10  N1  UNL     1      17.200  15.576  27.039  1.00  0.00    -0.389 N 
HETATM   11  C1  UNL     1      17.332  16.980  27.429  1.00  0.00     0.147 C 
ATOM     12  H1  UNL     1      16.499  14.971  27.468  1.00  0.00     0.159 HD
ENDBRANCH   1  10
TORSDOF 3
ENDMDL
MODEL 4
REMARK VINA RESULT: -4.832478028      1.707      4.081
REMARK  3 active torsions:
REMARK  status: ('A' for Active; 'I' for Inactive)
REMARK    1  A    between atoms: N1_2  and  C2_4 
REMARK    2  A    between atoms: N2_5  and  N3_7 
REMARK    3  A    between atoms: N3_7  and  C3_9 
ROOT
HETATM    1  C2  UNL     1      19.067  14.839  23.839  1.00  0.00     0.192 C 
HETATM    2  N2  UNL     1      19.181  14.948  25.100  1.00  0.00    -0.296 N 
ATOM      3  H2  UNL     1      19.992  14.494  25.521  1.00  0.00     0.187 HD
ENDROOT
BRANCH   2   4
HETATM    4  N3  UNL     1      18.338  15.607  25.959  1.00  0.00    -0.296 N 
ATOM      5  H3  UNL     1      18.023  16.572  25.854  1.00  0.00     0.187 HD
BRANCH   4   6
HETATM    6  C3  UNL     1      17.970  14.721  27.033  1.00  0.00     0.190 C 
HETATM    7  N4  UNL     1      18.482  13.579  27.182  1.00  0.00    -0.394 N 
ATOM      8  H42 UNL     1      19.185  13.285  26.504  1.00  0.00     0.156 HD
ATOM      9  H41 UNL     1      18.221  12.952  27.942  1.00  0.00     0.156 HD
ENDBRANCH   4   6
ENDBRANCH   2   4
BRANCH   1  10
HETATM   10  N1  UNL     1      20.063  14.106  23.142  1.00  0.00    -0.389 N 
HETATM   11  C1  UNL     1      20.798  13.085  23.890  1.00  0.00     0.147 C 
ATOM     12  H1  UNL     1      20.259  14.284  22.156  1.00  0.00     0.159 HD
ENDBRANCH   1  10
TORSDOF 3
ENDMDL
MODEL 5
REMARK VINA RESULT: -4.799688305      1.735      1.883
REMARK  3 active torsions:
REMARK  status: ('A' for Active; 'I' for Inactive)
REMARK    1  A    between atoms: N1_2  and  C2_4 
REMARK    2  A    between atoms: N2_5  and  N3_7 
REMARK    3  A    between atoms: N3_7  and  C3_9 
ROOT
HETATM    1  C2  UNL     1      18.449  15.207  25.758  1.00  0.00     0.192 C 
HETATM    2  N2  UNL     1      19.121  14.179  25.433  1.00  0.00    -0.296 N 
ATOM      3  H2  UNL     1      19.648  13.728  26.181  1.00  0.00     0.187 HD
ENDROOT
BRANCH   2   4
HETATM    4  N3  UNL     1      19.218  13.605  24.190  1.00  0.00    -0.296 N 
ATOM      5  H3  UNL     1      18.441  13.454  23.546  1.00  0.00     0.187 HD
BRANCH   4   6
HETATM    6  C3  UNL     1      20.591  13.249  23.939  1.00  0.00     0.190 C 
HETATM    7  N4  UNL     1      20.934  12.117  23.503  1.00  0.00    -0.394 N 
ATOM      8  H42 UNL     1      20.195  11.436  23.324  1.00  0.00     0.156 HD
ATOM      9  H41 UNL     1      21.906  11.865  23.325  1.00  0.00     0.156 HD
ENDBRANCH   4   6
ENDBRANCH   2   4
BRANCH   1  10
HETATM   10  N1  UNL     1      18.492  15.629  27.113  1.00  0.00    -0.389 N 
HETATM   11  C1  UNL     1      17.641  16.756  27.497  1.00  0.00     0.147 C 
ATOM     12  H1  UNL     1      19.094  15.163  27.792  1.00  0.00     0.159 HD
ENDBRANCH   1  10
TORSDOF 3
ENDMDL
