MODEL 1
REMARK VINA RESULT: -6.941392862      0.000      0.000
REMARK  6 active torsions:
REMARK  status: ('A' for Active; 'I' for Inactive)
REMARK    1  A    between atoms: C2_2  and  N1_3 
REMARK    2  A    between atoms: N1_3  and  C3_5 
REMARK    3  A    between atoms: C3_5  and  C4_6 
REMARK    4  A    between atoms: C4_6  and  C5_7 
REMARK    5  A    between atoms: C5_7  and  N2_8 
REMARK    6  A    between atoms: N2_8  and  N3_10 
ROOT
HETATM    1  C5  UNL     1      24.920  27.703  32.648  1.00  0.00     0.142 C 
ENDROOT
BRANCH   1   2
HETATM    2  C4  UNL     1      24.925  29.203  32.699  1.00  0.00     0.041 C 
BRANCH   2   3
HETATM    3  C3  UNL     1      23.572  29.729  32.280  1.00  0.00     0.120 C 
BRANCH   3   4
HETATM    4  N1  UNL     1      22.791  30.261  33.362  1.00  0.00    -0.399 N 
ATOM      5  H1  UNL     1      23.211  30.993  33.935  1.00  0.00     0.158 HD
BRANCH   4   6
HETATM    6  C2  UNL     1      21.474  29.839  33.691  1.00  0.00     0.072 C 
HETATM    7  C1  UNL     1      20.701  30.600  34.441  1.00  0.00     0.029 C 
ENDBRANCH   4   6
ENDBRANCH   3   4
ENDBRANCH   2   3
ENDBRANCH   1   2
BRANCH   1   8
HETATM    8  N2  UNL     1      26.105  27.157  32.045  1.00  0.00    -0.323 N 
ATOM      9  H2  UNL     1      26.721  27.731  31.470  1.00  0.00     0.181 HD
BRANCH   8  10
HETATM   10  N3  UNL     1      26.379  25.794  32.281  1.00  0.00    -0.254 N 
HETATM   11  N4  UNL     1      27.151  25.105  31.542  1.00  0.00    -0.331 N 
ATOM     12  H42 UNL     1      27.584  25.575  30.746  1.00  0.00     0.178 HD
ATOM     13  H41 UNL     1      27.349  24.118  31.712  1.00  0.00     0.178 HD
ATOM     14  H3  UNL     1      25.938  25.340  33.081  1.00  0.00     0.207 HD
ENDBRANCH   8  10
ENDBRANCH   1   8
TORSDOF 6
ENDMDL
MODEL 2
REMARK VINA RESULT: -6.706351840      3.367      6.947
REMARK  6 active torsions:
REMARK  status: ('A' for Active; 'I' for Inactive)
REMARK    1  A    between atoms: C2_2  and  N1_3 
REMARK    2  A    between atoms: N1_3  and  C3_5 
REMARK    3  A    between atoms: C3_5  and  C4_6 
REMARK    4  A    between atoms: C4_6  and  C5_7 
REMARK    5  A    between atoms: C5_7  and  N2_8 
REMARK    6  A    between atoms: N2_8  and  N3_10 
ROOT
HETATM    1  C5  UNL     1      19.484  30.174  34.633  1.00  0.00     0.142 C 
ENDROOT
BRANCH   1   2
HETATM    2  C4  UNL     1      20.883  30.681  34.443  1.00  0.00     0.041 C 
BRANCH   2   3
HETATM    3  C3  UNL     1      21.613  29.800  33.456  1.00  0.00     0.120 C 
BRANCH   3   4
HETATM    4  N1  UNL     1      22.976  30.188  33.223  1.00  0.00    -0.399 N 
ATOM      5  H1  UNL     1      23.361  30.937  33.798  1.00  0.00     0.158 HD
BRANCH   4   6
HETATM    6  C2  UNL     1      23.826  29.603  32.245  1.00  0.00     0.072 C 
HETATM    7  C1  UNL     1      24.943  29.004  32.610  1.00  0.00     0.029 C 
ENDBRANCH   4   6
ENDBRANCH   3   4
ENDBRANCH   2   3
ENDBRANCH   1   2
BRANCH   1   8
HETATM    8  N2  UNL     1      19.173  29.882  36.005  1.00  0.00    -0.323 N 
ATOM      9  H2  UNL     1      19.781  29.293  36.574  1.00  0.00     0.181 HD
BRANCH   8  10
HETATM   10  N3  UNL     1      17.992  30.444  36.533  1.00  0.00    -0.254 N 
HETATM   11  N4  UNL     1      17.413  29.991  37.571  1.00  0.00    -0.331 N 
ATOM     12  H42 UNL     1      17.836  29.184  38.031  1.00  0.00     0.178 HD
ATOM     13  H41 UNL     1      16.558  30.397  37.952  1.00  0.00     0.178 HD
ATOM     14  H3  UNL     1      17.583  31.250  36.061  1.00  0.00     0.207 HD
ENDBRANCH   8  10
ENDBRANCH   1   8
TORSDOF 6
ENDMDL
MODEL 3
REMARK VINA RESULT: -6.395990415      0.934      1.525
REMARK  6 active torsions:
REMARK  status: ('A' for Active; 'I' for Inactive)
REMARK    1  A    between atoms: C2_2  and  N1_3 
REMARK    2  A    between atoms: N1_3  and  C3_5 
REMARK    3  A    between atoms: C3_5  and  C4_6 
REMARK    4  A    between atoms: C4_6  and  C5_7 
REMARK    5  A    between atoms: C5_7  and  N2_8 
REMARK    6  A    between atoms: N2_8  and  N3_10 
ROOT
HETATM    1  C5  UNL     1      24.672  29.208  32.577  1.00  0.00     0.142 C 
ENDROOT
BRANCH   1   2
HETATM    2  C4  UNL     1      23.363  29.869  32.260  1.00  0.00     0.041 C 
BRANCH   2   3
HETATM    3  C3  UNL     1      22.344  29.510  33.318  1.00  0.00     0.120 C 
BRANCH   3   4
HETATM    4  N1  UNL     1      21.916  30.624  34.118  1.00  0.00    -0.399 N 
ATOM      5  H1  UNL     1      22.630  31.274  34.447  1.00  0.00     0.158 HD
BRANCH   4   6
HETATM    6  C2  UNL     1      20.567  30.883  34.485  1.00  0.00     0.072 C 
HETATM    7  C1  UNL     1      19.777  29.893  34.851  1.00  0.00     0.029 C 
ENDBRANCH   4   6
ENDBRANCH   3   4
ENDBRANCH   2   3
ENDBRANCH   1   2
BRANCH   1   8
HETATM    8  N2  UNL     1      24.902  28.018  31.805  1.00  0.00    -0.323 N 
ATOM      9  H2  UNL     1      24.218  27.685  31.126  1.00  0.00     0.181 HD
BRANCH   8  10
HETATM   10  N3  UNL     1      26.113  27.330  32.026  1.00  0.00    -0.254 N 
HETATM   11  N4  UNL     1      26.163  26.102  32.354  1.00  0.00    -0.331 N 
ATOM     12  H42 UNL     1      25.277  25.607  32.459  1.00  0.00     0.178 HD
ATOM     13  H41 UNL     1      27.039  25.605  32.515  1.00  0.00     0.178 HD
ATOM     14  H3  UNL     1      26.989  27.840  31.916  1.00  0.00     0.207 HD
ENDBRANCH   8  10
ENDBRANCH   1   8
TORSDOF 6
ENDMDL
MODEL 4
REMARK VINA RESULT: -6.358197706      0.963      1.068
REMARK  6 active torsions:
REMARK  status: ('A' for Active; 'I' for Inactive)
REMARK    1  A    between atoms: C2_2  and  N1_3 
REMARK    2  A    between atoms: N1_3  and  C3_5 
REMARK    3  A    between atoms: C3_5  and  C4_6 
REMARK    4  A    between atoms: C4_6  and  C5_7 
REMARK    5  A    between atoms: C5_7  and  N2_8 
REMARK    6  A    between atoms: N2_8  and  N3_10 
ROOT
HETATM    1  C5  UNL     1      25.571  27.265  32.873  1.00  0.00     0.142 C 
ENDROOT
BRANCH   1   2
HETATM    2  C4  UNL     1      24.397  28.099  32.453  1.00  0.00     0.041 C 
BRANCH   2   3
HETATM    3  C3  UNL     1      24.643  29.544  32.821  1.00  0.00     0.120 C 
BRANCH   3   4
HETATM    4  N1  UNL     1      23.452  30.271  33.166  1.00  0.00    -0.399 N 
ATOM      5  H1  UNL     1      23.541  31.272  33.337  1.00  0.00     0.158 HD
BRANCH   4   6
HETATM    6  C2  UNL     1      22.159  29.692  33.285  1.00  0.00     0.072 C 
HETATM    7  C1  UNL     1      21.242  30.267  34.038  1.00  0.00     0.029 C 
ENDBRANCH   4   6
ENDBRANCH   3   4
ENDBRANCH   2   3
ENDBRANCH   1   2
BRANCH   1   8
HETATM    8  N2  UNL     1      25.213  25.911  33.194  1.00  0.00    -0.323 N 
ATOM      9  H2  UNL     1      24.466  25.702  33.855  1.00  0.00     0.181 HD
BRANCH   8  10
HETATM   10  N3  UNL     1      25.939  24.884  32.556  1.00  0.00    -0.254 N 
HETATM   11  N4  UNL     1      26.888  25.110  31.740  1.00  0.00    -0.331 N 
ATOM     12  H42 UNL     1      27.122  26.085  31.549  1.00  0.00     0.178 HD
ATOM     13  H41 UNL     1      27.413  24.367  31.278  1.00  0.00     0.178 HD
ATOM     14  H3  UNL     1      25.692  23.916  32.759  1.00  0.00     0.207 HD
ENDBRANCH   8  10
ENDBRANCH   1   8
TORSDOF 6
ENDMDL
MODEL 5
REMARK VINA RESULT: -6.270174626      3.894      7.469
REMARK  6 active torsions:
REMARK  status: ('A' for Active; 'I' for Inactive)
REMARK    1  A    between atoms: C2_2  and  N1_3 
REMARK    2  A    between atoms: N1_3  and  C3_5 
REMARK    3  A    between atoms: C3_5  and  C4_6 
REMARK    4  A    between atoms: C4_6  and  C5_7 
REMARK    5  A    between atoms: C5_7  and  N2_8 
REMARK    6  A    between atoms: N2_8  and  N3_10 
ROOT
HETATM    1  C5  UNL     1      18.619  30.661  35.396  1.00  0.00     0.142 C 
ENDROOT
BRANCH   1   2
HETATM    2  C4  UNL     1      19.370  30.061  34.244  1.00  0.00     0.041 C 
BRANCH   2   3
HETATM    3  C3  UNL     1      20.830  30.439  34.338  1.00  0.00     0.120 C 
BRANCH   3   4
HETATM    4  N1  UNL     1      21.647  29.876  33.300  1.00  0.00    -0.399 N 
ATOM      5  H1  UNL     1      21.176  29.408  32.526  1.00  0.00     0.158 HD
BRANCH   4   6
HETATM    6  C2  UNL     1      23.068  29.926  33.274  1.00  0.00     0.072 C 
HETATM    7  C1  UNL     1      23.729  29.460  32.232  1.00  0.00     0.029 C 
ENDBRANCH   4   6
ENDBRANCH   3   4
ENDBRANCH   2   3
ENDBRANCH   1   2
BRANCH   1   8
HETATM    8  N2  UNL     1      18.672  29.854  36.584  1.00  0.00    -0.323 N 
ATOM      9  H2  UNL     1      19.505  29.314  36.822  1.00  0.00     0.181 HD
BRANCH   8  10
HETATM   10  N3  UNL     1      17.527  29.839  37.406  1.00  0.00    -0.254 N 
HETATM   11  N4  UNL     1      17.107  30.866  38.028  1.00  0.00    -0.331 N 
ATOM     12  H42 UNL     1      17.635  31.732  37.915  1.00  0.00     0.178 HD
ATOM     13  H41 UNL     1      16.279  30.855  38.623  1.00  0.00     0.178 HD
ATOM     14  H3  UNL     1      17.012  28.965  37.507  1.00  0.00     0.207 HD
ENDBRANCH   8  10
ENDBRANCH   1   8
TORSDOF 6
ENDMDL
