MODEL 1
REMARK VINA RESULT: -8.685293102      0.000      0.000
REMARK  12 active torsions:
REMARK  status: ('A' for Active; 'I' for Inactive)
REMARK    1  A    between atoms: O1_2  and  C2_3 
REMARK    2  A    between atoms: C5_6  and  N1_7 
REMARK    3  A    between atoms: N1_7  and  C6_8 
REMARK    4  A    between atoms: C9_11  and  O2_12 
REMARK    5  A    between atoms: O2_12  and  C10_13 
REMARK    6  A    between atoms: C10_13  and  C11_14 
REMARK    7  A    between atoms: C11_14  and  N2_15 
REMARK    8  A    between atoms: C17_21  and  C18_22 
REMARK    9  A    between atoms: C23_33  and  O4_34 
REMARK   10  A    between atoms: O4_34  and  C24_35 
REMARK   11  A    between atoms: C24_35  and  C25_36 
REMARK   12  A    between atoms: C25_36  and  N6_37 
ROOT
HETATM    1  C2  UNL     1     -12.696  13.734  32.616  1.00  0.00     0.102 A 
HETATM    2  C3  UNL     1     -11.644  14.538  32.167  1.00  0.00     0.058 A 
HETATM    3  C4  UNL     1     -10.721  15.086  33.050  1.00  0.00     0.052 A 
HETATM    4  C5  UNL     1      -9.669  15.895  32.587  1.00  0.00     0.193 A 
HETATM    5  N4  UNL     1      -8.804  16.398  33.547  1.00  0.00    -0.327 N 
ATOM      6  H4  UNL     1      -8.022  16.991  33.267  1.00  0.00     0.169 HD
HETATM    7  C20 UNL     1      -8.988  16.110  34.820  1.00  0.00     0.183 A 
HETATM    8  N5  UNL     1      -9.976  15.347  35.275  1.00  0.00    -0.351 N 
ATOM      9  H5  UNL     1     -10.071  15.157  36.274  1.00  0.00     0.166 HD
HETATM   10  C21 UNL     1     -10.846  14.831  34.393  1.00  0.00     0.051 A 
HETATM   11  C22 UNL     1     -11.895  14.032  34.822  1.00  0.00     0.070 A 
HETATM   12  C23 UNL     1     -12.825  13.475  33.962  1.00  0.00     0.104 A 
ENDROOT
BRANCH   4  13
HETATM   13  N1  UNL     1      -9.529  16.111  31.438  1.00  0.00    -0.387 NA
BRANCH  13  14
HETATM   14  C6  UNL     1      -9.370  16.462  30.174  1.00  0.00     0.110 A 
HETATM   15  C7  UNL     1     -10.457  16.933  29.396  1.00  0.00     0.047 A 
HETATM   16  C8  UNL     1     -10.265  17.267  28.102  1.00  0.00     0.041 A 
HETATM   17  C9  UNL     1      -9.037  17.173  27.473  1.00  0.00     0.084 A 
HETATM   18  C17 UNL     1      -7.976  16.716  28.221  1.00  0.00     0.065 A 
HETATM   19  C19 UNL     1      -8.105  16.363  29.533  1.00  0.00     0.064 A 
BRANCH  17  20
HETATM   20  O2  UNL     1      -8.836  17.506  26.163  1.00  0.00    -0.345 OA
BRANCH  20  21
HETATM   21  C10 UNL     1      -9.517  16.840  25.096  1.00  0.00     0.220 C 
BRANCH  21  22
HETATM   22  C11 UNL     1      -9.260  15.382  25.051  1.00  0.00     0.084 C 
BRANCH  22  23
HETATM   23  N2  UNL     1     -10.195  14.539  25.655  1.00  0.00    -0.391 N 
HETATM   24  C12 UNL     1      -9.829  13.882  26.869  1.00  0.00     0.122 C 
HETATM   25  C13 UNL     1     -11.051  13.471  27.676  1.00  0.00     0.020 C 
HETATM   26  C14 UNL     1     -11.930  12.634  26.790  1.00  0.00     0.003 C 
HETATM   27  C15 UNL     1     -12.269  13.418  25.549  1.00  0.00     0.020 C 
HETATM   28  C16 UNL     1     -11.571  14.791  25.577  1.00  0.00     0.122 C 
ENDBRANCH  22  23
ENDBRANCH  21  22
ENDBRANCH  20  21
ENDBRANCH  17  20
BRANCH  18  29
HETATM   29  C18 UNL     1      -6.651  16.597  27.588  1.00  0.00     0.267 C 
HETATM   30  N3  UNL     1      -5.733  17.666  27.626  1.00  0.00    -0.057 NA
HETATM   31  O3  UNL     1      -6.359  15.533  27.019  1.00  0.00    -0.271 OA
ENDBRANCH  18  29
ENDBRANCH  13  14
ENDBRANCH   4  13
BRANCH   1  32
HETATM   32  O1  UNL     1     -13.589  13.213  31.699  1.00  0.00    -0.353 OA
HETATM   33  C1  UNL     1     -14.471  14.008  30.951  1.00  0.00     0.210 C 
ENDBRANCH   1  32
BRANCH  12  34
HETATM   34  O4  UNL     1     -13.858  12.682  34.401  1.00  0.00    -0.343 OA
BRANCH  34  35
HETATM   35  C24 UNL     1     -13.676  11.443  35.050  1.00  0.00     0.220 C 
BRANCH  35  36
HETATM   36  C25 UNL     1     -14.540  10.356  34.519  1.00  0.00     0.094 C 
BRANCH  36  37
HETATM   37  N6  UNL     1     -14.424  10.051  33.148  1.00  0.00    -0.349 N 
HETATM   38  C26 UNL     1     -13.125   9.840  32.679  1.00  0.00     0.095 C 
HETATM   39  C27 UNL     1     -12.978   9.583  31.211  1.00  0.00     0.277 C 
HETATM   40  N7  UNL     1     -13.886  10.422  30.435  1.00  0.00    -0.066 N 
HETATM   41  C28 UNL     1     -15.223   9.999  30.830  1.00  0.00     0.277 C 
ATOM     42  H72 UNL     1     -13.721  11.422  30.546  1.00  0.00     0.277 HD
ATOM     43  H71 UNL     1     -13.722  10.386  29.429  1.00  0.00     0.277 HD
HETATM   44  C29 UNL     1     -15.440  10.411  32.265  1.00  0.00     0.095 C 
ENDBRANCH  36  37
ENDBRANCH  35  36
ENDBRANCH  34  35
ENDBRANCH  12  34
TORSDOF 12
ENDMDL
MODEL 2
REMARK VINA RESULT: -8.388562482      4.525      7.865
REMARK  12 active torsions:
REMARK  status: ('A' for Active; 'I' for Inactive)
REMARK    1  A    between atoms: O1_2  and  C2_3 
REMARK    2  A    between atoms: C5_6  and  N1_7 
REMARK    3  A    between atoms: N1_7  and  C6_8 
REMARK    4  A    between atoms: C9_11  and  O2_12 
REMARK    5  A    between atoms: O2_12  and  C10_13 
REMARK    6  A    between atoms: C10_13  and  C11_14 
REMARK    7  A    between atoms: C11_14  and  N2_15 
REMARK    8  A    between atoms: C17_21  and  C18_22 
REMARK    9  A    between atoms: C23_33  and  O4_34 
REMARK   10  A    between atoms: O4_34  and  C24_35 
REMARK   11  A    between atoms: C24_35  and  C25_36 
REMARK   12  A    between atoms: C25_36  and  N6_37 
ROOT
HETATM    1  C2  UNL     1      -8.381  17.220  26.839  1.00  0.00     0.102 A 
HETATM    2  C3  UNL     1      -7.200  17.503  26.144  1.00  0.00     0.058 A 
HETATM    3  C4  UNL     1      -5.988  17.657  26.806  1.00  0.00     0.052 A 
HETATM    4  C5  UNL     1      -4.809  17.945  26.097  1.00  0.00     0.193 A 
HETATM    5  N4  UNL     1      -3.652  18.084  26.849  1.00  0.00    -0.327 N 
ATOM      6  H4  UNL     1      -2.767  18.293  26.386  1.00  0.00     0.169 HD
HETATM    7  C20 UNL     1      -3.692  17.946  28.159  1.00  0.00     0.183 A 
HETATM    8  N5  UNL     1      -4.797  17.674  28.845  1.00  0.00    -0.351 N 
ATOM      9  H5  UNL     1      -4.771  17.578  29.861  1.00  0.00     0.166 HD
HETATM   10  C21 UNL     1      -5.949  17.528  28.172  1.00  0.00     0.051 A 
HETATM   11  C22 UNL     1      -7.129  17.247  28.846  1.00  0.00     0.070 A 
HETATM   12  C23 UNL     1      -8.347  17.088  28.208  1.00  0.00     0.104 A 
ENDROOT
BRANCH   4  13
HETATM   13  N1  UNL     1      -4.813  18.040  24.924  1.00  0.00    -0.387 NA
BRANCH  13  14
HETATM   14  C6  UNL     1      -4.746  18.063  23.605  1.00  0.00     0.110 A 
HETATM   15  C7  UNL     1      -5.758  18.675  22.824  1.00  0.00     0.047 A 
HETATM   16  C8  UNL     1      -5.668  18.666  21.476  1.00  0.00     0.041 A 
HETATM   17  C9  UNL     1      -4.618  18.077  20.794  1.00  0.00     0.084 A 
HETATM   18  C17 UNL     1      -3.632  17.480  21.545  1.00  0.00     0.065 A 
HETATM   19  C19 UNL     1      -3.664  17.457  22.909  1.00  0.00     0.064 A 
BRANCH  17  20
HETATM   20  O2  UNL     1      -4.523  18.061  19.431  1.00  0.00    -0.345 OA
BRANCH  20  21
HETATM   21  C10 UNL     1      -5.573  17.558  18.601  1.00  0.00     0.220 C 
BRANCH  21  22
HETATM   22  C11 UNL     1      -5.969  16.168  18.926  1.00  0.00     0.084 C 
BRANCH  22  23
HETATM   23  N2  UNL     1      -7.195  15.974  19.565  1.00  0.00    -0.391 N 
HETATM   24  C12 UNL     1      -8.367  15.854  18.758  1.00  0.00     0.122 C 
HETATM   25  C13 UNL     1      -9.481  15.122  19.491  1.00  0.00     0.020 C 
HETATM   26  C14 UNL     1      -9.726  15.837  20.790  1.00  0.00     0.003 C 
HETATM   27  C15 UNL     1      -8.438  15.900  21.569  1.00  0.00     0.020 C 
HETATM   28  C16 UNL     1      -7.294  15.256  20.763  1.00  0.00     0.122 C 
ENDBRANCH  22  23
ENDBRANCH  21  22
ENDBRANCH  20  21
ENDBRANCH  17  20
BRANCH  18  29
HETATM   29  C18 UNL     1      -2.498  16.838  20.858  1.00  0.00     0.267 C 
HETATM   30  N3  UNL     1      -2.612  15.533  20.337  1.00  0.00    -0.057 NA
HETATM   31  O3  UNL     1      -1.436  17.471  20.747  1.00  0.00    -0.271 OA
ENDBRANCH  18  29
ENDBRANCH  13  14
ENDBRANCH   4  13
BRANCH   1  32
HETATM   32  O1  UNL     1      -9.562  17.077  26.136  1.00  0.00    -0.353 OA
HETATM   33  C1  UNL     1      -9.635  17.152  24.737  1.00  0.00     0.210 C 
ENDBRANCH   1  32
BRANCH  12  34
HETATM   34  O4  UNL     1      -9.507  16.807  28.889  1.00  0.00    -0.343 OA
BRANCH  34  35
HETATM   35  C24 UNL     1      -9.610  15.822  29.894  1.00  0.00     0.220 C 
BRANCH  35  36
HETATM   36  C25 UNL     1      -9.857  14.454  29.368  1.00  0.00     0.094 C 
BRANCH  36  37
HETATM   37  N6  UNL     1     -10.761  14.327  28.294  1.00  0.00    -0.349 N 
HETATM   38  C26 UNL     1     -10.200  13.969  27.066  1.00  0.00     0.095 C 
HETATM   39  C27 UNL     1     -11.136  13.897  25.899  1.00  0.00     0.277 C 
HETATM   40  N7  UNL     1     -12.117  14.977  25.944  1.00  0.00    -0.066 N 
HETATM   41  C28 UNL     1     -12.892  14.734  27.152  1.00  0.00     0.277 C 
ATOM     42  H72 UNL     1     -11.707  15.909  25.896  1.00  0.00     0.277 HD
ATOM     43  H71 UNL     1     -12.683  15.055  25.098  1.00  0.00     0.277 HD
HETATM   44  C29 UNL     1     -11.995  14.974  28.341  1.00  0.00     0.095 C 
ENDBRANCH  36  37
ENDBRANCH  35  36
ENDBRANCH  34  35
ENDBRANCH  12  34
TORSDOF 12
ENDMDL
MODEL 3
REMARK VINA RESULT: -8.324970523      1.659      2.779
REMARK  12 active torsions:
REMARK  status: ('A' for Active; 'I' for Inactive)
REMARK    1  A    between atoms: O1_2  and  C2_3 
REMARK    2  A    between atoms: C5_6  and  N1_7 
REMARK    3  A    between atoms: N1_7  and  C6_8 
REMARK    4  A    between atoms: C9_11  and  O2_12 
REMARK    5  A    between atoms: O2_12  and  C10_13 
REMARK    6  A    between atoms: C10_13  and  C11_14 
REMARK    7  A    between atoms: C11_14  and  N2_15 
REMARK    8  A    between atoms: C17_21  and  C18_22 
REMARK    9  A    between atoms: C23_33  and  O4_34 
REMARK   10  A    between atoms: O4_34  and  C24_35 
REMARK   11  A    between atoms: C24_35  and  C25_36 
REMARK   12  A    between atoms: C25_36  and  N6_37 
ROOT
HETATM    1  C2  UNL     1     -12.713  13.712  32.430  1.00  0.00     0.102 A 
HETATM    2  C3  UNL     1     -11.651  14.529  32.027  1.00  0.00     0.058 A 
HETATM    3  C4  UNL     1     -10.772  15.086  32.949  1.00  0.00     0.052 A 
HETATM    4  C5  UNL     1      -9.711  15.908  32.531  1.00  0.00     0.193 A 
HETATM    5  N4  UNL     1      -8.893  16.419  33.528  1.00  0.00    -0.327 N 
ATOM      6  H4  UNL     1      -8.108  17.022  33.282  1.00  0.00     0.169 HD
HETATM    7  C20 UNL     1      -9.128  16.126  34.792  1.00  0.00     0.183 A 
HETATM    8  N5  UNL     1     -10.125  15.351  35.204  1.00  0.00    -0.351 N 
ATOM      9  H5  UNL     1     -10.260  15.159  36.197  1.00  0.00     0.166 HD
HETATM   10  C21 UNL     1     -10.951  14.827  34.285  1.00  0.00     0.051 A 
HETATM   11  C22 UNL     1     -12.009  14.015  34.669  1.00  0.00     0.070 A 
HETATM   12  C23 UNL     1     -12.895  13.449  33.769  1.00  0.00     0.104 A 
ENDROOT
BRANCH   4  13
HETATM   13  N1  UNL     1      -9.526  16.127  31.390  1.00  0.00    -0.387 NA
BRANCH  13  14
HETATM   14  C6  UNL     1      -9.356  16.476  30.127  1.00  0.00     0.110 A 
HETATM   15  C7  UNL     1     -10.433  16.960  29.343  1.00  0.00     0.047 A 
HETATM   16  C8  UNL     1     -10.229  17.292  28.050  1.00  0.00     0.041 A 
HETATM   17  C9  UNL     1      -8.998  17.185  27.428  1.00  0.00     0.084 A 
HETATM   18  C17 UNL     1      -7.948  16.716  28.182  1.00  0.00     0.065 A 
HETATM   19  C19 UNL     1      -8.088  16.365  29.493  1.00  0.00     0.064 A 
BRANCH  17  20
HETATM   20  O2  UNL     1      -8.786  17.516  26.119  1.00  0.00    -0.345 OA
BRANCH  20  21
HETATM   21  C10 UNL     1      -9.475  16.865  25.048  1.00  0.00     0.220 C 
BRANCH  21  22
HETATM   22  C11 UNL     1      -9.237  15.404  24.995  1.00  0.00     0.084 C 
BRANCH  22  23
HETATM   23  N2  UNL     1     -10.164  14.571  25.624  1.00  0.00    -0.391 N 
HETATM   24  C12 UNL     1      -9.778  13.924  26.837  1.00  0.00     0.122 C 
HETATM   25  C13 UNL     1     -10.987  13.526  27.670  1.00  0.00     0.020 C 
HETATM   26  C14 UNL     1     -11.886  12.683  26.808  1.00  0.00     0.003 C 
HETATM   27  C15 UNL     1     -12.244  13.458  25.566  1.00  0.00     0.020 C 
HETATM   28  C16 UNL     1     -11.540  14.827  25.568  1.00  0.00     0.122 C 
ENDBRANCH  22  23
ENDBRANCH  21  22
ENDBRANCH  20  21
ENDBRANCH  17  20
BRANCH  18  29
HETATM   29  C18 UNL     1      -6.620  16.582  27.558  1.00  0.00     0.267 C 
HETATM   30  N3  UNL     1      -5.683  17.633  27.619  1.00  0.00    -0.057 NA
HETATM   31  O3  UNL     1      -6.343  15.523  26.973  1.00  0.00    -0.271 OA
ENDBRANCH  18  29
ENDBRANCH  13  14
ENDBRANCH   4  13
BRANCH   1  32
HETATM   32  O1  UNL     1     -13.560  13.182  31.476  1.00  0.00    -0.353 OA
HETATM   33  C1  UNL     1     -13.791  13.792  30.233  1.00  0.00     0.210 C 
ENDBRANCH   1  32
BRANCH  12  34
HETATM   34  O4  UNL     1     -13.936  12.644  34.163  1.00  0.00    -0.343 OA
BRANCH  34  35
HETATM   35  C24 UNL     1     -13.786  11.292  34.539  1.00  0.00     0.220 C 
BRANCH  35  36
HETATM   36  C25 UNL     1     -14.471  10.944  35.810  1.00  0.00     0.094 C 
BRANCH  36  37
HETATM   37  N6  UNL     1     -13.815  11.279  37.011  1.00  0.00    -0.349 N 
HETATM   38  C26 UNL     1     -14.425  12.271  37.783  1.00  0.00     0.095 C 
HETATM   39  C27 UNL     1     -13.705  12.687  39.028  1.00  0.00     0.277 C 
HETATM   40  N7  UNL     1     -12.263  12.746  38.808  1.00  0.00    -0.066 N 
HETATM   41  C28 UNL     1     -11.871  11.377  38.504  1.00  0.00     0.277 C 
ATOM     42  H72 UNL     1     -11.981  13.423  38.101  1.00  0.00     0.277 HD
ATOM     43  H71 UNL     1     -11.745  13.162  39.583  1.00  0.00     0.277 HD
HETATM   44  C29 UNL     1     -12.455  11.009  37.163  1.00  0.00     0.095 C 
ENDBRANCH  36  37
ENDBRANCH  35  36
ENDBRANCH  34  35
ENDBRANCH  12  34
TORSDOF 12
ENDMDL
MODEL 4
REMARK VINA RESULT: -8.302482410      2.401      9.743
REMARK  12 active torsions:
REMARK  status: ('A' for Active; 'I' for Inactive)
REMARK    1  A    between atoms: O1_2  and  C2_3 
REMARK    2  A    between atoms: C5_6  and  N1_7 
REMARK    3  A    between atoms: N1_7  and  C6_8 
REMARK    4  A    between atoms: C9_11  and  O2_12 
REMARK    5  A    between atoms: O2_12  and  C10_13 
REMARK    6  A    between atoms: C10_13  and  C11_14 
REMARK    7  A    between atoms: C11_14  and  N2_15 
REMARK    8  A    between atoms: C17_21  and  C18_22 
REMARK    9  A    between atoms: C23_33  and  O4_34 
REMARK   10  A    between atoms: O4_34  and  C24_35 
REMARK   11  A    between atoms: C24_35  and  C25_36 
REMARK   12  A    between atoms: C25_36  and  N6_37 
ROOT
HETATM    1  C2  UNL     1     -10.061  15.302  27.739  1.00  0.00     0.102 A 
HETATM    2  C3  UNL     1     -11.105  14.597  28.349  1.00  0.00     0.058 A 
HETATM    3  C4  UNL     1     -12.000  13.837  27.605  1.00  0.00     0.052 A 
HETATM    4  C5  UNL     1     -13.046  13.136  28.229  1.00  0.00     0.193 A 
HETATM    5  N4  UNL     1     -13.888  12.411  27.400  1.00  0.00    -0.327 N 
ATOM      6  H4  UNL     1     -14.665  11.883  27.799  1.00  0.00     0.169 HD
HETATM    7  C20 UNL     1     -13.688  12.402  26.096  1.00  0.00     0.183 A 
HETATM    8  N5  UNL     1     -12.705  13.059  25.490  1.00  0.00    -0.351 N 
ATOM      9  H5  UNL     1     -12.597  13.017  24.476  1.00  0.00     0.166 HD
HETATM   10  C21 UNL     1     -11.857  13.779  26.241  1.00  0.00     0.051 A 
HETATM   11  C22 UNL     1     -10.817  14.483  25.651  1.00  0.00     0.070 A 
HETATM   12  C23 UNL     1      -9.913  15.245  26.372  1.00  0.00     0.104 A 
ENDROOT
BRANCH   4  13
HETATM   13  N1  UNL     1     -13.177  13.154  29.398  1.00  0.00    -0.387 NA
BRANCH  13  14
HETATM   14  C6  UNL     1     -13.243  13.100  30.717  1.00  0.00     0.110 A 
HETATM   15  C7  UNL     1     -13.322  14.278  31.502  1.00  0.00     0.047 A 
HETATM   16  C8  UNL     1     -13.371  14.188  32.849  1.00  0.00     0.041 A 
HETATM   17  C9  UNL     1     -13.346  12.982  33.526  1.00  0.00     0.084 A 
HETATM   18  C17 UNL     1     -13.269  11.834  32.771  1.00  0.00     0.065 A 
HETATM   19  C19 UNL     1     -13.218  11.858  31.408  1.00  0.00     0.064 A 
BRANCH  17  20
HETATM   20  O2  UNL     1     -13.392  12.884  34.888  1.00  0.00    -0.345 OA
BRANCH  20  21
HETATM   21  C10 UNL     1     -12.391  13.470  35.727  1.00  0.00     0.220 C 
BRANCH  21  22
HETATM   22  C11 UNL     1     -11.008  13.183  35.283  1.00  0.00     0.084 C 
BRANCH  22  23
HETATM   23  N2  UNL     1     -10.315  14.197  34.617  1.00  0.00    -0.391 N 
HETATM   24  C12 UNL     1      -9.841  15.306  35.381  1.00  0.00     0.122 C 
HETATM   25  C13 UNL     1      -8.686  16.012  34.687  1.00  0.00     0.020 C 
HETATM   26  C14 UNL     1      -9.139  16.393  33.305  1.00  0.00     0.003 C 
HETATM   27  C15 UNL     1      -9.606  15.156  32.582  1.00  0.00     0.020 C 
HETATM   28  C16 UNL     1      -9.508  13.927  33.505  1.00  0.00     0.122 C 
ENDBRANCH  22  23
ENDBRANCH  21  22
ENDBRANCH  20  21
ENDBRANCH  17  20
BRANCH  18  29
HETATM   29  C18 UNL     1     -13.236  10.529  33.453  1.00  0.00     0.267 C 
HETATM   30  N3  UNL     1     -14.420   9.792  33.660  1.00  0.00    -0.057 NA
HETATM   31  O3  UNL     1     -12.143  10.091  33.844  1.00  0.00    -0.271 OA
ENDBRANCH  18  29
ENDBRANCH  13  14
ENDBRANCH   4  13
BRANCH   1  32
HETATM   32  O1  UNL     1      -9.198  16.043  28.521  1.00  0.00    -0.353 OA
HETATM   33  C1  UNL     1      -9.631  17.047  29.402  1.00  0.00     0.210 C 
ENDBRANCH   1  32
BRANCH  12  34
HETATM   34  O4  UNL     1      -8.886  15.936  25.774  1.00  0.00    -0.343 OA
BRANCH  34  35
HETATM   35  C24 UNL     1      -9.077  16.973  24.838  1.00  0.00     0.220 C 
BRANCH  35  36
HETATM   36  C25 UNL     1      -7.941  17.146  23.895  1.00  0.00     0.094 C 
BRANCH  36  37
HETATM   37  N6  UNL     1      -8.163  16.806  22.546  1.00  0.00    -0.349 N 
HETATM   38  C26 UNL     1      -7.500  17.595  21.602  1.00  0.00     0.095 C 
HETATM   39  C27 UNL     1      -7.779  17.291  20.163  1.00  0.00     0.277 C 
HETATM   40  N7  UNL     1      -9.187  16.968  19.955  1.00  0.00    -0.066 N 
HETATM   41  C28 UNL     1      -9.413  15.749  20.720  1.00  0.00     0.277 C 
ATOM     42  H72 UNL     1      -9.824  17.728  20.193  1.00  0.00     0.277 HD
ATOM     43  H71 UNL     1      -9.453  16.894  18.973  1.00  0.00     0.277 HD
HETATM   44  C29 UNL     1      -9.302  16.088  22.185  1.00  0.00     0.095 C 
ENDBRANCH  36  37
ENDBRANCH  35  36
ENDBRANCH  34  35
ENDBRANCH  12  34
TORSDOF 12
ENDMDL
MODEL 5
REMARK VINA RESULT: -8.298849067      4.588      7.777
REMARK  12 active torsions:
REMARK  status: ('A' for Active; 'I' for Inactive)
REMARK    1  A    between atoms: O1_2  and  C2_3 
REMARK    2  A    between atoms: C5_6  and  N1_7 
REMARK    3  A    between atoms: N1_7  and  C6_8 
REMARK    4  A    between atoms: C9_11  and  O2_12 
REMARK    5  A    between atoms: O2_12  and  C10_13 
REMARK    6  A    between atoms: C10_13  and  C11_14 
REMARK    7  A    between atoms: C11_14  and  N2_15 
REMARK    8  A    between atoms: C17_21  and  C18_22 
REMARK    9  A    between atoms: C23_33  and  O4_34 
REMARK   10  A    between atoms: O4_34  and  C24_35 
REMARK   11  A    between atoms: C24_35  and  C25_36 
REMARK   12  A    between atoms: C25_36  and  N6_37 
ROOT
HETATM    1  C2  UNL     1      -8.142  16.318  26.483  1.00  0.00     0.102 A 
HETATM    2  C3  UNL     1      -7.002  16.876  25.894  1.00  0.00     0.058 A 
HETATM    3  C4  UNL     1      -5.917  17.289  26.658  1.00  0.00     0.052 A 
HETATM    4  C5  UNL     1      -4.779  17.851  26.054  1.00  0.00     0.193 A 
HETATM    5  N4  UNL     1      -3.752  18.235  26.903  1.00  0.00    -0.327 N 
ATOM      6  H4  UNL     1      -2.903  18.649  26.519  1.00  0.00     0.169 HD
HETATM    7  C20 UNL     1      -3.871  18.066  28.205  1.00  0.00     0.183 A 
HETATM    8  N5  UNL     1      -4.939  17.536  28.793  1.00  0.00    -0.351 N 
ATOM      9  H5  UNL     1      -4.977  17.429  29.807  1.00  0.00     0.166 HD
HETATM   10  C21 UNL     1      -5.966  17.145  28.022  1.00  0.00     0.051 A 
HETATM   11  C22 UNL     1      -7.103  16.589  28.592  1.00  0.00     0.070 A 
HETATM   12  C23 UNL     1      -8.194  16.171  27.851  1.00  0.00     0.104 A 
ENDROOT
BRANCH   4  13
HETATM   13  N1  UNL     1      -4.706  17.965  24.885  1.00  0.00    -0.387 NA
BRANCH  13  14
HETATM   14  C6  UNL     1      -4.620  17.984  23.567  1.00  0.00     0.110 A 
HETATM   15  C7  UNL     1      -5.555  18.696  22.775  1.00  0.00     0.047 A 
HETATM   16  C8  UNL     1      -5.449  18.680  21.429  1.00  0.00     0.041 A 
HETATM   17  C9  UNL     1      -4.456  17.990  20.759  1.00  0.00     0.084 A 
HETATM   18  C17 UNL     1      -3.544  17.296  21.520  1.00  0.00     0.065 A 
HETATM   19  C19 UNL     1      -3.596  17.273  22.883  1.00  0.00     0.064 A 
BRANCH  17  20
HETATM   20  O2  UNL     1      -4.345  17.967  19.396  1.00  0.00    -0.345 OA
BRANCH  20  21
HETATM   21  C10 UNL     1      -5.427  17.565  18.552  1.00  0.00     0.220 C 
BRANCH  21  22
HETATM   22  C11 UNL     1      -5.905  16.189  18.820  1.00  0.00     0.084 C 
BRANCH  22  23
HETATM   23  N2  UNL     1      -7.119  16.043  19.495  1.00  0.00    -0.391 N 
HETATM   24  C12 UNL     1      -8.307  15.876  18.720  1.00  0.00     0.122 C 
HETATM   25  C13 UNL     1      -9.409  15.200  19.521  1.00  0.00     0.020 C 
HETATM   26  C14 UNL     1      -9.626  15.999  20.775  1.00  0.00     0.003 C 
HETATM   27  C15 UNL     1      -8.322  16.106  21.523  1.00  0.00     0.020 C 
HETATM   28  C16 UNL     1      -7.197  15.405  20.739  1.00  0.00     0.122 C 
ENDBRANCH  22  23
ENDBRANCH  21  22
ENDBRANCH  20  21
ENDBRANCH  17  20
BRANCH  18  29
HETATM   29  C18 UNL     1      -2.472  16.544  20.845  1.00  0.00     0.267 C 
HETATM   30  N3  UNL     1      -1.159  17.053  20.786  1.00  0.00    -0.057 NA
HETATM   31  O3  UNL     1      -2.749  15.451  20.327  1.00  0.00    -0.271 OA
ENDBRANCH  18  29
ENDBRANCH  13  14
ENDBRANCH   4  13
BRANCH   1  32
HETATM   32  O1  UNL     1      -9.195  15.923  25.681  1.00  0.00    -0.353 OA
HETATM   33  C1  UNL     1      -9.879  16.803  24.827  1.00  0.00     0.210 C 
ENDBRANCH   1  32
BRANCH  12  34
HETATM   34  O4  UNL     1      -9.313  15.619  28.428  1.00  0.00    -0.343 OA
BRANCH  34  35
HETATM   35  C24 UNL     1      -9.434  14.254  28.760  1.00  0.00     0.220 C 
BRANCH  35  36
HETATM   36  C25 UNL     1     -10.827  13.830  29.058  1.00  0.00     0.094 C 
BRANCH  36  37
HETATM   37  N6  UNL     1     -11.716  13.722  27.969  1.00  0.00    -0.349 N 
HETATM   38  C26 UNL     1     -13.062  13.541  28.298  1.00  0.00     0.095 C 
HETATM   39  C27 UNL     1     -14.010  13.355  27.155  1.00  0.00     0.277 C 
HETATM   40  N7  UNL     1     -13.417  12.530  26.107  1.00  0.00    -0.066 N 
HETATM   41  C28 UNL     1     -12.278  13.295  25.621  1.00  0.00     0.277 C 
ATOM     42  H72 UNL     1     -13.181  11.585  26.410  1.00  0.00     0.277 HD
ATOM     43  H71 UNL     1     -14.075  12.257  25.375  1.00  0.00     0.277 HD
HETATM   44  C29 UNL     1     -11.241  13.339  26.716  1.00  0.00     0.095 C 
ENDBRANCH  36  37
ENDBRANCH  35  36
ENDBRANCH  34  35
ENDBRANCH  12  34
TORSDOF 12
ENDMDL
