MODEL 1
REMARK VINA RESULT: -7.922936267      0.000      0.000
REMARK  15 active torsions:
REMARK  status: ('A' for Active; 'I' for Inactive)
REMARK    1  A    between atoms: O1_2  and  C2_3 
REMARK    2  A    between atoms: C2_3  and  C5_6 
REMARK    3  A    between atoms: C5_6  and  N1_7 
REMARK    4  A    between atoms: N1_7  and  C6_9 
REMARK    5  A    between atoms: C6_9  and  S2_11 
REMARK    6  A    between atoms: S2_11  and  C7_12 
REMARK    7  A    between atoms: C7_12  and  C8_13 
REMARK       I    between atoms: C8_13  and  N2_15 
REMARK    8  A    between atoms: N2_15  and  C9_17 
REMARK    9  A    between atoms: C9_17  and  C10_18 
REMARK   10  A    between atoms: C9_17  and  C18_26 
REMARK   11  A    between atoms: C10_18  and  C11_19 
REMARK   12  A    between atoms: C11_19  and  C14_22 
REMARK       I    between atoms: C18_26  and  N3_28 
REMARK   13  A    between atoms: N3_28  and  C19_30 
REMARK   14  A    between atoms: C19_30  and  C21_32 
REMARK   15  A    between atoms: C21_32  and  C22_34 
REMARK       I    between atoms: C22_34  and  N4_36 
ROOT
HETATM    1  C9  UNL     1      -9.792  14.784  29.166  1.00  0.00     0.177 C 
ENDROOT
BRANCH   1   2
HETATM    2  N2  UNL     1      -8.485  14.948  28.589  1.00  0.00    -0.347 N 
HETATM    3  C8  UNL     1      -7.784  16.143  28.523  1.00  0.00     0.228 C 
HETATM    4  O2  UNL     1      -8.307  17.186  29.050  1.00  0.00    -0.273 OA
ATOM      5  H2  UNL     1      -8.038  14.119  28.197  1.00  0.00     0.163 HD
BRANCH   3   6
HETATM    6  C7  UNL     1      -6.484  16.324  27.888  1.00  0.00     0.184 C 
BRANCH   6   7
HETATM    7  S2  UNL     1      -6.145  17.898  27.156  1.00  0.00    -0.091 SA
BRANCH   7   8
HETATM    8  C6  UNL     1      -5.871  17.955  25.423  1.00  0.00     0.135 C 
HETATM    9  S1  UNL     1      -4.321  17.945  24.874  1.00  0.00    -0.053 SA
BRANCH   8  10
HETATM   10  N1  UNL     1      -6.930  18.108  24.526  1.00  0.00    -0.373 N 
ATOM     11  H1  UNL     1      -7.395  19.015  24.504  1.00  0.00     0.161 HD
BRANCH  10  12
HETATM   12  C5  UNL     1      -7.414  17.107  23.644  1.00  0.00     0.158 C 
BRANCH  12  13
HETATM   13  C2  UNL     1      -8.477  16.205  24.110  1.00  0.00     0.069 C 
HETATM   14  C3  UNL     1      -9.334  16.973  25.172  1.00  0.00     0.047 C 
HETATM   15  C4  UNL     1      -8.080  14.958  24.780  1.00  0.00     0.047 C 
BRANCH  13  16
HETATM   16  O1  UNL     1      -9.358  15.995  23.031  1.00  0.00    -0.384 OA
HETATM   17  C1  UNL     1      -8.741  16.127  21.806  1.00  0.00     0.202 C 
ENDBRANCH  13  16
ENDBRANCH  12  13
ENDBRANCH  10  12
ENDBRANCH   8  10
ENDBRANCH   7   8
ENDBRANCH   6   7
ENDBRANCH   3   6
ENDBRANCH   1   2
BRANCH   1  18
HETATM   18  C10 UNL     1     -10.689  13.734  28.689  1.00  0.00     0.044 C 
BRANCH  18  19
HETATM   19  C11 UNL     1     -11.655  13.996  27.596  1.00  0.00    -0.039 C 
HETATM   20  C12 UNL     1     -12.015  15.487  27.620  1.00  0.00     0.015 C 
HETATM   21  C13 UNL     1     -11.137  13.693  26.242  1.00  0.00     0.015 C 
BRANCH  19  22
HETATM   22  C14 UNL     1     -12.904  13.190  27.940  1.00  0.00    -0.044 C 
HETATM   23  C15 UNL     1     -13.562  12.586  26.766  1.00  0.00     0.015 C 
HETATM   24  C16 UNL     1     -13.895  14.125  28.635  1.00  0.00     0.015 C 
HETATM   25  C17 UNL     1     -12.507  12.123  28.931  1.00  0.00     0.015 C 
ENDBRANCH  19  22
ENDBRANCH  18  19
ENDBRANCH   1  18
BRANCH   1  26
HETATM   26  C18 UNL     1      -9.580  14.698  30.671  1.00  0.00     0.241 C 
HETATM   27  O3  UNL     1      -9.084  13.636  31.098  1.00  0.00    -0.271 OA
HETATM   28  N3  UNL     1      -9.921  15.748  31.542  1.00  0.00    -0.348 N 
ATOM     29  H3  UNL     1     -10.333  16.602  31.166  1.00  0.00     0.163 HD
BRANCH  28  30
HETATM   30  C19 UNL     1      -9.693  15.630  32.960  1.00  0.00     0.160 C 
HETATM   31  C20 UNL     1      -8.763  16.686  33.414  1.00  0.00     0.041 C 
BRANCH  30  32
HETATM   32  C21 UNL     1     -10.938  15.478  33.772  1.00  0.00     0.238 C 
HETATM   33  O4  UNL     1     -11.019  16.053  34.897  1.00  0.00    -0.285 OA
BRANCH  32  34
HETATM   34  C22 UNL     1     -12.067  14.691  33.326  1.00  0.00     0.291 C 
HETATM   35  O5  UNL     1     -13.005  15.197  32.624  1.00  0.00    -0.264 OA
HETATM   36  N4  UNL     1     -12.179  13.317  33.655  1.00  0.00    -0.345 N 
HETATM   37  C23 UNL     1     -11.337  12.472  34.446  1.00  0.00     0.126 C 
HETATM   38  C26 UNL     1     -13.271  12.474  33.148  1.00  0.00     0.126 C 
HETATM   39  C24 UNL     1     -12.171  11.260  34.790  1.00  0.00     0.021 C 
HETATM   40  C25 UNL     1     -13.583  11.613  34.350  1.00  0.00     0.021 C 
ENDBRANCH  32  34
ENDBRANCH  30  32
ENDBRANCH  28  30
ENDBRANCH   1  26
TORSDOF 15
ENDMDL
MODEL 2
REMARK VINA RESULT: -7.917377146      3.235     10.224
REMARK  15 active torsions:
REMARK  status: ('A' for Active; 'I' for Inactive)
REMARK    1  A    between atoms: O1_2  and  C2_3 
REMARK    2  A    between atoms: C2_3  and  C5_6 
REMARK    3  A    between atoms: C5_6  and  N1_7 
REMARK    4  A    between atoms: N1_7  and  C6_9 
REMARK    5  A    between atoms: C6_9  and  S2_11 
REMARK    6  A    between atoms: S2_11  and  C7_12 
REMARK    7  A    between atoms: C7_12  and  C8_13 
REMARK       I    between atoms: C8_13  and  N2_15 
REMARK    8  A    between atoms: N2_15  and  C9_17 
REMARK    9  A    between atoms: C9_17  and  C10_18 
REMARK   10  A    between atoms: C9_17  and  C18_26 
REMARK   11  A    between atoms: C10_18  and  C11_19 
REMARK   12  A    between atoms: C11_19  and  C14_22 
REMARK       I    between atoms: C18_26  and  N3_28 
REMARK   13  A    between atoms: N3_28  and  C19_30 
REMARK   14  A    between atoms: C19_30  and  C21_32 
REMARK   15  A    between atoms: C21_32  and  C22_34 
REMARK       I    between atoms: C22_34  and  N4_36 
ROOT
HETATM    1  C9  UNL     1      -7.551  16.676  25.472  1.00  0.00     0.177 C 
ENDROOT
BRANCH   1   2
HETATM    2  N2  UNL     1      -8.419  15.536  25.342  1.00  0.00    -0.347 N 
HETATM    3  C8  UNL     1      -9.699  15.442  25.867  1.00  0.00     0.228 C 
HETATM    4  O2  UNL     1     -10.181  16.455  26.484  1.00  0.00    -0.273 OA
ATOM      5  H2  UNL     1      -8.064  14.733  24.822  1.00  0.00     0.163 HD
BRANCH   3   6
HETATM    6  C7  UNL     1     -10.559  14.267  25.786  1.00  0.00     0.184 C 
BRANCH   6   7
HETATM    7  S2  UNL     1     -12.247  14.455  26.281  1.00  0.00    -0.091 SA
BRANCH   7   8
HETATM    8  C6  UNL     1     -12.586  14.613  27.996  1.00  0.00     0.135 C 
HETATM    9  S1  UNL     1     -13.971  13.949  28.585  1.00  0.00    -0.053 SA
BRANCH   8  10
HETATM   10  N1  UNL     1     -11.762  15.368  28.832  1.00  0.00    -0.373 N 
ATOM     11  H1  UNL     1     -11.622  16.349  28.587  1.00  0.00     0.161 HD
BRANCH  10  12
HETATM   12  C5  UNL     1     -11.102  14.888  29.993  1.00  0.00     0.158 C 
BRANCH  12  13
HETATM   13  C2  UNL     1      -9.661  15.136  30.143  1.00  0.00     0.069 C 
HETATM   14  C3  UNL     1      -9.410  16.669  29.949  1.00  0.00     0.047 C 
HETATM   15  C4  UNL     1      -8.745  14.484  29.196  1.00  0.00     0.047 C 
BRANCH  13  16
HETATM   16  O1  UNL     1      -9.327  14.892  31.490  1.00  0.00    -0.384 OA
HETATM   17  C1  UNL     1      -9.922  15.784  32.356  1.00  0.00     0.202 C 
ENDBRANCH  13  16
ENDBRANCH  12  13
ENDBRANCH  10  12
ENDBRANCH   8  10
ENDBRANCH   7   8
ENDBRANCH   6   7
ENDBRANCH   3   6
ENDBRANCH   1   2
BRANCH   1  18
HETATM   18  C10 UNL     1      -6.248  16.547  26.120  1.00  0.00     0.044 C 
BRANCH  18  19
HETATM   19  C11 UNL     1      -5.902  17.366  27.305  1.00  0.00    -0.039 C 
HETATM   20  C12 UNL     1      -7.044  18.358  27.554  1.00  0.00     0.015 C 
HETATM   21  C13 UNL     1      -5.722  16.585  28.551  1.00  0.00     0.015 C 
BRANCH  19  22
HETATM   22  C14 UNL     1      -4.652  18.152  26.920  1.00  0.00    -0.044 C 
HETATM   23  C15 UNL     1      -3.794  17.459  25.940  1.00  0.00     0.015 C 
HETATM   24  C16 UNL     1      -3.843  18.409  28.192  1.00  0.00     0.015 C 
HETATM   25  C17 UNL     1      -5.097  19.490  26.380  1.00  0.00     0.015 C 
ENDBRANCH  19  22
ENDBRANCH  18  19
ENDBRANCH   1  18
BRANCH   1  26
HETATM   26  C18 UNL     1      -7.427  17.272  24.077  1.00  0.00     0.241 C 
HETATM   27  O3  UNL     1      -8.479  17.335  23.409  1.00  0.00    -0.271 OA
HETATM   28  N3  UNL     1      -6.203  17.729  23.559  1.00  0.00    -0.348 N 
ATOM     29  H3  UNL     1      -5.357  17.658  24.124  1.00  0.00     0.163 HD
BRANCH  28  30
HETATM   30  C19 UNL     1      -6.131  18.298  22.236  1.00  0.00     0.160 C 
HETATM   31  C20 UNL     1      -5.571  19.665  22.301  1.00  0.00     0.041 C 
BRANCH  30  32
HETATM   32  C21 UNL     1      -5.517  17.399  21.213  1.00  0.00     0.238 C 
HETATM   33  O4  UNL     1      -4.409  16.840  21.464  1.00  0.00    -0.285 OA
BRANCH  32  34
HETATM   34  C22 UNL     1      -6.138  17.137  19.933  1.00  0.00     0.291 C 
HETATM   35  O5  UNL     1      -5.791  17.762  18.877  1.00  0.00    -0.264 OA
HETATM   36  N4  UNL     1      -7.164  16.169  19.801  1.00  0.00    -0.345 N 
HETATM   37  C23 UNL     1      -7.801  15.340  20.778  1.00  0.00     0.126 C 
HETATM   38  C26 UNL     1      -7.756  15.823  18.500  1.00  0.00     0.126 C 
HETATM   39  C24 UNL     1      -9.078  14.848  20.137  1.00  0.00     0.021 C 
HETATM   40  C25 UNL     1      -9.215  15.656  18.856  1.00  0.00     0.021 C 
ENDBRANCH  32  34
ENDBRANCH  30  32
ENDBRANCH  28  30
ENDBRANCH   1  26
TORSDOF 15
ENDMDL
MODEL 3
REMARK VINA RESULT: -7.912949551      3.197     10.359
REMARK  15 active torsions:
REMARK  status: ('A' for Active; 'I' for Inactive)
REMARK    1  A    between atoms: O1_2  and  C2_3 
REMARK    2  A    between atoms: C2_3  and  C5_6 
REMARK    3  A    between atoms: C5_6  and  N1_7 
REMARK    4  A    between atoms: N1_7  and  C6_9 
REMARK    5  A    between atoms: C6_9  and  S2_11 
REMARK    6  A    between atoms: S2_11  and  C7_12 
REMARK    7  A    between atoms: C7_12  and  C8_13 
REMARK       I    between atoms: C8_13  and  N2_15 
REMARK    8  A    between atoms: N2_15  and  C9_17 
REMARK    9  A    between atoms: C9_17  and  C10_18 
REMARK   10  A    between atoms: C9_17  and  C18_26 
REMARK   11  A    between atoms: C10_18  and  C11_19 
REMARK   12  A    between atoms: C11_19  and  C14_22 
REMARK       I    between atoms: C18_26  and  N3_28 
REMARK   13  A    between atoms: N3_28  and  C19_30 
REMARK   14  A    between atoms: C19_30  and  C21_32 
REMARK   15  A    between atoms: C21_32  and  C22_34 
REMARK       I    between atoms: C22_34  and  N4_36 
ROOT
HETATM    1  C9  UNL     1      -7.886  15.837  25.329  1.00  0.00     0.177 C 
ENDROOT
BRANCH   1   2
HETATM    2  N2  UNL     1      -8.734  14.808  25.870  1.00  0.00    -0.347 N 
HETATM    3  C8  UNL     1     -10.119  14.803  25.813  1.00  0.00     0.228 C 
HETATM    4  O2  UNL     1     -10.707  15.760  25.198  1.00  0.00    -0.273 OA
ATOM      5  H2  UNL     1      -8.279  14.021  26.332  1.00  0.00     0.163 HD
BRANCH   3   6
HETATM    6  C7  UNL     1     -10.984  13.792  26.410  1.00  0.00     0.184 C 
BRANCH   6   7
HETATM    7  S2  UNL     1     -12.439  14.352  27.245  1.00  0.00    -0.091 SA
BRANCH   7   8
HETATM    8  C6  UNL     1     -12.562  14.052  28.970  1.00  0.00     0.135 C 
HETATM    9  S1  UNL     1     -13.206  12.626  29.475  1.00  0.00    -0.053 SA
BRANCH   8  10
HETATM   10  N1  UNL     1     -12.218  15.033  29.903  1.00  0.00    -0.373 N 
ATOM     11  H1  UNL     1     -12.826  15.849  29.967  1.00  0.00     0.161 HD
BRANCH  10  12
HETATM   12  C5  UNL     1     -11.093  14.991  30.768  1.00  0.00     0.158 C 
BRANCH  12  13
HETATM   13  C2  UNL     1      -9.806  15.510  30.283  1.00  0.00     0.069 C 
HETATM   14  C3  UNL     1     -10.101  16.671  29.274  1.00  0.00     0.047 C 
HETATM   15  C4  UNL     1      -8.923  14.593  29.550  1.00  0.00     0.047 C 
BRANCH  13  16
HETATM   16  O1  UNL     1      -9.168  16.142  31.369  1.00  0.00    -0.384 OA
HETATM   17  C1  UNL     1      -9.735  15.816  32.582  1.00  0.00     0.202 C 
ENDBRANCH  13  16
ENDBRANCH  12  13
ENDBRANCH  10  12
ENDBRANCH   8  10
ENDBRANCH   7   8
ENDBRANCH   6   7
ENDBRANCH   3   6
ENDBRANCH   1   2
BRANCH   1  18
HETATM   18  C10 UNL     1      -6.530  16.025  25.839  1.00  0.00     0.044 C 
BRANCH  18  19
HETATM   19  C11 UNL     1      -6.230  17.078  26.838  1.00  0.00    -0.039 C 
HETATM   20  C12 UNL     1      -7.353  18.122  26.786  1.00  0.00     0.015 C 
HETATM   21  C13 UNL     1      -6.153  16.587  28.233  1.00  0.00     0.015 C 
BRANCH  19  22
HETATM   22  C14 UNL     1      -4.934  17.737  26.376  1.00  0.00    -0.044 C 
HETATM   23  C15 UNL     1      -4.042  18.132  27.483  1.00  0.00     0.015 C 
HETATM   24  C16 UNL     1      -5.298  18.982  25.566  1.00  0.00     0.015 C 
HETATM   25  C17 UNL     1      -4.231  16.774  25.449  1.00  0.00     0.015 C 
ENDBRANCH  19  22
ENDBRANCH  18  19
ENDBRANCH   1  18
BRANCH   1  26
HETATM   26  C18 UNL     1      -7.895  15.639  23.820  1.00  0.00     0.241 C 
HETATM   27  O3  UNL     1      -7.284  14.639  23.391  1.00  0.00    -0.271 OA
HETATM   28  N3  UNL     1      -8.549  16.525  22.947  1.00  0.00    -0.348 N 
ATOM     29  H3  UNL     1      -9.034  17.340  23.325  1.00  0.00     0.163 HD
BRANCH  28  30
HETATM   30  C19 UNL     1      -8.543  16.296  21.524  1.00  0.00     0.160 C 
HETATM   31  C20 UNL     1      -9.897  15.920  21.065  1.00  0.00     0.041 C 
BRANCH  30  32
HETATM   32  C21 UNL     1      -7.868  17.367  20.732  1.00  0.00     0.238 C 
HETATM   33  O4  UNL     1      -8.355  17.711  19.614  1.00  0.00    -0.285 OA
BRANCH  32  34
HETATM   34  C22 UNL     1      -6.670  18.037  21.188  1.00  0.00     0.291 C 
HETATM   35  O5  UNL     1      -6.717  19.136  21.834  1.00  0.00    -0.264 OA
HETATM   36  N4  UNL     1      -5.385  17.495  20.933  1.00  0.00    -0.345 N 
HETATM   37  C23 UNL     1      -4.990  16.322  20.213  1.00  0.00     0.126 C 
HETATM   38  C26 UNL     1      -4.156  18.109  21.454  1.00  0.00     0.126 C 
HETATM   39  C24 UNL     1      -3.519  16.496  19.913  1.00  0.00     0.021 C 
HETATM   40  C25 UNL     1      -3.205  17.934  20.293  1.00  0.00     0.021 C 
ENDBRANCH  32  34
ENDBRANCH  30  32
ENDBRANCH  28  30
ENDBRANCH   1  26
TORSDOF 15
ENDMDL
MODEL 4
REMARK VINA RESULT: -7.912556585      2.903     10.319
REMARK  15 active torsions:
REMARK  status: ('A' for Active; 'I' for Inactive)
REMARK    1  A    between atoms: O1_2  and  C2_3 
REMARK    2  A    between atoms: C2_3  and  C5_6 
REMARK    3  A    between atoms: C5_6  and  N1_7 
REMARK    4  A    between atoms: N1_7  and  C6_9 
REMARK    5  A    between atoms: C6_9  and  S2_11 
REMARK    6  A    between atoms: S2_11  and  C7_12 
REMARK    7  A    between atoms: C7_12  and  C8_13 
REMARK       I    between atoms: C8_13  and  N2_15 
REMARK    8  A    between atoms: N2_15  and  C9_17 
REMARK    9  A    between atoms: C9_17  and  C10_18 
REMARK   10  A    between atoms: C9_17  and  C18_26 
REMARK   11  A    between atoms: C10_18  and  C11_19 
REMARK   12  A    between atoms: C11_19  and  C14_22 
REMARK       I    between atoms: C18_26  and  N3_28 
REMARK   13  A    between atoms: N3_28  and  C19_30 
REMARK   14  A    between atoms: C19_30  and  C21_32 
REMARK   15  A    between atoms: C21_32  and  C22_34 
REMARK       I    between atoms: C22_34  and  N4_36 
ROOT
HETATM    1  C9  UNL     1      -8.273  16.365  25.483  1.00  0.00     0.177 C 
ENDROOT
BRANCH   1   2
HETATM    2  N2  UNL     1      -9.395  15.643  26.021  1.00  0.00    -0.347 N 
HETATM    3  C8  UNL     1     -10.366  16.182  26.852  1.00  0.00     0.228 C 
HETATM    4  O2  UNL     1     -10.300  17.427  27.141  1.00  0.00    -0.273 OA
ATOM      5  H2  UNL     1      -9.482  14.658  25.772  1.00  0.00     0.163 HD
BRANCH   3   6
HETATM    6  C7  UNL     1     -11.473  15.440  27.446  1.00  0.00     0.184 C 
BRANCH   6   7
HETATM    7  S2  UNL     1     -11.102  13.884  28.201  1.00  0.00    -0.091 SA
BRANCH   7   8
HETATM    8  C6  UNL     1     -12.002  13.434  29.639  1.00  0.00     0.135 C 
HETATM    9  S1  UNL     1     -13.582  13.010  29.473  1.00  0.00    -0.053 SA
BRANCH   8  10
HETATM   10  N1  UNL     1     -11.432  13.527  30.910  1.00  0.00    -0.373 N 
ATOM     11  H1  UNL     1     -10.900  12.722  31.242  1.00  0.00     0.161 HD
BRANCH  10  12
HETATM   12  C5  UNL     1     -11.529  14.645  31.778  1.00  0.00     0.158 C 
BRANCH  12  13
HETATM   13  C2  UNL     1     -10.305  15.163  32.407  1.00  0.00     0.069 C 
HETATM   14  C3  UNL     1      -9.541  16.023  31.345  1.00  0.00     0.047 C 
HETATM   15  C4  UNL     1      -9.311  14.193  32.888  1.00  0.00     0.047 C 
BRANCH  13  16
HETATM   16  O1  UNL     1     -10.696  16.089  33.395  1.00  0.00    -0.384 OA
HETATM   17  C1  UNL     1      -9.658  16.450  34.226  1.00  0.00     0.202 C 
ENDBRANCH  13  16
ENDBRANCH  12  13
ENDBRANCH  10  12
ENDBRANCH   8  10
ENDBRANCH   7   8
ENDBRANCH   6   7
ENDBRANCH   3   6
ENDBRANCH   1   2
BRANCH   1  18
HETATM   18  C10 UNL     1      -6.981  16.346  26.166  1.00  0.00     0.044 C 
BRANCH  18  19
HETATM   19  C11 UNL     1      -6.620  17.400  27.143  1.00  0.00    -0.039 C 
HETATM   20  C12 UNL     1      -7.112  18.747  26.599  1.00  0.00     0.015 C 
HETATM   21  C13 UNL     1      -7.227  17.221  28.482  1.00  0.00     0.015 C 
BRANCH  19  22
HETATM   22  C14 UNL     1      -5.095  17.424  27.189  1.00  0.00    -0.044 C 
HETATM   23  C15 UNL     1      -4.515  18.760  26.952  1.00  0.00     0.015 C 
HETATM   24  C16 UNL     1      -4.574  16.462  26.120  1.00  0.00     0.015 C 
HETATM   25  C17 UNL     1      -4.665  16.892  28.535  1.00  0.00     0.015 C 
ENDBRANCH  19  22
ENDBRANCH  18  19
ENDBRANCH   1  18
BRANCH   1  26
HETATM   26  C18 UNL     1      -8.146  15.924  24.032  1.00  0.00     0.241 C 
HETATM   27  O3  UNL     1      -7.593  14.822  23.837  1.00  0.00    -0.271 OA
HETATM   28  N3  UNL     1      -8.619  16.704  22.963  1.00  0.00    -0.348 N 
ATOM     29  H3  UNL     1      -9.059  17.605  23.151  1.00  0.00     0.163 HD
BRANCH  28  30
HETATM   30  C19 UNL     1      -8.488  16.245  21.603  1.00  0.00     0.160 C 
HETATM   31  C20 UNL     1      -9.820  15.925  21.045  1.00  0.00     0.041 C 
BRANCH  30  32
HETATM   32  C21 UNL     1      -7.621  17.105  20.744  1.00  0.00     0.238 C 
HETATM   33  O4  UNL     1      -8.152  17.812  19.838  1.00  0.00    -0.285 OA
BRANCH  32  34
HETATM   34  C22 UNL     1      -6.184  17.166  20.901  1.00  0.00     0.291 C 
HETATM   35  O5  UNL     1      -5.412  16.301  20.370  1.00  0.00    -0.264 OA
HETATM   36  N4  UNL     1      -5.573  18.197  21.658  1.00  0.00    -0.345 N 
HETATM   37  C23 UNL     1      -6.145  19.276  22.403  1.00  0.00     0.126 C 
HETATM   38  C26 UNL     1      -4.113  18.331  21.767  1.00  0.00     0.126 C 
HETATM   39  C24 UNL     1      -5.054  19.767  23.327  1.00  0.00     0.021 C 
HETATM   40  C25 UNL     1      -3.945  18.733  23.214  1.00  0.00     0.021 C 
ENDBRANCH  32  34
ENDBRANCH  30  32
ENDBRANCH  28  30
ENDBRANCH   1  26
TORSDOF 15
ENDMDL
MODEL 5
REMARK VINA RESULT: -7.856425004      1.465      2.000
REMARK  15 active torsions:
REMARK  status: ('A' for Active; 'I' for Inactive)
REMARK    1  A    between atoms: O1_2  and  C2_3 
REMARK    2  A    between atoms: C2_3  and  C5_6 
REMARK    3  A    between atoms: C5_6  and  N1_7 
REMARK    4  A    between atoms: N1_7  and  C6_9 
REMARK    5  A    between atoms: C6_9  and  S2_11 
REMARK    6  A    between atoms: S2_11  and  C7_12 
REMARK    7  A    between atoms: C7_12  and  C8_13 
REMARK       I    between atoms: C8_13  and  N2_15 
REMARK    8  A    between atoms: N2_15  and  C9_17 
REMARK    9  A    between atoms: C9_17  and  C10_18 
REMARK   10  A    between atoms: C9_17  and  C18_26 
REMARK   11  A    between atoms: C10_18  and  C11_19 
REMARK   12  A    between atoms: C11_19  and  C14_22 
REMARK       I    between atoms: C18_26  and  N3_28 
REMARK   13  A    between atoms: N3_28  and  C19_30 
REMARK   14  A    between atoms: C19_30  and  C21_32 
REMARK   15  A    between atoms: C21_32  and  C22_34 
REMARK       I    between atoms: C22_34  and  N4_36 
ROOT
HETATM    1  C9  UNL     1     -10.095  15.281  29.039  1.00  0.00     0.177 C 
ENDROOT
BRANCH   1   2
HETATM    2  N2  UNL     1      -8.917  15.846  28.438  1.00  0.00    -0.347 N 
HETATM    3  C8  UNL     1      -8.885  17.005  27.677  1.00  0.00     0.228 C 
HETATM    4  O2  UNL     1      -9.973  17.660  27.519  1.00  0.00    -0.273 OA
ATOM      5  H2  UNL     1      -8.034  15.355  28.585  1.00  0.00     0.163 HD
BRANCH   3   6
HETATM    6  C7  UNL     1      -7.703  17.549  27.019  1.00  0.00     0.184 C 
BRANCH   6   7
HETATM    7  S2  UNL     1      -6.353  16.446  26.722  1.00  0.00    -0.091 SA
BRANCH   7   8
HETATM    8  C6  UNL     1      -5.666  16.406  25.107  1.00  0.00     0.135 C 
HETATM    9  S1  UNL     1      -4.121  16.928  24.899  1.00  0.00    -0.053 SA
BRANCH   8  10
HETATM   10  N1  UNL     1      -6.435  16.038  24.001  1.00  0.00    -0.373 N 
ATOM     11  H1  UNL     1      -6.779  15.078  23.971  1.00  0.00     0.161 HD
BRANCH  10  12
HETATM   12  C5  UNL     1      -6.777  16.885  22.915  1.00  0.00     0.158 C 
BRANCH  12  13
HETATM   13  C2  UNL     1      -7.817  16.446  21.974  1.00  0.00     0.069 C 
HETATM   14  C3  UNL     1      -9.134  16.201  22.786  1.00  0.00     0.047 C 
HETATM   15  C4  UNL     1      -7.597  15.196  21.233  1.00  0.00     0.047 C 
BRANCH  13  16
HETATM   16  O1  UNL     1      -8.119  17.539  21.137  1.00  0.00    -0.384 OA
HETATM   17  C1  UNL     1      -8.126  17.200  19.801  1.00  0.00     0.202 C 
ENDBRANCH  13  16
ENDBRANCH  12  13
ENDBRANCH  10  12
ENDBRANCH   8  10
ENDBRANCH   7   8
ENDBRANCH   6   7
ENDBRANCH   3   6
ENDBRANCH   1   2
BRANCH   1  18
HETATM   18  C10 UNL     1     -10.778  14.151  28.413  1.00  0.00     0.044 C 
BRANCH  18  19
HETATM   19  C11 UNL     1     -11.787  14.364  27.350  1.00  0.00    -0.039 C 
HETATM   20  C12 UNL     1     -12.734  15.483  27.803  1.00  0.00     0.015 C 
HETATM   21  C13 UNL     1     -11.218  14.774  26.046  1.00  0.00     0.015 C 
BRANCH  19  22
HETATM   22  C14 UNL     1     -12.582  13.064  27.260  1.00  0.00    -0.044 C 
HETATM   23  C15 UNL     1     -14.033  13.241  27.463  1.00  0.00     0.015 C 
HETATM   24  C16 UNL     1     -12.046  12.107  28.326  1.00  0.00     0.015 C 
HETATM   25  C17 UNL     1     -12.308  12.448  25.910  1.00  0.00     0.015 C 
ENDBRANCH  19  22
ENDBRANCH  18  19
ENDBRANCH   1  18
BRANCH   1  26
HETATM   26  C18 UNL     1      -9.730  14.984  30.486  1.00  0.00     0.241 C 
HETATM   27  O3  UNL     1      -9.080  13.938  30.687  1.00  0.00    -0.271 OA
HETATM   28  N3  UNL     1     -10.097  15.831  31.546  1.00  0.00    -0.348 N 
ATOM     29  H3  UNL     1     -10.636  16.676  31.353  1.00  0.00     0.163 HD
BRANCH  28  30
HETATM   30  C19 UNL     1      -9.721  15.519  32.902  1.00  0.00     0.160 C 
HETATM   31  C20 UNL     1      -8.849  16.582  33.444  1.00  0.00     0.041 C 
BRANCH  30  32
HETATM   32  C21 UNL     1     -10.861  15.112  33.778  1.00  0.00     0.238 C 
HETATM   33  O4  UNL     1     -11.253  15.899  34.689  1.00  0.00    -0.285 OA
BRANCH  32  34
HETATM   34  C22 UNL     1     -11.543  13.845  33.631  1.00  0.00     0.291 C 
HETATM   35  O5  UNL     1     -11.110  12.780  34.184  1.00  0.00    -0.264 OA
HETATM   36  N4  UNL     1     -12.728  13.735  32.861  1.00  0.00    -0.345 N 
HETATM   37  C23 UNL     1     -13.439  14.710  32.093  1.00  0.00     0.126 C 
HETATM   38  C26 UNL     1     -13.486  12.479  32.762  1.00  0.00     0.126 C 
HETATM   39  C24 UNL     1     -14.347  13.930  31.169  1.00  0.00     0.021 C 
HETATM   40  C25 UNL     1     -13.904  12.482  31.310  1.00  0.00     0.021 C 
ENDBRANCH  32  34
ENDBRANCH  30  32
ENDBRANCH  28  30
ENDBRANCH   1  26
TORSDOF 15
ENDMDL
