MODEL 1
REMARK VINA RESULT: -8.222682557      0.000      0.000
REMARK  15 active torsions:
REMARK  status: ('A' for Active; 'I' for Inactive)
REMARK    1  A    between atoms: C2_2  and  C3_3 
REMARK    2  A    between atoms: C3_3  and  N1_4 
REMARK    3  A    between atoms: C7_12  and  N4_13 
REMARK    4  A    between atoms: N4_13  and  C8_15 
REMARK    5  A    between atoms: C14_21  and  N5_22 
REMARK    6  A    between atoms: N5_22  and  C15_24 
REMARK    7  A    between atoms: C15_24  and  N6_26 
REMARK    8  A    between atoms: N6_26  and  C16_28 
REMARK    9  A    between atoms: C16_28  and  C17_29 
REMARK   10  A    between atoms: C17_29  and  C18_30 
REMARK   11  A    between atoms: C18_30  and  C19_31 
REMARK   12  A    between atoms: C19_31  and  N7_32 
REMARK   13  A    between atoms: C22_35  and  C23_36 
REMARK   14  A    between atoms: C23_36  and  O2_38 
REMARK   15  A    between atoms: O2_38  and  C24_39 
ROOT
HETATM    1  C8  UNL     1      -9.972  15.652  32.025  1.00  0.00     0.110 C 
HETATM    2  C9  UNL     1      -9.139  16.008  33.253  1.00  0.00     0.011 C 
HETATM    3  C10 UNL     1     -10.068  16.451  34.329  1.00  0.00     0.007 C 
HETATM    4  C11 UNL     1     -10.797  15.180  34.718  1.00  0.00     0.007 C 
HETATM    5  C12 UNL     1     -10.242  14.108  33.806  1.00  0.00     0.011 C 
HETATM    6  C13 UNL     1      -8.786  14.597  33.709  1.00  0.00     0.013 C 
HETATM    7  C14 UNL     1     -10.736  14.371  32.431  1.00  0.00     0.111 C 
ENDROOT
BRANCH   7   8
HETATM    8  N5  UNL     1     -12.151  14.601  32.353  1.00  0.00    -0.360 N 
ATOM      9  H5  UNL     1     -12.610  15.189  33.050  1.00  0.00     0.162 HD
BRANCH   8  10
HETATM   10  C15 UNL     1     -12.909  14.017  31.315  1.00  0.00     0.168 C 
HETATM   11  S1  UNL     1     -13.732  12.639  31.586  1.00  0.00    -0.041 SA
BRANCH  10  12
HETATM   12  N6  UNL     1     -12.957  14.622  30.012  1.00  0.00    -0.367 N 
ATOM     13  H6  UNL     1     -13.397  15.535  29.888  1.00  0.00     0.161 HD
BRANCH  12  14
HETATM   14  C16 UNL     1     -12.385  13.941  28.889  1.00  0.00     0.122 C 
BRANCH  14  15
HETATM   15  C17 UNL     1     -12.781  14.616  27.600  1.00  0.00     0.021 C 
BRANCH  15  16
HETATM   16  C18 UNL     1     -11.893  14.082  26.479  1.00  0.00     0.032 C 
BRANCH  16  17
HETATM   17  C19 UNL     1     -10.456  14.170  26.938  1.00  0.00     0.272 C 
BRANCH  17  18
HETATM   18  N7  UNL     1      -9.629  14.856  25.994  1.00  0.00     0.088 N 
HETATM   19  C20 UNL     1      -8.410  14.181  25.673  1.00  0.00     0.273 C 
HETATM   20  C21 UNL     1      -7.504  15.214  25.004  1.00  0.00     0.045 C 
HETATM   21  C22 UNL     1      -8.182  15.680  23.751  1.00  0.00     0.089 C 
HETATM   22  C26 UNL     1      -9.561  16.233  23.977  1.00  0.00     0.045 C 
HETATM   23  C27 UNL     1     -10.381  15.321  24.884  1.00  0.00     0.273 C 
BRANCH  21  24
HETATM   24  C23 UNL     1      -7.360  16.804  23.197  1.00  0.00     0.263 C 
HETATM   25  O1  UNL     1      -6.222  17.099  23.666  1.00  0.00    -0.265 OA
BRANCH  24  26
HETATM   26  O2  UNL     1      -7.818  17.574  22.137  1.00  0.00    -0.322 OA
BRANCH  26  27
HETATM   27  C24 UNL     1      -7.790  17.152  20.793  1.00  0.00     0.174 C 
HETATM   28  C25 UNL     1      -9.108  16.694  20.259  1.00  0.00     0.034 C 
ENDBRANCH  26  27
ENDBRANCH  24  26
ENDBRANCH  21  24
ENDBRANCH  17  18
ENDBRANCH  16  17
ENDBRANCH  15  16
ENDBRANCH  14  15
ENDBRANCH  12  14
ENDBRANCH  10  12
ENDBRANCH   8  10
ENDBRANCH   7   8
BRANCH   1  29
HETATM   29  N4  UNL     1      -9.193  15.438  30.880  1.00  0.00    -0.368 N 
ATOM     30  H4  UNL     1      -8.636  14.584  30.873  1.00  0.00     0.161 HD
BRANCH  29  31
HETATM   31  C7  UNL     1      -9.094  16.165  29.860  1.00  0.00     0.118 A 
HETATM   32  C6  UNL     1     -10.148  16.809  29.284  1.00  0.00     0.136 A 
HETATM   33  N3  UNL     1      -9.982  17.599  28.174  1.00  0.00    -0.358 N 
HETATM   34  C5  UNL     1      -8.771  17.752  27.629  1.00  0.00     0.095 A 
ATOM     35  H3  UNL     1     -10.787  18.071  27.762  1.00  0.00     0.165 HD
HETATM   36  C4  UNL     1      -8.294  18.461  26.539  1.00  0.00     0.140 A 
HETATM   37  C28 UNL     1      -7.683  17.117  28.182  1.00  0.00     0.152 A 
HETATM   38  N2  UNL     1      -6.966  18.246  26.457  1.00  0.00    -0.305 N 
HETATM   39  N1  UNL     1      -6.587  17.442  27.435  1.00  0.00    -0.272 N 
ATOM     40  H2  UNL     1      -6.349  18.643  25.749  1.00  0.00     0.186 HD
HETATM   41  N8  UNL     1      -7.871  16.354  29.262  1.00  0.00    -0.325 N 
ATOM     42  H8  UNL     1      -7.061  15.886  29.667  1.00  0.00     0.169 HD
BRANCH  39  43
HETATM   43  C3  UNL     1      -5.269  16.932  27.751  1.00  0.00     0.177 C 
BRANCH  43  44
HETATM   44  C2  UNL     1      -4.360  16.880  26.606  1.00  0.00    -0.015 C 
HETATM   45  C1  UNL     1      -3.520  17.870  26.366  1.00  0.00     0.008 C 
ENDBRANCH  43  44
ENDBRANCH  39  43
ENDBRANCH  29  31
ENDBRANCH   1  29
TORSDOF 15
ENDMDL
MODEL 2
REMARK VINA RESULT: -8.193549718      3.783      8.231
REMARK  15 active torsions:
REMARK  status: ('A' for Active; 'I' for Inactive)
REMARK    1  A    between atoms: C2_2  and  C3_3 
REMARK    2  A    between atoms: C3_3  and  N1_4 
REMARK    3  A    between atoms: C7_12  and  N4_13 
REMARK    4  A    between atoms: N4_13  and  C8_15 
REMARK    5  A    between atoms: C14_21  and  N5_22 
REMARK    6  A    between atoms: N5_22  and  C15_24 
REMARK    7  A    between atoms: C15_24  and  N6_26 
REMARK    8  A    between atoms: N6_26  and  C16_28 
REMARK    9  A    between atoms: C16_28  and  C17_29 
REMARK   10  A    between atoms: C17_29  and  C18_30 
REMARK   11  A    between atoms: C18_30  and  C19_31 
REMARK   12  A    between atoms: C19_31  and  N7_32 
REMARK   13  A    between atoms: C22_35  and  C23_36 
REMARK   14  A    between atoms: C23_36  and  O2_38 
REMARK   15  A    between atoms: O2_38  and  C24_39 
ROOT
HETATM    1  C8  UNL     1      -5.897  17.531  25.206  1.00  0.00     0.110 C 
HETATM    2  C9  UNL     1      -4.772  17.690  26.223  1.00  0.00     0.011 C 
HETATM    3  C10 UNL     1      -5.137  18.800  27.146  1.00  0.00     0.007 C 
HETATM    4  C11 UNL     1      -6.295  18.236  27.945  1.00  0.00     0.007 C 
HETATM    5  C12 UNL     1      -6.520  16.845  27.391  1.00  0.00     0.011 C 
HETATM    6  C13 UNL     1      -5.061  16.464  27.082  1.00  0.00     0.013 C 
HETATM    7  C14 UNL     1      -7.087  16.980  26.025  1.00  0.00     0.111 C 
ENDROOT
BRANCH   7   8
HETATM    8  N5  UNL     1      -8.198  17.885  25.941  1.00  0.00    -0.360 N 
ATOM      9  H5  UNL     1      -8.037  18.870  25.730  1.00  0.00     0.162 HD
BRANCH   8  10
HETATM   10  C15 UNL     1      -9.513  17.415  26.149  1.00  0.00     0.168 C 
HETATM   11  S1  UNL     1     -10.203  17.551  27.617  1.00  0.00    -0.041 SA
BRANCH  10  12
HETATM   12  N6  UNL     1     -10.253  16.806  25.077  1.00  0.00    -0.367 N 
ATOM     13  H6  UNL     1     -10.907  17.364  24.526  1.00  0.00     0.161 HD
BRANCH  12  14
HETATM   14  C16 UNL     1     -10.069  15.416  24.783  1.00  0.00     0.122 C 
BRANCH  14  15
HETATM   15  C17 UNL     1     -11.086  14.579  25.517  1.00  0.00     0.021 C 
BRANCH  15  16
HETATM   16  C18 UNL     1     -10.382  13.848  26.657  1.00  0.00     0.032 C 
BRANCH  16  17
HETATM   17  C19 UNL     1     -11.434  13.141  27.480  1.00  0.00     0.272 C 
BRANCH  17  18
HETATM   18  N7  UNL     1     -11.534  13.679  28.802  1.00  0.00     0.088 N 
HETATM   19  C20 UNL     1     -12.236  12.845  29.728  1.00  0.00     0.273 C 
HETATM   20  C21 UNL     1     -12.594  13.728  30.923  1.00  0.00     0.045 C 
HETATM   21  C22 UNL     1     -11.316  14.218  31.534  1.00  0.00     0.089 C 
HETATM   22  C26 UNL     1     -10.422  14.946  30.570  1.00  0.00     0.045 C 
HETATM   23  C27 UNL     1     -10.288  14.183  29.256  1.00  0.00     0.273 C 
BRANCH  21  24
HETATM   24  C23 UNL     1     -11.687  15.206  32.598  1.00  0.00     0.263 C 
HETATM   25  O1  UNL     1     -12.879  15.347  32.999  1.00  0.00    -0.265 OA
BRANCH  24  26
HETATM   26  O2  UNL     1     -10.728  16.016  33.192  1.00  0.00    -0.322 OA
BRANCH  26  27
HETATM   27  C24 UNL     1     -10.265  15.841  34.511  1.00  0.00     0.174 C 
HETATM   28  C25 UNL     1      -8.800  16.074  34.690  1.00  0.00     0.034 C 
ENDBRANCH  26  27
ENDBRANCH  24  26
ENDBRANCH  21  24
ENDBRANCH  17  18
ENDBRANCH  16  17
ENDBRANCH  15  16
ENDBRANCH  14  15
ENDBRANCH  12  14
ENDBRANCH  10  12
ENDBRANCH   8  10
ENDBRANCH   7   8
BRANCH   1  29
HETATM   29  N4  UNL     1      -5.563  16.668  24.153  1.00  0.00    -0.368 N 
ATOM     30  H4  UNL     1      -5.317  15.715  24.418  1.00  0.00     0.161 HD
BRANCH  29  31
HETATM   31  C7  UNL     1      -5.529  16.921  22.923  1.00  0.00     0.118 A 
HETATM   32  C6  UNL     1      -4.395  17.271  22.253  1.00  0.00     0.136 A 
HETATM   33  N3  UNL     1      -4.412  17.529  20.905  1.00  0.00    -0.358 N 
HETATM   34  C5  UNL     1      -5.554  17.441  20.215  1.00  0.00     0.095 A 
ATOM     35  H3  UNL     1      -3.549  17.789  20.427  1.00  0.00     0.165 HD
HETATM   36  C4  UNL     1      -5.887  17.635  18.885  1.00  0.00     0.140 A 
HETATM   37  C28 UNL     1      -6.719  17.091  20.857  1.00  0.00     0.152 A 
HETATM   38  N2  UNL     1      -7.208  17.405  18.753  1.00  0.00    -0.305 N 
HETATM   39  N1  UNL     1      -7.719  17.078  19.927  1.00  0.00    -0.272 N 
ATOM     40  H2  UNL     1      -7.733  17.473  17.881  1.00  0.00     0.186 HD
HETATM   41  N8  UNL     1      -6.675  16.845  22.169  1.00  0.00    -0.325 N 
ATOM     42  H8  UNL     1      -7.543  16.586  22.639  1.00  0.00     0.169 HD
BRANCH  39  43
HETATM   43  C3  UNL     1      -9.085  16.747  20.278  1.00  0.00     0.177 C 
BRANCH  43  44
HETATM   44  C2  UNL     1      -9.450  15.357  20.006  1.00  0.00    -0.015 C 
HETATM   45  C1  UNL     1      -9.808  14.979  18.792  1.00  0.00     0.008 C 
ENDBRANCH  43  44
ENDBRANCH  39  43
ENDBRANCH  29  31
ENDBRANCH   1  29
TORSDOF 15
ENDMDL
MODEL 3
REMARK VINA RESULT: -8.148943319      2.627      7.362
REMARK  15 active torsions:
REMARK  status: ('A' for Active; 'I' for Inactive)
REMARK    1  A    between atoms: C2_2  and  C3_3 
REMARK    2  A    between atoms: C3_3  and  N1_4 
REMARK    3  A    between atoms: C7_12  and  N4_13 
REMARK    4  A    between atoms: N4_13  and  C8_15 
REMARK    5  A    between atoms: C14_21  and  N5_22 
REMARK    6  A    between atoms: N5_22  and  C15_24 
REMARK    7  A    between atoms: C15_24  and  N6_26 
REMARK    8  A    between atoms: N6_26  and  C16_28 
REMARK    9  A    between atoms: C16_28  and  C17_29 
REMARK   10  A    between atoms: C17_29  and  C18_30 
REMARK   11  A    between atoms: C18_30  and  C19_31 
REMARK   12  A    between atoms: C19_31  and  N7_32 
REMARK   13  A    between atoms: C22_35  and  C23_36 
REMARK   14  A    between atoms: C23_36  and  O2_38 
REMARK   15  A    between atoms: O2_38  and  C24_39 
ROOT
HETATM    1  C8  UNL     1      -9.431  17.121  25.611  1.00  0.00     0.110 C 
HETATM    2  C9  UNL     1      -9.867  16.401  24.339  1.00  0.00     0.011 C 
HETATM    3  C10 UNL     1      -8.792  16.568  23.322  1.00  0.00     0.007 C 
HETATM    4  C11 UNL     1      -7.652  15.730  23.864  1.00  0.00     0.007 C 
HETATM    5  C12 UNL     1      -8.160  15.166  25.174  1.00  0.00     0.011 C 
HETATM    6  C13 UNL     1      -9.639  14.965  24.798  1.00  0.00     0.013 C 
HETATM    7  C14 UNL     1      -8.251  16.281  26.150  1.00  0.00     0.111 C 
ENDROOT
BRANCH   7   8
HETATM    8  N5  UNL     1      -7.068  17.091  26.223  1.00  0.00    -0.360 N 
ATOM      9  H5  UNL     1      -6.963  17.896  25.604  1.00  0.00     0.162 HD
BRANCH   8  10
HETATM   10  C15 UNL     1      -6.050  16.778  27.150  1.00  0.00     0.168 C 
HETATM   11  S1  UNL     1      -6.363  16.823  28.747  1.00  0.00    -0.041 SA
BRANCH  10  12
HETATM   12  N6  UNL     1      -4.732  16.425  26.700  1.00  0.00    -0.367 N 
ATOM     13  H6  UNL     1      -4.359  15.494  26.890  1.00  0.00     0.161 HD
BRANCH  12  14
HETATM   14  C16 UNL     1      -3.943  17.382  25.983  1.00  0.00     0.122 C 
BRANCH  14  15
HETATM   15  C17 UNL     1      -3.629  16.881  24.597  1.00  0.00     0.021 C 
BRANCH  15  16
HETATM   16  C18 UNL     1      -2.794  17.936  23.876  1.00  0.00     0.032 C 
BRANCH  16  17
HETATM   17  C19 UNL     1      -2.678  17.530  22.425  1.00  0.00     0.272 C 
BRANCH  17  18
HETATM   18  N7  UNL     1      -3.957  17.417  21.793  1.00  0.00     0.088 N 
HETATM   19  C20 UNL     1      -4.668  18.652  21.674  1.00  0.00     0.273 C 
HETATM   20  C21 UNL     1      -6.122  18.288  21.371  1.00  0.00     0.045 C 
HETATM   21  C22 UNL     1      -6.151  17.547  20.069  1.00  0.00     0.089 C 
HETATM   22  C26 UNL     1      -5.270  16.330  20.044  1.00  0.00     0.045 C 
HETATM   23  C27 UNL     1      -3.887  16.635  20.612  1.00  0.00     0.273 C 
BRANCH  21  24
HETATM   24  C23 UNL     1      -7.554  17.060  19.870  1.00  0.00     0.263 C 
HETATM   25  O1  UNL     1      -8.546  17.845  19.878  1.00  0.00    -0.265 OA
BRANCH  24  26
HETATM   26  O2  UNL     1      -7.824  15.713  19.667  1.00  0.00    -0.322 OA
BRANCH  26  27
HETATM   27  C24 UNL     1      -9.070  15.115  19.941  1.00  0.00     0.174 C 
HETATM   28  C25 UNL     1      -9.919  14.870  18.736  1.00  0.00     0.034 C 
ENDBRANCH  26  27
ENDBRANCH  24  26
ENDBRANCH  21  24
ENDBRANCH  17  18
ENDBRANCH  16  17
ENDBRANCH  15  16
ENDBRANCH  14  15
ENDBRANCH  12  14
ENDBRANCH  10  12
ENDBRANCH   8  10
ENDBRANCH   7   8
BRANCH   1  29
HETATM   29  N4  UNL     1     -10.458  17.223  26.560  1.00  0.00    -0.368 N 
ATOM     30  H4  UNL     1     -11.218  17.862  26.327  1.00  0.00     0.161 HD
BRANCH  29  31
HETATM   31  C7  UNL     1     -10.561  16.628  27.661  1.00  0.00     0.118 A 
HETATM   32  C6  UNL     1     -10.261  17.199  28.861  1.00  0.00     0.136 A 
HETATM   33  N3  UNL     1     -10.400  16.503  30.038  1.00  0.00    -0.358 N 
HETATM   34  C5  UNL     1     -10.835  15.240  30.027  1.00  0.00     0.095 A 
ATOM     35  H3  UNL     1     -10.169  16.954  30.923  1.00  0.00     0.165 HD
HETATM   36  C4  UNL     1     -11.072  14.300  31.017  1.00  0.00     0.140 A 
HETATM   37  C28 UNL     1     -11.147  14.630  28.834  1.00  0.00     0.152 A 
HETATM   38  N2  UNL     1     -11.509  13.174  30.420  1.00  0.00    -0.305 N 
HETATM   39  N1  UNL     1     -11.558  13.357  29.113  1.00  0.00    -0.272 N 
ATOM     40  H2  UNL     1     -11.763  12.313  30.903  1.00  0.00     0.186 HD
HETATM   41  N8  UNL     1     -11.003  15.328  27.704  1.00  0.00    -0.325 N 
ATOM     42  H8  UNL     1     -11.236  14.869  26.824  1.00  0.00     0.169 HD
BRANCH  39  43
HETATM   43  C3  UNL     1     -11.961  12.440  28.067  1.00  0.00     0.177 C 
BRANCH  43  44
HETATM   44  C2  UNL     1     -13.403  12.415  27.819  1.00  0.00    -0.015 C 
HETATM   45  C1  UNL     1     -13.883  12.650  26.611  1.00  0.00     0.008 C 
ENDBRANCH  43  44
ENDBRANCH  39  43
ENDBRANCH  29  31
ENDBRANCH   1  29
TORSDOF 15
ENDMDL
MODEL 4
REMARK VINA RESULT: -8.133374331      3.584      6.953
REMARK  15 active torsions:
REMARK  status: ('A' for Active; 'I' for Inactive)
REMARK    1  A    between atoms: C2_2  and  C3_3 
REMARK    2  A    between atoms: C3_3  and  N1_4 
REMARK    3  A    between atoms: C7_12  and  N4_13 
REMARK    4  A    between atoms: N4_13  and  C8_15 
REMARK    5  A    between atoms: C14_21  and  N5_22 
REMARK    6  A    between atoms: N5_22  and  C15_24 
REMARK    7  A    between atoms: C15_24  and  N6_26 
REMARK    8  A    between atoms: N6_26  and  C16_28 
REMARK    9  A    between atoms: C16_28  and  C17_29 
REMARK   10  A    between atoms: C17_29  and  C18_30 
REMARK   11  A    between atoms: C18_30  and  C19_31 
REMARK   12  A    between atoms: C19_31  and  N7_32 
REMARK   13  A    between atoms: C22_35  and  C23_36 
REMARK   14  A    between atoms: C23_36  and  O2_38 
REMARK   15  A    between atoms: O2_38  and  C24_39 
ROOT
HETATM    1  C8  UNL     1     -10.040  16.725  28.590  1.00  0.00     0.110 C 
HETATM    2  C9  UNL     1      -9.342  16.653  29.944  1.00  0.00     0.011 C 
HETATM    3  C10 UNL     1     -10.170  15.807  30.847  1.00  0.00     0.007 C 
HETATM    4  C11 UNL     1     -10.022  14.414  30.267  1.00  0.00     0.007 C 
HETATM    5  C12 UNL     1      -9.134  14.581  29.052  1.00  0.00     0.011 C 
HETATM    6  C13 UNL     1      -8.213  15.699  29.572  1.00  0.00     0.013 C 
HETATM    7  C14 UNL     1      -9.912  15.298  28.010  1.00  0.00     0.111 C 
ENDROOT
BRANCH   7   8
HETATM    8  N5  UNL     1     -11.217  14.749  27.773  1.00  0.00    -0.360 N 
ATOM      9  H5  UNL     1     -11.989  14.985  28.397  1.00  0.00     0.162 HD
BRANCH   8  10
HETATM   10  C15 UNL     1     -11.434  13.883  26.679  1.00  0.00     0.168 C 
HETATM   11  S1  UNL     1     -11.343  14.457  25.158  1.00  0.00    -0.041 SA
BRANCH  10  12
HETATM   12  N6  UNL     1     -11.744  12.496  26.891  1.00  0.00    -0.367 N 
ATOM     13  H6  UNL     1     -11.699  11.837  26.113  1.00  0.00     0.161 HD
BRANCH  12  14
HETATM   14  C16 UNL     1     -12.117  12.041  28.197  1.00  0.00     0.122 C 
BRANCH  14  15
HETATM   15  C17 UNL     1     -13.614  12.066  28.362  1.00  0.00     0.021 C 
BRANCH  15  16
HETATM   16  C18 UNL     1     -13.962  13.012  29.509  1.00  0.00     0.032 C 
BRANCH  16  17
HETATM   17  C19 UNL     1     -13.991  12.207  30.788  1.00  0.00     0.272 C 
BRANCH  17  18
HETATM   18  N7  UNL     1     -13.299  12.863  31.853  1.00  0.00     0.088 N 
HETATM   19  C20 UNL     1     -13.760  14.189  32.130  1.00  0.00     0.273 C 
HETATM   20  C21 UNL     1     -12.675  14.858  32.975  1.00  0.00     0.045 C 
HETATM   21  C22 UNL     1     -12.539  14.082  34.249  1.00  0.00     0.089 C 
HETATM   22  C26 UNL     1     -12.243  12.623  34.042  1.00  0.00     0.045 C 
HETATM   23  C27 UNL     1     -13.158  12.017  32.983  1.00  0.00     0.273 C 
BRANCH  21  24
HETATM   24  C23 UNL     1     -11.367  14.652  34.989  1.00  0.00     0.263 C 
HETATM   25  O1  UNL     1     -10.644  13.945  35.751  1.00  0.00    -0.265 OA
BRANCH  24  26
HETATM   26  O2  UNL     1     -11.023  15.991  34.867  1.00  0.00    -0.322 OA
BRANCH  26  27
HETATM   27  C24 UNL     1      -9.835  16.442  34.259  1.00  0.00     0.174 C 
HETATM   28  C25 UNL     1      -8.587  16.108  35.011  1.00  0.00     0.034 C 
ENDBRANCH  26  27
ENDBRANCH  24  26
ENDBRANCH  21  24
ENDBRANCH  17  18
ENDBRANCH  16  17
ENDBRANCH  15  16
ENDBRANCH  14  15
ENDBRANCH  12  14
ENDBRANCH  10  12
ENDBRANCH   8  10
ENDBRANCH   7   8
BRANCH   1  29
HETATM   29  N4  UNL     1      -9.470  17.676  27.731  1.00  0.00    -0.368 N 
ATOM     30  H4  UNL     1      -9.532  18.646  28.038  1.00  0.00     0.161 HD
BRANCH  29  31
HETATM   31  C7  UNL     1      -8.892  17.483  26.633  1.00  0.00     0.118 A 
HETATM   32  C6  UNL     1      -9.519  17.557  25.425  1.00  0.00     0.136 A 
HETATM   33  N3  UNL     1      -8.837  17.346  24.252  1.00  0.00    -0.358 N 
HETATM   34  C5  UNL     1      -7.531  17.060  24.273  1.00  0.00     0.095 A 
ATOM     35  H3  UNL     1      -9.329  17.407  23.361  1.00  0.00     0.165 HD
HETATM   36  C4  UNL     1      -6.592  16.801  23.289  1.00  0.00     0.140 A 
HETATM   37  C28 UNL     1      -6.864  16.976  25.474  1.00  0.00     0.152 A 
HETATM   38  N2  UNL     1      -5.411  16.572  23.897  1.00  0.00    -0.305 N 
HETATM   39  N1  UNL     1      -5.560  16.674  25.205  1.00  0.00    -0.272 N 
ATOM     40  H2  UNL     1      -4.536  16.354  23.419  1.00  0.00     0.186 HD
HETATM   41  N8  UNL     1      -7.551  17.186  26.600  1.00  0.00    -0.325 N 
ATOM     42  H8  UNL     1      -7.051  17.122  27.486  1.00  0.00     0.169 HD
BRANCH  39  43
HETATM   43  C3  UNL     1      -4.581  16.512  26.261  1.00  0.00     0.177 C 
BRANCH  43  44
HETATM   44  C2  UNL     1      -3.925  17.757  26.661  1.00  0.00    -0.015 C 
HETATM   45  C1  UNL     1      -4.060  18.226  27.888  1.00  0.00     0.008 C 
ENDBRANCH  43  44
ENDBRANCH  39  43
ENDBRANCH  29  31
ENDBRANCH   1  29
TORSDOF 15
ENDMDL
MODEL 5
REMARK VINA RESULT: -8.048791389      3.941      8.217
REMARK  15 active torsions:
REMARK  status: ('A' for Active; 'I' for Inactive)
REMARK    1  A    between atoms: C2_2  and  C3_3 
REMARK    2  A    between atoms: C3_3  and  N1_4 
REMARK    3  A    between atoms: C7_12  and  N4_13 
REMARK    4  A    between atoms: N4_13  and  C8_15 
REMARK    5  A    between atoms: C14_21  and  N5_22 
REMARK    6  A    between atoms: N5_22  and  C15_24 
REMARK    7  A    between atoms: C15_24  and  N6_26 
REMARK    8  A    between atoms: N6_26  and  C16_28 
REMARK    9  A    between atoms: C16_28  and  C17_29 
REMARK   10  A    between atoms: C17_29  and  C18_30 
REMARK   11  A    between atoms: C18_30  and  C19_31 
REMARK   12  A    between atoms: C19_31  and  N7_32 
REMARK   13  A    between atoms: C22_35  and  C23_36 
REMARK   14  A    between atoms: C23_36  and  O2_38 
REMARK   15  A    between atoms: O2_38  and  C24_39 
ROOT
HETATM    1  C8  UNL     1      -5.790  17.557  25.307  1.00  0.00     0.110 C 
HETATM    2  C9  UNL     1      -4.622  17.697  26.278  1.00  0.00     0.011 C 
HETATM    3  C10 UNL     1      -4.932  18.811  27.216  1.00  0.00     0.007 C 
HETATM    4  C11 UNL     1      -6.067  18.264  28.059  1.00  0.00     0.007 C 
HETATM    5  C12 UNL     1      -6.335  16.878  27.514  1.00  0.00     0.011 C 
HETATM    6  C13 UNL     1      -4.897  16.475  27.147  1.00  0.00     0.013 C 
HETATM    7  C14 UNL     1      -6.955  17.024  26.172  1.00  0.00     0.111 C 
ENDROOT
BRANCH   7   8
HETATM    8  N5  UNL     1      -8.054  17.947  26.133  1.00  0.00    -0.360 N 
ATOM      9  H5  UNL     1      -7.876  18.945  26.016  1.00  0.00     0.162 HD
BRANCH   8  10
HETATM   10  C15 UNL     1      -9.379  17.477  26.257  1.00  0.00     0.168 C 
HETATM   11  S1  UNL     1     -10.075  17.385  27.726  1.00  0.00    -0.041 SA
BRANCH  10  12
HETATM   12  N6  UNL     1     -10.124  17.068  25.098  1.00  0.00    -0.367 N 
ATOM     13  H6  UNL     1     -10.878  17.655  24.741  1.00  0.00     0.161 HD
BRANCH  12  14
HETATM   14  C16 UNL     1      -9.804  15.833  24.444  1.00  0.00     0.122 C 
BRANCH  14  15
HETATM   15  C17 UNL     1     -10.017  14.668  25.376  1.00  0.00     0.021 C 
BRANCH  15  16
HETATM   16  C18 UNL     1     -11.516  14.495  25.605  1.00  0.00     0.032 C 
BRANCH  16  17
HETATM   17  C19 UNL     1     -11.741  13.137  26.227  1.00  0.00     0.272 C 
BRANCH  17  18
HETATM   18  N7  UNL     1     -12.340  13.230  27.523  1.00  0.00     0.088 N 
HETATM   19  C20 UNL     1     -11.408  13.217  28.607  1.00  0.00     0.273 C 
HETATM   20  C21 UNL     1     -12.215  12.914  29.870  1.00  0.00     0.045 C 
HETATM   21  C22 UNL     1     -13.212  14.017  30.057  1.00  0.00     0.089 C 
HETATM   22  C26 UNL     1     -14.114  14.227  28.874  1.00  0.00     0.045 C 
HETATM   23  C27 UNL     1     -13.321  14.254  27.571  1.00  0.00     0.273 C 
BRANCH  21  24
HETATM   24  C23 UNL     1     -14.097  13.622  31.200  1.00  0.00     0.263 C 
HETATM   25  O1  UNL     1     -14.893  12.640  31.127  1.00  0.00    -0.265 OA
BRANCH  24  26
HETATM   26  O2  UNL     1     -14.079  14.324  32.398  1.00  0.00    -0.322 OA
BRANCH  26  27
HETATM   27  C24 UNL     1     -12.910  14.567  33.146  1.00  0.00     0.174 C 
HETATM   28  C25 UNL     1     -12.251  13.338  33.684  1.00  0.00     0.034 C 
ENDBRANCH  26  27
ENDBRANCH  24  26
ENDBRANCH  21  24
ENDBRANCH  17  18
ENDBRANCH  16  17
ENDBRANCH  15  16
ENDBRANCH  14  15
ENDBRANCH  12  14
ENDBRANCH  10  12
ENDBRANCH   8  10
ENDBRANCH   7   8
BRANCH   1  29
HETATM   29  N4  UNL     1      -5.512  16.691  24.240  1.00  0.00    -0.368 N 
ATOM     30  H4  UNL     1      -5.302  15.726  24.493  1.00  0.00     0.161 HD
BRANCH  29  31
HETATM   31  C7  UNL     1      -5.490  16.953  23.012  1.00  0.00     0.118 A 
HETATM   32  C6  UNL     1      -4.363  17.311  22.334  1.00  0.00     0.136 A 
HETATM   33  N3  UNL     1      -4.393  17.580  20.988  1.00  0.00    -0.358 N 
HETATM   34  C5  UNL     1      -5.541  17.495  20.309  1.00  0.00     0.095 A 
ATOM     35  H3  UNL     1      -3.535  17.845  20.505  1.00  0.00     0.165 HD
HETATM   36  C4  UNL     1      -5.886  17.698  18.983  1.00  0.00     0.140 A 
HETATM   37  C28 UNL     1      -6.699  17.136  20.959  1.00  0.00     0.152 A 
HETATM   38  N2  UNL     1      -7.208  17.466  18.862  1.00  0.00    -0.305 N 
HETATM   39  N1  UNL     1      -7.708  17.129  20.037  1.00  0.00    -0.272 N 
ATOM     40  H2  UNL     1      -7.741  17.539  17.995  1.00  0.00     0.186 HD
HETATM   41  N8  UNL     1      -6.643  16.881  22.268  1.00  0.00    -0.325 N 
ATOM     42  H8  UNL     1      -7.506  16.616  22.744  1.00  0.00     0.169 HD
BRANCH  39  43
HETATM   43  C3  UNL     1      -9.069  16.792  20.399  1.00  0.00     0.177 C 
BRANCH  43  44
HETATM   44  C2  UNL     1      -9.431  15.401  20.128  1.00  0.00    -0.015 C 
HETATM   45  C1  UNL     1      -9.745  15.011  18.906  1.00  0.00     0.008 C 
ENDBRANCH  43  44
ENDBRANCH  39  43
ENDBRANCH  29  31
ENDBRANCH   1  29
TORSDOF 15
ENDMDL
