MODEL 1
REMARK VINA RESULT: -9.228979269      0.000      0.000
REMARK  12 active torsions:
REMARK  status: ('A' for Active; 'I' for Inactive)
REMARK    1  A    between atoms: C2_2  and  C3_3 
REMARK    2  A    between atoms: C3_3  and  N1_4 
REMARK    3  A    between atoms: N1_4  and  C4_6 
REMARK    4  A    between atoms: N3_10  and  C6_12 
REMARK    5  A    between atoms: C6_12  and  C7_13 
REMARK    6  A    between atoms: C7_13  and  N4_14 
REMARK    7  A    between atoms: N5_17  and  C10_18 
REMARK    8  A    between atoms: C10_18  and  C11_19 
REMARK    9  A    between atoms: N7_32  and  C22_33 
REMARK   10  A    between atoms: C22_33  and  C23_34 
REMARK   11  A    between atoms: C23_34  and  N8_35 
REMARK       I    between atoms: N8_35  and  C24_37 
REMARK   12  A    between atoms: C24_37  and  C25_39 
ROOT
HETATM    1  C4  UNL     1      -9.525  14.469  30.896  1.00  0.00     0.681 A 
HETATM    2  N2  UNL     1      -8.862  15.394  30.188  1.00  0.00    -0.175 N 
ATOM      3  H2  UNL     1      -7.934  15.662  30.517  1.00  0.00     0.186 HD
HETATM    4  C5  UNL     1      -9.323  15.993  29.084  1.00  0.00     0.147 A 
HETATM    5  N3  UNL     1      -8.743  16.862  28.375  1.00  0.00    -0.372 N 
ATOM      6  H3  UNL     1      -9.275  17.193  27.570  1.00  0.00     0.161 HD
HETATM    7  C20 UNL     1     -10.603  15.603  28.657  1.00  0.00     0.123 A 
HETATM    8  N6  UNL     1     -11.379  15.957  27.619  1.00  0.00    -0.346 N 
ATOM      9  H6  UNL     1     -11.123  16.648  26.914  1.00  0.00     0.167 HD
HETATM   10  C21 UNL     1     -12.543  15.273  27.636  1.00  0.00     0.185 A 
HETATM   11  N7  UNL     1     -12.497  14.476  28.707  1.00  0.00    -0.325 N 
HETATM   12  C29 UNL     1     -11.320  14.654  29.353  1.00  0.00     0.155 A 
HETATM   13  N9  UNL     1     -10.768  14.114  30.450  1.00  0.00    -0.174 N 
ATOM     14  H9  UNL     1     -11.295  13.412  30.970  1.00  0.00     0.186 HD
ENDROOT
BRANCH   5  15
HETATM   15  C6  UNL     1      -7.447  17.452  28.535  1.00  0.00     0.140 C 
BRANCH  15  16
HETATM   16  C7  UNL     1      -6.430  16.566  27.876  1.00  0.00     0.137 C 
BRANCH  16  17
HETATM   17  N4  UNL     1      -5.490  17.284  27.061  1.00  0.00    -0.405 N 
HETATM   18  C8  UNL     1      -4.751  16.410  26.167  1.00  0.00     0.137 C 
HETATM   19  C9  UNL     1      -5.516  16.513  24.834  1.00  0.00     0.146 C 
HETATM   20  N5  UNL     1      -5.372  17.807  24.283  1.00  0.00    -0.370 N 
HETATM   21  C18 UNL     1      -5.336  18.883  25.174  1.00  0.00     0.082 C 
HETATM   22  C19 UNL     1      -5.948  18.494  26.494  1.00  0.00     0.161 C 
BRANCH  20  23
HETATM   23  C10 UNL     1      -5.540  17.996  22.910  1.00  0.00     0.068 C 
BRANCH  23  24
HETATM   24  C11 UNL     1      -6.534  17.056  22.263  1.00  0.00     0.024 C 
HETATM   25  C12 UNL     1      -7.951  17.508  22.575  1.00  0.00     0.010 C 
HETATM   26  C13 UNL     1      -8.908  16.348  22.338  1.00  0.00     0.001 C 
HETATM   27  C14 UNL     1      -8.899  15.886  20.904  1.00  0.00     0.000 C 
HETATM   28  C15 UNL     1      -7.704  15.003  20.690  1.00  0.00     0.000 C 
HETATM   29  C16 UNL     1      -6.503  15.723  20.133  1.00  0.00     0.001 C 
HETATM   30  C17 UNL     1      -6.284  17.063  20.765  1.00  0.00     0.010 C 
ENDBRANCH  23  24
ENDBRANCH  20  23
ENDBRANCH  16  17
ENDBRANCH  15  16
ENDBRANCH   5  15
BRANCH   1  31
HETATM   31  N1  UNL     1      -9.040  13.909  31.954  1.00  0.00    -0.226 N 
ATOM     32  H1  UNL     1      -8.360  13.166  31.796  1.00  0.00     0.177 HD
BRANCH  31  33
HETATM   33  C3  UNL     1      -9.336  14.201  33.307  1.00  0.00     0.137 C 
BRANCH  33  34
HETATM   34  C2  UNL     1      -9.254  15.717  33.554  1.00  0.00     0.016 C 
HETATM   35  C1  UNL     1      -8.730  16.032  34.917  1.00  0.00     0.006 C 
ENDBRANCH  33  34
ENDBRANCH  31  33
ENDBRANCH   1  31
BRANCH  11  36
HETATM   36  C22 UNL     1     -13.524  13.569  29.133  1.00  0.00     0.151 C 
BRANCH  36  37
HETATM   37  C23 UNL     1     -14.334  14.150  30.266  1.00  0.00     0.143 C 
BRANCH  37  38
HETATM   38  N8  UNL     1     -14.135  13.482  31.516  1.00  0.00    -0.354 N 
HETATM   39  C24 UNL     1     -13.447  14.152  32.555  1.00  0.00     0.275 C 
HETATM   40  O1  UNL     1     -13.012  15.317  32.396  1.00  0.00    -0.265 OA
ATOM     41  H8  UNL     1     -14.485  12.534  31.656  1.00  0.00     0.162 HD
BRANCH  39  42
HETATM   42  C25 UNL     1     -13.246  13.465  33.825  1.00  0.00     0.142 A 
HETATM   43  C26 UNL     1     -12.466  13.897  34.873  1.00  0.00     0.045 A 
HETATM   44  C27 UNL     1     -12.575  12.948  35.848  1.00  0.00     0.027 A 
HETATM   45  C28 UNL     1     -13.415  11.974  35.363  1.00  0.00     0.143 A 
HETATM   46  O2  UNL     1     -13.786  12.321  34.168  1.00  0.00    -0.317 OA
ENDBRANCH  39  42
ENDBRANCH  37  38
ENDBRANCH  36  37
ENDBRANCH  11  36
TORSDOF 12
ENDMDL
MODEL 2
REMARK VINA RESULT: -9.072335746      3.998     10.971
REMARK  12 active torsions:
REMARK  status: ('A' for Active; 'I' for Inactive)
REMARK    1  A    between atoms: C2_2  and  C3_3 
REMARK    2  A    between atoms: C3_3  and  N1_4 
REMARK    3  A    between atoms: N1_4  and  C4_6 
REMARK    4  A    between atoms: N3_10  and  C6_12 
REMARK    5  A    between atoms: C6_12  and  C7_13 
REMARK    6  A    between atoms: C7_13  and  N4_14 
REMARK    7  A    between atoms: N5_17  and  C10_18 
REMARK    8  A    between atoms: C10_18  and  C11_19 
REMARK    9  A    between atoms: N7_32  and  C22_33 
REMARK   10  A    between atoms: C22_33  and  C23_34 
REMARK   11  A    between atoms: C23_34  and  N8_35 
REMARK       I    between atoms: N8_35  and  C24_37 
REMARK   12  A    between atoms: C24_37  and  C25_39 
ROOT
HETATM    1  C4  UNL     1      -7.236  17.234  25.616  1.00  0.00     0.681 A 
HETATM    2  N2  UNL     1      -8.234  16.345  25.708  1.00  0.00    -0.175 N 
ATOM      3  H2  UNL     1      -8.457  15.984  26.636  1.00  0.00     0.186 HD
HETATM    4  C5  UNL     1      -8.960  15.893  24.679  1.00  0.00     0.147 A 
HETATM    5  N3  UNL     1      -9.912  15.065  24.707  1.00  0.00    -0.372 N 
ATOM      6  H3  UNL     1     -10.333  14.854  23.802  1.00  0.00     0.161 HD
HETATM    7  C20 UNL     1      -8.628  16.409  23.415  1.00  0.00     0.123 A 
HETATM    8  N6  UNL     1      -9.119  16.215  22.180  1.00  0.00    -0.346 N 
ATOM      9  H6  UNL     1      -9.889  15.584  21.955  1.00  0.00     0.167 HD
HETATM   10  C21 UNL     1      -8.457  16.968  21.277  1.00  0.00     0.185 A 
HETATM   11  N7  UNL     1      -7.530  17.648  21.960  1.00  0.00    -0.325 N 
HETATM   12  C29 UNL     1      -7.610  17.327  23.272  1.00  0.00     0.155 A 
HETATM   13  N9  UNL     1      -6.942  17.715  24.369  1.00  0.00    -0.174 N 
ATOM     14  H9  UNL     1      -6.186  18.393  24.269  1.00  0.00     0.186 HD
ENDROOT
BRANCH   5  15
HETATM   15  C6  UNL     1     -10.489  14.378  25.824  1.00  0.00     0.140 C 
BRANCH  15  16
HETATM   16  C7  UNL     1     -11.799  15.026  26.165  1.00  0.00     0.137 C 
BRANCH  16  17
HETATM   17  N4  UNL     1     -11.877  15.477  27.527  1.00  0.00    -0.405 N 
HETATM   18  C8  UNL     1     -12.365  14.447  28.425  1.00  0.00     0.137 C 
HETATM   19  C9  UNL     1     -11.082  13.839  29.024  1.00  0.00     0.146 C 
HETATM   20  N5  UNL     1     -10.438  14.778  29.861  1.00  0.00    -0.370 N 
HETATM   21  C18 UNL     1     -10.481  16.121  29.472  1.00  0.00     0.082 C 
HETATM   22  C19 UNL     1     -10.780  16.232  27.999  1.00  0.00     0.161 C 
BRANCH  20  23
HETATM   23  C10 UNL     1      -9.574  14.333  30.863  1.00  0.00     0.068 C 
BRANCH  23  24
HETATM   24  C11 UNL     1      -9.938  14.798  32.257  1.00  0.00     0.024 C 
HETATM   25  C12 UNL     1     -11.233  14.139  32.700  1.00  0.00     0.010 C 
HETATM   26  C13 UNL     1     -11.826  14.932  33.856  1.00  0.00     0.001 C 
HETATM   27  C14 UNL     1     -10.914  14.960  35.055  1.00  0.00     0.000 C 
HETATM   28  C15 UNL     1      -9.853  15.997  34.828  1.00  0.00     0.000 C 
HETATM   29  C16 UNL     1      -8.569  15.445  34.262  1.00  0.00     0.001 C 
HETATM   30  C17 UNL     1      -8.798  14.426  33.189  1.00  0.00     0.010 C 
ENDBRANCH  23  24
ENDBRANCH  20  23
ENDBRANCH  16  17
ENDBRANCH  15  16
ENDBRANCH   5  15
BRANCH   1  31
HETATM   31  N1  UNL     1      -6.564  17.650  26.637  1.00  0.00    -0.226 N 
ATOM     32  H1  UNL     1      -5.909  18.412  26.463  1.00  0.00     0.177 HD
BRANCH  31  33
HETATM   33  C3  UNL     1      -6.625  17.176  27.970  1.00  0.00     0.137 C 
BRANCH  33  34
HETATM   34  C2  UNL     1      -5.206  16.938  28.515  1.00  0.00     0.016 C 
HETATM   35  C1  UNL     1      -4.283  18.061  28.173  1.00  0.00     0.006 C 
ENDBRANCH  33  34
ENDBRANCH  31  33
ENDBRANCH   1  31
BRANCH  11  36
HETATM   36  C22 UNL     1      -6.581  18.572  21.409  1.00  0.00     0.151 C 
BRANCH  36  37
HETATM   37  C23 UNL     1      -5.475  17.852  20.677  1.00  0.00     0.143 C 
BRANCH  37  38
HETATM   38  N8  UNL     1      -4.163  18.310  21.023  1.00  0.00    -0.354 N 
HETATM   39  C24 UNL     1      -3.572  17.863  22.229  1.00  0.00     0.275 C 
HETATM   40  O1  UNL     1      -4.178  17.075  22.993  1.00  0.00    -0.265 OA
ATOM     41  H8  UNL     1      -3.661  18.951  20.409  1.00  0.00     0.162 HD
BRANCH  39  42
HETATM   42  C25 UNL     1      -2.237  18.334  22.576  1.00  0.00     0.142 A 
HETATM   43  C26 UNL     1      -1.539  18.036  23.723  1.00  0.00     0.045 A 
HETATM   44  C27 UNL     1      -0.343  18.687  23.623  1.00  0.00     0.027 A 
HETATM   45  C28 UNL     1      -0.354  19.357  22.424  1.00  0.00     0.143 A 
HETATM   46  O2  UNL     1      -1.490  19.120  21.841  1.00  0.00    -0.317 OA
ENDBRANCH  39  42
ENDBRANCH  37  38
ENDBRANCH  36  37
ENDBRANCH  11  36
TORSDOF 12
ENDMDL
MODEL 3
REMARK VINA RESULT: -8.979779152      2.470      4.936
REMARK  12 active torsions:
REMARK  status: ('A' for Active; 'I' for Inactive)
REMARK    1  A    between atoms: C2_2  and  C3_3 
REMARK    2  A    between atoms: C3_3  and  N1_4 
REMARK    3  A    between atoms: N1_4  and  C4_6 
REMARK    4  A    between atoms: N3_10  and  C6_12 
REMARK    5  A    between atoms: C6_12  and  C7_13 
REMARK    6  A    between atoms: C7_13  and  N4_14 
REMARK    7  A    between atoms: N5_17  and  C10_18 
REMARK    8  A    between atoms: C10_18  and  C11_19 
REMARK    9  A    between atoms: N7_32  and  C22_33 
REMARK   10  A    between atoms: C22_33  and  C23_34 
REMARK   11  A    between atoms: C23_34  and  N8_35 
REMARK       I    between atoms: N8_35  and  C24_37 
REMARK   12  A    between atoms: C24_37  and  C25_39 
ROOT
HETATM    1  C4  UNL     1      -8.164  15.404  27.375  1.00  0.00     0.681 A 
HETATM    2  N2  UNL     1      -8.296  15.650  26.065  1.00  0.00    -0.175 N 
ATOM      3  H2  UNL     1      -7.564  16.200  25.614  1.00  0.00     0.186 HD
HETATM    4  C5  UNL     1      -9.313  15.232  25.302  1.00  0.00     0.147 A 
HETATM    5  N3  UNL     1      -9.485  15.426  24.066  1.00  0.00    -0.372 N 
ATOM      6  H3  UNL     1     -10.334  15.018  23.676  1.00  0.00     0.161 HD
HETATM    7  C20 UNL     1     -10.304  14.478  25.952  1.00  0.00     0.123 A 
HETATM    8  N6  UNL     1     -11.438  13.889  25.537  1.00  0.00    -0.346 N 
ATOM      9  H6  UNL     1     -11.787  13.915  24.579  1.00  0.00     0.167 HD
HETATM   10  C21 UNL     1     -12.052  13.257  26.560  1.00  0.00     0.185 A 
HETATM   11  N7  UNL     1     -11.288  13.455  27.638  1.00  0.00    -0.325 N 
HETATM   12  C29 UNL     1     -10.209  14.199  27.298  1.00  0.00     0.155 A 
HETATM   13  N9  UNL     1      -9.149  14.667  27.974  1.00  0.00    -0.174 N 
ATOM     14  H9  UNL     1      -9.074  14.465  28.971  1.00  0.00     0.186 HD
ENDROOT
BRANCH   5  15
HETATM   15  C6  UNL     1      -8.662  16.134  23.132  1.00  0.00     0.140 C 
BRANCH  15  16
HETATM   16  C7  UNL     1      -9.352  16.155  21.800  1.00  0.00     0.137 C 
BRANCH  16  17
HETATM   17  N4  UNL     1      -8.454  16.018  20.687  1.00  0.00    -0.405 N 
HETATM   18  C8  UNL     1      -8.240  17.274  19.991  1.00  0.00     0.137 C 
HETATM   19  C9  UNL     1      -6.925  17.809  20.590  1.00  0.00     0.146 C 
HETATM   20  N5  UNL     1      -5.840  16.988  20.207  1.00  0.00    -0.370 N 
HETATM   21  C18 UNL     1      -6.077  15.613  20.112  1.00  0.00     0.082 C 
HETATM   22  C19 UNL     1      -7.300  15.235  20.908  1.00  0.00     0.161 C 
BRANCH  20  23
HETATM   23  C10 UNL     1      -4.545  17.511  20.202  1.00  0.00     0.068 C 
BRANCH  23  24
HETATM   24  C11 UNL     1      -3.726  17.170  21.428  1.00  0.00     0.024 C 
HETATM   25  C12 UNL     1      -2.343  16.699  21.011  1.00  0.00     0.010 C 
HETATM   26  C13 UNL     1      -1.706  15.935  22.164  1.00  0.00     0.001 C 
HETATM   27  C14 UNL     1      -1.528  16.797  23.387  1.00  0.00     0.000 C 
HETATM   28  C15 UNL     1      -2.840  16.885  24.110  1.00  0.00     0.000 C 
HETATM   29  C16 UNL     1      -3.651  18.106  23.758  1.00  0.00     0.001 C 
HETATM   30  C17 UNL     1      -3.632  18.415  22.293  1.00  0.00     0.010 C 
ENDBRANCH  23  24
ENDBRANCH  20  23
ENDBRANCH  16  17
ENDBRANCH  15  16
ENDBRANCH   5  15
BRANCH   1  31
HETATM   31  N1  UNL     1      -7.162  15.822  28.074  1.00  0.00    -0.226 N 
ATOM     32  H1  UNL     1      -6.859  15.212  28.833  1.00  0.00     0.177 HD
BRANCH  31  33
HETATM   33  C3  UNL     1      -6.431  17.024  27.916  1.00  0.00     0.137 C 
BRANCH  33  34
HETATM   34  C2  UNL     1      -4.926  16.758  28.088  1.00  0.00     0.016 C 
HETATM   35  C1  UNL     1      -4.109  17.974  27.795  1.00  0.00     0.006 C 
ENDBRANCH  33  34
ENDBRANCH  31  33
ENDBRANCH   1  31
BRANCH  11  36
HETATM   36  C22 UNL     1     -11.552  12.973  28.964  1.00  0.00     0.151 C 
BRANCH  36  37
HETATM   37  C23 UNL     1     -12.376  13.961  29.753  1.00  0.00     0.143 C 
BRANCH  37  38
HETATM   38  N8  UNL     1     -11.868  14.212  31.068  1.00  0.00    -0.354 N 
HETATM   39  C24 UNL     1     -11.012  15.319  31.278  1.00  0.00     0.275 C 
HETATM   40  O1  UNL     1     -10.695  16.079  30.332  1.00  0.00    -0.265 OA
ATOM     41  H8  UNL     1     -12.119  13.600  31.844  1.00  0.00     0.162 HD
BRANCH  39  42
HETATM   42  C25 UNL     1     -10.497  15.568  32.618  1.00  0.00     0.142 A 
HETATM   43  C26 UNL     1      -9.196  15.865  32.951  1.00  0.00     0.045 A 
HETATM   44  C27 UNL     1      -9.173  16.020  34.307  1.00  0.00     0.027 A 
HETATM   45  C28 UNL     1     -10.456  15.812  34.752  1.00  0.00     0.143 A 
HETATM   46  O2  UNL     1     -11.202  15.549  33.723  1.00  0.00    -0.317 OA
ENDBRANCH  39  42
ENDBRANCH  37  38
ENDBRANCH  36  37
ENDBRANCH  11  36
TORSDOF 12
ENDMDL
MODEL 4
REMARK VINA RESULT: -8.976622854      1.912      2.554
REMARK  12 active torsions:
REMARK  status: ('A' for Active; 'I' for Inactive)
REMARK    1  A    between atoms: C2_2  and  C3_3 
REMARK    2  A    between atoms: C3_3  and  N1_4 
REMARK    3  A    between atoms: N1_4  and  C4_6 
REMARK    4  A    between atoms: N3_10  and  C6_12 
REMARK    5  A    between atoms: C6_12  and  C7_13 
REMARK    6  A    between atoms: C7_13  and  N4_14 
REMARK    7  A    between atoms: N5_17  and  C10_18 
REMARK    8  A    between atoms: C10_18  and  C11_19 
REMARK    9  A    between atoms: N7_32  and  C22_33 
REMARK   10  A    between atoms: C22_33  and  C23_34 
REMARK   11  A    between atoms: C23_34  and  N8_35 
REMARK       I    between atoms: N8_35  and  C24_37 
REMARK   12  A    between atoms: C24_37  and  C25_39 
ROOT
HETATM    1  C4  UNL     1     -10.312  14.303  30.624  1.00  0.00     0.681 A 
HETATM    2  N2  UNL     1     -10.419  15.331  29.772  1.00  0.00    -0.175 N 
ATOM      3  H2  UNL     1      -9.748  16.094  29.869  1.00  0.00     0.186 HD
HETATM    4  C5  UNL     1     -11.337  15.436  28.804  1.00  0.00     0.147 A 
HETATM    5  N3  UNL     1     -11.480  16.373  27.970  1.00  0.00    -0.372 N 
ATOM      6  H3  UNL     1     -12.250  16.256  27.311  1.00  0.00     0.161 HD
HETATM    7  C20 UNL     1     -12.245  14.370  28.695  1.00  0.00     0.123 A 
HETATM    8  N6  UNL     1     -13.271  14.110  27.868  1.00  0.00    -0.346 N 
ATOM      9  H6  UNL     1     -13.580  14.727  27.116  1.00  0.00     0.167 HD
HETATM   10  C21 UNL     1     -13.839  12.922  28.166  1.00  0.00     0.185 A 
HETATM   11  N7  UNL     1     -13.155  12.427  29.202  1.00  0.00    -0.325 N 
HETATM   12  C29 UNL     1     -12.172  13.290  29.549  1.00  0.00     0.155 A 
HETATM   13  N9  UNL     1     -11.214  13.283  30.488  1.00  0.00    -0.174 N 
ATOM     14  H9  UNL     1     -11.156  12.488  31.124  1.00  0.00     0.186 HD
ENDROOT
BRANCH   5  15
HETATM   15  C6  UNL     1     -10.719  17.577  27.813  1.00  0.00     0.140 C 
BRANCH  15  16
HETATM   16  C7  UNL     1      -9.360  17.223  27.286  1.00  0.00     0.137 C 
BRANCH  16  17
HETATM   17  N4  UNL     1      -9.399  16.376  26.126  1.00  0.00    -0.405 N 
HETATM   18  C8  UNL     1      -9.685  17.115  24.910  1.00  0.00     0.137 C 
HETATM   19  C9  UNL     1      -8.294  17.370  24.296  1.00  0.00     0.146 C 
HETATM   20  N5  UNL     1      -7.719  16.154  23.860  1.00  0.00    -0.370 N 
HETATM   21  C18 UNL     1      -7.965  15.014  24.632  1.00  0.00     0.082 C 
HETATM   22  C19 UNL     1      -8.379  15.404  26.027  1.00  0.00     0.161 C 
BRANCH  20  23
HETATM   23  C10 UNL     1      -6.736  16.171  22.869  1.00  0.00     0.068 C 
BRANCH  23  24
HETATM   24  C11 UNL     1      -7.271  16.252  21.456  1.00  0.00     0.024 C 
HETATM   25  C12 UNL     1      -6.159  16.662  20.505  1.00  0.00     0.010 C 
HETATM   26  C13 UNL     1      -6.773  17.186  19.215  1.00  0.00     0.001 C 
HETATM   27  C14 UNL     1      -7.592  16.138  18.508  1.00  0.00     0.000 C 
HETATM   28  C15 UNL     1      -8.938  16.053  19.167  1.00  0.00     0.000 C 
HETATM   29  C16 UNL     1      -9.039  14.971  20.212  1.00  0.00     0.001 C 
HETATM   30  C17 UNL     1      -7.823  14.888  21.082  1.00  0.00     0.010 C 
ENDBRANCH  23  24
ENDBRANCH  20  23
ENDBRANCH  16  17
ENDBRANCH  15  16
ENDBRANCH   5  15
BRANCH   1  31
HETATM   31  N1  UNL     1      -9.405  14.238  31.541  1.00  0.00    -0.226 N 
ATOM     32  H1  UNL     1      -8.450  14.087  31.217  1.00  0.00     0.177 HD
BRANCH  31  33
HETATM   33  C3  UNL     1      -9.574  14.353  32.942  1.00  0.00     0.137 C 
BRANCH  33  34
HETATM   34  C2  UNL     1      -9.621  15.834  33.353  1.00  0.00     0.016 C 
HETATM   35  C1  UNL     1      -8.837  16.092  34.597  1.00  0.00     0.006 C 
ENDBRANCH  33  34
ENDBRANCH  31  33
ENDBRANCH   1  31
BRANCH  11  36
HETATM   36  C22 UNL     1     -13.409  11.181  29.867  1.00  0.00     0.151 C 
BRANCH  36  37
HETATM   37  C23 UNL     1     -14.219  11.385  31.124  1.00  0.00     0.143 C 
BRANCH  37  38
HETATM   38  N8  UNL     1     -13.443  11.311  32.325  1.00  0.00    -0.354 N 
HETATM   39  C24 UNL     1     -13.244  12.484  33.092  1.00  0.00     0.275 C 
HETATM   40  O1  UNL     1     -13.736  13.580  32.735  1.00  0.00    -0.265 OA
ATOM     41  H8  UNL     1     -13.039  10.424  32.625  1.00  0.00     0.162 HD
BRANCH  39  42
HETATM   42  C25 UNL     1     -12.452  12.402  34.313  1.00  0.00     0.142 A 
HETATM   43  C26 UNL     1     -12.272  13.403  35.238  1.00  0.00     0.045 A 
HETATM   44  C27 UNL     1     -11.465  12.886  36.211  1.00  0.00     0.027 A 
HETATM   45  C28 UNL     1     -11.183  11.592  35.846  1.00  0.00     0.143 A 
HETATM   46  O2  UNL     1     -11.786  11.350  34.721  1.00  0.00    -0.317 OA
ENDBRANCH  39  42
ENDBRANCH  37  38
ENDBRANCH  36  37
ENDBRANCH  11  36
TORSDOF 12
ENDMDL
MODEL 5
REMARK VINA RESULT: -8.919229246      3.582     10.913
REMARK  12 active torsions:
REMARK  status: ('A' for Active; 'I' for Inactive)
REMARK    1  A    between atoms: C2_2  and  C3_3 
REMARK    2  A    between atoms: C3_3  and  N1_4 
REMARK    3  A    between atoms: N1_4  and  C4_6 
REMARK    4  A    between atoms: N3_10  and  C6_12 
REMARK    5  A    between atoms: C6_12  and  C7_13 
REMARK    6  A    between atoms: C7_13  and  N4_14 
REMARK    7  A    between atoms: N5_17  and  C10_18 
REMARK    8  A    between atoms: C10_18  and  C11_19 
REMARK    9  A    between atoms: N7_32  and  C22_33 
REMARK   10  A    between atoms: C22_33  and  C23_34 
REMARK   11  A    between atoms: C23_34  and  N8_35 
REMARK       I    between atoms: N8_35  and  C24_37 
REMARK   12  A    between atoms: C24_37  and  C25_39 
ROOT
HETATM    1  C4  UNL     1      -8.408  16.975  23.991  1.00  0.00     0.681 A 
HETATM    2  N2  UNL     1      -9.437  16.305  24.527  1.00  0.00    -0.175 N 
ATOM      3  H2  UNL     1     -10.114  15.891  23.886  1.00  0.00     0.186 HD
HETATM    4  C5  UNL     1      -9.645  16.136  25.838  1.00  0.00     0.147 A 
HETATM    5  N3  UNL     1     -10.589  15.510  26.398  1.00  0.00    -0.372 N 
ATOM      6  H3  UNL     1     -10.562  15.503  27.418  1.00  0.00     0.161 HD
HETATM    7  C20 UNL     1      -8.696  16.716  26.695  1.00  0.00     0.123 A 
HETATM    8  N6  UNL     1      -8.557  16.753  28.031  1.00  0.00    -0.346 N 
ATOM      9  H6  UNL     1      -9.202  16.322  28.693  1.00  0.00     0.167 HD
HETATM   10  C21 UNL     1      -7.447  17.439  28.378  1.00  0.00     0.185 A 
HETATM   11  N7  UNL     1      -6.879  17.841  27.237  1.00  0.00    -0.325 N 
HETATM   12  C29 UNL     1      -7.620  17.413  26.188  1.00  0.00     0.155 A 
HETATM   13  N9  UNL     1      -7.503  17.526  24.857  1.00  0.00    -0.174 N 
ATOM     14  H9  UNL     1      -6.710  18.042  24.476  1.00  0.00     0.186 HD
ENDROOT
BRANCH   5  15
HETATM   15  C6  UNL     1     -11.692  14.809  25.811  1.00  0.00     0.140 C 
BRANCH  15  16
HETATM   16  C7  UNL     1     -11.618  13.367  26.219  1.00  0.00     0.137 C 
BRANCH  16  17
HETATM   17  N4  UNL     1     -12.630  12.987  27.165  1.00  0.00    -0.405 N 
HETATM   18  C8  UNL     1     -12.138  12.046  28.154  1.00  0.00     0.137 C 
HETATM   19  C9  UNL     1     -11.779  12.933  29.362  1.00  0.00     0.146 C 
HETATM   20  N5  UNL     1     -12.950  13.485  29.931  1.00  0.00    -0.370 N 
HETATM   21  C18 UNL     1     -13.980  13.846  29.058  1.00  0.00     0.082 C 
HETATM   22  C19 UNL     1     -13.445  14.028  27.661  1.00  0.00     0.161 C 
BRANCH  20  23
HETATM   23  C10 UNL     1     -12.942  13.897  31.265  1.00  0.00     0.068 C 
BRANCH  23  24
HETATM   24  C11 UNL     1     -11.571  14.241  31.808  1.00  0.00     0.024 C 
HETATM   25  C12 UNL     1     -11.168  15.632  31.349  1.00  0.00     0.010 C 
HETATM   26  C13 UNL     1      -9.660  15.786  31.489  1.00  0.00     0.001 C 
HETATM   27  C14 UNL     1      -9.203  15.644  32.918  1.00  0.00     0.000 C 
HETATM   28  C15 UNL     1      -9.131  14.184  33.258  1.00  0.00     0.000 C 
HETATM   29  C16 UNL     1     -10.369  13.652  33.935  1.00  0.00     0.001 C 
HETATM   30  C17 UNL     1     -11.634  14.171  33.324  1.00  0.00     0.010 C 
ENDBRANCH  23  24
ENDBRANCH  20  23
ENDBRANCH  16  17
ENDBRANCH  15  16
ENDBRANCH   5  15
BRANCH   1  31
HETATM   31  N1  UNL     1      -8.240  17.109  22.718  1.00  0.00    -0.226 N 
ATOM     32  H1  UNL     1      -8.093  18.061  22.383  1.00  0.00     0.177 HD
BRANCH  31  33
HETATM   33  C3  UNL     1      -8.236  16.096  21.729  1.00  0.00     0.137 C 
BRANCH  33  34
HETATM   34  C2  UNL     1      -9.493  16.206  20.849  1.00  0.00     0.016 C 
HETATM   35  C1  UNL     1      -9.400  15.340  19.636  1.00  0.00     0.006 C 
ENDBRANCH  33  34
ENDBRANCH  31  33
ENDBRANCH   1  31
BRANCH  11  36
HETATM   36  C22 UNL     1      -5.676  18.613  27.116  1.00  0.00     0.151 C 
BRANCH  36  37
HETATM   37  C23 UNL     1      -4.450  17.742  27.240  1.00  0.00     0.143 C 
BRANCH  37  38
HETATM   38  N8  UNL     1      -3.505  17.926  26.180  1.00  0.00    -0.354 N 
HETATM   39  C24 UNL     1      -3.649  17.175  24.989  1.00  0.00     0.275 C 
HETATM   40  O1  UNL     1      -4.587  16.356  24.852  1.00  0.00    -0.265 OA
ATOM     41  H8  UNL     1      -2.738  18.590  26.282  1.00  0.00     0.162 HD
BRANCH  39  42
HETATM   42  C25 UNL     1      -2.682  17.366  23.915  1.00  0.00     0.142 A 
HETATM   43  C26 UNL     1      -1.814  16.422  23.420  1.00  0.00     0.045 A 
HETATM   44  C27 UNL     1      -1.105  17.036  22.428  1.00  0.00     0.027 A 
HETATM   45  C28 UNL     1      -1.564  18.328  22.353  1.00  0.00     0.143 A 
HETATM   46  O2  UNL     1      -2.494  18.478  23.247  1.00  0.00    -0.317 OA
ENDBRANCH  39  42
ENDBRANCH  37  38
ENDBRANCH  36  37
ENDBRANCH  11  36
TORSDOF 12
ENDMDL
