MODEL 1
REMARK VINA RESULT: -8.312584154      0.000      0.000
REMARK  15 active torsions:
REMARK  status: ('A' for Active; 'I' for Inactive)
REMARK    1  A    between atoms: C2_2  and  C3_3 
REMARK    2  A    between atoms: C3_3  and  N1_4 
REMARK    3  A    between atoms: N1_4  and  C4_6 
REMARK    4  A    between atoms: C8_14  and  N4_15 
REMARK    5  A    between atoms: N4_15  and  C9_17 
REMARK    6  A    between atoms: C13_21  and  N5_22 
REMARK    7  A    between atoms: N6_25  and  C16_26 
REMARK    8  A    between atoms: C16_26  and  O1_27 
REMARK    9  A    between atoms: C16_26  and  C17_29 
REMARK   10  A    between atoms: C17_29  and  N7_30 
REMARK   11  A    between atoms: N7_30  and  C18_32 
REMARK   12  A    between atoms: C18_32  and  C19_33 
REMARK   13  A    between atoms: C19_33  and  C20_34 
REMARK   14  A    between atoms: C20_34  and  O2_35 
REMARK   15  A    between atoms: C25_40  and  O3_41 
ROOT
HETATM    1  C9  UNL     1      -7.378  15.686  27.467  1.00  0.00     0.088 A 
HETATM    2  C10 UNL     1      -7.089  16.475  28.592  1.00  0.00    -0.030 A 
HETATM    3  C11 UNL     1      -5.895  17.369  28.519  1.00  0.00     0.050 C 
HETATM    4  C12 UNL     1      -7.887  16.421  29.714  1.00  0.00     0.038 A 
HETATM    5  C13 UNL     1      -9.000  15.593  29.784  1.00  0.00     0.033 A 
HETATM    6  C24 UNL     1      -9.279  14.828  28.689  1.00  0.00     0.068 A 
HETATM    7  C25 UNL     1      -8.481  14.879  27.562  1.00  0.00     0.098 A 
ENDROOT
BRANCH   1   8
HETATM    8  N4  UNL     1      -6.566  15.742  26.380  1.00  0.00    -0.188 N 
ATOM      9  H4  UNL     1      -5.694  15.239  26.543  1.00  0.00     0.184 HD
BRANCH   8  10
HETATM   10  C8  UNL     1      -6.594  16.240  25.231  1.00  0.00     0.683 A 
HETATM   11  N3  UNL     1      -5.612  16.994  24.716  1.00  0.00    -0.191 N 
HETATM   12  C7  UNL     1      -5.727  17.486  23.461  1.00  0.00     0.066 A 
ATOM     13  H3  UNL     1      -4.780  17.196  25.270  1.00  0.00     0.184 HD
HETATM   14  C6  UNL     1      -4.731  18.257  22.932  1.00  0.00     0.048 A 
HETATM   15  C29 UNL     1      -6.862  17.209  22.705  1.00  0.00     0.058 A 
HETATM   16  C5  UNL     1      -4.843  18.756  21.669  1.00  0.00     0.092 A 
HETATM   17  N2  UNL     1      -5.965  18.471  20.947  1.00  0.00    -0.352 N 
HETATM   18  C4  UNL     1      -6.967  17.719  21.426  1.00  0.00     0.115 A 
ATOM     19  H2  UNL     1      -6.046  18.845  20.001  1.00  0.00     0.166 HD
HETATM   20  C27 UNL     1      -7.885  16.431  23.221  1.00  0.00     0.039 A 
HETATM   21  N8  UNL     1      -7.688  15.987  24.474  1.00  0.00    -0.195 N 
HETATM   22  C28 UNL     1      -9.123  16.093  22.472  1.00  0.00     0.070 C 
ATOM     23  H8  UNL     1      -8.421  15.411  24.888  1.00  0.00     0.184 HD
BRANCH  18  24
HETATM   24  N1  UNL     1      -7.977  17.471  20.749  1.00  0.00    -0.376 N 
ATOM     25  H1  UNL     1      -8.868  17.398  21.242  1.00  0.00     0.161 HD
BRANCH  24  26
HETATM   26  C3  UNL     1      -7.991  17.282  19.333  1.00  0.00     0.121 C 
BRANCH  26  27
HETATM   27  C2  UNL     1      -8.039  15.801  18.986  1.00  0.00     0.015 C 
HETATM   28  C1  UNL     1      -9.450  15.298  18.963  1.00  0.00     0.006 C 
ENDBRANCH  26  27
ENDBRANCH  24  26
ENDBRANCH  18  24
ENDBRANCH   8  10
ENDBRANCH   1   8
BRANCH   7  29
HETATM   29  O3  UNL     1      -8.815  14.079  26.488  1.00  0.00    -0.354 OA
HETATM   30  C26 UNL     1     -10.125  14.116  25.973  1.00  0.00     0.210 C 
ENDBRANCH   7  29
BRANCH   5  31
HETATM   31  N5  UNL     1      -9.762  15.544  30.959  1.00  0.00    -0.378 N 
HETATM   32  C14 UNL     1      -9.267  15.981  32.263  1.00  0.00     0.143 C 
HETATM   33  C15 UNL     1      -9.512  14.791  33.178  1.00  0.00     0.145 C 
HETATM   34  N6  UNL     1     -10.987  14.698  33.373  1.00  0.00    -0.358 N 
HETATM   35  C22 UNL     1     -11.797  15.240  32.305  1.00  0.00     0.145 C 
HETATM   36  C23 UNL     1     -11.114  15.048  30.936  1.00  0.00     0.143 C 
BRANCH  34  37
HETATM   37  C16 UNL     1     -11.427  14.041  34.504  1.00  0.00     0.153 C 
BRANCH  37  38
HETATM   38  O1  UNL     1     -11.364  14.755  35.618  1.00  0.00    -0.345 OA
ATOM     39  H1  UNL     1     -11.767  14.345  36.374  1.00  0.00     0.219 HD
ENDBRANCH  37  38
BRANCH  37  40
HETATM   40  C17 UNL     1     -11.941  12.686  34.649  1.00  0.00     0.139 C 
BRANCH  40  41
HETATM   41  N7  UNL     1     -12.152  11.857  33.547  1.00  0.00    -0.395 N 
ATOM     42  H7  UNL     1     -11.415  11.738  32.851  1.00  0.00     0.159 HD
BRANCH  41  43
HETATM   43  C18 UNL     1     -13.384  11.181  33.393  1.00  0.00     0.121 C 
BRANCH  43  44
HETATM   44  C19 UNL     1     -13.560  10.853  31.903  1.00  0.00     0.046 C 
BRANCH  44  45
HETATM   45  C20 UNL     1     -13.480  12.144  31.133  1.00  0.00     0.168 C 
BRANCH  45  46
HETATM   46  O2  UNL     1     -14.398  13.031  31.719  1.00  0.00    -0.396 OA
HETATM   47  C21 UNL     1     -14.768  14.019  30.817  1.00  0.00     0.201 C 
ENDBRANCH  45  46
ENDBRANCH  44  45
ENDBRANCH  43  44
ENDBRANCH  41  43
ENDBRANCH  40  41
ENDBRANCH  37  40
ENDBRANCH  34  37
ENDBRANCH   5  31
TORSDOF 15
ENDMDL
MODEL 2
REMARK VINA RESULT: -8.252058654      1.451      1.948
REMARK  15 active torsions:
REMARK  status: ('A' for Active; 'I' for Inactive)
REMARK    1  A    between atoms: C2_2  and  C3_3 
REMARK    2  A    between atoms: C3_3  and  N1_4 
REMARK    3  A    between atoms: N1_4  and  C4_6 
REMARK    4  A    between atoms: C8_14  and  N4_15 
REMARK    5  A    between atoms: N4_15  and  C9_17 
REMARK    6  A    between atoms: C13_21  and  N5_22 
REMARK    7  A    between atoms: N6_25  and  C16_26 
REMARK    8  A    between atoms: C16_26  and  O1_27 
REMARK    9  A    between atoms: C16_26  and  C17_29 
REMARK   10  A    between atoms: C17_29  and  N7_30 
REMARK   11  A    between atoms: N7_30  and  C18_32 
REMARK   12  A    between atoms: C18_32  and  C19_33 
REMARK   13  A    between atoms: C19_33  and  C20_34 
REMARK   14  A    between atoms: C20_34  and  O2_35 
REMARK   15  A    between atoms: C25_40  and  O3_41 
ROOT
HETATM    1  C9  UNL     1      -8.144  15.345  27.674  1.00  0.00     0.088 A 
HETATM    2  C10 UNL     1      -7.881  16.057  28.854  1.00  0.00    -0.030 A 
HETATM    3  C11 UNL     1      -6.644  16.894  28.894  1.00  0.00     0.050 C 
HETATM    4  C12 UNL     1      -8.740  15.981  29.929  1.00  0.00     0.038 A 
HETATM    5  C13 UNL     1      -9.892  15.205  29.895  1.00  0.00     0.033 A 
HETATM    6  C24 UNL     1     -10.146  14.516  28.745  1.00  0.00     0.068 A 
HETATM    7  C25 UNL     1      -9.286  14.589  27.666  1.00  0.00     0.098 A 
ENDROOT
BRANCH   1   8
HETATM    8  N4  UNL     1      -7.274  15.420  26.634  1.00  0.00    -0.188 N 
ATOM      9  H4  UNL     1      -6.449  14.844  26.800  1.00  0.00     0.184 HD
BRANCH   8  10
HETATM   10  C8  UNL     1      -7.205  16.001  25.527  1.00  0.00     0.683 A 
HETATM   11  N3  UNL     1      -6.266  16.905  25.211  1.00  0.00    -0.191 N 
HETATM   12  C7  UNL     1      -6.267  17.479  23.985  1.00  0.00     0.066 A 
ATOM     13  H3  UNL     1      -5.552  17.159  25.893  1.00  0.00     0.184 HD
HETATM   14  C6  UNL     1      -5.314  18.402  23.658  1.00  0.00     0.048 A 
HETATM   15  C29 UNL     1      -7.240  17.131  23.054  1.00  0.00     0.058 A 
HETATM   16  C5  UNL     1      -5.312  18.982  22.426  1.00  0.00     0.092 A 
HETATM   17  N2  UNL     1      -6.277  18.626  21.529  1.00  0.00    -0.352 N 
HETATM   18  C4  UNL     1      -7.230  17.725  21.808  1.00  0.00     0.115 A 
ATOM     19  H2  UNL     1      -6.272  19.062  20.608  1.00  0.00     0.166 HD
HETATM   20  C27 UNL     1      -8.217  16.199  23.363  1.00  0.00     0.039 A 
HETATM   21  N8  UNL     1      -8.141  15.682  24.602  1.00  0.00    -0.195 N 
HETATM   22  C28 UNL     1      -9.285  15.778  22.420  1.00  0.00     0.070 C 
ATOM     23  H8  UNL     1      -8.845  14.993  24.866  1.00  0.00     0.184 HD
BRANCH  18  24
HETATM   24  N1  UNL     1      -8.096  17.415  20.975  1.00  0.00    -0.376 N 
ATOM     25  H1  UNL     1      -9.027  17.188  21.325  1.00  0.00     0.161 HD
BRANCH  24  26
HETATM   26  C3  UNL     1      -7.891  17.351  19.562  1.00  0.00     0.121 C 
BRANCH  26  27
HETATM   27  C2  UNL     1      -7.904  15.908  19.078  1.00  0.00     0.015 C 
HETATM   28  C1  UNL     1      -9.305  15.421  18.872  1.00  0.00     0.006 C 
ENDBRANCH  26  27
ENDBRANCH  24  26
ENDBRANCH  18  24
ENDBRANCH   8  10
ENDBRANCH   1   8
BRANCH   7  29
HETATM   29  O3  UNL     1      -9.599  13.866  26.532  1.00  0.00    -0.354 OA
HETATM   30  C26 UNL     1     -10.935  13.799  26.095  1.00  0.00     0.210 C 
ENDBRANCH   7  29
BRANCH   5  31
HETATM   31  N5  UNL     1     -10.717  15.131  31.025  1.00  0.00    -0.378 N 
HETATM   32  C14 UNL     1     -10.321  15.604  32.350  1.00  0.00     0.143 C 
HETATM   33  C15 UNL     1     -10.559  14.412  33.263  1.00  0.00     0.145 C 
HETATM   34  N6  UNL     1     -12.038  14.248  33.375  1.00  0.00    -0.358 N 
HETATM   35  C22 UNL     1     -12.810  14.739  32.256  1.00  0.00     0.145 C 
HETATM   36  C23 UNL     1     -12.040  14.568  30.930  1.00  0.00     0.143 C 
BRANCH  34  37
HETATM   37  C16 UNL     1     -12.509  13.580  34.487  1.00  0.00     0.153 C 
BRANCH  37  38
HETATM   38  O1  UNL     1     -13.716  13.053  34.344  1.00  0.00    -0.345 OA
ATOM     39  H1  UNL     1     -14.402  13.681  34.153  1.00  0.00     0.219 HD
ENDBRANCH  37  38
BRANCH  37  40
HETATM   40  C17 UNL     1     -11.879  13.377  35.784  1.00  0.00     0.139 C 
BRANCH  40  41
HETATM   41  N7  UNL     1     -11.211  12.193  36.100  1.00  0.00    -0.395 N 
ATOM     42  H7  UNL     1     -10.256  12.044  35.772  1.00  0.00     0.159 HD
BRANCH  41  43
HETATM   43  C18 UNL     1     -11.855  11.200  36.873  1.00  0.00     0.121 C 
BRANCH  43  44
HETATM   44  C19 UNL     1     -11.412   9.829  36.345  1.00  0.00     0.046 C 
BRANCH  44  45
HETATM   45  C20 UNL     1     -12.365   9.423  35.254  1.00  0.00     0.168 C 
BRANCH  45  46
HETATM   46  O2  UNL     1     -12.068  10.213  34.131  1.00  0.00    -0.396 OA
HETATM   47  C21 UNL     1     -12.890   9.878  33.065  1.00  0.00     0.201 C 
ENDBRANCH  45  46
ENDBRANCH  44  45
ENDBRANCH  43  44
ENDBRANCH  41  43
ENDBRANCH  40  41
ENDBRANCH  37  40
ENDBRANCH  34  37
ENDBRANCH   5  31
TORSDOF 15
ENDMDL
MODEL 3
REMARK VINA RESULT: -8.249671058      1.605      2.572
REMARK  15 active torsions:
REMARK  status: ('A' for Active; 'I' for Inactive)
REMARK    1  A    between atoms: C2_2  and  C3_3 
REMARK    2  A    between atoms: C3_3  and  N1_4 
REMARK    3  A    between atoms: N1_4  and  C4_6 
REMARK    4  A    between atoms: C8_14  and  N4_15 
REMARK    5  A    between atoms: N4_15  and  C9_17 
REMARK    6  A    between atoms: C13_21  and  N5_22 
REMARK    7  A    between atoms: N6_25  and  C16_26 
REMARK    8  A    between atoms: C16_26  and  O1_27 
REMARK    9  A    between atoms: C16_26  and  C17_29 
REMARK   10  A    between atoms: C17_29  and  N7_30 
REMARK   11  A    between atoms: N7_30  and  C18_32 
REMARK   12  A    between atoms: C18_32  and  C19_33 
REMARK   13  A    between atoms: C19_33  and  C20_34 
REMARK   14  A    between atoms: C20_34  and  O2_35 
REMARK   15  A    between atoms: C25_40  and  O3_41 
ROOT
HETATM    1  C9  UNL     1      -7.779  15.440  27.641  1.00  0.00     0.088 A 
HETATM    2  C10 UNL     1      -7.432  16.250  28.734  1.00  0.00    -0.030 A 
HETATM    3  C11 UNL     1      -6.212  17.102  28.600  1.00  0.00     0.050 C 
HETATM    4  C12 UNL     1      -8.196  16.251  29.880  1.00  0.00     0.038 A 
HETATM    5  C13 UNL     1      -9.332  15.462  30.007  1.00  0.00     0.033 A 
HETATM    6  C24 UNL     1      -9.668  14.677  28.943  1.00  0.00     0.068 A 
HETATM    7  C25 UNL     1      -8.904  14.672  27.792  1.00  0.00     0.098 A 
ENDROOT
BRANCH   1   8
HETATM    8  N4  UNL     1      -7.001  15.439  26.528  1.00  0.00    -0.188 N 
ATOM      9  H4  UNL     1      -6.208  14.806  26.632  1.00  0.00     0.184 HD
BRANCH   8  10
HETATM   10  C8  UNL     1      -6.987  16.002  25.410  1.00  0.00     0.683 A 
HETATM   11  N3  UNL     1      -6.016  16.829  24.997  1.00  0.00    -0.191 N 
HETATM   12  C7  UNL     1      -6.084  17.389  23.767  1.00  0.00     0.066 A 
ATOM     13  H3  UNL     1      -5.228  17.036  25.609  1.00  0.00     0.184 HD
HETATM   14  C6  UNL     1      -5.098  18.234  23.341  1.00  0.00     0.048 A 
HETATM   15  C29 UNL     1      -7.159  17.105  22.931  1.00  0.00     0.058 A 
HETATM   16  C5  UNL     1      -5.163  18.800  22.104  1.00  0.00     0.092 A 
HETATM   17  N2  UNL     1      -6.227  18.507  21.302  1.00  0.00    -0.352 N 
HETATM   18  C4  UNL     1      -7.217  17.684  21.679  1.00  0.00     0.115 A 
ATOM     19  H2  UNL     1      -6.273  18.933  20.376  1.00  0.00     0.166 HD
HETATM   20  C27 UNL     1      -8.171  16.253  23.341  1.00  0.00     0.039 A 
HETATM   21  N8  UNL     1      -8.023  15.745  24.576  1.00  0.00    -0.195 N 
HETATM   22  C28 UNL     1      -9.347  15.904  22.503  1.00  0.00     0.070 C 
ATOM     23  H8  UNL     1      -8.750  15.113  24.914  1.00  0.00     0.184 HD
BRANCH  18  24
HETATM   24  N1  UNL     1      -8.174  17.431  20.930  1.00  0.00    -0.376 N 
ATOM     25  H1  UNL     1      -9.094  17.330  21.360  1.00  0.00     0.161 HD
BRANCH  24  26
HETATM   26  C3  UNL     1      -8.088  17.272  19.513  1.00  0.00     0.121 C 
BRANCH  26  27
HETATM   27  C2  UNL     1      -8.065  15.797  19.135  1.00  0.00     0.015 C 
HETATM   28  C1  UNL     1      -9.452  15.277  18.909  1.00  0.00     0.006 C 
ENDBRANCH  26  27
ENDBRANCH  24  26
ENDBRANCH  18  24
ENDBRANCH   8  10
ENDBRANCH   1   8
BRANCH   7  29
HETATM   29  O3  UNL     1      -9.296  13.854  26.751  1.00  0.00    -0.354 OA
HETATM   30  C26 UNL     1     -10.629  13.890  26.301  1.00  0.00     0.210 C 
ENDBRANCH   7  29
BRANCH   5  31
HETATM   31  N5  UNL     1     -10.058  15.470  31.206  1.00  0.00    -0.378 N 
HETATM   32  C14 UNL     1      -9.567  16.069  32.445  1.00  0.00     0.143 C 
HETATM   33  C15 UNL     1      -9.693  14.959  33.477  1.00  0.00     0.145 C 
HETATM   34  N6  UNL     1     -11.152  14.772  33.728  1.00  0.00    -0.358 N 
HETATM   35  C22 UNL     1     -12.028  15.143  32.640  1.00  0.00     0.145 C 
HETATM   36  C23 UNL     1     -11.366  14.871  31.273  1.00  0.00     0.143 C 
BRANCH  34  37
HETATM   37  C16 UNL     1     -11.509  14.197  34.930  1.00  0.00     0.153 C 
BRANCH  37  38
HETATM   38  O1  UNL     1     -10.643  14.388  35.914  1.00  0.00    -0.345 OA
ATOM     39  H1  UNL     1     -10.928  14.066  36.761  1.00  0.00     0.219 HD
ENDBRANCH  37  38
BRANCH  37  40
HETATM   40  C17 UNL     1     -12.689  13.413  35.269  1.00  0.00     0.139 C 
BRANCH  40  41
HETATM   41  N7  UNL     1     -13.260  13.455  36.542  1.00  0.00    -0.395 N 
ATOM     42  H7  UNL     1     -13.292  14.336  37.056  1.00  0.00     0.159 HD
BRANCH  41  43
HETATM   43  C18 UNL     1     -13.794  12.280  37.119  1.00  0.00     0.121 C 
BRANCH  43  44
HETATM   44  C19 UNL     1     -12.717  11.188  37.048  1.00  0.00     0.046 C 
BRANCH  44  45
HETATM   45  C20 UNL     1     -11.896  11.268  38.307  1.00  0.00     0.168 C 
BRANCH  45  46
HETATM   46  O2  UNL     1     -11.002  12.340  38.149  1.00  0.00    -0.396 OA
HETATM   47  C21 UNL     1     -10.525  12.765  39.380  1.00  0.00     0.201 C 
ENDBRANCH  45  46
ENDBRANCH  44  45
ENDBRANCH  43  44
ENDBRANCH  41  43
ENDBRANCH  40  41
ENDBRANCH  37  40
ENDBRANCH  34  37
ENDBRANCH   5  31
TORSDOF 15
ENDMDL
MODEL 4
REMARK VINA RESULT: -8.187006475      2.049      2.826
REMARK  15 active torsions:
REMARK  status: ('A' for Active; 'I' for Inactive)
REMARK    1  A    between atoms: C2_2  and  C3_3 
REMARK    2  A    between atoms: C3_3  and  N1_4 
REMARK    3  A    between atoms: N1_4  and  C4_6 
REMARK    4  A    between atoms: C8_14  and  N4_15 
REMARK    5  A    between atoms: N4_15  and  C9_17 
REMARK    6  A    between atoms: C13_21  and  N5_22 
REMARK    7  A    between atoms: N6_25  and  C16_26 
REMARK    8  A    between atoms: C16_26  and  O1_27 
REMARK    9  A    between atoms: C16_26  and  C17_29 
REMARK   10  A    between atoms: C17_29  and  N7_30 
REMARK   11  A    between atoms: N7_30  and  C18_32 
REMARK   12  A    between atoms: C18_32  and  C19_33 
REMARK   13  A    between atoms: C19_33  and  C20_34 
REMARK   14  A    between atoms: C20_34  and  O2_35 
REMARK   15  A    between atoms: C25_40  and  O3_41 
ROOT
HETATM    1  C9  UNL     1      -6.990  17.675  27.125  1.00  0.00     0.088 A 
HETATM    2  C10 UNL     1      -6.483  17.207  28.347  1.00  0.00    -0.030 A 
HETATM    3  C11 UNL     1      -5.038  17.455  28.635  1.00  0.00     0.050 C 
HETATM    4  C12 UNL     1      -7.297  16.546  29.241  1.00  0.00     0.038 A 
HETATM    5  C13 UNL     1      -8.641  16.316  28.978  1.00  0.00     0.033 A 
HETATM    6  C24 UNL     1      -9.132  16.773  27.790  1.00  0.00     0.068 A 
HETATM    7  C25 UNL     1      -8.318  17.435  26.890  1.00  0.00     0.098 A 
ENDROOT
BRANCH   1   8
HETATM    8  N4  UNL     1      -6.164  18.307  26.251  1.00  0.00    -0.188 N 
ATOM      9  H4  UNL     1      -5.958  19.257  26.558  1.00  0.00     0.184 HD
BRANCH   8  10
HETATM   10  C8  UNL     1      -5.588  18.044  25.171  1.00  0.00     0.683 A 
HETATM   11  N3  UNL     1      -4.388  17.451  25.085  1.00  0.00    -0.191 N 
HETATM   12  C7  UNL     1      -3.844  17.202  23.871  1.00  0.00     0.066 A 
ATOM     13  H3  UNL     1      -3.887  17.189  25.933  1.00  0.00     0.184 HD
HETATM   14  C6  UNL     1      -2.621  16.600  23.778  1.00  0.00     0.048 A 
HETATM   15  C29 UNL     1      -4.529  17.559  22.714  1.00  0.00     0.058 A 
HETATM   16  C5  UNL     1      -2.069  16.348  22.558  1.00  0.00     0.092 A 
HETATM   17  N2  UNL     1      -2.759  16.708  21.437  1.00  0.00    -0.352 N 
HETATM   18  C4  UNL     1      -3.961  17.301  21.482  1.00  0.00     0.115 A 
ATOM     19  H2  UNL     1      -2.343  16.518  20.525  1.00  0.00     0.166 HD
HETATM   20  C27 UNL     1      -5.768  18.172  22.784  1.00  0.00     0.039 A 
HETATM   21  N8  UNL     1      -6.231  18.382  24.028  1.00  0.00    -0.195 N 
HETATM   22  C28 UNL     1      -6.557  18.579  21.593  1.00  0.00     0.070 C 
ATOM     23  H8  UNL     1      -7.142  18.833  24.120  1.00  0.00     0.184 HD
BRANCH  18  24
HETATM   24  N1  UNL     1      -4.571  17.617  20.448  1.00  0.00    -0.376 N 
ATOM     25  H1  UNL     1      -5.111  18.482  20.466  1.00  0.00     0.161 HD
BRANCH  24  26
HETATM   26  C3  UNL     1      -4.574  16.863  19.235  1.00  0.00     0.121 C 
BRANCH  26  27
HETATM   27  C2  UNL     1      -5.555  15.703  19.320  1.00  0.00     0.015 C 
HETATM   28  C1  UNL     1      -6.893  16.086  18.765  1.00  0.00     0.006 C 
ENDBRANCH  26  27
ENDBRANCH  24  26
ENDBRANCH  18  24
ENDBRANCH   8  10
ENDBRANCH   1   8
BRANCH   7  29
HETATM   29  O3  UNL     1      -8.875  17.872  25.705  1.00  0.00    -0.354 OA
HETATM   30  C26 UNL     1      -9.539  16.955  24.867  1.00  0.00     0.210 C 
ENDBRANCH   7  29
BRANCH   5  31
HETATM   31  N5  UNL     1      -9.422  15.608  29.901  1.00  0.00    -0.378 N 
HETATM   32  C14 UNL     1     -10.170  14.397  29.570  1.00  0.00     0.143 C 
HETATM   33  C15 UNL     1     -11.591  14.695  30.024  1.00  0.00     0.145 C 
HETATM   34  N6  UNL     1     -11.570  14.700  31.515  1.00  0.00    -0.358 N 
HETATM   35  C22 UNL     1     -10.303  15.036  32.125  1.00  0.00     0.145 C 
HETATM   36  C23 UNL     1      -9.525  16.055  31.267  1.00  0.00     0.143 C 
BRANCH  34  37
HETATM   37  C16 UNL     1     -12.770  14.464  32.157  1.00  0.00     0.153 C 
BRANCH  37  38
HETATM   38  O1  UNL     1     -13.493  15.548  32.391  1.00  0.00    -0.345 OA
ATOM     39  H1  UNL     1     -13.929  15.907  31.627  1.00  0.00     0.219 HD
ENDBRANCH  37  38
BRANCH  37  40
HETATM   40  C17 UNL     1     -13.347  13.207  32.612  1.00  0.00     0.139 C 
BRANCH  40  41
HETATM   41  N7  UNL     1     -13.110  12.004  31.946  1.00  0.00    -0.395 N 
ATOM     42  H7  UNL     1     -12.443  11.333  32.328  1.00  0.00     0.159 HD
BRANCH  41  43
HETATM   43  C18 UNL     1     -13.793  11.714  30.742  1.00  0.00     0.121 C 
BRANCH  43  44
HETATM   44  C19 UNL     1     -12.757  11.232  29.716  1.00  0.00     0.046 C 
BRANCH  44  45
HETATM   45  C20 UNL     1     -13.064  11.900  28.403  1.00  0.00     0.168 C 
BRANCH  45  46
HETATM   46  O2  UNL     1     -11.873  11.912  27.658  1.00  0.00    -0.396 OA
HETATM   47  C21 UNL     1     -12.036  12.635  26.485  1.00  0.00     0.201 C 
ENDBRANCH  45  46
ENDBRANCH  44  45
ENDBRANCH  43  44
ENDBRANCH  41  43
ENDBRANCH  40  41
ENDBRANCH  37  40
ENDBRANCH  34  37
ENDBRANCH   5  31
TORSDOF 15
ENDMDL
MODEL 5
REMARK VINA RESULT: -8.109505522      1.337      2.175
REMARK  15 active torsions:
REMARK  status: ('A' for Active; 'I' for Inactive)
REMARK    1  A    between atoms: C2_2  and  C3_3 
REMARK    2  A    between atoms: C3_3  and  N1_4 
REMARK    3  A    between atoms: N1_4  and  C4_6 
REMARK    4  A    between atoms: C8_14  and  N4_15 
REMARK    5  A    between atoms: N4_15  and  C9_17 
REMARK    6  A    between atoms: C13_21  and  N5_22 
REMARK    7  A    between atoms: N6_25  and  C16_26 
REMARK    8  A    between atoms: C16_26  and  O1_27 
REMARK    9  A    between atoms: C16_26  and  C17_29 
REMARK   10  A    between atoms: C17_29  and  N7_30 
REMARK   11  A    between atoms: N7_30  and  C18_32 
REMARK   12  A    between atoms: C18_32  and  C19_33 
REMARK   13  A    between atoms: C19_33  and  C20_34 
REMARK   14  A    between atoms: C20_34  and  O2_35 
REMARK   15  A    between atoms: C25_40  and  O3_41 
ROOT
HETATM    1  C9  UNL     1      -8.395  14.934  26.511  1.00  0.00     0.088 A 
HETATM    2  C10 UNL     1      -9.749  14.658  26.761  1.00  0.00    -0.030 A 
HETATM    3  C11 UNL     1     -10.585  14.204  25.610  1.00  0.00     0.050 C 
HETATM    4  C12 UNL     1     -10.274  14.802  28.027  1.00  0.00     0.038 A 
HETATM    5  C13 UNL     1      -9.499  15.222  29.100  1.00  0.00     0.033 A 
HETATM    6  C24 UNL     1      -8.183  15.488  28.854  1.00  0.00     0.068 A 
HETATM    7  C25 UNL     1      -7.653  15.345  27.586  1.00  0.00     0.098 A 
ENDROOT
BRANCH   1   8
HETATM    8  N4  UNL     1      -7.903  14.803  25.251  1.00  0.00    -0.188 N 
ATOM      9  H4  UNL     1      -7.846  13.822  24.977  1.00  0.00     0.184 HD
BRANCH   8  10
HETATM   10  C8  UNL     1      -7.501  15.554  24.334  1.00  0.00     0.683 A 
HETATM   11  N3  UNL     1      -6.732  16.635  24.532  1.00  0.00    -0.191 N 
HETATM   12  C7  UNL     1      -6.340  17.386  23.477  1.00  0.00     0.066 A 
ATOM     13  H3  UNL     1      -6.444  16.890  25.476  1.00  0.00     0.184 HD
HETATM   14  C6  UNL     1      -5.559  18.490  23.672  1.00  0.00     0.048 A 
HETATM   15  C29 UNL     1      -6.733  17.037  22.189  1.00  0.00     0.058 A 
HETATM   16  C5  UNL     1      -5.163  19.250  22.613  1.00  0.00     0.092 A 
HETATM   17  N2  UNL     1      -5.561  18.888  21.359  1.00  0.00    -0.352 N 
HETATM   18  C4  UNL     1      -6.327  17.814  21.121  1.00  0.00     0.115 A 
ATOM     19  H2  UNL     1      -5.262  19.459  20.568  1.00  0.00     0.166 HD
HETATM   20  C27 UNL     1      -7.527  15.924  21.966  1.00  0.00     0.039 A 
HETATM   21  N8  UNL     1      -7.870  15.238  23.070  1.00  0.00    -0.195 N 
HETATM   22  C28 UNL     1      -7.982  15.491  20.620  1.00  0.00     0.070 C 
ATOM     23  H8  UNL     1      -8.455  14.412  22.946  1.00  0.00     0.184 HD
BRANCH  18  24
HETATM   24  N1  UNL     1      -6.675  17.503  19.971  1.00  0.00    -0.376 N 
ATOM     25  H1  UNL     1      -7.647  17.225  19.832  1.00  0.00     0.161 HD
BRANCH  24  26
HETATM   26  C3  UNL     1      -5.820  17.506  18.826  1.00  0.00     0.121 C 
BRANCH  26  27
HETATM   27  C2  UNL     1      -5.076  16.184  18.703  1.00  0.00     0.015 C 
HETATM   28  C1  UNL     1      -5.238  15.600  17.333  1.00  0.00     0.006 C 
ENDBRANCH  26  27
ENDBRANCH  24  26
ENDBRANCH  18  24
ENDBRANCH   8  10
ENDBRANCH   1   8
BRANCH   7  29
HETATM   29  O3  UNL     1      -6.315  15.631  27.402  1.00  0.00    -0.354 OA
HETATM   30  C26 UNL     1      -5.719  16.675  28.134  1.00  0.00     0.210 C 
ENDBRANCH   7  29
BRANCH   5  31
HETATM   31  N5  UNL     1     -10.085  15.388  30.362  1.00  0.00    -0.378 N 
HETATM   32  C14 UNL     1      -9.490  16.186  31.433  1.00  0.00     0.143 C 
HETATM   33  C15 UNL     1      -9.442  15.242  32.624  1.00  0.00     0.145 C 
HETATM   34  N6  UNL     1     -10.851  15.046  33.072  1.00  0.00    -0.358 N 
HETATM   35  C22 UNL     1     -11.862  15.216  32.053  1.00  0.00     0.145 C 
HETATM   36  C23 UNL     1     -11.345  14.762  30.673  1.00  0.00     0.143 C 
BRANCH  34  37
HETATM   37  C16 UNL     1     -11.041  14.649  34.380  1.00  0.00     0.153 C 
BRANCH  37  38
HETATM   38  O1  UNL     1     -11.326  15.632  35.220  1.00  0.00    -0.345 OA
ATOM     39  H1  UNL     1     -12.230  15.922  35.199  1.00  0.00     0.219 HD
ENDBRANCH  37  38
BRANCH  37  40
HETATM   40  C17 UNL     1     -10.969  13.317  34.965  1.00  0.00     0.139 C 
BRANCH  40  41
HETATM   41  N7  UNL     1     -11.366  12.181  34.259  1.00  0.00    -0.395 N 
ATOM     42  H7  UNL     1     -10.718  11.730  33.613  1.00  0.00     0.159 HD
BRANCH  41  43
HETATM   43  C18 UNL     1     -12.667  11.654  34.436  1.00  0.00     0.121 C 
BRANCH  43  44
HETATM   44  C19 UNL     1     -12.777  10.374  33.596  1.00  0.00     0.046 C 
BRANCH  44  45
HETATM   45  C20 UNL     1     -13.481  10.724  32.312  1.00  0.00     0.168 C 
BRANCH  45  46
HETATM   46  O2  UNL     1     -13.981  12.028  32.458  1.00  0.00    -0.396 OA
HETATM   47  C21 UNL     1     -14.369  12.544  31.229  1.00  0.00     0.201 C 
ENDBRANCH  45  46
ENDBRANCH  44  45
ENDBRANCH  43  44
ENDBRANCH  41  43
ENDBRANCH  40  41
ENDBRANCH  37  40
ENDBRANCH  34  37
ENDBRANCH   5  31
TORSDOF 15
ENDMDL
