MODEL 1
REMARK VINA RESULT: -7.797592223      0.000      0.000
REMARK  11 active torsions:
REMARK  status: ('A' for Active; 'I' for Inactive)
REMARK    1  A    between atoms: N1_2  and  C2_4 
REMARK    2  A    between atoms: C3_7  and  C4_8 
REMARK    3  A    between atoms: C4_8  and  N3_9 
REMARK    4  A    between atoms: N4_12  and  C7_13 
REMARK    5  A    between atoms: C7_13  and  C8_14 
REMARK    6  A    between atoms: C8_14  and  N5_15 
REMARK    7  A    between atoms: N5_15  and  C9_16 
REMARK    8  A    between atoms: C9_16  and  C10_17 
REMARK       I    between atoms: C10_17  and  N6_19 
REMARK    9  A    between atoms: N6_19  and  C11_21 
REMARK   10  A    between atoms: C14_24  and  C16_26 
REMARK   11  A    between atoms: C16_26  and  O2_27 
ROOT
HETATM    1  C7  UNL     1      27.064   3.324  22.862  1.00  0.00     0.265 C 
ENDROOT
BRANCH   1   2
HETATM    2  N4  UNL     1      26.201   3.235  21.715  1.00  0.00    -0.061 N 
HETATM    3  C6  UNL     1      26.478   2.073  20.888  1.00  0.00     0.265 C 
HETATM    4  C5  UNL     1      25.911   2.382  19.513  1.00  0.00     0.266 C 
HETATM    5  N3  UNL     1      24.769   3.305  19.658  1.00  0.00    -0.057 N 
HETATM    6  C22 UNL     1      25.260   4.607  19.993  1.00  0.00     0.266 C 
HETATM    7  C24 UNL     1      24.033   2.817  20.823  1.00  0.00     0.266 C 
HETATM    8  C21 UNL     1      26.459   4.407  20.898  1.00  0.00     0.265 C 
HETATM    9  C23 UNL     1      24.811   3.213  22.058  1.00  0.00     0.265 C 
BRANCH   5  10
HETATM   10  C4  UNL     1      23.906   3.233  18.528  1.00  0.00     0.294 C 
BRANCH  10  11
HETATM   11  C3  UNL     1      23.935   4.507  17.692  1.00  0.00     0.044 A 
HETATM   12  N2  UNL     1      24.744   4.701  16.693  1.00  0.00    -0.338 N 
HETATM   13  C2  UNL     1      24.688   5.854  16.023  1.00  0.00     0.144 A 
ATOM     14  H2  UNL     1      25.414   3.981  16.424  1.00  0.00     0.168 HD
HETATM   15  S1  UNL     1      23.441   6.699  16.835  1.00  0.00    -0.064 SA
HETATM   16  C25 UNL     1      23.055   5.516  18.003  1.00  0.00     0.080 A 
BRANCH  13  17
HETATM   17  N1  UNL     1      25.414   6.245  14.996  1.00  0.00    -0.375 N 
HETATM   18  C1  UNL     1      25.303   7.637  14.627  1.00  0.00     0.148 C 
ATOM     19  H1  UNL     1      26.021   5.600  14.489  1.00  0.00     0.161 HD
ENDBRANCH  13  17
ENDBRANCH  10  11
ENDBRANCH   5  10
ENDBRANCH   1   2
BRANCH   1  20
HETATM   20  C8  UNL     1      28.197   2.325  22.857  1.00  0.00     0.266 C 
BRANCH  20  21
HETATM   21  N5  UNL     1      29.486   2.938  22.941  1.00  0.00    -0.051 N 
HETATM   22  C17 UNL     1      29.945   3.577  21.741  1.00  0.00     0.265 C 
HETATM   23  C18 UNL     1      31.408   3.727  22.045  1.00  0.00    -0.002 C 
HETATM   24  C19 UNL     1      31.759   2.728  22.855  1.00  0.00    -0.002 C 
HETATM   25  C20 UNL     1      30.538   1.912  23.092  1.00  0.00     0.265 C 
BRANCH  21  26
HETATM   26  C9  UNL     1      29.578   3.736  24.120  1.00  0.00     0.340 C 
BRANCH  26  27
HETATM   27  C10 UNL     1      29.656   3.037  25.388  1.00  0.00     0.244 C 
HETATM   28  O1  UNL     1      28.695   2.352  25.798  1.00  0.00    -0.272 OA
HETATM   29  N6  UNL     1      30.821   3.114  26.189  1.00  0.00    -0.350 N 
ATOM     30  H6  UNL     1      31.596   3.676  25.838  1.00  0.00     0.163 HD
BRANCH  29  31
HETATM   31  C11 UNL     1      30.997   2.464  27.455  1.00  0.00     0.039 A 
HETATM   32  C12 UNL     1      30.061   2.859  28.582  1.00  0.00     0.039 C 
HETATM   33  C13 UNL     1      32.438   2.055  27.834  1.00  0.00     0.045 A 
HETATM   34  C14 UNL     1      31.417   1.022  27.512  1.00  0.00     0.005 A 
HETATM   35  C15 UNL     1      31.002   0.187  28.724  1.00  0.00     0.020 C 
BRANCH  34  36
HETATM   36  C16 UNL     1      31.457   0.231  26.250  1.00  0.00     0.175 C 
BRANCH  36  37
HETATM   37  O2  UNL     1      30.809  -1.000  26.500  1.00  0.00    -0.400 OA
ATOM     38  H2  UNL     1      31.425  -1.693  26.293  1.00  0.00     0.209 HD
ENDBRANCH  36  37
ENDBRANCH  34  36
ENDBRANCH  29  31
ENDBRANCH  26  27
ENDBRANCH  21  26
ENDBRANCH  20  21
ENDBRANCH   1  20
TORSDOF 11
ENDMDL
MODEL 2
REMARK VINA RESULT: -7.672066672      3.392      6.043
REMARK  11 active torsions:
REMARK  status: ('A' for Active; 'I' for Inactive)
REMARK    1  A    between atoms: N1_2  and  C2_4 
REMARK    2  A    between atoms: C3_7  and  C4_8 
REMARK    3  A    between atoms: C4_8  and  N3_9 
REMARK    4  A    between atoms: N4_12  and  C7_13 
REMARK    5  A    between atoms: C7_13  and  C8_14 
REMARK    6  A    between atoms: C8_14  and  N5_15 
REMARK    7  A    between atoms: N5_15  and  C9_16 
REMARK    8  A    between atoms: C9_16  and  C10_17 
REMARK       I    between atoms: C10_17  and  N6_19 
REMARK    9  A    between atoms: N6_19  and  C11_21 
REMARK   10  A    between atoms: C14_24  and  C16_26 
REMARK   11  A    between atoms: C16_26  and  O2_27 
ROOT
HETATM    1  C7  UNL     1      28.943   5.553  24.628  1.00  0.00     0.265 C 
ENDROOT
BRANCH   1   2
HETATM    2  N4  UNL     1      27.631   6.136  24.701  1.00  0.00    -0.061 N 
HETATM    3  C6  UNL     1      26.573   5.143  24.765  1.00  0.00     0.265 C 
HETATM    4  C5  UNL     1      25.304   5.839  24.305  1.00  0.00     0.266 C 
HETATM    5  N3  UNL     1      25.398   7.277  24.626  1.00  0.00    -0.057 N 
HETATM    6  C22 UNL     1      26.327   7.895  23.731  1.00  0.00     0.266 C 
HETATM    7  C24 UNL     1      25.997   7.328  25.959  1.00  0.00     0.266 C 
HETATM    8  C21 UNL     1      27.431   6.888  23.476  1.00  0.00     0.265 C 
HETATM    9  C23 UNL     1      27.472   7.023  25.814  1.00  0.00     0.265 C 
BRANCH   5  10
HETATM   10  C4  UNL     1      24.107   7.871  24.699  1.00  0.00     0.294 C 
BRANCH  10  11
HETATM   11  C3  UNL     1      23.375   7.835  23.362  1.00  0.00     0.044 A 
HETATM   12  N2  UNL     1      23.953   7.590  22.224  1.00  0.00    -0.338 N 
HETATM   13  C2  UNL     1      23.220   7.580  21.109  1.00  0.00     0.144 A 
ATOM     14  H2  UNL     1      24.956   7.407  22.183  1.00  0.00     0.168 HD
HETATM   15  S1  UNL     1      21.649   7.930  21.690  1.00  0.00    -0.064 SA
HETATM   16  C25 UNL     1      22.021   8.073  23.349  1.00  0.00     0.080 A 
BRANCH  13  17
HETATM   17  N1  UNL     1      23.610   7.359  19.870  1.00  0.00    -0.375 N 
HETATM   18  C1  UNL     1      22.586   6.938  18.943  1.00  0.00     0.148 C 
ATOM     19  H1  UNL     1      24.581   7.480  19.581  1.00  0.00     0.161 HD
ENDBRANCH  13  17
ENDBRANCH  10  11
ENDBRANCH   5  10
ENDBRANCH   1   2
BRANCH   1  20
HETATM   20  C8  UNL     1      28.948   4.044  24.684  1.00  0.00     0.266 C 
BRANCH  20  21
HETATM   21  N5  UNL     1      29.895   3.453  23.790  1.00  0.00    -0.051 N 
HETATM   22  C17 UNL     1      31.269   3.552  24.191  1.00  0.00     0.265 C 
HETATM   23  C18 UNL     1      31.962   3.226  22.899  1.00  0.00    -0.002 C 
HETATM   24  C19 UNL     1      31.170   3.620  21.902  1.00  0.00    -0.002 C 
HETATM   25  C20 UNL     1      29.952   4.207  22.522  1.00  0.00     0.265 C 
BRANCH  21  26
HETATM   26  C9  UNL     1      29.471   2.141  23.419  1.00  0.00     0.340 C 
BRANCH  26  27
HETATM   27  C10 UNL     1      28.084   1.981  23.026  1.00  0.00     0.244 C 
HETATM   28  O1  UNL     1      27.182   1.910  23.886  1.00  0.00    -0.272 OA
HETATM   29  N6  UNL     1      27.722   1.902  21.659  1.00  0.00    -0.350 N 
ATOM     30  H6  UNL     1      28.472   1.963  20.970  1.00  0.00     0.163 HD
BRANCH  29  31
HETATM   31  C11 UNL     1      26.385   1.741  21.167  1.00  0.00     0.039 A 
HETATM   32  C12 UNL     1      25.554   0.613  21.748  1.00  0.00     0.039 C 
HETATM   33  C13 UNL     1      26.135   2.125  19.691  1.00  0.00     0.045 A 
HETATM   34  C14 UNL     1      25.568   2.946  20.795  1.00  0.00     0.005 A 
HETATM   35  C15 UNL     1      24.044   2.855  20.892  1.00  0.00     0.020 C 
BRANCH  34  36
HETATM   36  C16 UNL     1      26.089   4.302  21.124  1.00  0.00     0.175 C 
BRANCH  36  37
HETATM   37  O2  UNL     1      25.771   5.154  20.042  1.00  0.00    -0.400 OA
ATOM     38  H2  UNL     1      25.198   4.671  19.458  1.00  0.00     0.209 HD
ENDBRANCH  36  37
ENDBRANCH  34  36
ENDBRANCH  29  31
ENDBRANCH  26  27
ENDBRANCH  21  26
ENDBRANCH  20  21
ENDBRANCH   1  20
TORSDOF 11
ENDMDL
MODEL 3
REMARK VINA RESULT: -7.621802051      2.511      3.840
REMARK  11 active torsions:
REMARK  status: ('A' for Active; 'I' for Inactive)
REMARK    1  A    between atoms: N1_2  and  C2_4 
REMARK    2  A    between atoms: C3_7  and  C4_8 
REMARK    3  A    between atoms: C4_8  and  N3_9 
REMARK    4  A    between atoms: N4_12  and  C7_13 
REMARK    5  A    between atoms: C7_13  and  C8_14 
REMARK    6  A    between atoms: C8_14  and  N5_15 
REMARK    7  A    between atoms: N5_15  and  C9_16 
REMARK    8  A    between atoms: C9_16  and  C10_17 
REMARK       I    between atoms: C10_17  and  N6_19 
REMARK    9  A    between atoms: N6_19  and  C11_21 
REMARK   10  A    between atoms: C14_24  and  C16_26 
REMARK   11  A    between atoms: C16_26  and  O2_27 
ROOT
HETATM    1  C7  UNL     1      27.227   2.769  22.392  1.00  0.00     0.265 C 
ENDROOT
BRANCH   1   2
HETATM    2  N4  UNL     1      26.242   2.872  21.351  1.00  0.00    -0.061 N 
HETATM    3  C6  UNL     1      26.392   1.852  20.327  1.00  0.00     0.265 C 
HETATM    4  C5  UNL     1      25.687   2.381  19.090  1.00  0.00     0.266 C 
HETATM    5  N3  UNL     1      24.595   3.283  19.504  1.00  0.00    -0.057 N 
HETATM    6  C22 UNL     1      25.157   4.509  19.980  1.00  0.00     0.266 C 
HETATM    7  C24 UNL     1      23.977   2.625  20.655  1.00  0.00     0.266 C 
HETATM    8  C21 UNL     1      26.442   4.155  20.701  1.00  0.00     0.265 C 
HETATM    9  C23 UNL     1      24.898   2.812  21.841  1.00  0.00     0.265 C 
BRANCH   5  10
HETATM   10  C4  UNL     1      23.611   3.399  18.482  1.00  0.00     0.294 C 
BRANCH  10  11
HETATM   11  C3  UNL     1      23.776   4.673  17.659  1.00  0.00     0.044 A 
HETATM   12  N2  UNL     1      24.600   4.790  16.661  1.00  0.00    -0.338 N 
HETATM   13  C2  UNL     1      24.667   5.949  16.004  1.00  0.00     0.144 A 
ATOM     14  H2  UNL     1      25.189   4.005  16.383  1.00  0.00     0.168 HD
HETATM   15  S1  UNL     1      23.519   6.915  16.828  1.00  0.00    -0.064 SA
HETATM   16  C25 UNL     1      23.009   5.767  17.984  1.00  0.00     0.080 A 
BRANCH  13  17
HETATM   17  N1  UNL     1      25.430   6.271  14.980  1.00  0.00    -0.375 N 
HETATM   18  C1  UNL     1      25.385   7.653  14.558  1.00  0.00     0.148 C 
ATOM     19  H1  UNL     1      26.021   5.584  14.511  1.00  0.00     0.161 HD
ENDBRANCH  13  17
ENDBRANCH  10  11
ENDBRANCH   5  10
ENDBRANCH   1   2
BRANCH   1  20
HETATM   20  C8  UNL     1      28.238   3.891  22.394  1.00  0.00     0.266 C 
BRANCH  20  21
HETATM   21  N5  UNL     1      29.508   3.501  22.924  1.00  0.00    -0.051 N 
HETATM   22  C17 UNL     1      30.652   3.967  22.193  1.00  0.00     0.265 C 
HETATM   23  C18 UNL     1      31.723   3.074  22.751  1.00  0.00    -0.002 C 
HETATM   24  C19 UNL     1      31.150   1.924  23.104  1.00  0.00    -0.002 C 
HETATM   25  C20 UNL     1      29.703   2.044  22.784  1.00  0.00     0.265 C 
BRANCH  21  26
HETATM   26  C9  UNL     1      29.552   3.745  24.330  1.00  0.00     0.340 C 
BRANCH  26  27
HETATM   27  C10 UNL     1      28.847   4.914  24.821  1.00  0.00     0.244 C 
HETATM   28  O1  UNL     1      29.321   6.058  24.659  1.00  0.00    -0.272 OA
HETATM   29  N6  UNL     1      27.609   4.784  25.494  1.00  0.00    -0.350 N 
ATOM     30  H6  UNL     1      27.237   3.842  25.616  1.00  0.00     0.163 HD
BRANCH  29  31
HETATM   31  C11 UNL     1      26.837   5.872  26.019  1.00  0.00     0.039 A 
HETATM   32  C12 UNL     1      27.491   6.759  27.061  1.00  0.00     0.039 C 
HETATM   33  C13 UNL     1      25.310   5.657  26.123  1.00  0.00     0.045 A 
HETATM   34  C14 UNL     1      25.874   6.612  25.131  1.00  0.00     0.005 A 
HETATM   35  C15 UNL     1      25.558   8.073  25.455  1.00  0.00     0.020 C 
BRANCH  34  36
HETATM   36  C16 UNL     1      25.878   6.330  23.669  1.00  0.00     0.175 C 
BRANCH  36  37
HETATM   37  O2  UNL     1      26.935   7.074  23.096  1.00  0.00    -0.400 OA
ATOM     38  H2  UNL     1      27.570   6.453  22.759  1.00  0.00     0.209 HD
ENDBRANCH  36  37
ENDBRANCH  34  36
ENDBRANCH  29  31
ENDBRANCH  26  27
ENDBRANCH  21  26
ENDBRANCH  20  21
ENDBRANCH   1  20
TORSDOF 11
ENDMDL
MODEL 4
REMARK VINA RESULT: -7.596738064      1.376      1.888
REMARK  11 active torsions:
REMARK  status: ('A' for Active; 'I' for Inactive)
REMARK    1  A    between atoms: N1_2  and  C2_4 
REMARK    2  A    between atoms: C3_7  and  C4_8 
REMARK    3  A    between atoms: C4_8  and  N3_9 
REMARK    4  A    between atoms: N4_12  and  C7_13 
REMARK    5  A    between atoms: C7_13  and  C8_14 
REMARK    6  A    between atoms: C8_14  and  N5_15 
REMARK    7  A    between atoms: N5_15  and  C9_16 
REMARK    8  A    between atoms: C9_16  and  C10_17 
REMARK       I    between atoms: C10_17  and  N6_19 
REMARK    9  A    between atoms: N6_19  and  C11_21 
REMARK   10  A    between atoms: C14_24  and  C16_26 
REMARK   11  A    between atoms: C16_26  and  O2_27 
ROOT
HETATM    1  C7  UNL     1      27.190   3.582  23.046  1.00  0.00     0.265 C 
ENDROOT
BRANCH   1   2
HETATM    2  N4  UNL     1      26.324   3.433  21.907  1.00  0.00    -0.061 N 
HETATM    3  C6  UNL     1      26.527   2.179  21.203  1.00  0.00     0.265 C 
HETATM    4  C5  UNL     1      25.983   2.384  19.800  1.00  0.00     0.266 C 
HETATM    5  N3  UNL     1      24.902   3.388  19.842  1.00  0.00    -0.057 N 
HETATM    6  C22 UNL     1      25.474   4.682  20.049  1.00  0.00     0.266 C 
HETATM    7  C24 UNL     1      24.134   3.066  21.046  1.00  0.00     0.266 C 
HETATM    8  C21 UNL     1      26.657   4.499  20.979  1.00  0.00     0.265 C 
HETATM    9  C23 UNL     1      24.936   3.534  22.241  1.00  0.00     0.265 C 
BRANCH   5  10
HETATM   10  C4  UNL     1      24.037   3.257  18.719  1.00  0.00     0.294 C 
BRANCH  10  11
HETATM   11  C3  UNL     1      24.006   4.516  17.860  1.00  0.00     0.044 A 
HETATM   12  N2  UNL     1      24.767   4.705  16.823  1.00  0.00    -0.338 N 
HETATM   13  C2  UNL     1      24.661   5.843  16.135  1.00  0.00     0.144 A 
ATOM     14  H2  UNL     1      25.438   3.991  16.537  1.00  0.00     0.168 HD
HETATM   15  S1  UNL     1      23.436   6.683  16.987  1.00  0.00    -0.064 SA
HETATM   16  C25 UNL     1      23.123   5.515  18.192  1.00  0.00     0.080 A 
BRANCH  13  17
HETATM   17  N1  UNL     1      25.334   6.228  15.071  1.00  0.00    -0.375 N 
HETATM   18  C1  UNL     1      25.217   7.621  14.708  1.00  0.00     0.148 C 
ATOM     19  H1  UNL     1      25.907   5.577  14.532  1.00  0.00     0.161 HD
ENDBRANCH  13  17
ENDBRANCH  10  11
ENDBRANCH   5  10
ENDBRANCH   1   2
BRANCH   1  20
HETATM   20  C8  UNL     1      28.198   2.469  23.200  1.00  0.00     0.266 C 
BRANCH  20  21
HETATM   21  N5  UNL     1      29.550   2.912  23.058  1.00  0.00    -0.051 N 
HETATM   22  C17 UNL     1      29.721   4.325  22.877  1.00  0.00     0.265 C 
HETATM   23  C18 UNL     1      31.134   4.373  22.369  1.00  0.00    -0.002 C 
HETATM   24  C19 UNL     1      31.370   3.235  21.717  1.00  0.00    -0.002 C 
HETATM   25  C20 UNL     1      30.123   2.428  21.786  1.00  0.00     0.265 C 
BRANCH  21  26
HETATM   26  C9  UNL     1      30.369   2.332  24.074  1.00  0.00     0.340 C 
BRANCH  26  27
HETATM   27  C10 UNL     1      30.076   2.696  25.447  1.00  0.00     0.244 C 
HETATM   28  O1  UNL     1      30.127   3.888  25.815  1.00  0.00    -0.272 OA
HETATM   29  N6  UNL     1      29.728   1.709  26.400  1.00  0.00    -0.350 N 
ATOM     30  H6  UNL     1      29.691   0.741  26.082  1.00  0.00     0.163 HD
BRANCH  29  31
HETATM   31  C11 UNL     1      29.425   1.963  27.778  1.00  0.00     0.039 A 
HETATM   32  C12 UNL     1      30.506   2.601  28.630  1.00  0.00     0.039 C 
HETATM   33  C13 UNL     1      28.460   0.975  28.473  1.00  0.00     0.045 A 
HETATM   34  C14 UNL     1      28.036   2.371  28.183  1.00  0.00     0.005 A 
HETATM   35  C15 UNL     1      27.862   3.222  29.442  1.00  0.00     0.020 C 
BRANCH  34  36
HETATM   36  C16 UNL     1      27.041   2.695  27.123  1.00  0.00     0.175 C 
BRANCH  36  37
HETATM   37  O2  UNL     1      26.717   1.488  26.461  1.00  0.00    -0.400 OA
ATOM     38  H2  UNL     1      26.662   0.808  27.122  1.00  0.00     0.209 HD
ENDBRANCH  36  37
ENDBRANCH  34  36
ENDBRANCH  29  31
ENDBRANCH  26  27
ENDBRANCH  21  26
ENDBRANCH  20  21
ENDBRANCH   1  20
TORSDOF 11
ENDMDL
MODEL 5
REMARK VINA RESULT: -7.503590122      1.733      2.145
REMARK  11 active torsions:
REMARK  status: ('A' for Active; 'I' for Inactive)
REMARK    1  A    between atoms: N1_2  and  C2_4 
REMARK    2  A    between atoms: C3_7  and  C4_8 
REMARK    3  A    between atoms: C4_8  and  N3_9 
REMARK    4  A    between atoms: N4_12  and  C7_13 
REMARK    5  A    between atoms: C7_13  and  C8_14 
REMARK    6  A    between atoms: C8_14  and  N5_15 
REMARK    7  A    between atoms: N5_15  and  C9_16 
REMARK    8  A    between atoms: C9_16  and  C10_17 
REMARK       I    between atoms: C10_17  and  N6_19 
REMARK    9  A    between atoms: N6_19  and  C11_21 
REMARK   10  A    between atoms: C14_24  and  C16_26 
REMARK   11  A    between atoms: C16_26  and  O2_27 
ROOT
HETATM    1  C7  UNL     1      27.534   2.024  23.207  1.00  0.00     0.265 C 
ENDROOT
BRANCH   1   2
HETATM    2  N4  UNL     1      26.587   2.166  22.135  1.00  0.00    -0.061 N 
HETATM    3  C6  UNL     1      27.221   2.319  20.836  1.00  0.00     0.265 C 
HETATM    4  C5  UNL     1      26.192   2.975  19.932  1.00  0.00     0.266 C 
HETATM    5  N3  UNL     1      24.839   2.601  20.389  1.00  0.00    -0.057 N 
HETATM    6  C22 UNL     1      24.546   3.300  21.602  1.00  0.00     0.266 C 
HETATM    7  C24 UNL     1      24.934   1.182  20.731  1.00  0.00     0.266 C 
HETATM    8  C21 UNL     1      25.840   3.386  22.387  1.00  0.00     0.265 C 
HETATM    9  C23 UNL     1      25.665   1.074  22.051  1.00  0.00     0.265 C 
BRANCH   5  10
HETATM   10  C4  UNL     1      23.888   2.740  19.340  1.00  0.00     0.294 C 
BRANCH  10  11
HETATM   11  C3  UNL     1      23.878   4.144  18.746  1.00  0.00     0.044 A 
HETATM   12  N2  UNL     1      23.649   5.222  19.436  1.00  0.00    -0.338 N 
HETATM   13  C2  UNL     1      23.665   6.406  18.820  1.00  0.00     0.144 A 
ATOM     14  H2  UNL     1      23.459   5.164  20.436  1.00  0.00     0.168 HD
HETATM   15  S1  UNL     1      24.019   5.981  17.200  1.00  0.00    -0.064 SA
HETATM   16  C25 UNL     1      24.128   4.290  17.402  1.00  0.00     0.080 A 
BRANCH  13  17
HETATM   17  N1  UNL     1      23.456   7.601  19.331  1.00  0.00    -0.375 N 
HETATM   18  C1  UNL     1      22.773   7.644  20.603  1.00  0.00     0.148 C 
ATOM     19  H1  UNL     1      23.760   8.451  18.855  1.00  0.00     0.161 HD
ENDBRANCH  13  17
ENDBRANCH  10  11
ENDBRANCH   5  10
ENDBRANCH   1   2
BRANCH   1  20
HETATM   20  C8  UNL     1      28.149   3.327  23.660  1.00  0.00     0.266 C 
BRANCH  20  21
HETATM   21  N5  UNL     1      29.548   3.414  23.380  1.00  0.00    -0.051 N 
HETATM   22  C17 UNL     1      29.899   4.163  22.208  1.00  0.00     0.265 C 
HETATM   23  C18 UNL     1      31.317   3.714  22.001  1.00  0.00    -0.002 C 
HETATM   24  C19 UNL     1      31.423   2.473  22.476  1.00  0.00    -0.002 C 
HETATM   25  C20 UNL     1      30.083   2.091  22.997  1.00  0.00     0.265 C 
BRANCH  21  26
HETATM   26  C9  UNL     1      30.267   3.773  24.560  1.00  0.00     0.340 C 
BRANCH  26  27
HETATM   27  C10 UNL     1      29.640   3.472  25.833  1.00  0.00     0.244 C 
HETATM   28  O1  UNL     1      29.032   4.359  26.469  1.00  0.00    -0.272 OA
HETATM   29  N6  UNL     1      29.704   2.170  26.383  1.00  0.00    -0.350 N 
ATOM     30  H6  UNL     1      30.203   1.458  25.850  1.00  0.00     0.163 HD
BRANCH  29  31
HETATM   31  C11 UNL     1      29.122   1.771  27.632  1.00  0.00     0.039 A 
HETATM   32  C12 UNL     1      27.609   1.783  27.737  1.00  0.00     0.039 C 
HETATM   33  C13 UNL     1      29.928   2.093  28.910  1.00  0.00     0.045 A 
HETATM   34  C14 UNL     1      29.764   0.687  28.452  1.00  0.00     0.005 A 
HETATM   35  C15 UNL     1      28.879  -0.149  29.378  1.00  0.00     0.020 C 
BRANCH  34  36
HETATM   36  C16 UNL     1      30.888  -0.094  27.864  1.00  0.00     0.175 C 
BRANCH  36  37
HETATM   37  O2  UNL     1      30.353  -0.894  26.828  1.00  0.00    -0.400 OA
ATOM     38  H2  UNL     1      29.996  -0.308  26.171  1.00  0.00     0.209 HD
ENDBRANCH  36  37
ENDBRANCH  34  36
ENDBRANCH  29  31
ENDBRANCH  26  27
ENDBRANCH  21  26
ENDBRANCH  20  21
ENDBRANCH   1  20
TORSDOF 11
ENDMDL
