MODEL 1
REMARK VINA RESULT: -6.765644041      0.000      0.000
REMARK  9 active torsions:
REMARK  status: ('A' for Active; 'I' for Inactive)
REMARK    1  A    between atoms: C2_2  and  C4_4 
REMARK    2  A    between atoms: C4_4  and  C5_5 
REMARK    3  A    between atoms: C7_10  and  C8_11 
REMARK    4  A    between atoms: C8_11  and  C9_12 
REMARK    5  A    between atoms: N5_22  and  C14_23 
REMARK    6  A    between atoms: C14_23  and  C15_24 
REMARK       I    between atoms: C15_24  and  N6_26 
REMARK    7  A    between atoms: C19_31  and  C20_32 
REMARK    8  A    between atoms: C20_32  and  C21_33 
REMARK    9  A    between atoms: C24_38  and  O4_39 
ROOT
HETATM    1  C5  UNL     1      27.357   3.610  21.986  1.00  0.00     0.063 C 
HETATM    2  N1  UNL     1      28.676   3.057  22.159  1.00  0.00    -0.325 N 
ATOM      3  H1  UNL     1      29.276   3.110  21.336  1.00  0.00     0.169 HD
HETATM    4  C6  UNL     1      29.259   2.461  23.271  1.00  0.00     0.245 C 
HETATM    5  O1  UNL     1      29.777   1.290  23.178  1.00  0.00    -0.271 OA
HETATM    6  C7  UNL     1      29.377   3.026  24.657  1.00  0.00     0.180 C 
HETATM    7  N4  UNL     1      28.935   4.355  24.759  1.00  0.00    -0.372 N 
ATOM      8  H4  UNL     1      29.063   4.995  23.975  1.00  0.00     0.161 HD
HETATM    9  C13 UNL     1      28.317   4.805  25.939  1.00  0.00     0.182 C 
HETATM   10  N5  UNL     1      26.877   4.792  25.971  1.00  0.00    -0.304 N 
HETATM   11  C18 UNL     1      26.137   5.563  25.040  1.00  0.00     0.248 C 
HETATM   12  O3  UNL     1      24.903   5.444  25.061  1.00  0.00    -0.271 OA
HETATM   13  C19 UNL     1      26.759   6.502  24.045  1.00  0.00     0.176 C 
HETATM   14  N7  UNL     1      26.599   6.014  22.712  1.00  0.00    -0.356 N 
ATOM     15  H7  UNL     1      25.804   6.430  22.226  1.00  0.00     0.162 HD
HETATM   16  C24 UNL     1      27.299   5.090  21.931  1.00  0.00     0.159 C 
ENDROOT
BRANCH   6  17
HETATM   17  C8  UNL     1      30.763   2.879  25.231  1.00  0.00     0.093 C 
BRANCH  17  18
HETATM   18  C9  UNL     1      30.944   1.892  26.286  1.00  0.00     0.029 A 
HETATM   19  C10 UNL     1      31.261   0.544  26.127  1.00  0.00     0.114 A 
HETATM   20  N2  UNL     1      31.316  -0.048  27.321  1.00  0.00    -0.360 N 
HETATM   21  C11 UNL     1      31.043   0.871  28.234  1.00  0.00     0.182 A 
ATOM     22  H2  UNL     1      31.529  -1.030  27.498  1.00  0.00     0.166 HD
HETATM   23  N3  UNL     1      30.815   2.048  27.634  1.00  0.00    -0.350 N 
HETATM   24  C12 UNL     1      30.470   3.231  28.354  1.00  0.00     0.156 C 
ENDBRANCH  17  18
ENDBRANCH   6  17
BRANCH   1  25
HETATM   25  C4  UNL     1      26.252   2.918  22.707  1.00  0.00     0.065 C 
BRANCH  25  26
HETATM   26  C2  UNL     1      25.616   1.884  21.771  1.00  0.00    -0.017 C 
HETATM   27  C1  UNL     1      25.776   2.301  20.327  1.00  0.00     0.010 C 
HETATM   28  C3  UNL     1      26.178   0.503  22.004  1.00  0.00     0.010 C 
ENDBRANCH  25  26
ENDBRANCH   1  25
BRANCH  10  29
HETATM   29  C14 UNL     1      26.230   3.965  26.988  1.00  0.00     0.235 C 
BRANCH  29  30
HETATM   30  C15 UNL     1      26.713   2.589  26.991  1.00  0.00     0.237 C 
HETATM   31  O2  UNL     1      26.844   1.969  25.910  1.00  0.00    -0.272 OA
HETATM   32  N6  UNL     1      27.048   1.921  28.190  1.00  0.00    -0.359 N 
HETATM   33  C16 UNL     1      27.532   0.555  28.224  1.00  0.00     0.152 C 
HETATM   34  C17 UNL     1      26.900   2.632  29.443  1.00  0.00     0.152 C 
ENDBRANCH  29  30
ENDBRANCH  10  29
BRANCH  16  35
HETATM   35  O4  UNL     1      28.052   5.531  20.959  1.00  0.00    -0.345 OA
ATOM     36  H4  UNL     1      27.538   6.066  20.367  1.00  0.00     0.219 HD
ENDBRANCH  16  35
BRANCH  13  37
HETATM   37  C20 UNL     1      26.079   7.837  24.221  1.00  0.00     0.038 C 
BRANCH  37  38
HETATM   38  C21 UNL     1      26.512   8.723  25.306  1.00  0.00    -0.020 C 
HETATM   39  C22 UNL     1      27.920   8.683  25.746  1.00  0.00     0.009 C 
HETATM   40  C23 UNL     1      26.024  10.159  25.078  1.00  0.00     0.009 C 
ENDBRANCH  37  38
ENDBRANCH  13  37
TORSDOF 9
ENDMDL
MODEL 2
REMARK VINA RESULT: -6.686190233      0.898      1.219
REMARK  9 active torsions:
REMARK  status: ('A' for Active; 'I' for Inactive)
REMARK    1  A    between atoms: C2_2  and  C4_4 
REMARK    2  A    between atoms: C4_4  and  C5_5 
REMARK    3  A    between atoms: C7_10  and  C8_11 
REMARK    4  A    between atoms: C8_11  and  C9_12 
REMARK    5  A    between atoms: N5_22  and  C14_23 
REMARK    6  A    between atoms: C14_23  and  C15_24 
REMARK       I    between atoms: C15_24  and  N6_26 
REMARK    7  A    between atoms: C19_31  and  C20_32 
REMARK    8  A    between atoms: C20_32  and  C21_33 
REMARK    9  A    between atoms: C24_38  and  O4_39 
ROOT
HETATM    1  C5  UNL     1      27.277   3.507  21.838  1.00  0.00     0.063 C 
HETATM    2  N1  UNL     1      28.650   3.080  21.935  1.00  0.00    -0.325 N 
ATOM      3  H1  UNL     1      29.209   3.239  21.096  1.00  0.00     0.169 HD
HETATM    4  C6  UNL     1      29.333   2.487  22.990  1.00  0.00     0.245 C 
HETATM    5  O1  UNL     1      29.960   1.382  22.811  1.00  0.00    -0.271 OA
HETATM    6  C7  UNL     1      29.448   2.985  24.402  1.00  0.00     0.180 C 
HETATM    7  N4  UNL     1      28.880   4.255  24.595  1.00  0.00    -0.372 N 
ATOM      8  H4  UNL     1      28.913   4.946  23.846  1.00  0.00     0.161 HD
HETATM    9  C13 UNL     1      28.267   4.574  25.820  1.00  0.00     0.182 C 
HETATM   10  N5  UNL     1      26.838   4.414  25.899  1.00  0.00    -0.304 N 
HETATM   11  C18 UNL     1      25.990   5.156  25.040  1.00  0.00     0.248 C 
HETATM   12  O3  UNL     1      24.775   4.912  25.095  1.00  0.00    -0.271 OA
HETATM   13  C19 UNL     1      26.476   6.206  24.081  1.00  0.00     0.176 C 
HETATM   14  N7  UNL     1      26.313   5.778  22.728  1.00  0.00    -0.356 N 
ATOM     15  H7  UNL     1      25.462   6.137  22.294  1.00  0.00     0.162 HD
HETATM   16  C24 UNL     1      27.070   4.974  21.871  1.00  0.00     0.159 C 
ENDROOT
BRANCH   6  17
HETATM   17  C8  UNL     1      30.863   2.948  24.919  1.00  0.00     0.093 C 
BRANCH  17  18
HETATM   18  C9  UNL     1      31.142   2.044  26.025  1.00  0.00     0.029 A 
HETATM   19  C10 UNL     1      31.344   0.665  25.951  1.00  0.00     0.114 A 
HETATM   20  N2  UNL     1      31.545   0.176  27.175  1.00  0.00    -0.360 N 
HETATM   21  C11 UNL     1      31.477   1.187  28.026  1.00  0.00     0.182 A 
ATOM     22  H2  UNL     1      31.720  -0.801  27.412  1.00  0.00     0.166 HD
HETATM   23  N3  UNL     1      31.235   2.324  27.356  1.00  0.00    -0.350 N 
HETATM   24  C12 UNL     1      31.082   3.587  28.002  1.00  0.00     0.156 C 
ENDBRANCH  17  18
ENDBRANCH   6  17
BRANCH   1  25
HETATM   25  C4  UNL     1      26.275   2.668  22.554  1.00  0.00     0.065 C 
BRANCH  25  26
HETATM   26  C2  UNL     1      25.712   1.623  21.583  1.00  0.00    -0.017 C 
HETATM   27  C1  UNL     1      25.833   2.104  20.154  1.00  0.00     0.010 C 
HETATM   28  C3  UNL     1      26.378   0.281  21.763  1.00  0.00     0.010 C 
ENDBRANCH  25  26
ENDBRANCH   1  25
BRANCH  10  29
HETATM   29  C14 UNL     1      26.316   3.471  26.888  1.00  0.00     0.235 C 
BRANCH  29  30
HETATM   30  C15 UNL     1      26.851   3.700  28.225  1.00  0.00     0.237 C 
HETATM   31  O2  UNL     1      26.657   4.798  28.797  1.00  0.00    -0.272 OA
HETATM   32  N6  UNL     1      27.591   2.710  28.910  1.00  0.00    -0.359 N 
HETATM   33  C16 UNL     1      28.133   2.909  30.239  1.00  0.00     0.152 C 
HETATM   34  C17 UNL     1      27.819   1.439  28.254  1.00  0.00     0.152 C 
ENDBRANCH  29  30
ENDBRANCH  10  29
BRANCH  16  35
HETATM   35  O4  UNL     1      27.738   5.541  20.902  1.00  0.00    -0.345 OA
ATOM     36  H4  UNL     1      27.281   6.319  20.606  1.00  0.00     0.219 HD
ENDBRANCH  16  35
BRANCH  13  37
HETATM   37  C20 UNL     1      25.675   7.454  24.357  1.00  0.00     0.038 C 
BRANCH  37  38
HETATM   38  C21 UNL     1      26.378   8.717  24.601  1.00  0.00    -0.020 C 
HETATM   39  C22 UNL     1      25.592   9.934  24.876  1.00  0.00     0.009 C 
HETATM   40  C23 UNL     1      27.519   8.531  25.610  1.00  0.00     0.009 C 
ENDBRANCH  37  38
ENDBRANCH  13  37
TORSDOF 9
ENDMDL
MODEL 3
REMARK VINA RESULT: -6.484616088      0.482      1.064
REMARK  9 active torsions:
REMARK  status: ('A' for Active; 'I' for Inactive)
REMARK    1  A    between atoms: C2_2  and  C4_4 
REMARK    2  A    between atoms: C4_4  and  C5_5 
REMARK    3  A    between atoms: C7_10  and  C8_11 
REMARK    4  A    between atoms: C8_11  and  C9_12 
REMARK    5  A    between atoms: N5_22  and  C14_23 
REMARK    6  A    between atoms: C14_23  and  C15_24 
REMARK       I    between atoms: C15_24  and  N6_26 
REMARK    7  A    between atoms: C19_31  and  C20_32 
REMARK    8  A    between atoms: C20_32  and  C21_33 
REMARK    9  A    between atoms: C24_38  and  O4_39 
ROOT
HETATM    1  C5  UNL     1      27.398   3.732  21.999  1.00  0.00     0.063 C 
HETATM    2  N1  UNL     1      28.756   3.291  22.185  1.00  0.00    -0.325 N 
ATOM      3  H1  UNL     1      29.353   3.377  21.361  1.00  0.00     0.169 HD
HETATM    4  C6  UNL     1      29.383   2.766  23.308  1.00  0.00     0.245 C 
HETATM    5  O1  UNL     1      29.995   1.639  23.238  1.00  0.00    -0.271 OA
HETATM    6  C7  UNL     1      29.450   3.364  24.684  1.00  0.00     0.180 C 
HETATM    7  N4  UNL     1      28.901   4.655  24.759  1.00  0.00    -0.372 N 
ATOM      8  H4  UNL     1      28.979   5.288  23.964  1.00  0.00     0.161 HD
HETATM    9  C13 UNL     1      28.244   5.074  25.930  1.00  0.00     0.182 C 
HETATM   10  N5  UNL     1      26.810   4.945  25.960  1.00  0.00    -0.304 N 
HETATM   11  C18 UNL     1      26.013   5.636  25.014  1.00  0.00     0.248 C 
HETATM   12  O3  UNL     1      24.793   5.417  25.035  1.00  0.00    -0.271 OA
HETATM   13  C19 UNL     1      26.560   6.604  24.002  1.00  0.00     0.176 C 
HETATM   14  N7  UNL     1      26.444   6.080  22.678  1.00  0.00    -0.356 N 
ATOM     15  H7  UNL     1      25.619   6.419  22.183  1.00  0.00     0.162 HD
HETATM   16  C24 UNL     1      27.219   5.201  21.916  1.00  0.00     0.159 C 
ENDROOT
BRANCH   6  17
HETATM   17  C8  UNL     1      30.841   3.341  25.262  1.00  0.00     0.093 C 
BRANCH  17  18
HETATM   18  C9  UNL     1      31.006   2.727  26.571  1.00  0.00     0.029 A 
HETATM   19  C10 UNL     1      30.925   3.361  27.811  1.00  0.00     0.114 A 
HETATM   20  N2  UNL     1      31.160   2.477  28.782  1.00  0.00    -0.360 N 
HETATM   21  C11 UNL     1      31.389   1.306  28.210  1.00  0.00     0.182 A 
ATOM     22  H2  UNL     1      31.163   2.670  29.784  1.00  0.00     0.166 HD
HETATM   23  N3  UNL     1      31.302   1.432  26.877  1.00  0.00    -0.350 N 
HETATM   24  C12 UNL     1      31.523   0.344  25.981  1.00  0.00     0.156 C 
ENDBRANCH  17  18
ENDBRANCH   6  17
BRANCH   1  25
HETATM   25  C4  UNL     1      26.350   2.966  22.731  1.00  0.00     0.065 C 
BRANCH  25  26
HETATM   26  C2  UNL     1      25.760   1.905  21.795  1.00  0.00    -0.017 C 
HETATM   27  C1  UNL     1      25.872   2.345  20.352  1.00  0.00     0.010 C 
HETATM   28  C3  UNL     1      26.407   0.557  22.004  1.00  0.00     0.010 C 
ENDBRANCH  25  26
ENDBRANCH   1  25
BRANCH  10  29
HETATM   29  C14 UNL     1      26.229   4.087  26.992  1.00  0.00     0.235 C 
BRANCH  29  30
HETATM   30  C15 UNL     1      26.795   2.743  26.995  1.00  0.00     0.237 C 
HETATM   31  O2  UNL     1      26.758   2.046  25.954  1.00  0.00    -0.272 OA
HETATM   32  N6  UNL     1      27.395   2.191  28.148  1.00  0.00    -0.359 N 
HETATM   33  C16 UNL     1      27.966   0.860  28.181  1.00  0.00     0.152 C 
HETATM   34  C17 UNL     1      27.442   2.992  29.355  1.00  0.00     0.152 C 
ENDBRANCH  29  30
ENDBRANCH  10  29
BRANCH  16  35
HETATM   35  O4  UNL     1      27.937   5.683  20.937  1.00  0.00    -0.345 OA
ATOM     36  H4  UNL     1      28.313   6.517  21.191  1.00  0.00     0.219 HD
ENDBRANCH  16  35
BRANCH  13  37
HETATM   37  C20 UNL     1      25.773   7.882  24.152  1.00  0.00     0.038 C 
BRANCH  37  38
HETATM   38  C21 UNL     1      26.130   8.821  25.219  1.00  0.00    -0.020 C 
HETATM   39  C22 UNL     1      27.525   8.864  25.699  1.00  0.00     0.009 C 
HETATM   40  C23 UNL     1      25.580  10.224  24.932  1.00  0.00     0.009 C 
ENDBRANCH  37  38
ENDBRANCH  13  37
TORSDOF 9
ENDMDL
MODEL 4
REMARK VINA RESULT: -6.463746497      1.335      1.685
REMARK  9 active torsions:
REMARK  status: ('A' for Active; 'I' for Inactive)
REMARK    1  A    between atoms: C2_2  and  C4_4 
REMARK    2  A    between atoms: C4_4  and  C5_5 
REMARK    3  A    between atoms: C7_10  and  C8_11 
REMARK    4  A    between atoms: C8_11  and  C9_12 
REMARK    5  A    between atoms: N5_22  and  C14_23 
REMARK    6  A    between atoms: C14_23  and  C15_24 
REMARK       I    between atoms: C15_24  and  N6_26 
REMARK    7  A    between atoms: C19_31  and  C20_32 
REMARK    8  A    between atoms: C20_32  and  C21_33 
REMARK    9  A    between atoms: C24_38  and  O4_39 
ROOT
HETATM    1  C5  UNL     1      27.203   3.677  21.885  1.00  0.00     0.063 C 
HETATM    2  N1  UNL     1      28.500   3.077  22.071  1.00  0.00    -0.325 N 
ATOM      3  H1  UNL     1      29.124   3.143  21.267  1.00  0.00     0.169 HD
HETATM    4  C6  UNL     1      29.033   2.421  23.174  1.00  0.00     0.245 C 
HETATM    5  O1  UNL     1      29.519   1.240  23.049  1.00  0.00    -0.271 OA
HETATM    6  C7  UNL     1      29.129   2.928  24.584  1.00  0.00     0.180 C 
HETATM    7  N4  UNL     1      28.723   4.265  24.726  1.00  0.00    -0.372 N 
ATOM      8  H4  UNL     1      28.892   4.931  23.972  1.00  0.00     0.161 HD
HETATM    9  C13 UNL     1      28.086   4.688  25.906  1.00  0.00     0.182 C 
HETATM   10  N5  UNL     1      26.646   4.718  25.898  1.00  0.00    -0.304 N 
HETATM   11  C18 UNL     1      25.956   5.547  24.980  1.00  0.00     0.248 C 
HETATM   12  O3  UNL     1      24.719   5.465  24.962  1.00  0.00    -0.271 OA
HETATM   13  C19 UNL     1      26.634   6.504  24.040  1.00  0.00     0.176 C 
HETATM   14  N7  UNL     1      26.496   6.074  22.684  1.00  0.00    -0.356 N 
ATOM     15  H7  UNL     1      25.728   6.531  22.194  1.00  0.00     0.162 HD
HETATM   16  C24 UNL     1      27.190   5.159  21.886  1.00  0.00     0.159 C 
ENDROOT
BRANCH   6  17
HETATM   17  C8  UNL     1      30.493   2.717  25.189  1.00  0.00     0.093 C 
BRANCH  17  18
HETATM   18  C9  UNL     1      30.665   1.554  26.047  1.00  0.00     0.029 A 
HETATM   19  C10 UNL     1      31.303   0.357  25.719  1.00  0.00     0.114 A 
HETATM   20  N2  UNL     1      31.238  -0.483  26.753  1.00  0.00    -0.360 N 
HETATM   21  C11 UNL     1      30.582   0.130  27.726  1.00  0.00     0.182 A 
ATOM     22  H2  UNL     1      31.624  -1.427  26.787  1.00  0.00     0.166 HD
HETATM   23  N3  UNL     1      30.227   1.360  27.323  1.00  0.00    -0.350 N 
HETATM   24  C12 UNL     1      29.484   2.259  28.145  1.00  0.00     0.156 C 
ENDBRANCH  17  18
ENDBRANCH   6  17
BRANCH   1  25
HETATM   25  C4  UNL     1      26.058   2.992  22.547  1.00  0.00     0.065 C 
BRANCH  25  26
HETATM   26  C2  UNL     1      25.503   1.919  21.604  1.00  0.00    -0.017 C 
HETATM   27  C1  UNL     1      25.850   2.241  20.167  1.00  0.00     0.010 C 
HETATM   28  C3  UNL     1      25.987   0.541  21.984  1.00  0.00     0.010 C 
ENDBRANCH  25  26
ENDBRANCH   1  25
BRANCH  10  29
HETATM   29  C14 UNL     1      25.946   3.872  26.865  1.00  0.00     0.235 C 
BRANCH  29  30
HETATM   30  C15 UNL     1      25.759   4.524  28.156  1.00  0.00     0.237 C 
HETATM   31  O2  UNL     1      26.756   4.888  28.823  1.00  0.00    -0.272 OA
HETATM   32  N6  UNL     1      24.473   4.764  28.689  1.00  0.00    -0.359 N 
HETATM   33  C16 UNL     1      24.257   5.410  29.968  1.00  0.00     0.152 C 
HETATM   34  C17 UNL     1      23.317   4.346  27.923  1.00  0.00     0.152 C 
ENDBRANCH  29  30
ENDBRANCH  10  29
BRANCH  16  35
HETATM   35  O4  UNL     1      27.984   5.614  20.953  1.00  0.00    -0.345 OA
ATOM     36  H4  UNL     1      28.538   6.300  21.305  1.00  0.00     0.219 HD
ENDBRANCH  16  35
BRANCH  13  37
HETATM   37  C20 UNL     1      25.989   7.852  24.249  1.00  0.00     0.038 C 
BRANCH  37  38
HETATM   38  C21 UNL     1      26.493   8.728  25.311  1.00  0.00    -0.020 C 
HETATM   39  C22 UNL     1      27.902   8.609  25.730  1.00  0.00     0.009 C 
HETATM   40  C23 UNL     1      26.090  10.188  25.064  1.00  0.00     0.009 C 
ENDBRANCH  37  38
ENDBRANCH  13  37
TORSDOF 9
ENDMDL
MODEL 5
REMARK VINA RESULT: -6.448345945      2.114      5.867
REMARK  9 active torsions:
REMARK  status: ('A' for Active; 'I' for Inactive)
REMARK    1  A    between atoms: C2_2  and  C4_4 
REMARK    2  A    between atoms: C4_4  and  C5_5 
REMARK    3  A    between atoms: C7_10  and  C8_11 
REMARK    4  A    between atoms: C8_11  and  C9_12 
REMARK    5  A    between atoms: N5_22  and  C14_23 
REMARK    6  A    between atoms: C14_23  and  C15_24 
REMARK       I    between atoms: C15_24  and  N6_26 
REMARK    7  A    between atoms: C19_31  and  C20_32 
REMARK    8  A    between atoms: C20_32  and  C21_33 
REMARK    9  A    between atoms: C24_38  and  O4_39 
ROOT
HETATM    1  C5  UNL     1      29.274   5.297  22.878  1.00  0.00     0.063 C 
HETATM    2  N1  UNL     1      29.174   6.544  23.593  1.00  0.00    -0.325 N 
ATOM      3  H1  UNL     1      29.307   7.379  23.022  1.00  0.00     0.169 HD
HETATM    4  C6  UNL     1      28.926   6.789  24.938  1.00  0.00     0.245 C 
HETATM    5  O1  UNL     1      29.733   7.517  25.620  1.00  0.00    -0.271 OA
HETATM    6  C7  UNL     1      27.776   6.289  25.763  1.00  0.00     0.180 C 
HETATM    7  N4  UNL     1      26.810   5.597  25.015  1.00  0.00    -0.372 N 
ATOM      8  H4  UNL     1      26.616   5.875  24.053  1.00  0.00     0.161 HD
HETATM    9  C13 UNL     1      26.109   4.522  25.590  1.00  0.00     0.182 C 
HETATM   10  N5  UNL     1      26.614   3.198  25.331  1.00  0.00    -0.304 N 
HETATM   11  C18 UNL     1      26.690   2.712  24.003  1.00  0.00     0.248 C 
HETATM   12  O3  UNL     1      27.213   1.600  23.836  1.00  0.00    -0.271 OA
HETATM   13  C19 UNL     1      26.179   3.461  22.804  1.00  0.00     0.176 C 
HETATM   14  N7  UNL     1      27.257   3.888  21.970  1.00  0.00    -0.356 N 
ATOM     15  H7  UNL     1      27.431   3.258  21.186  1.00  0.00     0.162 HD
HETATM   16  C24 UNL     1      28.125   4.983  21.997  1.00  0.00     0.159 C 
ENDROOT
BRANCH   6  17
HETATM   17  C8  UNL     1      27.135   7.376  26.588  1.00  0.00     0.093 C 
BRANCH  17  18
HETATM   18  C9  UNL     1      26.188   8.251  25.911  1.00  0.00     0.029 A 
HETATM   19  C10 UNL     1      26.490   9.326  25.075  1.00  0.00     0.114 A 
HETATM   20  N2  UNL     1      25.361   9.906  24.665  1.00  0.00    -0.360 N 
HETATM   21  C11 UNL     1      24.352   9.244  25.209  1.00  0.00     0.182 A 
ATOM     22  H2  UNL     1      25.288  10.712  24.045  1.00  0.00     0.166 HD
HETATM   23  N3  UNL     1      24.826   8.242  25.965  1.00  0.00    -0.350 N 
HETATM   24  C12 UNL     1      23.980   7.362  26.704  1.00  0.00     0.156 C 
ENDBRANCH  17  18
ENDBRANCH   6  17
BRANCH   1  25
HETATM   25  C4  UNL     1      29.885   4.159  23.620  1.00  0.00     0.065 C 
BRANCH  25  26
HETATM   26  C2  UNL     1      30.458   3.155  22.613  1.00  0.00    -0.017 C 
HETATM   27  C1  UNL     1      31.705   3.708  21.960  1.00  0.00     0.010 C 
HETATM   28  C3  UNL     1      30.729   1.816  23.255  1.00  0.00     0.010 C 
ENDBRANCH  25  26
ENDBRANCH   1  25
BRANCH  10  29
HETATM   29  C14 UNL     1      27.032   2.397  26.481  1.00  0.00     0.235 C 
BRANCH  29  30
HETATM   30  C15 UNL     1      28.394   2.691  26.910  1.00  0.00     0.237 C 
HETATM   31  O2  UNL     1      29.366   2.209  26.282  1.00  0.00    -0.272 OA
HETATM   32  N6  UNL     1      28.661   3.516  28.025  1.00  0.00    -0.359 N 
HETATM   33  C16 UNL     1      30.003   3.827  28.474  1.00  0.00     0.152 C 
HETATM   34  C17 UNL     1      27.543   4.076  28.755  1.00  0.00     0.152 C 
ENDBRANCH  29  30
ENDBRANCH  10  29
BRANCH  16  35
HETATM   35  O4  UNL     1      27.959   5.939  21.122  1.00  0.00    -0.345 OA
ATOM     36  H4  UNL     1      27.473   6.655  21.511  1.00  0.00     0.219 HD
ENDBRANCH  16  35
BRANCH  13  37
HETATM   37  C20 UNL     1      25.257   2.523  22.064  1.00  0.00     0.038 C 
BRANCH  37  38
HETATM   38  C21 UNL     1      25.775   1.769  20.918  1.00  0.00    -0.020 C 
HETATM   39  C22 UNL     1      25.926   0.306  21.032  1.00  0.00     0.009 C 
HETATM   40  C23 UNL     1      25.063   2.172  19.621  1.00  0.00     0.009 C 
ENDBRANCH  37  38
ENDBRANCH  13  37
TORSDOF 9
ENDMDL
