MODEL 1
REMARK VINA RESULT: -8.895566727      0.000      0.000
REMARK  11 active torsions:
REMARK  status: ('A' for Active; 'I' for Inactive)
REMARK    1  A    between atoms: C4_5  and  N2_6 
REMARK    2  A    between atoms: N2_6  and  C5_8 
REMARK    3  A    between atoms: C5_8  and  C6_9 
REMARK    4  A    between atoms: N3_12  and  C9_13 
REMARK    5  A    between atoms: C9_13  and  O1_14 
REMARK    6  A    between atoms: O1_14  and  C10_15 
REMARK    7  A    between atoms: C10_15  and  N4_16 
REMARK    8  A    between atoms: C13_19  and  C14_20 
REMARK    9  A    between atoms: C14_20  and  N5_21 
REMARK   10  A    between atoms: C16_25  and  N7_26 
REMARK   11  A    between atoms: N9_32  and  O2_33 
ROOT
HETATM    1  C9  UNL     1      25.806   3.191  22.311  1.00  0.00     0.299 C 
ENDROOT
BRANCH   1   2
HETATM    2  N3  UNL     1      27.249   2.915  22.391  1.00  0.00    -0.345 N 
HETATM    3  C8  UNL     1      28.124   3.877  22.139  1.00  0.00     0.093 A 
HETATM    4  C7  UNL     1      29.485   3.667  22.211  1.00  0.00     0.026 A 
HETATM    5  C6  UNL     1      29.932   2.389  22.564  1.00  0.00    -0.038 A 
HETATM    6  C19 UNL     1      29.009   1.407  22.822  1.00  0.00     0.026 A 
HETATM    7  C18 UNL     1      27.679   1.689  22.730  1.00  0.00     0.093 A 
BRANCH   5   8
HETATM    8  C5  UNL     1      31.377   2.102  22.668  1.00  0.00     0.158 C 
BRANCH   8   9
HETATM    9  N2  UNL     1      31.865   2.698  23.925  1.00  0.00    -0.385 N 
ATOM     10  H2  UNL     1      32.578   3.426  23.896  1.00  0.00     0.160 HD
BRANCH   9  11
HETATM   11  C4  UNL     1      31.354   2.269  25.169  1.00  0.00     0.042 A 
HETATM   12  C3  UNL     1      31.499   0.966  25.582  1.00  0.00     0.047 A 
HETATM   13  C2  UNL     1      31.021   0.555  26.800  1.00  0.00     0.093 A 
HETATM   14  N1  UNL     1      30.393   1.398  27.642  1.00  0.00    -0.360 N 
HETATM   15  C1  UNL     1      29.905   0.921  28.918  1.00  0.00     0.155 C 
HETATM   16  C25 UNL     1      30.254   2.660  27.240  1.00  0.00     0.046 A 
HETATM   17  C20 UNL     1      30.718   3.146  26.010  1.00  0.00     0.017 A 
HETATM   18  C24 UNL     1      29.614   3.546  28.077  1.00  0.00     0.030 A 
HETATM   19  C21 UNL     1      30.511   4.475  25.704  1.00  0.00     0.016 A 
HETATM   20  C22 UNL     1      29.861   5.352  26.567  1.00  0.00     0.001 A 
HETATM   21  C23 UNL     1      29.413   4.868  27.763  1.00  0.00     0.002 A 
ENDBRANCH   9  11
ENDBRANCH   8   9
ENDBRANCH   5   8
ENDBRANCH   1   2
BRANCH   1  22
HETATM   22  O1  UNL     1      25.116   2.593  21.428  1.00  0.00    -0.351 OA
BRANCH  22  23
HETATM   23  C10 UNL     1      24.933   2.370  20.181  1.00  0.00     0.320 C 
BRANCH  23  24
HETATM   24  N4  UNL     1      24.426   3.458  19.321  1.00  0.00    -0.254 N 
HETATM   25  C11 UNL     1      25.078   4.658  19.428  1.00  0.00     0.116 A 
HETATM   26  C12 UNL     1      24.688   5.707  18.642  1.00  0.00     0.029 A 
HETATM   27  C13 UNL     1      23.642   5.538  17.752  1.00  0.00    -0.018 A 
HETATM   28  C17 UNL     1      23.005   4.328  17.663  1.00  0.00     0.152 A 
HETATM   29  N9  UNL     1      23.443   3.321  18.474  1.00  0.00    -0.171 N 
BRANCH  27  30
HETATM   30  C14 UNL     1      23.184   6.645  16.882  1.00  0.00     0.190 C 
BRANCH  30  31
HETATM   31  N5  UNL     1      24.248   7.092  16.011  1.00  0.00    -0.269 N 
HETATM   32  C15 UNL     1      24.773   8.328  15.967  1.00  0.00     0.218 A 
HETATM   33  N6  UNL     1      25.751   8.363  15.024  1.00  0.00    -0.185 N 
HETATM   34  C16 UNL     1      25.814   7.119  14.489  1.00  0.00     0.691 A 
ATOM     35  H6  UNL     1      26.324   9.167  14.770  1.00  0.00     0.185 HD
HETATM   36  N8  UNL     1      24.891   6.392  15.117  1.00  0.00    -0.129 N 
ATOM     37  H8  UNL     1      24.709   5.407  14.923  1.00  0.00     0.206 HD
BRANCH  34  38
HETATM   38  N7  UNL     1      26.598   6.706  13.567  1.00  0.00    -0.233 N 
ATOM     39  H72 UNL     1      27.321   7.255  13.103  1.00  0.00     0.174 HD
ATOM     40  H71 UNL     1      26.630   5.776  13.149  1.00  0.00     0.174 HD
ENDBRANCH  34  38
ENDBRANCH  30  31
ENDBRANCH  27  30
BRANCH  29  41
HETATM   41  O2  UNL     1      22.832   2.070  18.358  1.00  0.00    -0.268 OA
ATOM     42  H2  UNL     1      22.460   1.673  19.137  1.00  0.00     0.247 HD
ENDBRANCH  29  41
ENDBRANCH  23  24
ENDBRANCH  22  23
ENDBRANCH   1  22
TORSDOF 11
ENDMDL
MODEL 2
REMARK VINA RESULT: -8.836836304      3.659      6.308
REMARK  11 active torsions:
REMARK  status: ('A' for Active; 'I' for Inactive)
REMARK    1  A    between atoms: C4_5  and  N2_6 
REMARK    2  A    between atoms: N2_6  and  C5_8 
REMARK    3  A    between atoms: C5_8  and  C6_9 
REMARK    4  A    between atoms: N3_12  and  C9_13 
REMARK    5  A    between atoms: C9_13  and  O1_14 
REMARK    6  A    between atoms: O1_14  and  C10_15 
REMARK    7  A    between atoms: C10_15  and  N4_16 
REMARK    8  A    between atoms: C13_19  and  C14_20 
REMARK    9  A    between atoms: C14_20  and  N5_21 
REMARK   10  A    between atoms: C16_25  and  N7_26 
REMARK   11  A    between atoms: N9_32  and  O2_33 
ROOT
HETATM    1  C9  UNL     1      26.856   2.141  21.580  1.00  0.00     0.299 C 
ENDROOT
BRANCH   1   2
HETATM    2  N3  UNL     1      26.821   3.443  22.266  1.00  0.00    -0.345 N 
HETATM    3  C8  UNL     1      27.726   4.368  21.982  1.00  0.00     0.093 A 
HETATM    4  C7  UNL     1      27.725   5.604  22.593  1.00  0.00     0.026 A 
HETATM    5  C6  UNL     1      26.728   5.867  23.539  1.00  0.00    -0.038 A 
HETATM    6  C19 UNL     1      25.801   4.894  23.818  1.00  0.00     0.026 A 
HETATM    7  C18 UNL     1      25.865   3.695  23.174  1.00  0.00     0.093 A 
BRANCH   5   8
HETATM    8  C5  UNL     1      26.668   7.175  24.222  1.00  0.00     0.158 C 
BRANCH   8   9
HETATM    9  N2  UNL     1      25.748   8.038  23.459  1.00  0.00    -0.385 N 
ATOM     10  H2  UNL     1      26.070   8.489  22.603  1.00  0.00     0.160 HD
BRANCH   9  11
HETATM   11  C4  UNL     1      24.424   8.246  23.903  1.00  0.00     0.042 A 
HETATM   12  C3  UNL     1      24.164   8.619  25.201  1.00  0.00     0.047 A 
HETATM   13  C2  UNL     1      22.879   8.842  25.627  1.00  0.00     0.093 A 
HETATM   14  N1  UNL     1      21.821   8.709  24.804  1.00  0.00    -0.360 N 
HETATM   15  C1  UNL     1      20.483   8.955  25.295  1.00  0.00     0.155 C 
HETATM   16  C25 UNL     1      22.076   8.349  23.547  1.00  0.00     0.046 A 
HETATM   17  C20 UNL     1      23.363   8.106  23.047  1.00  0.00     0.017 A 
HETATM   18  C24 UNL     1      21.015   8.202  22.681  1.00  0.00     0.030 A 
HETATM   19  C21 UNL     1      23.499   7.734  21.726  1.00  0.00     0.016 A 
HETATM   20  C22 UNL     1      22.411   7.592  20.869  1.00  0.00     0.001 A 
HETATM   21  C23 UNL     1      21.162   7.832  21.367  1.00  0.00     0.002 A 
ENDBRANCH   9  11
ENDBRANCH   8   9
ENDBRANCH   5   8
ENDBRANCH   1   2
BRANCH   1  22
HETATM   22  O1  UNL     1      26.085   1.949  20.590  1.00  0.00    -0.351 OA
BRANCH  22  23
HETATM   23  C10 UNL     1      24.881   1.939  20.156  1.00  0.00     0.320 C 
BRANCH  23  24
HETATM   24  N4  UNL     1      24.388   3.089  19.371  1.00  0.00    -0.254 N 
HETATM   25  C11 UNL     1      25.094   4.255  19.512  1.00  0.00     0.116 A 
HETATM   26  C12 UNL     1      24.718   5.358  18.795  1.00  0.00     0.029 A 
HETATM   27  C13 UNL     1      23.633   5.276  17.941  1.00  0.00    -0.018 A 
HETATM   28  C17 UNL     1      22.943   4.099  17.817  1.00  0.00     0.152 A 
HETATM   29  N9  UNL     1      23.369   3.035  18.559  1.00  0.00    -0.171 N 
BRANCH  27  30
HETATM   30  C14 UNL     1      23.189   6.444  17.146  1.00  0.00     0.190 C 
BRANCH  30  31
HETATM   31  N5  UNL     1      24.223   6.869  16.229  1.00  0.00    -0.269 N 
HETATM   32  C15 UNL     1      24.723   8.111  16.116  1.00  0.00     0.218 A 
HETATM   33  N6  UNL     1      25.678   8.120  15.150  1.00  0.00    -0.185 N 
HETATM   34  C16 UNL     1      25.753   6.854  14.671  1.00  0.00     0.691 A 
ATOM     35  H6  UNL     1      26.230   8.922  14.845  1.00  0.00     0.185 HD
HETATM   36  N8  UNL     1      24.859   6.140  15.353  1.00  0.00    -0.129 N 
ATOM     37  H8  UNL     1      24.691   5.145  15.209  1.00  0.00     0.206 HD
BRANCH  34  38
HETATM   38  N7  UNL     1      26.522   6.413  13.750  1.00  0.00    -0.233 N 
ATOM     39  H72 UNL     1      26.717   6.872  12.860  1.00  0.00     0.174 HD
ATOM     40  H71 UNL     1      27.059   5.546  13.750  1.00  0.00     0.174 HD
ENDBRANCH  34  38
ENDBRANCH  30  31
ENDBRANCH  27  30
BRANCH  29  41
HETATM   41  O2  UNL     1      22.701   1.817  18.406  1.00  0.00    -0.268 OA
ATOM     42  H2  UNL     1      21.914   1.795  17.875  1.00  0.00     0.247 HD
ENDBRANCH  29  41
ENDBRANCH  23  24
ENDBRANCH  22  23
ENDBRANCH   1  22
TORSDOF 11
ENDMDL
MODEL 3
REMARK VINA RESULT: -8.812612781      0.858      2.055
REMARK  11 active torsions:
REMARK  status: ('A' for Active; 'I' for Inactive)
REMARK    1  A    between atoms: C4_5  and  N2_6 
REMARK    2  A    between atoms: N2_6  and  C5_8 
REMARK    3  A    between atoms: C5_8  and  C6_9 
REMARK    4  A    between atoms: N3_12  and  C9_13 
REMARK    5  A    between atoms: C9_13  and  O1_14 
REMARK    6  A    between atoms: O1_14  and  C10_15 
REMARK    7  A    between atoms: C10_15  and  N4_16 
REMARK    8  A    between atoms: C13_19  and  C14_20 
REMARK    9  A    between atoms: C14_20  and  N5_21 
REMARK   10  A    between atoms: C16_25  and  N7_26 
REMARK   11  A    between atoms: N9_32  and  O2_33 
ROOT
HETATM    1  C9  UNL     1      25.822   2.796  22.303  1.00  0.00     0.299 C 
ENDROOT
BRANCH   1   2
HETATM    2  N3  UNL     1      27.289   2.780  22.413  1.00  0.00    -0.345 N 
HETATM    3  C8  UNL     1      27.921   1.651  22.696  1.00  0.00     0.093 A 
HETATM    4  C7  UNL     1      29.295   1.587  22.800  1.00  0.00     0.026 A 
HETATM    5  C6  UNL     1      30.022   2.764  22.594  1.00  0.00    -0.038 A 
HETATM    6  C19 UNL     1      29.348   3.923  22.302  1.00  0.00     0.026 A 
HETATM    7  C18 UNL     1      27.988   3.909  22.216  1.00  0.00     0.093 A 
BRANCH   5   8
HETATM    8  C5  UNL     1      31.497   2.760  22.682  1.00  0.00     0.158 C 
BRANCH   8   9
HETATM    9  N2  UNL     1      31.872   2.026  23.905  1.00  0.00    -0.385 N 
ATOM     10  H2  UNL     1      32.325   1.116  23.829  1.00  0.00     0.160 HD
BRANCH   9  11
HETATM   11  C4  UNL     1      31.610   2.573  25.179  1.00  0.00     0.042 A 
HETATM   12  C3  UNL     1      31.680   3.929  25.395  1.00  0.00     0.047 A 
HETATM   13  C2  UNL     1      31.404   4.462  26.628  1.00  0.00     0.093 A 
HETATM   14  N1  UNL     1      31.055   3.693  27.677  1.00  0.00    -0.360 N 
HETATM   15  C1  UNL     1      30.773   4.297  28.960  1.00  0.00     0.155 C 
HETATM   16  C25 UNL     1      30.988   2.379  27.466  1.00  0.00     0.046 A 
HETATM   17  C20 UNL     1      31.256   1.770  26.232  1.00  0.00     0.017 A 
HETATM   18  C24 UNL     1      30.636   1.565  28.519  1.00  0.00     0.030 A 
HETATM   19  C21 UNL     1      31.156   0.397  26.138  1.00  0.00     0.016 A 
HETATM   20  C22 UNL     1      30.799  -0.406  27.217  1.00  0.00     0.001 A 
HETATM   21  C23 UNL     1      30.540   0.199  28.414  1.00  0.00     0.002 A 
ENDBRANCH   9  11
ENDBRANCH   8   9
ENDBRANCH   5   8
ENDBRANCH   1   2
BRANCH   1  22
HETATM   22  O1  UNL     1      25.278   2.279  21.278  1.00  0.00    -0.351 OA
BRANCH  22  23
HETATM   23  C10 UNL     1      25.199   2.261  20.002  1.00  0.00     0.320 C 
BRANCH  23  24
HETATM   24  N4  UNL     1      24.569   3.399  19.302  1.00  0.00    -0.254 N 
HETATM   25  C11 UNL     1      25.186   4.613  19.458  1.00  0.00     0.116 A 
HETATM   26  C12 UNL     1      24.680   5.710  18.817  1.00  0.00     0.029 A 
HETATM   27  C13 UNL     1      23.555   5.575  18.022  1.00  0.00    -0.018 A 
HETATM   28  C17 UNL     1      22.957   4.351  17.881  1.00  0.00     0.152 A 
HETATM   29  N9  UNL     1      23.511   3.295  18.546  1.00  0.00    -0.171 N 
BRANCH  27  30
HETATM   30  C14 UNL     1      22.972   6.735  17.310  1.00  0.00     0.190 C 
BRANCH  30  31
HETATM   31  N5  UNL     1      23.923   7.303  16.380  1.00  0.00    -0.269 N 
HETATM   32  C15 UNL     1      24.319   8.586  16.333  1.00  0.00     0.218 A 
HETATM   33  N6  UNL     1      25.220   8.737  15.328  1.00  0.00    -0.185 N 
HETATM   34  C16 UNL     1      25.370   7.516  14.758  1.00  0.00     0.691 A 
ATOM     35  H6  UNL     1      25.692   9.600  15.056  1.00  0.00     0.185 HD
HETATM   36  N8  UNL     1      24.569   6.688  15.428  1.00  0.00    -0.129 N 
ATOM     37  H8  UNL     1      24.472   5.694  15.221  1.00  0.00     0.206 HD
BRANCH  34  38
HETATM   38  N7  UNL     1      26.124   7.202  13.775  1.00  0.00    -0.233 N 
ATOM     39  H72 UNL     1      27.055   6.790  13.840  1.00  0.00     0.174 HD
ATOM     40  H71 UNL     1      25.926   7.309  12.780  1.00  0.00     0.174 HD
ENDBRANCH  34  38
ENDBRANCH  30  31
ENDBRANCH  27  30
BRANCH  29  41
HETATM   41  O2  UNL     1      22.935   2.033  18.373  1.00  0.00    -0.268 OA
ATOM     42  H2  UNL     1      22.073   1.979  17.978  1.00  0.00     0.247 HD
ENDBRANCH  29  41
ENDBRANCH  23  24
ENDBRANCH  22  23
ENDBRANCH   1  22
TORSDOF 11
ENDMDL
MODEL 4
REMARK VINA RESULT: -8.707112967      1.152      2.247
REMARK  11 active torsions:
REMARK  status: ('A' for Active; 'I' for Inactive)
REMARK    1  A    between atoms: C4_5  and  N2_6 
REMARK    2  A    between atoms: N2_6  and  C5_8 
REMARK    3  A    between atoms: C5_8  and  C6_9 
REMARK    4  A    between atoms: N3_12  and  C9_13 
REMARK    5  A    between atoms: C9_13  and  O1_14 
REMARK    6  A    between atoms: O1_14  and  C10_15 
REMARK    7  A    between atoms: C10_15  and  N4_16 
REMARK    8  A    between atoms: C13_19  and  C14_20 
REMARK    9  A    between atoms: C14_20  and  N5_21 
REMARK   10  A    between atoms: C16_25  and  N7_26 
REMARK   11  A    between atoms: N9_32  and  O2_33 
ROOT
HETATM    1  C9  UNL     1      26.243   2.020  22.416  1.00  0.00     0.299 C 
ENDROOT
BRANCH   1   2
HETATM    2  N3  UNL     1      27.664   2.365  22.584  1.00  0.00    -0.345 N 
HETATM    3  C8  UNL     1      28.036   3.635  22.643  1.00  0.00     0.093 A 
HETATM    4  C7  UNL     1      29.354   4.004  22.809  1.00  0.00     0.026 A 
HETATM    5  C6  UNL     1      30.310   2.989  22.917  1.00  0.00    -0.038 A 
HETATM    6  C19 UNL     1      29.903   1.680  22.853  1.00  0.00     0.026 A 
HETATM    7  C18 UNL     1      28.582   1.391  22.687  1.00  0.00     0.093 A 
BRANCH   5   8
HETATM    8  C5  UNL     1      31.738   3.319  23.105  1.00  0.00     0.158 C 
BRANCH   8   9
HETATM    9  N2  UNL     1      32.180   2.699  24.367  1.00  0.00    -0.385 N 
ATOM     10  H2  UNL     1      32.941   2.021  24.357  1.00  0.00     0.160 HD
BRANCH   9  11
HETATM   11  C4  UNL     1      31.558   3.035  25.589  1.00  0.00     0.042 A 
HETATM   12  C3  UNL     1      31.356   4.348  25.942  1.00  0.00     0.047 A 
HETATM   13  C2  UNL     1      30.733   4.674  27.119  1.00  0.00     0.093 A 
HETATM   14  N1  UNL     1      30.293   3.735  27.978  1.00  0.00    -0.360 N 
HETATM   15  C1  UNL     1      29.640   4.124  29.209  1.00  0.00     0.155 C 
HETATM   16  C25 UNL     1      30.489   2.463  27.634  1.00  0.00     0.046 A 
HETATM   17  C20 UNL     1      31.118   2.061  26.448  1.00  0.00     0.017 A 
HETATM   18  C24 UNL     1      30.052   1.479  28.492  1.00  0.00     0.030 A 
HETATM   19  C21 UNL     1      31.267   0.712  26.203  1.00  0.00     0.016 A 
HETATM   20  C22 UNL     1      30.817  -0.266  27.087  1.00  0.00     0.001 A 
HETATM   21  C23 UNL     1      30.205   0.137  28.239  1.00  0.00     0.002 A 
ENDBRANCH   9  11
ENDBRANCH   8   9
ENDBRANCH   5   8
ENDBRANCH   1   2
BRANCH   1  22
HETATM   22  O1  UNL     1      25.634   2.420  21.376  1.00  0.00    -0.351 OA
BRANCH  22  23
HETATM   23  C10 UNL     1      25.547   2.372  20.101  1.00  0.00     0.320 C 
BRANCH  23  24
HETATM   24  N4  UNL     1      24.934   3.504  19.377  1.00  0.00    -0.254 N 
HETATM   25  C11 UNL     1      23.937   3.180  18.494  1.00  0.00     0.116 A 
HETATM   26  C12 UNL     1      23.299   4.176  17.807  1.00  0.00     0.029 A 
HETATM   27  C13 UNL     1      23.671   5.492  18.015  1.00  0.00    -0.018 A 
HETATM   28  C17 UNL     1      24.670   5.791  18.903  1.00  0.00     0.152 A 
HETATM   29  N9  UNL     1      25.267   4.753  19.558  1.00  0.00    -0.171 N 
BRANCH  27  30
HETATM   30  C14 UNL     1      23.010   6.603  17.293  1.00  0.00     0.190 C 
BRANCH  30  31
HETATM   31  N5  UNL     1      23.922   7.234  16.366  1.00  0.00    -0.269 N 
HETATM   32  C15 UNL     1      24.264   8.533  16.346  1.00  0.00     0.218 A 
HETATM   33  N6  UNL     1      25.144   8.747  15.333  1.00  0.00    -0.185 N 
HETATM   34  C16 UNL     1      25.334   7.549  14.730  1.00  0.00     0.691 A 
ATOM     35  H6  UNL     1      25.575   9.635  15.078  1.00  0.00     0.185 HD
HETATM   36  N8  UNL     1      24.578   6.671  15.388  1.00  0.00    -0.129 N 
ATOM     37  H8  UNL     1      24.519   5.680  15.157  1.00  0.00     0.206 HD
BRANCH  34  38
HETATM   38  N7  UNL     1      26.086   7.291  13.728  1.00  0.00    -0.233 N 
ATOM     39  H72 UNL     1      27.095   7.144  13.757  1.00  0.00     0.174 HD
ATOM     40  H71 UNL     1      25.808   7.192  12.752  1.00  0.00     0.174 HD
ENDBRANCH  34  38
ENDBRANCH  30  31
ENDBRANCH  27  30
BRANCH  29  41
HETATM   41  O2  UNL     1      26.255   5.050  20.500  1.00  0.00    -0.268 OA
ATOM     42  H2  UNL     1      26.160   5.836  21.025  1.00  0.00     0.247 HD
ENDBRANCH  29  41
ENDBRANCH  23  24
ENDBRANCH  22  23
ENDBRANCH   1  22
TORSDOF 11
ENDMDL
MODEL 5
REMARK VINA RESULT: -8.658946955      1.751      2.143
REMARK  11 active torsions:
REMARK  status: ('A' for Active; 'I' for Inactive)
REMARK    1  A    between atoms: C4_5  and  N2_6 
REMARK    2  A    between atoms: N2_6  and  C5_8 
REMARK    3  A    between atoms: C5_8  and  C6_9 
REMARK    4  A    between atoms: N3_12  and  C9_13 
REMARK    5  A    between atoms: C9_13  and  O1_14 
REMARK    6  A    between atoms: O1_14  and  C10_15 
REMARK    7  A    between atoms: C10_15  and  N4_16 
REMARK    8  A    between atoms: C13_19  and  C14_20 
REMARK    9  A    between atoms: C14_20  and  N5_21 
REMARK   10  A    between atoms: C16_25  and  N7_26 
REMARK   11  A    between atoms: N9_32  and  O2_33 
ROOT
HETATM    1  C9  UNL     1      25.548   4.528  23.314  1.00  0.00     0.299 C 
ENDROOT
BRANCH   1   2
HETATM    2  N3  UNL     1      26.903   4.149  22.882  1.00  0.00    -0.345 N 
HETATM    3  C8  UNL     1      27.177   2.887  22.587  1.00  0.00     0.093 A 
HETATM    4  C7  UNL     1      28.429   2.489  22.169  1.00  0.00     0.026 A 
HETATM    5  C6  UNL     1      29.424   3.465  22.059  1.00  0.00    -0.038 A 
HETATM    6  C19 UNL     1      29.119   4.767  22.369  1.00  0.00     0.026 A 
HETATM    7  C18 UNL     1      27.858   5.086  22.777  1.00  0.00     0.093 A 
BRANCH   5   8
HETATM    8  C5  UNL     1      30.784   3.104  21.608  1.00  0.00     0.158 C 
BRANCH   8   9
HETATM    9  N2  UNL     1      31.683   3.197  22.772  1.00  0.00    -0.385 N 
ATOM     10  H2  UNL     1      32.452   3.867  22.765  1.00  0.00     0.160 HD
BRANCH   9  11
HETATM   11  C4  UNL     1      31.490   2.366  23.897  1.00  0.00     0.042 A 
HETATM   12  C3  UNL     1      31.514   0.997  23.777  1.00  0.00     0.047 A 
HETATM   13  C2  UNL     1      31.347   0.190  24.874  1.00  0.00     0.093 A 
HETATM   14  N1  UNL     1      31.154   0.693  26.107  1.00  0.00    -0.360 N 
HETATM   15  C1  UNL     1      30.983  -0.195  27.237  1.00  0.00     0.155 C 
HETATM   16  C25 UNL     1      31.132   2.020  26.221  1.00  0.00     0.046 A 
HETATM   17  C20 UNL     1      31.295   2.901  25.144  1.00  0.00     0.017 A 
HETATM   18  C24 UNL     1      30.934   2.567  27.470  1.00  0.00     0.030 A 
HETATM   19  C21 UNL     1      31.249   4.258  25.387  1.00  0.00     0.016 A 
HETATM   20  C22 UNL     1      31.047   4.788  26.658  1.00  0.00     0.001 A 
HETATM   21  C23 UNL     1      30.889   3.920  27.701  1.00  0.00     0.002 A 
ENDBRANCH   9  11
ENDBRANCH   8   9
ENDBRANCH   5   8
ENDBRANCH   1   2
BRANCH   1  22
HETATM   22  O1  UNL     1      24.743   5.011  22.459  1.00  0.00    -0.351 OA
BRANCH  22  23
HETATM   23  C10 UNL     1      24.266   6.065  21.913  1.00  0.00     0.320 C 
BRANCH  23  24
HETATM   24  N4  UNL     1      24.008   6.071  20.460  1.00  0.00    -0.254 N 
HETATM   25  C11 UNL     1      24.644   5.098  19.735  1.00  0.00     0.116 A 
HETATM   26  C12 UNL     1      24.433   5.018  18.386  1.00  0.00     0.029 A 
HETATM   27  C13 UNL     1      23.580   5.921  17.777  1.00  0.00    -0.018 A 
HETATM   28  C17 UNL     1      22.955   6.885  18.522  1.00  0.00     0.152 A 
HETATM   29  N9  UNL     1      23.207   6.911  19.864  1.00  0.00    -0.171 N 
BRANCH  27  30
HETATM   30  C14 UNL     1      23.321   5.874  16.320  1.00  0.00     0.190 C 
BRANCH  30  31
HETATM   31  N5  UNL     1      24.399   6.495  15.582  1.00  0.00    -0.269 N 
HETATM   32  C15 UNL     1      24.774   7.783  15.657  1.00  0.00     0.218 A 
HETATM   33  N6  UNL     1      25.823   7.990  14.818  1.00  0.00    -0.185 N 
HETATM   34  C16 UNL     1      26.084   6.799  14.226  1.00  0.00     0.691 A 
ATOM     35  H6  UNL     1      26.317   8.869  14.665  1.00  0.00     0.185 HD
HETATM   36  N8  UNL     1      25.200   5.932  14.720  1.00  0.00    -0.129 N 
ATOM     37  H8  UNL     1      25.156   4.948  14.456  1.00  0.00     0.206 HD
BRANCH  34  38
HETATM   38  N7  UNL     1      26.991   6.539  13.364  1.00  0.00    -0.233 N 
ATOM     39  H72 UNL     1      27.716   7.181  13.043  1.00  0.00     0.174 HD
ATOM     40  H71 UNL     1      27.141   5.663  12.864  1.00  0.00     0.174 HD
ENDBRANCH  34  38
ENDBRANCH  30  31
ENDBRANCH  27  30
BRANCH  29  41
HETATM   41  O2  UNL     1      22.539   7.862  20.641  1.00  0.00    -0.268 OA
ATOM     42  H2  UNL     1      22.539   8.766  20.350  1.00  0.00     0.247 HD
ENDBRANCH  29  41
ENDBRANCH  23  24
ENDBRANCH  22  23
ENDBRANCH   1  22
TORSDOF 11
ENDMDL
