MODEL 1
REMARK VINA RESULT: -7.945385391      0.000      0.000
REMARK  11 active torsions:
REMARK  status: ('A' for Active; 'I' for Inactive)
REMARK    1  A    between atoms: N1_2  and  C2_5 
REMARK    2  A    between atoms: C2_5  and  C3_6 
REMARK    3  A    between atoms: C3_6  and  C4_7 
REMARK       I    between atoms: N2_10  and  C7_11 
REMARK    4  A    between atoms: C7_11  and  C8_13 
REMARK    5  A    between atoms: C8_13  and  C9_14 
REMARK    6  A    between atoms: C8_13  and  N3_21 
REMARK    7  A    between atoms: C9_14  and  C10_15 
REMARK       I    between atoms: N3_21  and  C16_23 
REMARK    8  A    between atoms: C16_23  and  C17_25 
REMARK    9  A    between atoms: C17_25  and  N4_26 
REMARK   10  A    between atoms: C17_25  and  C21_31 
REMARK   11  A    between atoms: N4_26  and  C18_28 
ROOT
HETATM    1  C8  UNL     1     -11.119 -26.065  -0.079  1.00  0.00     0.177 C 
ENDROOT
BRANCH   1   2
HETATM    2  C7  UNL     1     -11.218 -25.196   1.155  1.00  0.00     0.242 C 
HETATM    3  N2  UNL     1     -10.745 -23.889   1.265  1.00  0.00    -0.350 N 
HETATM    4  C6  UNL     1     -10.905 -23.121   2.503  1.00  0.00     0.126 C 
HETATM    5  C24 UNL     1     -10.058 -23.188   0.212  1.00  0.00     0.126 C 
HETATM    6  C5  UNL     1     -10.991 -21.658   2.215  1.00  0.00     0.024 C 
HETATM    7  C4  UNL     1      -9.699 -21.152   1.593  1.00  0.00    -0.010 C 
HETATM    8  C25 UNL     1      -9.011 -22.259   0.867  1.00  0.00     0.024 C 
HETATM    9  O1  UNL     1     -11.773 -25.705   2.161  1.00  0.00    -0.271 OA
BRANCH   7  10
HETATM   10  C3  UNL     1      -8.874 -20.536   2.667  1.00  0.00     0.032 C 
BRANCH  10  11
HETATM   11  C2  UNL     1      -9.491 -19.377   3.386  1.00  0.00     0.232 C 
BRANCH  11  12
HETATM   12  N1  UNL     1      -8.878 -18.118   3.081  1.00  0.00    -0.079 N 
HETATM   13  C1  UNL     1      -9.072 -17.224   4.227  1.00  0.00     0.266 C 
ATOM     14  H12 UNL     1      -9.218 -17.716   2.207  1.00  0.00     0.276 HD
ATOM     15  H11 UNL     1      -7.897 -18.212   2.817  1.00  0.00     0.276 HD
ENDBRANCH  11  12
ENDBRANCH  10  11
ENDBRANCH   7  10
ENDBRANCH   1   2
BRANCH   1  16
HETATM   16  C9  UNL     1     -12.015 -25.573  -1.152  1.00  0.00     0.039 C 
BRANCH  16  17
HETATM   17  C10 UNL     1     -13.382 -26.127  -1.237  1.00  0.00    -0.012 C 
HETATM   18  C11 UNL     1     -14.503 -25.121  -1.134  1.00  0.00     0.005 C 
HETATM   19  C12 UNL     1     -15.768 -25.842  -0.787  1.00  0.00     0.000 C 
HETATM   20  C13 UNL     1     -16.059 -27.058  -1.597  1.00  0.00     0.000 C 
HETATM   21  C14 UNL     1     -14.853 -27.942  -1.835  1.00  0.00     0.000 C 
HETATM   22  C15 UNL     1     -13.676 -27.078  -2.341  1.00  0.00     0.005 C 
ENDBRANCH  16  17
ENDBRANCH   1  16
BRANCH   1  23
HETATM   23  N3  UNL     1     -11.521 -27.427   0.285  1.00  0.00    -0.346 N 
HETATM   24  C16 UNL     1     -11.050 -28.581  -0.403  1.00  0.00     0.241 C 
HETATM   25  O2  UNL     1     -10.261 -28.369  -1.356  1.00  0.00    -0.271 OA
ATOM     26  H3  UNL     1     -12.167 -27.554   1.064  1.00  0.00     0.163 HD
BRANCH  24  27
HETATM   27  C17 UNL     1     -11.419 -29.951  -0.070  1.00  0.00     0.173 C 
BRANCH  27  28
HETATM   28  N4  UNL     1     -10.379 -30.883   0.203  1.00  0.00    -0.406 N 
ATOM     29  H4  UNL     1     -10.032 -31.502  -0.530  1.00  0.00     0.154 HD
BRANCH  28  30
HETATM   30  C18 UNL     1      -9.832 -30.939   1.508  1.00  0.00     0.069 C 
HETATM   31  C19 UNL     1      -8.726 -31.890   1.786  1.00  0.00     0.031 C 
HETATM   32  C20 UNL     1     -10.997 -31.341   2.441  1.00  0.00     0.031 C 
ENDBRANCH  28  30
ENDBRANCH  27  28
BRANCH  27  33
HETATM   33  C21 UNL     1     -12.310 -30.592  -1.127  1.00  0.00     0.009 C 
HETATM   34  C22 UNL     1     -11.695 -31.832  -1.693  1.00  0.00     0.012 C 
HETATM   35  C23 UNL     1     -13.595 -30.989  -0.423  1.00  0.00     0.012 C 
ENDBRANCH  27  33
ENDBRANCH  24  27
ENDBRANCH   1  23
TORSDOF 11
ENDMDL
MODEL 2
REMARK VINA RESULT: -7.941260701      2.583      8.672
REMARK  11 active torsions:
REMARK  status: ('A' for Active; 'I' for Inactive)
REMARK    1  A    between atoms: N1_2  and  C2_5 
REMARK    2  A    between atoms: C2_5  and  C3_6 
REMARK    3  A    between atoms: C3_6  and  C4_7 
REMARK       I    between atoms: N2_10  and  C7_11 
REMARK    4  A    between atoms: C7_11  and  C8_13 
REMARK    5  A    between atoms: C8_13  and  C9_14 
REMARK    6  A    between atoms: C8_13  and  N3_21 
REMARK    7  A    between atoms: C9_14  and  C10_15 
REMARK       I    between atoms: N3_21  and  C16_23 
REMARK    8  A    between atoms: C16_23  and  C17_25 
REMARK    9  A    between atoms: C17_25  and  N4_26 
REMARK   10  A    between atoms: C17_25  and  C21_31 
REMARK   11  A    between atoms: N4_26  and  C18_28 
ROOT
HETATM    1  C8  UNL     1     -11.990 -26.193   0.751  1.00  0.00     0.177 C 
ENDROOT
BRANCH   1   2
HETATM    2  C7  UNL     1     -11.887 -27.591   1.318  1.00  0.00     0.242 C 
HETATM    3  N2  UNL     1     -11.813 -28.765   0.569  1.00  0.00    -0.350 N 
HETATM    4  C6  UNL     1     -11.699 -30.076   1.215  1.00  0.00     0.126 C 
HETATM    5  C24 UNL     1     -11.858 -28.809  -0.869  1.00  0.00     0.126 C 
HETATM    6  C5  UNL     1     -10.966 -31.039   0.339  1.00  0.00     0.024 C 
HETATM    7  C4  UNL     1     -11.734 -31.291  -0.949  1.00  0.00    -0.010 C 
HETATM    8  C25 UNL     1     -12.584 -30.110  -1.280  1.00  0.00     0.024 C 
HETATM    9  O1  UNL     1     -11.870 -27.692   2.570  1.00  0.00    -0.271 OA
BRANCH   7  10
HETATM   10  C3  UNL     1     -12.500 -32.557  -0.795  1.00  0.00     0.032 C 
BRANCH  10  11
HETATM   11  C2  UNL     1     -11.710 -33.822  -0.916  1.00  0.00     0.232 C 
BRANCH  11  12
HETATM   12  N1  UNL     1     -11.112 -34.006  -2.206  1.00  0.00    -0.079 N 
HETATM   13  C1  UNL     1     -11.260 -35.415  -2.583  1.00  0.00     0.266 C 
ATOM     14  H12 UNL     1     -10.142 -33.690  -2.238  1.00  0.00     0.276 HD
ATOM     15  H11 UNL     1     -11.488 -33.369  -2.908  1.00  0.00     0.276 HD
ENDBRANCH  11  12
ENDBRANCH  10  11
ENDBRANCH   7  10
ENDBRANCH   1   2
BRANCH   1  16
HETATM   16  C9  UNL     1     -11.840 -25.173   1.815  1.00  0.00     0.039 C 
BRANCH  16  17
HETATM   17  C10 UNL     1     -11.044 -23.963   1.525  1.00  0.00    -0.012 C 
HETATM   18  C11 UNL     1     -10.877 -22.998   2.673  1.00  0.00     0.005 C 
HETATM   19  C12 UNL     1     -10.463 -21.667   2.128  1.00  0.00     0.000 C 
HETATM   20  C13 UNL     1      -9.351 -21.693   1.138  1.00  0.00     0.000 C 
HETATM   21  C14 UNL     1      -9.464 -22.805   0.116  1.00  0.00     0.000 C 
HETATM   22  C15 UNL     1      -9.735 -24.143   0.842  1.00  0.00     0.005 C 
ENDBRANCH  16  17
ENDBRANCH   1  16
BRANCH   1  23
HETATM   23  N3  UNL     1     -13.311 -26.042   0.134  1.00  0.00    -0.346 N 
HETATM   24  C16 UNL     1     -13.503 -25.462  -1.151  1.00  0.00     0.241 C 
HETATM   25  O2  UNL     1     -12.463 -25.075  -1.740  1.00  0.00    -0.271 OA
ATOM     26  H3  UNL     1     -14.130 -26.367   0.649  1.00  0.00     0.163 HD
BRANCH  24  27
HETATM   27  C17 UNL     1     -14.797 -25.300  -1.801  1.00  0.00     0.173 C 
BRANCH  27  28
HETATM   28  N4  UNL     1     -15.195 -26.269  -2.764  1.00  0.00    -0.406 N 
ATOM     29  H4  UNL     1     -14.775 -26.277  -3.694  1.00  0.00     0.154 HD
BRANCH  28  30
HETATM   30  C18 UNL     1     -16.181 -27.222  -2.412  1.00  0.00     0.069 C 
HETATM   31  C19 UNL     1     -15.872 -28.667  -2.558  1.00  0.00     0.031 C 
HETATM   32  C20 UNL     1     -17.392 -26.940  -3.329  1.00  0.00     0.031 C 
ENDBRANCH  28  30
ENDBRANCH  27  28
BRANCH  27  33
HETATM   33  C21 UNL     1     -14.953 -23.937  -2.466  1.00  0.00     0.009 C 
HETATM   34  C22 UNL     1     -14.932 -24.044  -3.959  1.00  0.00     0.012 C 
HETATM   35  C23 UNL     1     -16.316 -23.411  -2.056  1.00  0.00     0.012 C 
ENDBRANCH  27  33
ENDBRANCH  24  27
ENDBRANCH   1  23
TORSDOF 11
ENDMDL
MODEL 3
REMARK VINA RESULT: -7.798655154      2.594      8.278
REMARK  11 active torsions:
REMARK  status: ('A' for Active; 'I' for Inactive)
REMARK    1  A    between atoms: N1_2  and  C2_5 
REMARK    2  A    between atoms: C2_5  and  C3_6 
REMARK    3  A    between atoms: C3_6  and  C4_7 
REMARK       I    between atoms: N2_10  and  C7_11 
REMARK    4  A    between atoms: C7_11  and  C8_13 
REMARK    5  A    between atoms: C8_13  and  C9_14 
REMARK    6  A    between atoms: C8_13  and  N3_21 
REMARK    7  A    between atoms: C9_14  and  C10_15 
REMARK       I    between atoms: N3_21  and  C16_23 
REMARK    8  A    between atoms: C16_23  and  C17_25 
REMARK    9  A    between atoms: C17_25  and  N4_26 
REMARK   10  A    between atoms: C17_25  and  C21_31 
REMARK   11  A    between atoms: N4_26  and  C18_28 
ROOT
HETATM    1  C8  UNL     1     -12.030 -26.256   0.774  1.00  0.00     0.177 C 
ENDROOT
BRANCH   1   2
HETATM    2  C7  UNL     1     -11.942 -27.636   1.387  1.00  0.00     0.242 C 
HETATM    3  N2  UNL     1     -11.838 -28.832   0.678  1.00  0.00    -0.350 N 
HETATM    4  C6  UNL     1     -11.741 -30.122   1.368  1.00  0.00     0.126 C 
HETATM    5  C24 UNL     1     -11.831 -28.921  -0.758  1.00  0.00     0.126 C 
HETATM    6  C5  UNL     1     -10.974 -31.108   0.549  1.00  0.00     0.024 C 
HETATM    7  C4  UNL     1     -11.696 -31.403  -0.757  1.00  0.00    -0.010 C 
HETATM    8  C25 UNL     1     -12.538 -30.237  -1.154  1.00  0.00     0.024 C 
HETATM    9  O1  UNL     1     -11.969 -27.699   2.642  1.00  0.00    -0.271 OA
BRANCH   7  10
HETATM   10  C3  UNL     1     -12.462 -32.668  -0.591  1.00  0.00     0.032 C 
BRANCH  10  11
HETATM   11  C2  UNL     1     -13.940 -32.521  -0.408  1.00  0.00     0.232 C 
BRANCH  11  12
HETATM   12  N1  UNL     1     -14.367 -32.651   0.954  1.00  0.00    -0.079 N 
HETATM   13  C1  UNL     1     -15.237 -31.516   1.272  1.00  0.00     0.266 C 
ATOM     14  H12 UNL     1     -13.585 -32.741   1.604  1.00  0.00     0.276 HD
ATOM     15  H11 UNL     1     -14.809 -33.551   1.144  1.00  0.00     0.276 HD
ENDBRANCH  11  12
ENDBRANCH  10  11
ENDBRANCH   7  10
ENDBRANCH   1   2
BRANCH   1  16
HETATM   16  C9  UNL     1     -11.887 -25.204   1.807  1.00  0.00     0.039 C 
BRANCH  16  17
HETATM   17  C10 UNL     1     -11.072 -24.013   1.491  1.00  0.00    -0.012 C 
HETATM   18  C11 UNL     1     -10.865 -23.041   2.628  1.00  0.00     0.005 C 
HETATM   19  C12 UNL     1     -10.434 -21.724   2.064  1.00  0.00     0.000 C 
HETATM   20  C13 UNL     1      -9.340 -21.783   1.055  1.00  0.00     0.000 C 
HETATM   21  C14 UNL     1      -9.494 -22.901   0.045  1.00  0.00     0.000 C 
HETATM   22  C15 UNL     1      -9.779 -24.226   0.787  1.00  0.00     0.005 C 
ENDBRANCH  16  17
ENDBRANCH   1  16
BRANCH   1  23
HETATM   23  N3  UNL     1     -13.343 -26.119   0.137  1.00  0.00    -0.346 N 
HETATM   24  C16 UNL     1     -13.523 -25.509  -1.136  1.00  0.00     0.241 C 
HETATM   25  O2  UNL     1     -12.482 -25.083  -1.695  1.00  0.00    -0.271 OA
ATOM     26  H3  UNL     1     -14.163 -26.476   0.627  1.00  0.00     0.163 HD
BRANCH  24  27
HETATM   27  C17 UNL     1     -14.808 -25.358  -1.807  1.00  0.00     0.173 C 
BRANCH  27  28
HETATM   28  N4  UNL     1     -15.183 -26.332  -2.775  1.00  0.00    -0.406 N 
ATOM     29  H4  UNL     1     -14.794 -26.301  -3.718  1.00  0.00     0.154 HD
BRANCH  28  30
HETATM   30  C18 UNL     1     -16.104 -27.345  -2.410  1.00  0.00     0.069 C 
HETATM   31  C19 UNL     1     -15.674 -28.765  -2.469  1.00  0.00     0.031 C 
HETATM   32  C20 UNL     1     -17.295 -27.208  -3.384  1.00  0.00     0.031 C 
ENDBRANCH  28  30
ENDBRANCH  27  28
BRANCH  27  33
HETATM   33  C21 UNL     1     -14.965 -23.998  -2.476  1.00  0.00     0.009 C 
HETATM   34  C22 UNL     1     -15.021 -24.117  -3.967  1.00  0.00     0.012 C 
HETATM   35  C23 UNL     1     -16.294 -23.437  -2.004  1.00  0.00     0.012 C 
ENDBRANCH  27  33
ENDBRANCH  24  27
ENDBRANCH   1  23
TORSDOF 11
ENDMDL
MODEL 4
REMARK VINA RESULT: -7.734764323      2.678      8.936
REMARK  11 active torsions:
REMARK  status: ('A' for Active; 'I' for Inactive)
REMARK    1  A    between atoms: N1_2  and  C2_5 
REMARK    2  A    between atoms: C2_5  and  C3_6 
REMARK    3  A    between atoms: C3_6  and  C4_7 
REMARK       I    between atoms: N2_10  and  C7_11 
REMARK    4  A    between atoms: C7_11  and  C8_13 
REMARK    5  A    between atoms: C8_13  and  C9_14 
REMARK    6  A    between atoms: C8_13  and  N3_21 
REMARK    7  A    between atoms: C9_14  and  C10_15 
REMARK       I    between atoms: N3_21  and  C16_23 
REMARK    8  A    between atoms: C16_23  and  C17_25 
REMARK    9  A    between atoms: C17_25  and  N4_26 
REMARK   10  A    between atoms: C17_25  and  C21_31 
REMARK   11  A    between atoms: N4_26  and  C18_28 
ROOT
HETATM    1  C8  UNL     1     -12.117 -26.343   0.647  1.00  0.00     0.177 C 
ENDROOT
BRANCH   1   2
HETATM    2  C7  UNL     1     -11.964 -27.738   1.211  1.00  0.00     0.242 C 
HETATM    3  N2  UNL     1     -11.877 -28.910   0.461  1.00  0.00    -0.350 N 
HETATM    4  C6  UNL     1     -11.713 -30.218   1.103  1.00  0.00     0.126 C 
HETATM    5  C24 UNL     1     -11.953 -28.956  -0.976  1.00  0.00     0.126 C 
HETATM    6  C5  UNL     1     -10.975 -31.161   0.211  1.00  0.00     0.024 C 
HETATM    7  C4  UNL     1     -11.766 -31.434  -1.059  1.00  0.00    -0.010 C 
HETATM    8  C25 UNL     1     -12.654 -30.276  -1.371  1.00  0.00     0.024 C 
HETATM    9  O1  UNL     1     -11.917 -27.838   2.463  1.00  0.00    -0.271 OA
BRANCH   7  10
HETATM   10  C3  UNL     1     -12.494 -32.720  -0.888  1.00  0.00     0.032 C 
BRANCH  10  11
HETATM   11  C2  UNL     1     -11.682 -33.964  -1.064  1.00  0.00     0.232 C 
BRANCH  11  12
HETATM   12  N1  UNL     1     -11.139 -34.115  -2.383  1.00  0.00    -0.079 N 
HETATM   13  C1  UNL     1     -11.381 -35.492  -2.824  1.00  0.00     0.266 C 
ATOM     14  H12 UNL     1     -10.155 -33.853  -2.435  1.00  0.00     0.276 HD
ATOM     15  H11 UNL     1     -11.502 -33.422  -3.038  1.00  0.00     0.276 HD
ENDBRANCH  11  12
ENDBRANCH  10  11
ENDBRANCH   7  10
ENDBRANCH   1   2
BRANCH   1  16
HETATM   16  C9  UNL     1     -11.935 -25.319   1.701  1.00  0.00     0.039 C 
BRANCH  16  17
HETATM   17  C10 UNL     1     -11.093 -24.142   1.402  1.00  0.00    -0.012 C 
HETATM   18  C11 UNL     1     -10.897 -23.171   2.540  1.00  0.00     0.005 C 
HETATM   19  C12 UNL     1     -10.432 -21.862   1.983  1.00  0.00     0.000 C 
HETATM   20  C13 UNL     1      -9.316 -21.940   1.000  1.00  0.00     0.000 C 
HETATM   21  C14 UNL     1      -9.465 -23.059  -0.011  1.00  0.00     0.000 C 
HETATM   22  C15 UNL     1      -9.789 -24.377   0.728  1.00  0.00     0.005 C 
ENDBRANCH  16  17
ENDBRANCH   1  16
BRANCH   1  23
HETATM   23  N3  UNL     1     -13.469 -26.216   0.093  1.00  0.00    -0.346 N 
HETATM   24  C16 UNL     1     -13.744 -25.524  -1.120  1.00  0.00     0.241 C 
HETATM   25  O2  UNL     1     -12.754 -25.015  -1.700  1.00  0.00    -0.271 OA
ATOM     26  H3  UNL     1     -14.245 -26.643   0.598  1.00  0.00     0.163 HD
BRANCH  24  27
HETATM   27  C17 UNL     1     -15.071 -25.381  -1.707  1.00  0.00     0.173 C 
BRANCH  27  28
HETATM   28  N4  UNL     1     -15.579 -24.068  -1.914  1.00  0.00    -0.406 N 
ATOM     29  H4  UNL     1     -15.742 -23.445  -1.122  1.00  0.00     0.154 HD
BRANCH  28  30
HETATM   30  C18 UNL     1     -15.856 -23.638  -3.235  1.00  0.00     0.069 C 
HETATM   31  C19 UNL     1     -14.882 -23.947  -4.312  1.00  0.00     0.031 C 
HETATM   32  C20 UNL     1     -15.960 -22.099  -3.168  1.00  0.00     0.031 C 
ENDBRANCH  28  30
ENDBRANCH  27  28
BRANCH  27  33
HETATM   33  C21 UNL     1     -16.140 -26.144  -0.935  1.00  0.00     0.009 C 
HETATM   34  C22 UNL     1     -17.111 -25.220  -0.272  1.00  0.00     0.012 C 
HETATM   35  C23 UNL     1     -16.904 -26.967  -1.956  1.00  0.00     0.012 C 
ENDBRANCH  27  33
ENDBRANCH  24  27
ENDBRANCH   1  23
TORSDOF 11
ENDMDL
MODEL 5
REMARK VINA RESULT: -7.724335462      2.043      3.062
REMARK  11 active torsions:
REMARK  status: ('A' for Active; 'I' for Inactive)
REMARK    1  A    between atoms: N1_2  and  C2_5 
REMARK    2  A    between atoms: C2_5  and  C3_6 
REMARK    3  A    between atoms: C3_6  and  C4_7 
REMARK       I    between atoms: N2_10  and  C7_11 
REMARK    4  A    between atoms: C7_11  and  C8_13 
REMARK    5  A    between atoms: C8_13  and  C9_14 
REMARK    6  A    between atoms: C8_13  and  N3_21 
REMARK    7  A    between atoms: C9_14  and  C10_15 
REMARK       I    between atoms: N3_21  and  C16_23 
REMARK    8  A    between atoms: C16_23  and  C17_25 
REMARK    9  A    between atoms: C17_25  and  N4_26 
REMARK   10  A    between atoms: C17_25  and  C21_31 
REMARK   11  A    between atoms: N4_26  and  C18_28 
ROOT
HETATM    1  C8  UNL     1     -10.980 -28.967   0.301  1.00  0.00     0.177 C 
ENDROOT
BRANCH   1   2
HETATM    2  C7  UNL     1     -11.290 -27.713   1.088  1.00  0.00     0.242 C 
HETATM    3  N2  UNL     1     -10.871 -26.426   0.757  1.00  0.00    -0.350 N 
HETATM    4  C6  UNL     1     -11.239 -25.268   1.579  1.00  0.00     0.126 C 
HETATM    5  C24 UNL     1     -10.047 -26.112  -0.381  1.00  0.00     0.126 C 
HETATM    6  C5  UNL     1     -11.315 -24.029   0.749  1.00  0.00     0.024 C 
HETATM    7  C4  UNL     1      -9.955 -23.687   0.160  1.00  0.00    -0.010 C 
HETATM    8  C25 UNL     1      -9.136 -24.925   0.006  1.00  0.00     0.024 C 
HETATM    9  O1  UNL     1     -11.980 -27.856   2.128  1.00  0.00    -0.271 OA
BRANCH   7  10
HETATM   10  C3  UNL     1      -9.321 -22.652   1.020  1.00  0.00     0.032 C 
BRANCH  10  11
HETATM   11  C2  UNL     1     -10.257 -21.759   1.772  1.00  0.00     0.232 C 
BRANCH  11  12
HETATM   12  N1  UNL     1     -10.006 -21.721   3.183  1.00  0.00    -0.079 N 
HETATM   13  C1  UNL     1     -10.795 -20.628   3.760  1.00  0.00     0.266 C 
ATOM     14  H12 UNL     1      -9.013 -21.647   3.404  1.00  0.00     0.276 HD
ATOM     15  H11 UNL     1     -10.183 -22.616   3.638  1.00  0.00     0.276 HD
ENDBRANCH  11  12
ENDBRANCH  10  11
ENDBRANCH   7  10
ENDBRANCH   1   2
BRANCH   1  16
HETATM   16  C9  UNL     1     -11.630 -28.935  -1.031  1.00  0.00     0.039 C 
BRANCH  16  17
HETATM   17  C10 UNL     1     -12.963 -28.309  -1.149  1.00  0.00    -0.012 C 
HETATM   18  C11 UNL     1     -13.061 -27.157  -2.120  1.00  0.00     0.005 C 
HETATM   19  C12 UNL     1     -14.291 -26.365  -1.805  1.00  0.00     0.000 C 
HETATM   20  C13 UNL     1     -15.537 -27.158  -1.613  1.00  0.00     0.000 C 
HETATM   21  C14 UNL     1     -15.345 -28.413  -0.787  1.00  0.00     0.000 C 
HETATM   22  C15 UNL     1     -14.135 -29.205  -1.331  1.00  0.00     0.005 C 
ENDBRANCH  16  17
ENDBRANCH   1  16
BRANCH   1  23
HETATM   23  N3  UNL     1     -11.494 -30.119   1.049  1.00  0.00    -0.346 N 
HETATM   24  C16 UNL     1     -10.694 -30.869   1.955  1.00  0.00     0.241 C 
HETATM   25  O2  UNL     1      -9.503 -30.491   2.082  1.00  0.00    -0.271 OA
ATOM     26  H3  UNL     1     -12.467 -30.394   0.914  1.00  0.00     0.163 HD
BRANCH  24  27
HETATM   27  C17 UNL     1     -11.166 -32.015   2.723  1.00  0.00     0.173 C 
BRANCH  27  28
HETATM   28  N4  UNL     1     -10.222 -33.010   3.101  1.00  0.00    -0.406 N 
ATOM     29  H4  UNL     1      -9.945 -33.738   2.441  1.00  0.00     0.154 HD
BRANCH  28  30
HETATM   30  C18 UNL     1      -9.673 -32.976   4.405  1.00  0.00     0.069 C 
HETATM   31  C19 UNL     1      -8.413 -33.714   4.677  1.00  0.00     0.031 C 
HETATM   32  C20 UNL     1     -10.745 -33.588   5.335  1.00  0.00     0.031 C 
ENDBRANCH  28  30
ENDBRANCH  27  28
BRANCH  27  33
HETATM   33  C21 UNL     1     -12.317 -32.744   2.039  1.00  0.00     0.009 C 
HETATM   34  C22 UNL     1     -11.985 -34.179   1.777  1.00  0.00     0.012 C 
HETATM   35  C23 UNL     1     -13.486 -32.706   3.006  1.00  0.00     0.012 C 
ENDBRANCH  27  33
ENDBRANCH  24  27
ENDBRANCH   1  23
TORSDOF 11
ENDMDL
