MODEL 1
REMARK VINA RESULT: -9.143732489      0.000      0.000
REMARK  10 active torsions:
REMARK  status: ('A' for Active; 'I' for Inactive)
REMARK    1  A    between atoms: C1_2  and  C2_3 
REMARK       I    between atoms: C1_2  and  N3_17 
REMARK    2  A    between atoms: C2_3  and  N1_4 
REMARK    3  A    between atoms: N3_17  and  C12_19 
REMARK    4  A    between atoms: C12_19  and  C13_20 
REMARK    5  A    between atoms: C13_20  and  C14_21 
REMARK    6  A    between atoms: C14_21  and  C15_22 
REMARK    7  A    between atoms: C15_22  and  C16_23 
REMARK    8  A    between atoms: C16_23  and  C17_24 
REMARK    9  A    between atoms: C17_24  and  C18_25 
REMARK   10  A    between atoms: C18_25  and  C19_26 
ROOT
HETATM    1  O1  UNL     1     -11.800 -24.394   1.544  1.00  0.00    -0.271 OA
HETATM    2  C1  UNL     1     -11.275 -24.543   0.435  1.00  0.00     0.239 C 
HETATM    3  N3  UNL     1     -10.066 -23.960   0.073  1.00  0.00    -0.339 N 
ATOM      4  H3  UNL     1      -9.752 -24.194  -0.868  1.00  0.00     0.167 HD
ENDROOT
BRANCH   3   5
HETATM    5  C12 UNL     1      -9.200 -23.107   0.774  1.00  0.00     0.064 C 
BRANCH   5   6
HETATM    6  C13 UNL     1      -9.607 -21.766   1.225  1.00  0.00     0.044 C 
BRANCH   6   7
HETATM    7  C14 UNL     1     -10.048 -21.627   2.629  1.00  0.00     0.005 C 
BRANCH   7   8
HETATM    8  C15 UNL     1     -10.104 -20.155   3.063  1.00  0.00     0.000 C 
BRANCH   8   9
HETATM    9  C16 UNL     1      -8.877 -19.398   2.625  1.00  0.00     0.000 C 
BRANCH   9  10
HETATM   10  C17 UNL     1      -8.680 -18.151   3.423  1.00  0.00     0.000 C 
BRANCH  10  11
HETATM   11  C18 UNL     1      -9.526 -18.113   4.659  1.00  0.00     0.007 C 
BRANCH  11  12
HETATM   12  C19 UNL     1     -10.420 -16.935   4.709  1.00  0.00     0.016 C 
HETATM   13  C20 UNL     1      -9.786 -15.681   4.205  1.00  0.00     0.009 C 
HETATM   14  C21 UNL     1      -9.342 -14.781   5.354  1.00  0.00     0.033 C 
HETATM   15  C22 UNL     1     -10.431 -14.544   6.359  1.00  0.00     0.186 C 
HETATM   16  C23 UNL     1     -10.008 -15.227   7.652  1.00  0.00     0.035 C 
HETATM   17  N4  UNL     1     -11.611 -15.358   6.030  1.00  0.00    -0.066 N 
HETATM   18  C24 UNL     1     -10.083 -16.688   7.208  1.00  0.00     0.035 C 
HETATM   19  C25 UNL     1     -11.044 -16.715   6.077  1.00  0.00     0.190 C 
ATOM     20  H42 UNL     1     -12.426 -15.204   6.624  1.00  0.00     0.278 HD
ATOM     21  H41 UNL     1     -12.084 -15.111   5.161  1.00  0.00     0.278 HD
ENDBRANCH  11  12
ENDBRANCH  10  11
ENDBRANCH   9  10
ENDBRANCH   8   9
ENDBRANCH   7   8
ENDBRANCH   6   7
ENDBRANCH   5   6
ENDBRANCH   3   5
BRANCH   2  22
HETATM   22  C2  UNL     1     -12.058 -25.420  -0.513  1.00  0.00     0.231 C 
BRANCH  22  23
HETATM   23  N1  UNL     1     -11.826 -26.822  -0.246  1.00  0.00    -0.320 N 
HETATM   24  C3  UNL     1     -10.659 -27.422  -0.780  1.00  0.00     0.319 C 
HETATM   25  O2  UNL     1      -9.822 -26.742  -1.471  1.00  0.00    -0.247 OA
HETATM   26  N2  UNL     1     -10.446 -28.803  -0.526  1.00  0.00    -0.333 N 
HETATM   27  C4  UNL     1     -11.593 -29.624  -0.184  1.00  0.00     0.040 A 
ATOM     28  H2  UNL     1      -9.511 -29.208  -0.582  1.00  0.00     0.165 HD
HETATM   29  C5  UNL     1     -12.265 -30.283  -1.321  1.00  0.00     0.034 A 
HETATM   30  C6  UNL     1     -11.463 -31.077  -0.253  1.00  0.00     0.034 A 
HETATM   31  C7  UNL     1     -12.382 -28.928   0.900  1.00  0.00     0.037 C 
HETATM   32  C8  UNL     1     -13.703 -29.639   1.092  1.00  0.00     0.009 C 
HETATM   33  C11 UNL     1     -12.775 -27.540   0.539  1.00  0.00     0.096 C 
HETATM   34  C9  UNL     1     -14.770 -28.770   0.492  1.00  0.00     0.002 C 
HETATM   35  C10 UNL     1     -14.044 -27.679  -0.274  1.00  0.00     0.026 C 
ENDBRANCH  22  23
ENDBRANCH   2  22
TORSDOF 10
ENDMDL
MODEL 2
REMARK VINA RESULT: -9.085634737      3.337     12.996
REMARK  10 active torsions:
REMARK  status: ('A' for Active; 'I' for Inactive)
REMARK    1  A    between atoms: C1_2  and  C2_3 
REMARK       I    between atoms: C1_2  and  N3_17 
REMARK    2  A    between atoms: C2_3  and  N1_4 
REMARK    3  A    between atoms: N3_17  and  C12_19 
REMARK    4  A    between atoms: C12_19  and  C13_20 
REMARK    5  A    between atoms: C13_20  and  C14_21 
REMARK    6  A    between atoms: C14_21  and  C15_22 
REMARK    7  A    between atoms: C15_22  and  C16_23 
REMARK    8  A    between atoms: C16_23  and  C17_24 
REMARK    9  A    between atoms: C17_24  and  C18_25 
REMARK   10  A    between atoms: C18_25  and  C19_26 
ROOT
HETATM    1  O1  UNL     1      -8.964 -16.526   3.940  1.00  0.00    -0.271 OA
HETATM    2  C1  UNL     1     -10.015 -16.603   4.585  1.00  0.00     0.239 C 
HETATM    3  N3  UNL     1     -10.612 -17.808   4.939  1.00  0.00    -0.339 N 
ATOM      4  H3  UNL     1     -11.465 -17.709   5.489  1.00  0.00     0.167 HD
ENDROOT
BRANCH   3   5
HETATM    5  C12 UNL     1     -10.249 -19.137   4.673  1.00  0.00     0.064 C 
BRANCH   5   6
HETATM    6  C13 UNL     1     -11.240 -20.221   4.570  1.00  0.00     0.044 C 
BRANCH   6   7
HETATM    7  C14 UNL     1     -11.002 -21.263   3.549  1.00  0.00     0.005 C 
BRANCH   7   8
HETATM    8  C15 UNL     1      -9.573 -21.196   2.992  1.00  0.00     0.000 C 
BRANCH   8   9
HETATM    9  C16 UNL     1      -9.566 -21.073   1.490  1.00  0.00     0.000 C 
BRANCH   9  10
HETATM   10  C17 UNL     1      -9.177 -22.353   0.829  1.00  0.00     0.000 C 
BRANCH  10  11
HETATM   11  C18 UNL     1     -10.360 -23.169   0.403  1.00  0.00     0.007 C 
BRANCH  11  12
HETATM   12  C19 UNL     1     -10.224 -24.602   0.742  1.00  0.00     0.016 C 
HETATM   13  C20 UNL     1      -9.183 -25.312  -0.060  1.00  0.00     0.009 C 
HETATM   14  C21 UNL     1      -9.810 -26.138  -1.179  1.00  0.00     0.033 C 
HETATM   15  C22 UNL     1     -10.909 -27.036  -0.689  1.00  0.00     0.186 C 
HETATM   16  C23 UNL     1     -12.212 -26.521  -1.287  1.00  0.00     0.035 C 
HETATM   17  N4  UNL     1     -11.179 -26.780   0.734  1.00  0.00    -0.066 N 
HETATM   18  C24 UNL     1     -12.325 -25.187  -0.548  1.00  0.00     0.035 C 
HETATM   19  C25 UNL     1     -11.543 -25.355   0.703  1.00  0.00     0.190 C 
ATOM     20  H42 UNL     1     -11.865 -27.397   1.166  1.00  0.00     0.278 HD
ATOM     21  H41 UNL     1     -10.422 -27.024   1.372  1.00  0.00     0.278 HD
ENDBRANCH  11  12
ENDBRANCH  10  11
ENDBRANCH   9  10
ENDBRANCH   8   9
ENDBRANCH   7   8
ENDBRANCH   6   7
ENDBRANCH   5   6
ENDBRANCH   3   5
BRANCH   2  22
HETATM   22  C2  UNL     1     -10.613 -15.270   4.966  1.00  0.00     0.231 C 
BRANCH  22  23
HETATM   23  N1  UNL     1     -10.325 -14.939   6.344  1.00  0.00    -0.320 N 
HETATM   24  C3  UNL     1     -11.246 -15.352   7.339  1.00  0.00     0.319 C 
HETATM   25  O2  UNL     1     -12.300 -16.013   7.033  1.00  0.00    -0.247 OA
HETATM   26  N2  UNL     1     -10.963 -15.009   8.689  1.00  0.00    -0.333 N 
HETATM   27  C4  UNL     1     -10.072 -13.893   8.943  1.00  0.00     0.040 A 
ATOM     28  H2  UNL     1     -11.375 -15.535   9.459  1.00  0.00     0.165 HD
HETATM   29  C5  UNL     1     -10.727 -12.580   9.100  1.00  0.00     0.034 A 
HETATM   30  C6  UNL     1     -10.034 -13.313  10.282  1.00  0.00     0.034 A 
HETATM   31  C7  UNL     1      -8.835 -14.057   8.092  1.00  0.00     0.037 C 
HETATM   32  C8  UNL     1      -8.013 -12.787   8.153  1.00  0.00     0.009 C 
HETATM   33  C11 UNL     1      -9.135 -14.215   6.645  1.00  0.00     0.096 C 
HETATM   34  C9  UNL     1      -8.180 -12.082   6.839  1.00  0.00     0.002 C 
HETATM   35  C10 UNL     1      -9.297 -12.808   6.109  1.00  0.00     0.026 C 
ENDBRANCH  22  23
ENDBRANCH   2  22
TORSDOF 10
ENDMDL
MODEL 3
REMARK VINA RESULT: -9.075856589      3.101     12.944
REMARK  10 active torsions:
REMARK  status: ('A' for Active; 'I' for Inactive)
REMARK    1  A    between atoms: C1_2  and  C2_3 
REMARK       I    between atoms: C1_2  and  N3_17 
REMARK    2  A    between atoms: C2_3  and  N1_4 
REMARK    3  A    between atoms: N3_17  and  C12_19 
REMARK    4  A    between atoms: C12_19  and  C13_20 
REMARK    5  A    between atoms: C13_20  and  C14_21 
REMARK    6  A    between atoms: C14_21  and  C15_22 
REMARK    7  A    between atoms: C15_22  and  C16_23 
REMARK    8  A    between atoms: C16_23  and  C17_24 
REMARK    9  A    between atoms: C17_24  and  C18_25 
REMARK   10  A    between atoms: C18_25  and  C19_26 
ROOT
HETATM    1  O1  UNL     1      -8.693 -17.559   4.624  1.00  0.00    -0.271 OA
HETATM    2  C1  UNL     1      -9.916 -17.401   4.706  1.00  0.00     0.239 C 
HETATM    3  N3  UNL     1     -10.826 -18.452   4.731  1.00  0.00    -0.339 N 
ATOM      4  H3  UNL     1     -11.799 -18.162   4.823  1.00  0.00     0.167 HD
ENDROOT
BRANCH   3   5
HETATM    5  C12 UNL     1     -10.643 -19.840   4.650  1.00  0.00     0.064 C 
BRANCH   5   6
HETATM    6  C13 UNL     1     -10.585 -20.556   3.365  1.00  0.00     0.044 C 
BRANCH   6   7
HETATM    7  C14 UNL     1      -9.400 -20.323   2.511  1.00  0.00     0.005 C 
BRANCH   7   8
HETATM    8  C15 UNL     1      -9.455 -21.160   1.225  1.00  0.00     0.000 C 
BRANCH   8   9
HETATM    9  C16 UNL     1      -9.919 -22.568   1.495  1.00  0.00     0.000 C 
BRANCH   9  10
HETATM   10  C17 UNL     1      -9.407 -23.527   0.473  1.00  0.00     0.000 C 
BRANCH  10  11
HETATM   11  C18 UNL     1     -10.496 -24.097  -0.385  1.00  0.00     0.007 C 
BRANCH  11  12
HETATM   12  C19 UNL     1     -11.065 -25.349   0.161  1.00  0.00     0.016 C 
HETATM   13  C20 UNL     1     -10.345 -26.579  -0.285  1.00  0.00     0.009 C 
HETATM   14  C21 UNL     1     -11.104 -27.295  -1.397  1.00  0.00     0.033 C 
HETATM   15  C22 UNL     1     -12.546 -27.532  -1.055  1.00  0.00     0.186 C 
HETATM   16  C23 UNL     1     -13.380 -26.669  -1.993  1.00  0.00     0.035 C 
HETATM   17  N4  UNL     1     -12.877 -26.886   0.224  1.00  0.00    -0.066 N 
HETATM   18  C24 UNL     1     -12.992 -25.282  -1.481  1.00  0.00     0.035 C 
HETATM   19  C25 UNL     1     -12.559 -25.481  -0.075  1.00  0.00     0.190 C 
ATOM     20  H42 UNL     1     -13.822 -27.057   0.568  1.00  0.00     0.278 HD
ATOM     21  H41 UNL     1     -12.411 -27.275   1.043  1.00  0.00     0.278 HD
ENDBRANCH  11  12
ENDBRANCH  10  11
ENDBRANCH   9  10
ENDBRANCH   8   9
ENDBRANCH   7   8
ENDBRANCH   6   7
ENDBRANCH   5   6
ENDBRANCH   3   5
BRANCH   2  22
HETATM   22  C2  UNL     1     -10.355 -15.957   4.780  1.00  0.00     0.231 C 
BRANCH  22  23
HETATM   23  N1  UNL     1     -10.347 -15.474   6.143  1.00  0.00    -0.320 N 
HETATM   24  C3  UNL     1     -11.486 -15.723   6.949  1.00  0.00     0.319 C 
HETATM   25  O2  UNL     1     -12.492 -16.370   6.492  1.00  0.00    -0.247 OA
HETATM   26  N2  UNL     1     -11.475 -15.231   8.282  1.00  0.00    -0.333 N 
HETATM   27  C4  UNL     1     -10.585 -14.131   8.603  1.00  0.00     0.040 A 
ATOM     28  H2  UNL     1     -12.078 -15.641   8.996  1.00  0.00     0.165 HD
HETATM   29  C5  UNL     1     -11.167 -12.782   8.467  1.00  0.00     0.034 A 
HETATM   30  C6  UNL     1     -10.795 -13.395   9.846  1.00  0.00     0.034 A 
HETATM   31  C7  UNL     1      -9.208 -14.451   8.069  1.00  0.00     0.037 C 
HETATM   32  C8  UNL     1      -8.334 -13.220   8.171  1.00  0.00     0.009 C 
HETATM   33  C11 UNL     1      -9.202 -14.771   6.618  1.00  0.00     0.096 C 
HETATM   34  C9  UNL     1      -8.167 -12.673   6.783  1.00  0.00     0.002 C 
HETATM   35  C10 UNL     1      -9.149 -13.434   5.909  1.00  0.00     0.026 C 
ENDBRANCH  22  23
ENDBRANCH   2  22
TORSDOF 10
ENDMDL
MODEL 4
REMARK VINA RESULT: -8.997624261      1.030      1.584
REMARK  10 active torsions:
REMARK  status: ('A' for Active; 'I' for Inactive)
REMARK    1  A    between atoms: C1_2  and  C2_3 
REMARK       I    between atoms: C1_2  and  N3_17 
REMARK    2  A    between atoms: C2_3  and  N1_4 
REMARK    3  A    between atoms: N3_17  and  C12_19 
REMARK    4  A    between atoms: C12_19  and  C13_20 
REMARK    5  A    between atoms: C13_20  and  C14_21 
REMARK    6  A    between atoms: C14_21  and  C15_22 
REMARK    7  A    between atoms: C15_22  and  C16_23 
REMARK    8  A    between atoms: C16_23  and  C17_24 
REMARK    9  A    between atoms: C17_24  and  C18_25 
REMARK   10  A    between atoms: C18_25  and  C19_26 
ROOT
HETATM    1  O1  UNL     1     -12.164 -24.681   1.034  1.00  0.00    -0.271 OA
HETATM    2  C1  UNL     1     -11.515 -25.014   0.036  1.00  0.00     0.239 C 
HETATM    3  N3  UNL     1     -10.233 -24.551  -0.235  1.00  0.00    -0.339 N 
ATOM      4  H3  UNL     1      -9.820 -24.933  -1.086  1.00  0.00     0.167 HD
ENDROOT
BRANCH   3   5
HETATM    5  C12 UNL     1      -9.405 -23.652   0.453  1.00  0.00     0.064 C 
BRANCH   5   6
HETATM    6  C13 UNL     1      -9.938 -22.632   1.371  1.00  0.00     0.044 C 
BRANCH   6   7
HETATM    7  C14 UNL     1      -9.406 -21.258   1.241  1.00  0.00     0.005 C 
BRANCH   7   8
HETATM    8  C15 UNL     1      -9.742 -20.401   2.470  1.00  0.00     0.000 C 
BRANCH   8   9
HETATM    9  C16 UNL     1     -10.664 -21.123   3.418  1.00  0.00     0.000 C 
BRANCH   9  10
HETATM   10  C17 UNL     1     -11.162 -20.225   4.501  1.00  0.00     0.000 C 
BRANCH  10  11
HETATM   11  C18 UNL     1     -10.666 -18.817   4.361  1.00  0.00     0.007 C 
BRANCH  11  12
HETATM   12  C19 UNL     1     -10.350 -18.186   5.661  1.00  0.00     0.016 C 
HETATM   13  C20 UNL     1     -11.524 -17.527   6.308  1.00  0.00     0.009 C 
HETATM   14  C21 UNL     1     -11.487 -16.013   6.118  1.00  0.00     0.033 C 
HETATM   15  C22 UNL     1     -10.168 -15.413   6.509  1.00  0.00     0.186 C 
HETATM   16  C23 UNL     1      -9.516 -14.889   5.236  1.00  0.00     0.035 C 
HETATM   17  N4  UNL     1      -9.209 -16.473   6.851  1.00  0.00    -0.066 N 
HETATM   18  C24 UNL     1      -9.242 -16.213   4.523  1.00  0.00     0.035 C 
HETATM   19  C25 UNL     1      -9.166 -17.237   5.595  1.00  0.00     0.190 C 
ATOM     20  H42 UNL     1      -8.306 -16.150   7.197  1.00  0.00     0.278 HD
ATOM     21  H41 UNL     1      -9.436 -17.015   7.685  1.00  0.00     0.278 HD
ENDBRANCH  11  12
ENDBRANCH  10  11
ENDBRANCH   9  10
ENDBRANCH   8   9
ENDBRANCH   7   8
ENDBRANCH   6   7
ENDBRANCH   5   6
ENDBRANCH   3   5
BRANCH   2  22
HETATM   22  C2  UNL     1     -12.232 -25.977  -0.881  1.00  0.00     0.231 C 
BRANCH  22  23
HETATM   23  N1  UNL     1     -12.041 -27.346  -0.459  1.00  0.00    -0.320 N 
HETATM   24  C3  UNL     1     -10.917 -28.051  -0.960  1.00  0.00     0.319 C 
HETATM   25  O2  UNL     1     -10.084 -27.490  -1.754  1.00  0.00    -0.247 OA
HETATM   26  N2  UNL     1     -10.746 -29.401  -0.553  1.00  0.00    -0.333 N 
HETATM   27  C4  UNL     1     -11.907 -30.129  -0.077  1.00  0.00     0.040 A 
ATOM     28  H2  UNL     1      -9.829 -29.847  -0.593  1.00  0.00     0.165 HD
HETATM   29  C5  UNL     1     -12.647 -30.887  -1.105  1.00  0.00     0.034 A 
HETATM   30  C6  UNL     1     -11.833 -31.585   0.021  1.00  0.00     0.034 A 
HETATM   31  C7  UNL     1     -12.627 -29.281   0.944  1.00  0.00     0.037 C 
HETATM   32  C8  UNL     1     -13.965 -29.910   1.264  1.00  0.00     0.009 C 
HETATM   33  C11 UNL     1     -12.983 -27.929   0.437  1.00  0.00     0.096 C 
HETATM   34  C9  UNL     1     -15.023 -29.074   0.603  1.00  0.00     0.002 C 
HETATM   35  C10 UNL     1     -14.288 -28.109  -0.310  1.00  0.00     0.026 C 
ENDBRANCH  22  23
ENDBRANCH   2  22
TORSDOF 10
ENDMDL
MODEL 5
REMARK VINA RESULT: -8.921219738      2.966     12.960
REMARK  10 active torsions:
REMARK  status: ('A' for Active; 'I' for Inactive)
REMARK    1  A    between atoms: C1_2  and  C2_3 
REMARK       I    between atoms: C1_2  and  N3_17 
REMARK    2  A    between atoms: C2_3  and  N1_4 
REMARK    3  A    between atoms: N3_17  and  C12_19 
REMARK    4  A    between atoms: C12_19  and  C13_20 
REMARK    5  A    between atoms: C13_20  and  C14_21 
REMARK    6  A    between atoms: C14_21  and  C15_22 
REMARK    7  A    between atoms: C15_22  and  C16_23 
REMARK    8  A    between atoms: C16_23  and  C17_24 
REMARK    9  A    between atoms: C17_24  and  C18_25 
REMARK   10  A    between atoms: C18_25  and  C19_26 
ROOT
HETATM    1  O1  UNL     1      -8.668 -17.480   4.328  1.00  0.00    -0.271 OA
HETATM    2  C1  UNL     1      -9.869 -17.324   4.569  1.00  0.00     0.239 C 
HETATM    3  N3  UNL     1     -10.769 -18.375   4.707  1.00  0.00    -0.339 N 
ATOM      4  H3  UNL     1     -11.722 -18.086   4.926  1.00  0.00     0.167 HD
ENDROOT
BRANCH   3   5
HETATM    5  C12 UNL     1     -10.598 -19.763   4.598  1.00  0.00     0.064 C 
BRANCH   5   6
HETATM    6  C13 UNL     1     -10.720 -20.476   3.315  1.00  0.00     0.044 C 
BRANCH   6   7
HETATM    7  C14 UNL     1      -9.580 -21.318   2.896  1.00  0.00     0.005 C 
BRANCH   7   8
HETATM    8  C15 UNL     1      -9.598 -21.585   1.384  1.00  0.00     0.000 C 
BRANCH   8   9
HETATM    9  C16 UNL     1      -9.880 -23.033   1.077  1.00  0.00     0.000 C 
BRANCH   9  10
HETATM   10  C17 UNL     1     -10.943 -23.592   1.964  1.00  0.00     0.000 C 
BRANCH  10  11
HETATM   11  C18 UNL     1     -11.623 -24.789   1.371  1.00  0.00     0.007 C 
BRANCH  11  12
HETATM   12  C19 UNL     1     -11.026 -25.213   0.086  1.00  0.00     0.016 C 
HETATM   13  C20 UNL     1     -12.002 -25.257  -1.043  1.00  0.00     0.009 C 
HETATM   14  C21 UNL     1     -12.447 -26.686  -1.338  1.00  0.00     0.033 C 
HETATM   15  C22 UNL     1     -11.291 -27.630  -1.504  1.00  0.00     0.186 C 
HETATM   16  C23 UNL     1     -11.330 -28.601  -0.332  1.00  0.00     0.035 C 
HETATM   17  N4  UNL     1     -10.027 -26.942  -1.205  1.00  0.00    -0.066 N 
HETATM   18  C24 UNL     1     -10.998 -27.641   0.810  1.00  0.00     0.035 C 
HETATM   19  C25 UNL     1     -10.254 -26.518   0.186  1.00  0.00     0.190 C 
ATOM     20  H42 UNL     1      -9.183 -27.491  -1.361  1.00  0.00     0.278 HD
ATOM     21  H41 UNL     1      -9.771 -26.197  -1.853  1.00  0.00     0.278 HD
ENDBRANCH  11  12
ENDBRANCH  10  11
ENDBRANCH   9  10
ENDBRANCH   8   9
ENDBRANCH   7   8
ENDBRANCH   6   7
ENDBRANCH   5   6
ENDBRANCH   3   5
BRANCH   2  22
HETATM   22  C2  UNL     1     -10.295 -15.881   4.706  1.00  0.00     0.231 C 
BRANCH  22  23
HETATM   23  N1  UNL     1     -10.285 -15.457   6.088  1.00  0.00    -0.320 N 
HETATM   24  C3  UNL     1     -11.418 -15.752   6.887  1.00  0.00     0.319 C 
HETATM   25  O2  UNL     1     -12.421 -16.387   6.406  1.00  0.00    -0.247 OA
HETATM   26  N2  UNL     1     -11.406 -15.319   8.240  1.00  0.00    -0.333 N 
HETATM   27  C4  UNL     1     -10.524 -14.226   8.606  1.00  0.00     0.040 A 
ATOM     28  H2  UNL     1     -12.003 -15.765   8.938  1.00  0.00     0.165 HD
HETATM   29  C5  UNL     1     -11.119 -12.877   8.532  1.00  0.00     0.034 A 
HETATM   30  C6  UNL     1     -10.736 -13.548   9.881  1.00  0.00     0.034 A 
HETATM   31  C7  UNL     1      -9.147 -14.510   8.053  1.00  0.00     0.037 C 
HETATM   32  C8  UNL     1      -8.284 -13.277   8.206  1.00  0.00     0.009 C 
HETATM   33  C11 UNL     1      -9.144 -14.766   6.589  1.00  0.00     0.096 C 
HETATM   34  C9  UNL     1      -8.127 -12.668   6.843  1.00  0.00     0.002 C 
HETATM   35  C10 UNL     1      -9.106 -13.398   5.940  1.00  0.00     0.026 C 
ENDBRANCH  22  23
ENDBRANCH   2  22
TORSDOF 10
ENDMDL
