MODEL 1
REMARK VINA RESULT: -5.462602404      0.000      0.000
REMARK  14 active torsions:
REMARK  status: ('A' for Active; 'I' for Inactive)
REMARK    1  A    between atoms: C2_2  and  C4_4 
REMARK    2  A    between atoms: C10_10  and  O1_11 
REMARK    3  A    between atoms: C12_14  and  O2_15 
REMARK    4  A    between atoms: C15_19  and  C16_20 
REMARK    5  A    between atoms: C16_20  and  C17_22 
REMARK    6  A    between atoms: C18_23  and  C19_24 
REMARK    7  A    between atoms: C19_24  and  C21_26 
REMARK    8  A    between atoms: C21_26  and  O4_27 
REMARK    9  A    between atoms: C21_26  and  O5_29 
REMARK   10  A    between atoms: C21_26  and  C23_31 
REMARK   11  A    between atoms: C23_31  and  C24_32 
REMARK   12  A    between atoms: C23_31  and  C28_36 
REMARK   13  A    between atoms: C24_32  and  C25_33 
REMARK   14  A    between atoms: C28_36  and  O7_38 
ROOT
HETATM    1  C16 UNL     1      26.983 -22.919 -17.613  1.00  0.00     0.155 C 
HETATM    2  O3  UNL     1      28.053 -22.300 -17.265  1.00  0.00    -0.293 OA
ENDROOT
BRANCH   1   3
HETATM    3  C15 UNL     1      26.512 -22.920 -19.006  1.00  0.00     0.079 C 
HETATM    4  C4  UNL     1      27.512 -23.279 -20.017  1.00  0.00     0.025 C 
HETATM    5  C5  UNL     1      27.385 -22.657 -21.379  1.00  0.00     0.010 C 
HETATM    6  C6  UNL     1      26.434 -21.559 -21.588  1.00  0.00     0.010 C 
HETATM    7  C7  UNL     1      25.198 -21.798 -20.783  1.00  0.00     0.028 C 
HETATM    8  C8  UNL     1      24.086 -20.891 -21.060  1.00  0.00    -0.056 C 
HETATM    9  C13 UNL     1      25.665 -21.708 -19.331  1.00  0.00     0.001 C 
HETATM   10  C9  UNL     1      23.648 -20.852 -22.318  1.00  0.00     0.017 C 
HETATM   11  C10 UNL     1      23.403 -20.016 -20.071  1.00  0.00     0.149 C 
HETATM   12  C11 UNL     1      23.761 -20.332 -18.648  1.00  0.00     0.068 C 
HETATM   13  C12 UNL     1      24.401 -21.684 -18.495  1.00  0.00     0.130 C 
HETATM   14  C14 UNL     1      26.435 -20.458 -19.072  1.00  0.00     0.019 C 
BRANCH   4  15
HETATM   15  C2  UNL     1      27.836 -24.720 -20.135  1.00  0.00    -0.088 C 
HETATM   16  C1  UNL     1      28.758 -25.330 -19.466  1.00  0.00     0.014 C 
HETATM   17  C3  UNL     1      27.044 -25.557 -21.110  1.00  0.00     0.043 C 
ENDBRANCH   4  15
BRANCH  11  18
HETATM   18  O1  UNL     1      22.023 -20.008 -20.278  1.00  0.00    -0.391 OA
ATOM     19  H1  UNL     1      21.612 -19.292 -19.809  1.00  0.00     0.210 HD
ENDBRANCH  11  18
BRANCH  13  20
HETATM   20  O2  UNL     1      23.523 -22.614 -19.084  1.00  0.00    -0.395 OA
ATOM     21  H2  UNL     1      23.999 -23.433 -19.151  1.00  0.00     0.210 HD
ENDBRANCH  13  20
ENDBRANCH   1   3
BRANCH   1  22
HETATM   22  C17 UNL     1      26.276 -23.618 -16.534  1.00  0.00     0.051 C 
HETATM   23  C18 UNL     1      26.749 -23.646 -15.327  1.00  0.00     0.015 C 
BRANCH  23  24
HETATM   24  C19 UNL     1      26.232 -24.255 -14.137  1.00  0.00    -0.005 C 
HETATM   25  C20 UNL     1      25.008 -24.844 -14.310  1.00  0.00     0.024 C 
BRANCH  24  26
HETATM   26  C21 UNL     1      26.809 -24.388 -12.830  1.00  0.00     0.202 C 
BRANCH  26  27
HETATM   27  O4  UNL     1      28.172 -24.858 -12.946  1.00  0.00    -0.361 OA
ATOM     28  H4  UNL     1      28.707 -24.190 -13.359  1.00  0.00     0.213 HD
ENDBRANCH  26  27
BRANCH  26  29
HETATM   29  O5  UNL     1      26.213 -25.532 -12.188  1.00  0.00    -0.355 OA
HETATM   30  C22 UNL     1      27.154 -26.313 -11.574  1.00  0.00     0.206 C 
ENDBRANCH  26  29
BRANCH  26  31
HETATM   31  C23 UNL     1      26.874 -23.284 -11.844  1.00  0.00     0.153 C 
BRANCH  31  32
HETATM   32  C24 UNL     1      25.691 -22.389 -11.788  1.00  0.00     0.024 C 
BRANCH  32  33
HETATM   33  C25 UNL     1      25.119 -22.167 -10.399  1.00  0.00    -0.022 C 
HETATM   34  C26 UNL     1      23.682 -21.655 -10.647  1.00  0.00     0.009 C 
HETATM   35  C27 UNL     1      24.963 -23.415  -9.598  1.00  0.00     0.009 C 
ENDBRANCH  32  33
ENDBRANCH  31  32
BRANCH  31  36
HETATM   36  C28 UNL     1      28.153 -22.532 -11.797  1.00  0.00     0.268 C 
HETATM   37  O6  UNL     1      28.449 -21.718 -12.674  1.00  0.00    -0.265 OA
BRANCH  36  38
HETATM   38  O7  UNL     1      29.060 -22.714 -10.768  1.00  0.00    -0.326 OA
HETATM   39  C29 UNL     1      28.739 -23.538  -9.640  1.00  0.00     0.213 C 
ENDBRANCH  36  38
ENDBRANCH  31  36
ENDBRANCH  26  31
ENDBRANCH  24  26
ENDBRANCH  23  24
ENDBRANCH   1  22
TORSDOF 14
ENDMDL
MODEL 2
REMARK VINA RESULT: -5.326113646      6.287      8.305
REMARK  14 active torsions:
REMARK  status: ('A' for Active; 'I' for Inactive)
REMARK    1  A    between atoms: C2_2  and  C4_4 
REMARK    2  A    between atoms: C10_10  and  O1_11 
REMARK    3  A    between atoms: C12_14  and  O2_15 
REMARK    4  A    between atoms: C15_19  and  C16_20 
REMARK    5  A    between atoms: C16_20  and  C17_22 
REMARK    6  A    between atoms: C18_23  and  C19_24 
REMARK    7  A    between atoms: C19_24  and  C21_26 
REMARK    8  A    between atoms: C21_26  and  O4_27 
REMARK    9  A    between atoms: C21_26  and  O5_29 
REMARK   10  A    between atoms: C21_26  and  C23_31 
REMARK   11  A    between atoms: C23_31  and  C24_32 
REMARK   12  A    between atoms: C23_31  and  C28_36 
REMARK   13  A    between atoms: C24_32  and  C25_33 
REMARK   14  A    between atoms: C28_36  and  O7_38 
ROOT
HETATM    1  C16 UNL     1      19.554 -18.764 -15.132  1.00  0.00     0.155 C 
HETATM    2  O3  UNL     1      18.281 -18.593 -15.090  1.00  0.00    -0.293 OA
ENDROOT
BRANCH   1   3
HETATM    3  C15 UNL     1      20.230 -19.220 -16.356  1.00  0.00     0.079 C 
HETATM    4  C4  UNL     1      21.391 -20.093 -16.156  1.00  0.00     0.025 C 
HETATM    5  C5  UNL     1      22.501 -20.024 -17.168  1.00  0.00     0.010 C 
HETATM    6  C6  UNL     1      22.504 -18.951 -18.168  1.00  0.00     0.010 C 
HETATM    7  C7  UNL     1      21.105 -18.662 -18.608  1.00  0.00     0.028 C 
HETATM    8  C8  UNL     1      20.982 -17.762 -19.752  1.00  0.00    -0.056 C 
HETATM    9  C13 UNL     1      20.421 -18.103 -17.361  1.00  0.00     0.001 C 
HETATM   10  C9  UNL     1      21.601 -18.135 -20.872  1.00  0.00     0.017 C 
HETATM   11  C10 UNL     1      20.233 -16.479 -19.780  1.00  0.00     0.149 C 
HETATM   12  C11 UNL     1      19.342 -16.283 -18.587  1.00  0.00     0.068 C 
HETATM   13  C12 UNL     1      19.088 -17.559 -17.835  1.00  0.00     0.130 C 
HETATM   14  C14 UNL     1      21.204 -16.991 -16.750  1.00  0.00     0.019 C 
BRANCH   4  15
HETATM   15  C2  UNL     1      21.098 -21.502 -15.805  1.00  0.00    -0.088 C 
HETATM   16  C1  UNL     1      20.362 -22.302 -16.505  1.00  0.00     0.014 C 
HETATM   17  C3  UNL     1      21.689 -22.066 -14.536  1.00  0.00     0.043 C 
ENDBRANCH   4  15
BRANCH  11  18
HETATM   18  O1  UNL     1      19.543 -16.328 -20.984  1.00  0.00    -0.391 OA
ATOM     19  H1  UNL     1      18.652 -16.646 -20.909  1.00  0.00     0.210 HD
ENDBRANCH  11  18
BRANCH  13  20
HETATM   20  O2  UNL     1      18.595 -18.488 -18.770  1.00  0.00    -0.395 OA
ATOM     21  H2  UNL     1      19.198 -18.483 -19.503  1.00  0.00     0.210 HD
ENDBRANCH  13  20
ENDBRANCH   1   3
BRANCH   1  22
HETATM   22  C17 UNL     1      20.274 -18.473 -13.887  1.00  0.00     0.051 C 
HETATM   23  C18 UNL     1      20.029 -19.133 -12.799  1.00  0.00     0.015 C 
BRANCH  23  24
HETATM   24  C19 UNL     1      20.607 -19.020 -11.491  1.00  0.00    -0.005 C 
HETATM   25  C20 UNL     1      21.765 -19.733 -11.340  1.00  0.00     0.024 C 
BRANCH  24  26
HETATM   26  C21 UNL     1      20.196 -18.248 -10.354  1.00  0.00     0.202 C 
BRANCH  26  27
HETATM   27  O4  UNL     1      20.742 -18.829  -9.147  1.00  0.00    -0.361 OA
ATOM     28  H4  UNL     1      20.423 -18.353  -8.390  1.00  0.00     0.213 HD
ENDBRANCH  26  27
BRANCH  26  29
HETATM   29  O5  UNL     1      18.793 -18.492 -10.126  1.00  0.00    -0.355 OA
HETATM   30  C22 UNL     1      18.597 -19.535  -9.261  1.00  0.00     0.206 C 
ENDBRANCH  26  29
BRANCH  26  31
HETATM   31  C23 UNL     1      20.441 -16.793 -10.216  1.00  0.00     0.153 C 
BRANCH  31  32
HETATM   32  C24 UNL     1      21.432 -16.207 -11.152  1.00  0.00     0.024 C 
BRANCH  32  33
HETATM   33  C25 UNL     1      20.926 -15.032 -11.970  1.00  0.00    -0.022 C 
HETATM   34  C26 UNL     1      21.753 -15.083 -13.275  1.00  0.00     0.009 C 
HETATM   35  C27 UNL     1      19.503 -15.155 -12.396  1.00  0.00     0.009 C 
ENDBRANCH  32  33
ENDBRANCH  31  32
BRANCH  31  36
HETATM   36  C28 UNL     1      20.611 -16.294  -8.828  1.00  0.00     0.268 C 
HETATM   37  O6  UNL     1      19.645 -16.156  -8.075  1.00  0.00    -0.265 OA
BRANCH  36  38
HETATM   38  O7  UNL     1      21.859 -15.968  -8.326  1.00  0.00    -0.326 OA
HETATM   39  C29 UNL     1      22.123 -14.661  -7.800  1.00  0.00     0.213 C 
ENDBRANCH  36  38
ENDBRANCH  31  36
ENDBRANCH  26  31
ENDBRANCH  24  26
ENDBRANCH  23  24
ENDBRANCH   1  22
TORSDOF 14
ENDMDL
MODEL 3
REMARK VINA RESULT: -5.306285634      2.499      4.798
REMARK  14 active torsions:
REMARK  status: ('A' for Active; 'I' for Inactive)
REMARK    1  A    between atoms: C2_2  and  C4_4 
REMARK    2  A    between atoms: C10_10  and  O1_11 
REMARK    3  A    between atoms: C12_14  and  O2_15 
REMARK    4  A    between atoms: C15_19  and  C16_20 
REMARK    5  A    between atoms: C16_20  and  C17_22 
REMARK    6  A    between atoms: C18_23  and  C19_24 
REMARK    7  A    between atoms: C19_24  and  C21_26 
REMARK    8  A    between atoms: C21_26  and  O4_27 
REMARK    9  A    between atoms: C21_26  and  O5_29 
REMARK   10  A    between atoms: C21_26  and  C23_31 
REMARK   11  A    between atoms: C23_31  and  C24_32 
REMARK   12  A    between atoms: C23_31  and  C28_36 
REMARK   13  A    between atoms: C24_32  and  C25_33 
REMARK   14  A    between atoms: C28_36  and  O7_38 
ROOT
HETATM    1  C16 UNL     1      27.543 -23.569 -14.278  1.00  0.00     0.155 C 
HETATM    2  O3  UNL     1      28.457 -22.666 -14.291  1.00  0.00    -0.293 OA
ENDROOT
BRANCH   1   3
HETATM    3  C15 UNL     1      27.439 -24.574 -15.345  1.00  0.00     0.079 C 
HETATM    4  C4  UNL     1      28.638 -25.389 -15.573  1.00  0.00     0.025 C 
HETATM    5  C5  UNL     1      28.895 -25.878 -16.972  1.00  0.00     0.010 C 
HETATM    6  C6  UNL     1      28.096 -25.349 -18.083  1.00  0.00     0.010 C 
HETATM    7  C7  UNL     1      26.685 -25.138 -17.639  1.00  0.00     0.028 C 
HETATM    8  C8  UNL     1      25.736 -24.814 -18.702  1.00  0.00    -0.056 C 
HETATM    9  C13 UNL     1      26.777 -24.028 -16.593  1.00  0.00     0.001 C 
HETATM   10  C9  UNL     1      25.633 -25.696 -19.696  1.00  0.00     0.017 C 
HETATM   11  C10 UNL     1      24.881 -23.601 -18.773  1.00  0.00     0.149 C 
HETATM   12  C11 UNL     1      24.850 -22.818 -17.491  1.00  0.00     0.068 C 
HETATM   13  C12 UNL     1      25.346 -23.610 -16.314  1.00  0.00     0.130 C 
HETATM   14  C14 UNL     1      27.531 -22.847 -17.100  1.00  0.00     0.019 C 
BRANCH   4  15
HETATM   15  C2  UNL     1      28.892 -26.470 -14.593  1.00  0.00    -0.088 C 
HETATM   16  C1  UNL     1      30.054 -26.785 -14.123  1.00  0.00     0.014 C 
HETATM   17  C3  UNL     1      27.720 -27.281 -14.097  1.00  0.00     0.043 C 
ENDBRANCH   4  15
BRANCH  11  18
HETATM   18  O1  UNL     1      23.601 -23.915 -19.230  1.00  0.00    -0.391 OA
ATOM     19  H1  UNL     1      23.274 -23.245 -19.817  1.00  0.00     0.210 HD
ENDBRANCH  11  18
BRANCH  13  20
HETATM   20  O2  UNL     1      24.590 -24.797 -16.278  1.00  0.00    -0.395 OA
ATOM     21  H2  UNL     1      24.927 -25.312 -15.554  1.00  0.00     0.210 HD
ENDBRANCH  13  20
ENDBRANCH   1   3
BRANCH   1  22
HETATM   22  C17 UNL     1      26.626 -23.525 -13.134  1.00  0.00     0.051 C 
HETATM   23  C18 UNL     1      26.764 -22.642 -12.195  1.00  0.00     0.015 C 
BRANCH  23  24
HETATM   24  C19 UNL     1      25.993 -22.417 -11.006  1.00  0.00    -0.005 C 
HETATM   25  C20 UNL     1      24.641 -22.451 -11.216  1.00  0.00     0.024 C 
BRANCH  24  26
HETATM   26  C21 UNL     1      26.410 -22.219  -9.648  1.00  0.00     0.202 C 
BRANCH  26  27
HETATM   27  O4  UNL     1      25.465 -21.360  -8.969  1.00  0.00    -0.361 OA
ATOM     28  H4  UNL     1      25.745 -21.222  -8.072  1.00  0.00     0.213 HD
ENDBRANCH  26  27
BRANCH  26  29
HETATM   29  O5  UNL     1      27.563 -21.353  -9.652  1.00  0.00    -0.355 OA
HETATM   30  C22 UNL     1      27.759 -20.769  -8.430  1.00  0.00     0.206 C 
ENDBRANCH  26  29
BRANCH  26  31
HETATM   31  C23 UNL     1      26.665 -23.325  -8.697  1.00  0.00     0.153 C 
BRANCH  31  32
HETATM   32  C24 UNL     1      27.044 -24.628  -9.298  1.00  0.00     0.024 C 
BRANCH  32  33
HETATM   33  C25 UNL     1      28.510 -24.762  -9.669  1.00  0.00    -0.022 C 
HETATM   34  C26 UNL     1      29.139 -25.543  -8.492  1.00  0.00     0.009 C 
HETATM   35  C27 UNL     1      28.759 -25.598 -10.878  1.00  0.00     0.009 C 
ENDBRANCH  32  33
ENDBRANCH  31  32
BRANCH  31  36
HETATM   36  C28 UNL     1      25.676 -23.477  -7.600  1.00  0.00     0.268 C 
HETATM   37  O6  UNL     1      24.573 -23.988  -7.799  1.00  0.00    -0.265 OA
BRANCH  36  38
HETATM   38  O7  UNL     1      25.956 -23.051  -6.312  1.00  0.00    -0.326 OA
HETATM   39  C29 UNL     1      25.037 -22.217  -5.597  1.00  0.00     0.213 C 
ENDBRANCH  36  38
ENDBRANCH  31  36
ENDBRANCH  26  31
ENDBRANCH  24  26
ENDBRANCH  23  24
ENDBRANCH   1  22
TORSDOF 14
ENDMDL
MODEL 4
REMARK VINA RESULT: -5.259475847      1.703      3.163
REMARK  14 active torsions:
REMARK  status: ('A' for Active; 'I' for Inactive)
REMARK    1  A    between atoms: C2_2  and  C4_4 
REMARK    2  A    between atoms: C10_10  and  O1_11 
REMARK    3  A    between atoms: C12_14  and  O2_15 
REMARK    4  A    between atoms: C15_19  and  C16_20 
REMARK    5  A    between atoms: C16_20  and  C17_22 
REMARK    6  A    between atoms: C18_23  and  C19_24 
REMARK    7  A    between atoms: C19_24  and  C21_26 
REMARK    8  A    between atoms: C21_26  and  O4_27 
REMARK    9  A    between atoms: C21_26  and  O5_29 
REMARK   10  A    between atoms: C21_26  and  C23_31 
REMARK   11  A    between atoms: C23_31  and  C24_32 
REMARK   12  A    between atoms: C23_31  and  C28_36 
REMARK   13  A    between atoms: C24_32  and  C25_33 
REMARK   14  A    between atoms: C28_36  and  O7_38 
ROOT
HETATM    1  C16 UNL     1      26.230 -22.589 -17.909  1.00  0.00     0.155 C 
HETATM    2  O3  UNL     1      27.399 -22.055 -17.880  1.00  0.00    -0.293 OA
ENDROOT
BRANCH   1   3
HETATM    3  C15 UNL     1      25.214 -22.165 -18.884  1.00  0.00     0.079 C 
HETATM    4  C4  UNL     1      23.825 -22.478 -18.533  1.00  0.00     0.025 C 
HETATM    5  C5  UNL     1      22.863 -22.749 -19.657  1.00  0.00     0.010 C 
HETATM    6  C6  UNL     1      23.374 -22.923 -21.021  1.00  0.00     0.010 C 
HETATM    7  C7  UNL     1      24.519 -21.992 -21.258  1.00  0.00     0.028 C 
HETATM    8  C8  UNL     1      24.985 -21.912 -22.640  1.00  0.00    -0.056 C 
HETATM    9  C13 UNL     1      25.612 -22.484 -20.310  1.00  0.00     0.001 C 
HETATM   10  C9  UNL     1      24.083 -21.551 -23.552  1.00  0.00     0.017 C 
HETATM   11  C10 UNL     1      26.364 -22.193 -23.116  1.00  0.00     0.149 C 
HETATM   12  C11 UNL     1      27.367 -22.307 -22.004  1.00  0.00     0.068 C 
HETATM   13  C12 UNL     1      26.867 -21.733 -20.709  1.00  0.00     0.130 C 
HETATM   14  C14 UNL     1      25.860 -23.946 -20.459  1.00  0.00     0.019 C 
BRANCH   4  15
HETATM   15  C2  UNL     1      23.195 -21.607 -17.513  1.00  0.00    -0.088 C 
HETATM   16  C1  UNL     1      22.738 -22.011 -16.374  1.00  0.00     0.014 C 
HETATM   17  C3  UNL     1      23.062 -20.133 -17.809  1.00  0.00     0.043 C 
ENDBRANCH   4  15
BRANCH  11  18
HETATM   18  O1  UNL     1      26.757 -21.270 -24.087  1.00  0.00    -0.391 OA
ATOM     19  H1  UNL     1      27.633 -21.457 -24.401  1.00  0.00     0.210 HD
ENDBRANCH  11  18
BRANCH  13  20
HETATM   20  O2  UNL     1      26.465 -20.412 -20.981  1.00  0.00    -0.395 OA
ATOM     21  H2  UNL     1      26.257 -20.012 -20.145  1.00  0.00     0.210 HD
ENDBRANCH  13  20
ENDBRANCH   1   3
BRANCH   1  22
HETATM   22  C17 UNL     1      25.989 -23.640 -16.915  1.00  0.00     0.051 C 
HETATM   23  C18 UNL     1      26.257 -23.453 -15.660  1.00  0.00     0.015 C 
BRANCH  23  24
HETATM   24  C19 UNL     1      26.099 -24.326 -14.533  1.00  0.00    -0.005 C 
HETATM   25  C20 UNL     1      25.077 -25.226 -14.676  1.00  0.00     0.024 C 
BRANCH  24  26
HETATM   26  C21 UNL     1      26.865 -24.437 -13.325  1.00  0.00     0.202 C 
BRANCH  26  27
HETATM   27  O4  UNL     1      28.264 -24.605 -13.649  1.00  0.00    -0.361 OA
ATOM     28  H4  UNL     1      28.634 -25.300 -13.117  1.00  0.00     0.213 HD
ENDBRANCH  26  27
BRANCH  26  29
HETATM   29  O5  UNL     1      26.596 -25.726 -12.738  1.00  0.00    -0.355 OA
HETATM   30  C22 UNL     1      27.711 -26.251 -12.143  1.00  0.00     0.206 C 
ENDBRANCH  26  29
BRANCH  26  31
HETATM   31  C23 UNL     1      26.847 -23.423 -12.246  1.00  0.00     0.153 C 
BRANCH  31  32
HETATM   32  C24 UNL     1      25.584 -22.659 -12.088  1.00  0.00     0.024 C 
BRANCH  32  33
HETATM   33  C25 UNL     1      24.621 -23.216 -11.056  1.00  0.00    -0.022 C 
HETATM   34  C26 UNL     1      24.158 -21.981 -10.249  1.00  0.00     0.009 C 
HETATM   35  C27 UNL     1      23.378 -23.800 -11.636  1.00  0.00     0.009 C 
ENDBRANCH  32  33
ENDBRANCH  31  32
BRANCH  31  36
HETATM   36  C28 UNL     1      28.047 -22.554 -12.154  1.00  0.00     0.268 C 
HETATM   37  O6  UNL     1      28.310 -21.731 -13.033  1.00  0.00    -0.265 OA
BRANCH  36  38
HETATM   38  O7  UNL     1      28.915 -22.633 -11.078  1.00  0.00    -0.326 OA
HETATM   39  C29 UNL     1      28.568 -23.380  -9.906  1.00  0.00     0.213 C 
ENDBRANCH  36  38
ENDBRANCH  31  36
ENDBRANCH  26  31
ENDBRANCH  24  26
ENDBRANCH  23  24
ENDBRANCH   1  22
TORSDOF 14
ENDMDL
MODEL 5
REMARK VINA RESULT: -5.240062419      2.210      8.281
REMARK  14 active torsions:
REMARK  status: ('A' for Active; 'I' for Inactive)
REMARK    1  A    between atoms: C2_2  and  C4_4 
REMARK    2  A    between atoms: C10_10  and  O1_11 
REMARK    3  A    between atoms: C12_14  and  O2_15 
REMARK    4  A    between atoms: C15_19  and  C16_20 
REMARK    5  A    between atoms: C16_20  and  C17_22 
REMARK    6  A    between atoms: C18_23  and  C19_24 
REMARK    7  A    between atoms: C19_24  and  C21_26 
REMARK    8  A    between atoms: C21_26  and  O4_27 
REMARK    9  A    between atoms: C21_26  and  O5_29 
REMARK   10  A    between atoms: C21_26  and  C23_31 
REMARK   11  A    between atoms: C23_31  and  C24_32 
REMARK   12  A    between atoms: C23_31  and  C28_36 
REMARK   13  A    between atoms: C24_32  and  C25_33 
REMARK   14  A    between atoms: C28_36  and  O7_38 
ROOT
HETATM    1  C16 UNL     1      26.971 -22.554 -18.123  1.00  0.00     0.155 C 
HETATM    2  O3  UNL     1      27.803 -21.575 -18.121  1.00  0.00    -0.293 OA
ENDROOT
BRANCH   1   3
HETATM    3  C15 UNL     1      27.344 -23.883 -17.617  1.00  0.00     0.079 C 
HETATM    4  C4  UNL     1      26.979 -25.016 -18.474  1.00  0.00     0.025 C 
HETATM    5  C5  UNL     1      26.659 -26.324 -17.804  1.00  0.00     0.010 C 
HETATM    6  C6  UNL     1      26.493 -26.371 -16.348  1.00  0.00     0.010 C 
HETATM    7  C7  UNL     1      27.467 -25.444 -15.695  1.00  0.00     0.028 C 
HETATM    8  C8  UNL     1      27.553 -25.550 -14.240  1.00  0.00    -0.056 C 
HETATM    9  C13 UNL     1      27.028 -24.051 -16.145  1.00  0.00     0.001 C 
HETATM   10  C9  UNL     1      27.869 -26.747 -13.748  1.00  0.00     0.017 C 
HETATM   11  C10 UNL     1      27.324 -24.449 -13.268  1.00  0.00     0.149 C 
HETATM   12  C11 UNL     1      27.260 -23.092 -13.908  1.00  0.00     0.068 C 
HETATM   13  C12 UNL     1      27.825 -23.078 -15.300  1.00  0.00     0.130 C 
HETATM   14  C14 UNL     1      25.576 -23.821 -15.902  1.00  0.00     0.019 C 
BRANCH   4  15
HETATM   15  C2  UNL     1      27.833 -25.240 -19.663  1.00  0.00    -0.088 C 
HETATM   16  C1  UNL     1      27.483 -24.996 -20.883  1.00  0.00     0.014 C 
HETATM   17  C3  UNL     1      29.219 -25.801 -19.458  1.00  0.00     0.043 C 
ENDBRANCH   4  15
BRANCH  11  18
HETATM   18  O1  UNL     1      28.253 -24.498 -12.227  1.00  0.00    -0.391 OA
ATOM     19  H1  UNL     1      29.107 -24.203 -12.518  1.00  0.00     0.210 HD
ENDBRANCH  11  18
BRANCH  13  20
HETATM   20  O2  UNL     1      29.127 -23.608 -15.213  1.00  0.00    -0.395 OA
ATOM     21  H2  UNL     1      29.632 -23.207 -15.910  1.00  0.00     0.210 HD
ENDBRANCH  13  20
ENDBRANCH   1   3
BRANCH   1  22
HETATM   22  C17 UNL     1      25.638 -22.251 -18.656  1.00  0.00     0.051 C 
HETATM   23  C18 UNL     1      25.378 -22.362 -19.921  1.00  0.00     0.015 C 
BRANCH  23  24
HETATM   24  C19 UNL     1      24.165 -22.127 -20.648  1.00  0.00    -0.005 C 
HETATM   25  C20 UNL     1      23.321 -23.204 -20.669  1.00  0.00     0.024 C 
BRANCH  24  26
HETATM   26  C21 UNL     1      23.683 -20.942 -21.299  1.00  0.00     0.202 C 
BRANCH  26  27
HETATM   27  O4  UNL     1      22.839 -21.309 -22.415  1.00  0.00    -0.361 OA
ATOM     28  H4  UNL     1      22.066 -21.761 -22.097  1.00  0.00     0.213 HD
ENDBRANCH  26  27
BRANCH  26  29
HETATM   29  O5  UNL     1      24.781 -20.342 -22.013  1.00  0.00    -0.355 OA
HETATM   30  C22 UNL     1      24.872 -20.819 -23.292  1.00  0.00     0.206 C 
ENDBRANCH  26  29
BRANCH  26  31
HETATM   31  C23 UNL     1      22.940 -19.867 -20.602  1.00  0.00     0.153 C 
BRANCH  31  32
HETATM   32  C24 UNL     1      22.215 -20.266 -19.370  1.00  0.00     0.024 C 
BRANCH  32  33
HETATM   33  C25 UNL     1      22.868 -19.832 -18.071  1.00  0.00    -0.022 C 
HETATM   34  C26 UNL     1      22.198 -18.480 -17.732  1.00  0.00     0.009 C 
HETATM   35  C27 UNL     1      22.573 -20.722 -16.912  1.00  0.00     0.009 C 
ENDBRANCH  32  33
ENDBRANCH  31  32
BRANCH  31  36
HETATM   36  C28 UNL     1      22.131 -18.973 -21.468  1.00  0.00     0.268 C 
HETATM   37  O6  UNL     1      20.996 -19.290 -21.831  1.00  0.00    -0.265 OA
BRANCH  36  38
HETATM   38  O7  UNL     1      22.617 -17.751 -21.899  1.00  0.00    -0.326 OA
HETATM   39  C29 UNL     1      22.977 -17.544 -23.271  1.00  0.00     0.213 C 
ENDBRANCH  36  38
ENDBRANCH  31  36
ENDBRANCH  26  31
ENDBRANCH  24  26
ENDBRANCH  23  24
ENDBRANCH   1  22
TORSDOF 14
ENDMDL
