MODEL 1
REMARK VINA RESULT: -6.208137566      0.000      0.000
REMARK  14 active torsions:
REMARK  status: ('A' for Active; 'I' for Inactive)
REMARK    1  A    between atoms: C2_2  and  C4_4 
REMARK    2  A    between atoms: C4_4  and  O1_5 
REMARK    3  A    between atoms: C7_9  and  C8_10 
REMARK    4  A    between atoms: C9_11  and  C10_12 
REMARK    5  A    between atoms: C10_12  and  O2_13 
REMARK    6  A    between atoms: O2_13  and  C11_14 
REMARK    7  A    between atoms: C11_14  and  C12_16 
REMARK    8  A    between atoms: C12_16  and  C14_18 
REMARK    9  A    between atoms: C15_19  and  C16_20 
REMARK   10  A    between atoms: C19_24  and  C20_25 
REMARK   11  A    between atoms: C20_25  and  C21_27 
REMARK   12  A    between atoms: C21_27  and  O6_28 
REMARK   13  A    between atoms: C21_27  and  C22_30 
REMARK   14  A    between atoms: C29_37  and  O7_38 
ROOT
HETATM    1  C11 UNL     1      19.803 -20.178 -15.972  1.00  0.00     0.266 C 
HETATM    2  O3  UNL     1      18.668 -19.654 -16.032  1.00  0.00    -0.265 OA
ENDROOT
BRANCH   1   3
HETATM    3  O2  UNL     1      20.169 -21.117 -16.899  1.00  0.00    -0.317 OA
BRANCH   3   4
HETATM    4  C10 UNL     1      20.919 -20.827 -18.094  1.00  0.00     0.206 C 
BRANCH   4   5
HETATM    5  C9  UNL     1      21.968 -19.860 -17.855  1.00  0.00     0.000 C 
HETATM    6  C8  UNL     1      23.209 -19.795 -18.162  1.00  0.00     0.005 C 
BRANCH   6   7
HETATM    7  C7  UNL     1      24.104 -20.655 -18.876  1.00  0.00    -0.056 C 
HETATM    8  C6  UNL     1      23.888 -20.769 -20.200  1.00  0.00    -0.016 C 
HETATM    9  C5  UNL     1      24.749 -21.622 -21.007  1.00  0.00     0.073 C 
HETATM   10  C4  UNL     1      26.208 -21.473 -20.625  1.00  0.00     0.110 C 
HETATM   11  C29 UNL     1      26.422 -21.625 -19.169  1.00  0.00     0.165 C 
HETATM   12  C27 UNL     1      25.208 -21.390 -18.296  1.00  0.00     0.046 C 
HETATM   13  C28 UNL     1      24.665 -22.756 -17.871  1.00  0.00     0.017 C 
BRANCH  10  14
HETATM   14  C2  UNL     1      26.981 -22.479 -21.362  1.00  0.00    -0.056 C 
HETATM   15  C1  UNL     1      27.269 -22.284 -22.636  1.00  0.00     0.017 C 
HETATM   16  C3  UNL     1      27.444 -23.710 -20.693  1.00  0.00     0.046 C 
ENDBRANCH  10  14
BRANCH  10  17
HETATM   17  O1  UNL     1      26.607 -20.178 -21.030  1.00  0.00    -0.382 OA
ATOM     18  H1  UNL     1      26.067 -19.890 -21.756  1.00  0.00     0.211 HD
ENDBRANCH  10  17
BRANCH  11  19
HETATM   19  O7  UNL     1      27.401 -20.712 -18.785  1.00  0.00    -0.392 OA
ATOM     20  H7  UNL     1      27.884 -20.461 -19.564  1.00  0.00     0.210 HD
ENDBRANCH  11  19
ENDBRANCH   6   7
ENDBRANCH   4   5
ENDBRANCH   3   4
ENDBRANCH   1   3
BRANCH   1  21
HETATM   21  C12 UNL     1      20.710 -19.737 -14.867  1.00  0.00     0.104 C 
HETATM   22  C13 UNL     1      20.744 -20.855 -13.848  1.00  0.00     0.025 C 
BRANCH  21  23
HETATM   23  C14 UNL     1      20.206 -18.506 -14.224  1.00  0.00    -0.016 C 
HETATM   24  C15 UNL     1      20.701 -17.338 -14.579  1.00  0.00    -0.017 C 
BRANCH  24  25
HETATM   25  C16 UNL     1      20.245 -16.054 -13.980  1.00  0.00     0.082 C 
HETATM   26  C17 UNL     1      21.422 -15.143 -14.000  1.00  0.00     0.135 C 
HETATM   27  O4  UNL     1      21.780 -14.514 -14.972  1.00  0.00    -0.297 OA
HETATM   28  C18 UNL     1      22.059 -15.140 -12.657  1.00  0.00     0.091 C 
HETATM   29  C19 UNL     1      21.439 -16.306 -11.963  1.00  0.00     0.070 C 
HETATM   30  C25 UNL     1      20.020 -16.313 -12.489  1.00  0.00     0.008 C 
HETATM   31  C26 UNL     1      19.272 -15.143 -11.909  1.00  0.00     0.012 C 
BRANCH  29  32
HETATM   32  C20 UNL     1      21.476 -16.231 -10.485  1.00  0.00     0.160 C 
HETATM   33  O5  UNL     1      21.717 -15.171  -9.954  1.00  0.00    -0.295 OA
BRANCH  32  34
HETATM   34  C21 UNL     1      21.224 -17.422  -9.650  1.00  0.00     0.191 C 
BRANCH  34  35
HETATM   35  O6  UNL     1      22.176 -17.609  -8.673  1.00  0.00    -0.388 OA
ATOM     36  H6  UNL     1      21.803 -17.764  -7.813  1.00  0.00     0.210 HD
ENDBRANCH  34  35
BRANCH  34  37
HETATM   37  C22 UNL     1      21.048 -18.672 -10.503  1.00  0.00     0.014 C 
HETATM   38  C23 UNL     1      19.730 -19.340 -10.193  1.00  0.00     0.012 C 
HETATM   39  C24 UNL     1      22.153 -19.655 -10.285  1.00  0.00     0.012 C 
ENDBRANCH  34  37
ENDBRANCH  32  34
ENDBRANCH  29  32
ENDBRANCH  24  25
ENDBRANCH  21  23
ENDBRANCH   1  21
TORSDOF 14
ENDMDL
MODEL 2
REMARK VINA RESULT: -6.047725063      2.068      3.191
REMARK  14 active torsions:
REMARK  status: ('A' for Active; 'I' for Inactive)
REMARK    1  A    between atoms: C2_2  and  C4_4 
REMARK    2  A    between atoms: C4_4  and  O1_5 
REMARK    3  A    between atoms: C7_9  and  C8_10 
REMARK    4  A    between atoms: C9_11  and  C10_12 
REMARK    5  A    between atoms: C10_12  and  O2_13 
REMARK    6  A    between atoms: O2_13  and  C11_14 
REMARK    7  A    between atoms: C11_14  and  C12_16 
REMARK    8  A    between atoms: C12_16  and  C14_18 
REMARK    9  A    between atoms: C15_19  and  C16_20 
REMARK   10  A    between atoms: C19_24  and  C20_25 
REMARK   11  A    between atoms: C20_25  and  C21_27 
REMARK   12  A    between atoms: C21_27  and  O6_28 
REMARK   13  A    between atoms: C21_27  and  C22_30 
REMARK   14  A    between atoms: C29_37  and  O7_38 
ROOT
HETATM    1  C11 UNL     1      22.218 -18.918 -19.358  1.00  0.00     0.266 C 
HETATM    2  O3  UNL     1      21.746 -18.057 -20.133  1.00  0.00    -0.265 OA
ENDROOT
BRANCH   1   3
HETATM    3  O2  UNL     1      22.531 -20.163 -19.835  1.00  0.00    -0.317 OA
BRANCH   3   4
HETATM    4  C10 UNL     1      22.573 -20.510 -21.232  1.00  0.00     0.206 C 
BRANCH   4   5
HETATM    5  C9  UNL     1      23.789 -20.052 -21.868  1.00  0.00     0.000 C 
HETATM    6  C8  UNL     1      25.033 -20.300 -21.697  1.00  0.00     0.005 C 
BRANCH   6   7
HETATM    7  C7  UNL     1      25.767 -21.139 -20.798  1.00  0.00    -0.056 C 
HETATM    8  C6  UNL     1      26.246 -20.545 -19.689  1.00  0.00    -0.016 C 
HETATM    9  C5  UNL     1      27.005 -21.321 -18.718  1.00  0.00     0.073 C 
HETATM   10  C4  UNL     1      26.387 -22.683 -18.478  1.00  0.00     0.110 C 
HETATM   11  C29 UNL     1      26.126 -23.408 -19.741  1.00  0.00     0.165 C 
HETATM   12  C27 UNL     1      26.023 -22.551 -20.984  1.00  0.00     0.046 C 
HETATM   13  C28 UNL     1      27.343 -22.673 -21.749  1.00  0.00     0.017 C 
BRANCH  10  14
HETATM   14  C2  UNL     1      27.297 -23.456 -17.625  1.00  0.00    -0.056 C 
HETATM   15  C1  UNL     1      27.721 -22.946 -16.483  1.00  0.00     0.017 C 
HETATM   16  C3  UNL     1      27.743 -24.804 -18.028  1.00  0.00     0.046 C 
ENDBRANCH  10  14
BRANCH  10  17
HETATM   17  O1  UNL     1      25.167 -22.465 -17.796  1.00  0.00    -0.382 OA
ATOM     18  H1  UNL     1      24.690 -23.284 -17.726  1.00  0.00     0.211 HD
ENDBRANCH  10  17
BRANCH  11  19
HETATM   19  O7  UNL     1      24.922 -24.092 -19.598  1.00  0.00    -0.392 OA
ATOM     20  H7  UNL     1      25.113 -25.022 -19.622  1.00  0.00     0.210 HD
ENDBRANCH  11  19
ENDBRANCH   6   7
ENDBRANCH   4   5
ENDBRANCH   3   4
ENDBRANCH   1   3
BRANCH   1  21
HETATM   21  C12 UNL     1      22.418 -18.527 -17.928  1.00  0.00     0.104 C 
HETATM   22  C13 UNL     1      22.121 -19.750 -17.088  1.00  0.00     0.025 C 
BRANCH  21  23
HETATM   23  C14 UNL     1      21.500 -17.435 -17.543  1.00  0.00    -0.016 C 
HETATM   24  C15 UNL     1      21.123 -17.316 -16.286  1.00  0.00    -0.017 C 
BRANCH  24  25
HETATM   25  C16 UNL     1      20.203 -16.244 -15.819  1.00  0.00     0.082 C 
HETATM   26  C17 UNL     1      21.025 -15.009 -15.703  1.00  0.00     0.135 C 
HETATM   27  O4  UNL     1      21.316 -14.294 -16.638  1.00  0.00    -0.297 OA
HETATM   28  C18 UNL     1      21.414 -14.812 -14.282  1.00  0.00     0.091 C 
HETATM   29  C19 UNL     1      21.087 -16.117 -13.637  1.00  0.00     0.070 C 
HETATM   30  C25 UNL     1      19.842 -16.568 -14.369  1.00  0.00     0.008 C 
HETATM   31  C26 UNL     1      18.685 -15.696 -13.958  1.00  0.00     0.012 C 
BRANCH  29  32
HETATM   32  C20 UNL     1      20.869 -16.043 -12.175  1.00  0.00     0.160 C 
HETATM   33  O5  UNL     1      21.061 -14.994 -11.604  1.00  0.00    -0.295 OA
BRANCH  32  34
HETATM   34  C21 UNL     1      20.424 -17.221 -11.404  1.00  0.00     0.191 C 
BRANCH  34  35
HETATM   35  O6  UNL     1      20.052 -16.914 -10.115  1.00  0.00    -0.388 OA
ATOM     36  H6  UNL     1      20.079 -17.663  -9.531  1.00  0.00     0.210 HD
ENDBRANCH  34  35
BRANCH  34  37
HETATM   37  C22 UNL     1      21.466 -18.332 -11.436  1.00  0.00     0.014 C 
HETATM   38  C23 UNL     1      20.969 -19.496 -12.258  1.00  0.00     0.012 C 
HETATM   39  C24 UNL     1      21.803 -18.817 -10.063  1.00  0.00     0.012 C 
ENDBRANCH  34  37
ENDBRANCH  32  34
ENDBRANCH  29  32
ENDBRANCH  24  25
ENDBRANCH  21  23
ENDBRANCH   1  21
TORSDOF 14
ENDMDL
MODEL 3
REMARK VINA RESULT: -6.045784427      1.326      2.041
REMARK  14 active torsions:
REMARK  status: ('A' for Active; 'I' for Inactive)
REMARK    1  A    between atoms: C2_2  and  C4_4 
REMARK    2  A    between atoms: C4_4  and  O1_5 
REMARK    3  A    between atoms: C7_9  and  C8_10 
REMARK    4  A    between atoms: C9_11  and  C10_12 
REMARK    5  A    between atoms: C10_12  and  O2_13 
REMARK    6  A    between atoms: O2_13  and  C11_14 
REMARK    7  A    between atoms: C11_14  and  C12_16 
REMARK    8  A    between atoms: C12_16  and  C14_18 
REMARK    9  A    between atoms: C15_19  and  C16_20 
REMARK   10  A    between atoms: C19_24  and  C20_25 
REMARK   11  A    between atoms: C20_25  and  C21_27 
REMARK   12  A    between atoms: C21_27  and  O6_28 
REMARK   13  A    between atoms: C21_27  and  C22_30 
REMARK   14  A    between atoms: C29_37  and  O7_38 
ROOT
HETATM    1  C11 UNL     1      20.213 -19.550 -16.736  1.00  0.00     0.266 C 
HETATM    2  O3  UNL     1      18.968 -19.569 -16.855  1.00  0.00    -0.265 OA
ENDROOT
BRANCH   1   3
HETATM    3  O2  UNL     1      21.003 -19.557 -17.854  1.00  0.00    -0.317 OA
BRANCH   3   4
HETATM    4  C10 UNL     1      22.421 -19.298 -17.848  1.00  0.00     0.206 C 
BRANCH   4   5
HETATM    5  C9  UNL     1      23.191 -20.504 -17.637  1.00  0.00     0.000 C 
HETATM    6  C8  UNL     1      23.954 -21.216 -18.379  1.00  0.00     0.005 C 
BRANCH   6   7
HETATM    7  C7  UNL     1      24.376 -21.132 -19.744  1.00  0.00    -0.056 C 
HETATM    8  C6  UNL     1      25.674 -20.835 -19.947  1.00  0.00    -0.016 C 
HETATM    9  C5  UNL     1      26.193 -20.729 -21.303  1.00  0.00     0.073 C 
HETATM   10  C4  UNL     1      25.658 -21.827 -22.200  1.00  0.00     0.110 C 
HETATM   11  C29 UNL     1      24.183 -21.930 -22.136  1.00  0.00     0.165 C 
HETATM   12  C27 UNL     1      23.534 -21.344 -20.901  1.00  0.00     0.046 C 
HETATM   13  C28 UNL     1      22.941 -19.986 -21.283  1.00  0.00     0.017 C 
BRANCH  10  14
HETATM   14  C2  UNL     1      26.092 -21.551 -23.574  1.00  0.00    -0.056 C 
HETATM   15  C1  UNL     1      27.341 -21.790 -23.930  1.00  0.00     0.017 C 
HETATM   16  C3  UNL     1      25.145 -21.009 -24.567  1.00  0.00     0.046 C 
ENDBRANCH  10  14
BRANCH  10  17
HETATM   17  O1  UNL     1      26.237 -23.039 -21.754  1.00  0.00    -0.382 OA
ATOM     18  H1  UNL     1      27.178 -22.935 -21.681  1.00  0.00     0.211 HD
ENDBRANCH  10  17
BRANCH  11  19
HETATM   19  O7  UNL     1      23.848 -23.280 -22.191  1.00  0.00    -0.392 OA
ATOM     20  H7  UNL     1      24.540 -23.731 -22.660  1.00  0.00     0.210 HD
ENDBRANCH  11  19
ENDBRANCH   6   7
ENDBRANCH   4   5
ENDBRANCH   3   4
ENDBRANCH   1   3
BRANCH   1  21
HETATM   21  C12 UNL     1      20.775 -19.520 -15.350  1.00  0.00     0.104 C 
HETATM   22  C13 UNL     1      20.342 -20.799 -14.668  1.00  0.00     0.025 C 
BRANCH  21  23
HETATM   23  C14 UNL     1      20.258 -18.362 -14.591  1.00  0.00    -0.016 C 
HETATM   24  C15 UNL     1      20.750 -17.162 -14.821  1.00  0.00    -0.017 C 
BRANCH  24  25
HETATM   25  C16 UNL     1      20.282 -15.948 -14.100  1.00  0.00     0.082 C 
HETATM   26  C17 UNL     1      21.454 -15.035 -14.013  1.00  0.00     0.135 C 
HETATM   27  O4  UNL     1      21.820 -14.309 -14.913  1.00  0.00    -0.297 OA
HETATM   28  C18 UNL     1      22.077 -15.166 -12.670  1.00  0.00     0.091 C 
HETATM   29  C19 UNL     1      21.454 -16.399 -12.105  1.00  0.00     0.070 C 
HETATM   30  C25 UNL     1      20.042 -16.358 -12.646  1.00  0.00     0.008 C 
HETATM   31  C26 UNL     1      19.281 -15.256 -11.959  1.00  0.00     0.012 C 
BRANCH  29  32
HETATM   32  C20 UNL     1      21.475 -16.475 -10.628  1.00  0.00     0.160 C 
HETATM   33  O5  UNL     1      21.683 -15.469  -9.988  1.00  0.00    -0.295 OA
BRANCH  32  34
HETATM   34  C21 UNL     1      21.245 -17.751  -9.921  1.00  0.00     0.191 C 
BRANCH  34  35
HETATM   35  O6  UNL     1      22.096 -17.940  -8.855  1.00  0.00    -0.388 OA
ATOM     36  H6  UNL     1      21.640 -18.057  -8.030  1.00  0.00     0.210 HD
ENDBRANCH  34  35
BRANCH  34  37
HETATM   37  C22 UNL     1      21.284 -18.933 -10.882  1.00  0.00     0.014 C 
HETATM   38  C23 UNL     1      19.942 -19.623 -10.920  1.00  0.00     0.012 C 
HETATM   39  C24 UNL     1      22.331 -19.927 -10.499  1.00  0.00     0.012 C 
ENDBRANCH  34  37
ENDBRANCH  32  34
ENDBRANCH  29  32
ENDBRANCH  24  25
ENDBRANCH  21  23
ENDBRANCH   1  21
TORSDOF 14
ENDMDL
MODEL 4
REMARK VINA RESULT: -6.003268263      5.127      9.656
REMARK  14 active torsions:
REMARK  status: ('A' for Active; 'I' for Inactive)
REMARK    1  A    between atoms: C2_2  and  C4_4 
REMARK    2  A    between atoms: C4_4  and  O1_5 
REMARK    3  A    between atoms: C7_9  and  C8_10 
REMARK    4  A    between atoms: C9_11  and  C10_12 
REMARK    5  A    between atoms: C10_12  and  O2_13 
REMARK    6  A    between atoms: O2_13  and  C11_14 
REMARK    7  A    between atoms: C11_14  and  C12_16 
REMARK    8  A    between atoms: C12_16  and  C14_18 
REMARK    9  A    between atoms: C15_19  and  C16_20 
REMARK   10  A    between atoms: C19_24  and  C20_25 
REMARK   11  A    between atoms: C20_25  and  C21_27 
REMARK   12  A    between atoms: C21_27  and  O6_28 
REMARK   13  A    between atoms: C21_27  and  C22_30 
REMARK   14  A    between atoms: C29_37  and  O7_38 
ROOT
HETATM    1  C11 UNL     1      21.176 -21.724 -11.860  1.00  0.00     0.266 C 
HETATM    2  O3  UNL     1      20.475 -21.176 -10.981  1.00  0.00    -0.265 OA
ENDROOT
BRANCH   1   3
HETATM    3  O2  UNL     1      21.080 -21.312 -13.163  1.00  0.00    -0.317 OA
BRANCH   3   4
HETATM    4  C10 UNL     1      19.962 -20.581 -13.702  1.00  0.00     0.206 C 
BRANCH   4   5
HETATM    5  C9  UNL     1      20.362 -19.299 -14.241  1.00  0.00     0.000 C 
HETATM    6  C8  UNL     1      20.566 -18.142 -13.733  1.00  0.00     0.005 C 
BRANCH   6   7
HETATM    7  C7  UNL     1      20.487 -17.609 -12.406  1.00  0.00    -0.056 C 
HETATM    8  C6  UNL     1      21.549 -17.836 -11.610  1.00  0.00    -0.016 C 
HETATM    9  C5  UNL     1      21.556 -17.330 -10.245  1.00  0.00     0.073 C 
HETATM   10  C4  UNL     1      21.006 -15.921 -10.162  1.00  0.00     0.110 C 
HETATM   11  C29 UNL     1      19.693 -15.795 -10.833  1.00  0.00     0.165 C 
HETATM   12  C27 UNL     1      19.377 -16.853 -11.868  1.00  0.00     0.046 C 
HETATM   13  C28 UNL     1      18.414 -17.858 -11.231  1.00  0.00     0.017 C 
BRANCH  10  14
HETATM   14  C2  UNL     1      20.892 -15.555  -8.746  1.00  0.00    -0.056 C 
HETATM   15  C1  UNL     1      21.901 -14.958  -8.137  1.00  0.00     0.017 C 
HETATM   16  C3  UNL     1      19.658 -15.844  -7.990  1.00  0.00     0.046 C 
ENDBRANCH  10  14
BRANCH  10  17
HETATM   17  O1  UNL     1      21.945 -15.076 -10.797  1.00  0.00    -0.382 OA
ATOM     18  H1  UNL     1      22.782 -15.522 -10.864  1.00  0.00     0.211 HD
ENDBRANCH  10  17
BRANCH  11  19
HETATM   19  O7  UNL     1      19.658 -14.557 -11.469  1.00  0.00    -0.392 OA
ATOM     20  H7  UNL     1      20.272 -14.587 -12.194  1.00  0.00     0.210 HD
ENDBRANCH  11  19
ENDBRANCH   6   7
ENDBRANCH   4   5
ENDBRANCH   3   4
ENDBRANCH   1   3
BRANCH   1  21
HETATM   21  C12 UNL     1      22.095 -22.821 -11.426  1.00  0.00     0.104 C 
HETATM   22  C13 UNL     1      22.107 -22.819  -9.914  1.00  0.00     0.025 C 
BRANCH  21  23
HETATM   23  C14 UNL     1      23.467 -22.594 -11.925  1.00  0.00    -0.016 C 
HETATM   24  C15 UNL     1      24.363 -23.554 -11.825  1.00  0.00    -0.017 C 
BRANCH  24  25
HETATM   25  C16 UNL     1      25.763 -23.404 -12.305  1.00  0.00     0.082 C 
HETATM   26  C17 UNL     1      26.473 -24.655 -11.923  1.00  0.00     0.135 C 
HETATM   27  O4  UNL     1      26.413 -25.690 -12.552  1.00  0.00    -0.297 OA
HETATM   28  C18 UNL     1      27.244 -24.418 -10.675  1.00  0.00     0.091 C 
HETATM   29  C19 UNL     1      26.710 -23.123 -10.164  1.00  0.00     0.070 C 
HETATM   30  C25 UNL     1      26.423 -22.339 -11.426  1.00  0.00     0.008 C 
HETATM   31  C26 UNL     1      27.725 -21.934 -12.063  1.00  0.00     0.012 C 
BRANCH  29  32
HETATM   32  C20 UNL     1      27.628 -22.393  -9.261  1.00  0.00     0.160 C 
HETATM   33  O5  UNL     1      28.767 -22.783  -9.138  1.00  0.00    -0.295 OA
BRANCH  32  34
HETATM   34  C21 UNL     1      27.183 -21.202  -8.511  1.00  0.00     0.191 C 
BRANCH  34  35
HETATM   35  O6  UNL     1      28.226 -20.452  -8.018  1.00  0.00    -0.388 OA
ATOM     36  H6  UNL     1      28.510 -20.730  -7.155  1.00  0.00     0.210 HD
ENDBRANCH  34  35
BRANCH  34  37
HETATM   37  C22 UNL     1      26.195 -21.575  -7.412  1.00  0.00     0.014 C 
HETATM   38  C23 UNL     1      24.781 -21.522  -7.937  1.00  0.00     0.012 C 
HETATM   39  C24 UNL     1      26.309 -20.667  -6.231  1.00  0.00     0.012 C 
ENDBRANCH  34  37
ENDBRANCH  32  34
ENDBRANCH  29  32
ENDBRANCH  24  25
ENDBRANCH  21  23
ENDBRANCH   1  21
TORSDOF 14
ENDMDL
MODEL 5
REMARK VINA RESULT: -5.985489567      4.875      8.399
REMARK  14 active torsions:
REMARK  status: ('A' for Active; 'I' for Inactive)
REMARK    1  A    between atoms: C2_2  and  C4_4 
REMARK    2  A    between atoms: C4_4  and  O1_5 
REMARK    3  A    between atoms: C7_9  and  C8_10 
REMARK    4  A    between atoms: C9_11  and  C10_12 
REMARK    5  A    between atoms: C10_12  and  O2_13 
REMARK    6  A    between atoms: O2_13  and  C11_14 
REMARK    7  A    between atoms: C11_14  and  C12_16 
REMARK    8  A    between atoms: C12_16  and  C14_18 
REMARK    9  A    between atoms: C15_19  and  C16_20 
REMARK   10  A    between atoms: C19_24  and  C20_25 
REMARK   11  A    between atoms: C20_25  and  C21_27 
REMARK   12  A    between atoms: C21_27  and  O6_28 
REMARK   13  A    between atoms: C21_27  and  C22_30 
REMARK   14  A    between atoms: C29_37  and  O7_38 
ROOT
HETATM    1  C11 UNL     1      26.021 -23.344 -23.346  1.00  0.00     0.266 C 
HETATM    2  O3  UNL     1      27.029 -23.789 -22.753  1.00  0.00    -0.265 OA
ENDROOT
BRANCH   1   3
HETATM    3  O2  UNL     1      24.868 -24.082 -23.377  1.00  0.00    -0.317 OA
BRANCH   3   4
HETATM    4  C10 UNL     1      24.113 -24.458 -22.210  1.00  0.00     0.206 C 
BRANCH   4   5
HETATM    5  C9  UNL     1      23.573 -23.307 -21.520  1.00  0.00     0.000 C 
HETATM    6  C8  UNL     1      23.888 -22.680 -20.450  1.00  0.00     0.005 C 
BRANCH   6   7
HETATM    7  C7  UNL     1      24.914 -22.844 -19.464  1.00  0.00    -0.056 C 
HETATM    8  C6  UNL     1      24.560 -23.499 -18.342  1.00  0.00    -0.016 C 
HETATM    9  C5  UNL     1      25.538 -23.713 -17.285  1.00  0.00     0.073 C 
HETATM   10  C4  UNL     1      26.890 -24.113 -17.840  1.00  0.00     0.110 C 
HETATM   11  C29 UNL     1      27.355 -23.189 -18.899  1.00  0.00     0.165 C 
HETATM   12  C27 UNL     1      26.278 -22.375 -19.582  1.00  0.00     0.046 C 
HETATM   13  C28 UNL     1      26.319 -20.960 -18.999  1.00  0.00     0.017 C 
BRANCH  10  14
HETATM   14  C2  UNL     1      27.851 -24.144 -16.732  1.00  0.00    -0.056 C 
HETATM   15  C1  UNL     1      28.562 -25.234 -16.507  1.00  0.00     0.017 C 
HETATM   16  C3  UNL     1      28.036 -22.966 -15.864  1.00  0.00     0.046 C 
ENDBRANCH  10  14
BRANCH  10  17
HETATM   17  O1  UNL     1      26.744 -25.413 -18.378  1.00  0.00    -0.382 OA
ATOM     18  H1  UNL     1      26.568 -25.355 -19.309  1.00  0.00     0.211 HD
ENDBRANCH  10  17
BRANCH  11  19
HETATM   19  O7  UNL     1      27.995 -23.948 -19.875  1.00  0.00    -0.392 OA
ATOM     20  H7  UNL     1      27.360 -24.562 -20.226  1.00  0.00     0.210 HD
ENDBRANCH  11  19
ENDBRANCH   6   7
ENDBRANCH   4   5
ENDBRANCH   3   4
ENDBRANCH   1   3
BRANCH   1  21
HETATM   21  C12 UNL     1      26.139 -22.002 -23.998  1.00  0.00     0.104 C 
HETATM   22  C13 UNL     1      26.794 -21.077 -22.996  1.00  0.00     0.025 C 
BRANCH  21  23
HETATM   23  C14 UNL     1      24.810 -21.469 -24.359  1.00  0.00    -0.016 C 
HETATM   24  C15 UNL     1      24.234 -20.576 -23.581  1.00  0.00    -0.017 C 
BRANCH  24  25
HETATM   25  C16 UNL     1      22.898 -19.990 -23.877  1.00  0.00     0.082 C 
HETATM   26  C17 UNL     1      23.120 -18.537 -24.105  1.00  0.00     0.135 C 
HETATM   27  O4  UNL     1      23.512 -18.063 -25.150  1.00  0.00    -0.297 OA
HETATM   28  C18 UNL     1      22.785 -17.790 -22.864  1.00  0.00     0.091 C 
HETATM   29  C19 UNL     1      22.686 -18.853 -21.822  1.00  0.00     0.070 C 
HETATM   30  C25 UNL     1      22.098 -20.027 -22.574  1.00  0.00     0.008 C 
HETATM   31  C26 UNL     1      20.655 -19.737 -22.891  1.00  0.00     0.012 C 
BRANCH  29  32
HETATM   32  C20 UNL     1      21.866 -18.486 -20.647  1.00  0.00     0.160 C 
HETATM   33  O5  UNL     1      21.361 -17.388 -20.600  1.00  0.00    -0.295 OA
BRANCH  32  34
HETATM   34  C21 UNL     1      21.651 -19.433 -19.534  1.00  0.00     0.191 C 
BRANCH  34  35
HETATM   35  O6  UNL     1      20.326 -19.569 -19.187  1.00  0.00    -0.388 OA
ATOM     36  H6  UNL     1      20.137 -20.394 -18.754  1.00  0.00     0.210 HD
ENDBRANCH  34  35
BRANCH  34  37
HETATM   37  C22 UNL     1      22.510 -19.074 -18.327  1.00  0.00     0.014 C 
HETATM   38  C23 UNL     1      22.897 -20.321 -17.568  1.00  0.00     0.012 C 
HETATM   39  C24 UNL     1      21.802 -18.142 -17.398  1.00  0.00     0.012 C 
ENDBRANCH  34  37
ENDBRANCH  32  34
ENDBRANCH  29  32
ENDBRANCH  24  25
ENDBRANCH  21  23
ENDBRANCH   1  21
TORSDOF 14
ENDMDL
