MODEL 1
REMARK VINA RESULT: -4.400863684      0.000      0.000
REMARK  14 active torsions:
REMARK  status: ('A' for Active; 'I' for Inactive)
REMARK    1  A    between atoms: C2_2  and  C3_3 
REMARK    2  A    between atoms: C6_6  and  C7_7 
REMARK    3  A    between atoms: C7_7  and  O1_8 
REMARK    4  A    between atoms: C9_11  and  O2_12 
REMARK    5  A    between atoms: C13_17  and  O3_18 
REMARK    6  A    between atoms: C14_21  and  C15_22 
REMARK    7  A    between atoms: C16_23  and  C17_24 
REMARK    8  A    between atoms: C17_24  and  C18_25 
REMARK    9  A    between atoms: C24_32  and  C25_33 
REMARK   10  A    between atoms: C25_33  and  O6_35 
REMARK   11  A    between atoms: O6_35  and  C27_36 
REMARK   12  A    between atoms: C27_36  and  C28_37 
REMARK   13  A    between atoms: C28_37  and  C29_38 
REMARK   14  A    between atoms: C29_38  and  O7_39 
ROOT
HETATM    1  C3  UNL     1      21.244 -18.746 -18.040  1.00  0.00     0.021 C 
HETATM    2  C4  UNL     1      20.093 -19.670 -18.306  1.00  0.00     0.027 C 
HETATM    3  C5  UNL     1      20.906 -17.305 -18.036  1.00  0.00    -0.006 C 
HETATM    4  C6  UNL     1      20.200 -16.555 -18.837  1.00  0.00    -0.056 C 
HETATM    5  C8  UNL     1      19.458 -16.943 -20.048  1.00  0.00     0.079 C 
HETATM    6  C9  UNL     1      20.096 -16.956 -21.365  1.00  0.00     0.099 C 
HETATM    7  C10 UNL     1      20.012 -18.342 -22.029  1.00  0.00     0.034 C 
HETATM    8  C11 UNL     1      20.938 -19.253 -22.038  1.00  0.00     0.009 C 
HETATM    9  C12 UNL     1      20.704 -20.554 -22.736  1.00  0.00     0.054 C 
HETATM   10  C13 UNL     1      22.252 -19.154 -21.381  1.00  0.00     0.185 C 
HETATM   11  O4  UNL     1      22.494 -18.729 -20.140  1.00  0.00    -0.320 OA
HETATM   12  C14 UNL     1      22.499 -19.043 -18.841  1.00  0.00     0.169 C 
HETATM   13  C21 UNL     1      18.657 -18.340 -22.600  1.00  0.00     0.163 C 
HETATM   14  O5  UNL     1      17.943 -19.320 -22.948  1.00  0.00    -0.292 OA
HETATM   15  C22 UNL     1      18.146 -16.927 -22.746  1.00  0.00     0.066 C 
HETATM   16  C23 UNL     1      16.948 -16.776 -21.925  1.00  0.00     0.018 C 
HETATM   17  C24 UNL     1      19.384 -16.199 -22.477  1.00  0.00     0.065 C 
ENDROOT
BRANCH  17  18
HETATM   18  C25 UNL     1      19.560 -14.786 -22.720  1.00  0.00     0.125 C 
HETATM   19  C26 UNL     1      18.634 -14.294 -23.862  1.00  0.00     0.040 C 
BRANCH  18  20
HETATM   20  O6  UNL     1      20.841 -14.536 -23.286  1.00  0.00    -0.386 OA
BRANCH  20  21
HETATM   21  C27 UNL     1      21.003 -14.667 -24.600  1.00  0.00     0.170 C 
BRANCH  21  22
HETATM   22  C28 UNL     1      22.220 -15.360 -25.138  1.00  0.00     0.052 C 
BRANCH  22  23
HETATM   23  C29 UNL     1      22.490 -16.704 -24.567  1.00  0.00     0.166 C 
BRANCH  23  24
HETATM   24  O7  UNL     1      23.166 -16.649 -23.347  1.00  0.00    -0.401 OA
ATOM     25  H7  UNL     1      23.127 -17.467 -22.865  1.00  0.00     0.209 HD
ENDBRANCH  23  24
ENDBRANCH  22  23
ENDBRANCH  21  22
ENDBRANCH  20  21
ENDBRANCH  18  20
ENDBRANCH  17  18
BRANCH   6  26
HETATM   26  O2  UNL     1      21.373 -16.468 -21.300  1.00  0.00    -0.384 OA
ATOM     27  H2  UNL     1      21.858 -16.673 -22.090  1.00  0.00     0.211 HD
ENDBRANCH   6  26
BRANCH   4  28
HETATM   28  C7  UNL     1      20.146 -15.088 -18.382  1.00  0.00     0.198 C 
BRANCH  28  29
HETATM   29  O1  UNL     1      20.997 -14.291 -19.073  1.00  0.00    -0.397 OA
ATOM     30  H1  UNL     1      20.750 -13.374 -19.044  1.00  0.00     0.209 HD
ENDBRANCH  28  29
ENDBRANCH   4  28
BRANCH  10  31
HETATM   31  O3  UNL     1      23.299 -19.516 -22.074  1.00  0.00    -0.341 OA
ATOM     32  H3  UNL     1      24.046 -19.850 -21.592  1.00  0.00     0.220 HD
ENDBRANCH  10  31
BRANCH   1  33
HETATM   33  C2  UNL     1      21.621 -19.135 -16.580  1.00  0.00    -0.021 C 
HETATM   34  C1  UNL     1      20.769 -19.050 -15.611  1.00  0.00     0.008 C 
ENDBRANCH   1  33
BRANCH  12  35
HETATM   35  C15 UNL     1      22.969 -20.404 -18.436  1.00  0.00     0.003 C 
HETATM   36  C16 UNL     1      24.232 -20.721 -18.674  1.00  0.00    -0.028 C 
BRANCH  36  37
HETATM   37  C17 UNL     1      24.733 -22.068 -18.283  1.00  0.00     0.030 C 
BRANCH  37  38
HETATM   38  C18 UNL     1      26.176 -22.227 -18.730  1.00  0.00    -0.019 C 
HETATM   39  C19 UNL     1      26.757 -20.885 -19.051  1.00  0.00     0.010 C 
HETATM   40  C20 UNL     1      26.937 -22.812 -17.554  1.00  0.00     0.010 C 
ENDBRANCH  37  38
ENDBRANCH  36  37
ENDBRANCH  12  35
TORSDOF 14
ENDMDL
MODEL 2
REMARK VINA RESULT: -4.253004305      6.144     11.355
REMARK  14 active torsions:
REMARK  status: ('A' for Active; 'I' for Inactive)
REMARK    1  A    between atoms: C2_2  and  C3_3 
REMARK    2  A    between atoms: C6_6  and  C7_7 
REMARK    3  A    between atoms: C7_7  and  O1_8 
REMARK    4  A    between atoms: C9_11  and  O2_12 
REMARK    5  A    between atoms: C13_17  and  O3_18 
REMARK    6  A    between atoms: C14_21  and  C15_22 
REMARK    7  A    between atoms: C16_23  and  C17_24 
REMARK    8  A    between atoms: C17_24  and  C18_25 
REMARK    9  A    between atoms: C24_32  and  C25_33 
REMARK   10  A    between atoms: C25_33  and  O6_35 
REMARK   11  A    between atoms: O6_35  and  C27_36 
REMARK   12  A    between atoms: C27_36  and  C28_37 
REMARK   13  A    between atoms: C28_37  and  C29_38 
REMARK   14  A    between atoms: C29_38  and  O7_39 
ROOT
HETATM    1  C3  UNL     1      27.632 -25.286 -19.524  1.00  0.00     0.021 C 
HETATM    2  C4  UNL     1      26.220 -25.786 -19.583  1.00  0.00     0.027 C 
HETATM    3  C5  UNL     1      28.407 -25.724 -18.341  1.00  0.00    -0.006 C 
HETATM    4  C6  UNL     1      28.134 -25.769 -17.066  1.00  0.00    -0.056 C 
HETATM    5  C8  UNL     1      26.887 -25.397 -16.377  1.00  0.00     0.079 C 
HETATM    6  C9  UNL     1      26.645 -24.029 -15.914  1.00  0.00     0.099 C 
HETATM    7  C10 UNL     1      25.361 -23.438 -16.521  1.00  0.00     0.034 C 
HETATM    8  C11 UNL     1      25.283 -22.653 -17.553  1.00  0.00     0.009 C 
HETATM    9  C12 UNL     1      23.951 -22.155 -18.018  1.00  0.00     0.054 C 
HETATM   10  C13 UNL     1      26.414 -22.196 -18.378  1.00  0.00     0.185 C 
HETATM   11  O4  UNL     1      27.409 -22.945 -18.853  1.00  0.00    -0.320 OA
HETATM   12  C14 UNL     1      27.796 -23.802 -19.804  1.00  0.00     0.169 C 
HETATM   13  C21 UNL     1      24.313 -23.997 -15.654  1.00  0.00     0.163 C 
HETATM   14  O5  UNL     1      23.080 -24.125 -15.885  1.00  0.00    -0.292 OA
HETATM   15  C22 UNL     1      24.899 -24.450 -14.339  1.00  0.00     0.066 C 
HETATM   16  C23 UNL     1      24.680 -25.886 -14.199  1.00  0.00     0.018 C 
HETATM   17  C24 UNL     1      26.232 -23.862 -14.460  1.00  0.00     0.065 C 
ENDROOT
BRANCH  17  18
HETATM   18  C25 UNL     1      27.173 -23.762 -13.368  1.00  0.00     0.125 C 
HETATM   19  C26 UNL     1      27.634 -25.165 -12.896  1.00  0.00     0.040 C 
BRANCH  18  20
HETATM   20  O6  UNL     1      26.525 -23.284 -12.197  1.00  0.00    -0.386 OA
BRANCH  20  21
HETATM   21  C27 UNL     1      26.999 -22.197 -11.594  1.00  0.00     0.170 C 
BRANCH  21  22
HETATM   22  C28 UNL     1      27.141 -22.171 -10.101  1.00  0.00     0.052 C 
BRANCH  22  23
HETATM   23  C29 UNL     1      28.312 -22.910  -9.562  1.00  0.00     0.166 C 
BRANCH  23  24
HETATM   24  O7  UNL     1      29.299 -23.137 -10.522  1.00  0.00    -0.401 OA
ATOM     25  H7  UNL     1      29.380 -24.054 -10.758  1.00  0.00     0.209 HD
ENDBRANCH  23  24
ENDBRANCH  22  23
ENDBRANCH  21  22
ENDBRANCH  20  21
ENDBRANCH  18  20
ENDBRANCH  17  18
BRANCH   6  26
HETATM   26  O2  UNL     1      27.746 -23.240 -16.112  1.00  0.00    -0.384 OA
ATOM     27  H2  UNL     1      27.702 -22.453 -15.583  1.00  0.00     0.211 HD
ENDBRANCH   6  26
BRANCH   4  28
HETATM   28  C7  UNL     1      29.297 -26.323 -16.230  1.00  0.00     0.198 C 
BRANCH  28  29
HETATM   29  O1  UNL     1      29.870 -25.385 -15.438  1.00  0.00    -0.397 OA
ATOM     30  H1  UNL     1      29.961 -25.668 -14.535  1.00  0.00     0.209 HD
ENDBRANCH  28  29
ENDBRANCH   4  28
BRANCH  10  31
HETATM   31  O3  UNL     1      26.462 -20.926 -18.680  1.00  0.00    -0.341 OA
ATOM     32  H3  UNL     1      27.225 -20.438 -18.393  1.00  0.00     0.220 HD
ENDBRANCH  10  31
BRANCH   1  33
HETATM   33  C2  UNL     1      28.258 -25.981 -20.769  1.00  0.00    -0.021 C 
HETATM   34  C1  UNL     1      29.289 -26.756 -20.670  1.00  0.00     0.008 C 
ENDBRANCH   1  33
BRANCH  12  35
HETATM   35  C15 UNL     1      27.339 -23.566 -21.209  1.00  0.00     0.003 C 
HETATM   36  C16 UNL     1      27.345 -22.322 -21.663  1.00  0.00    -0.028 C 
BRANCH  36  37
HETATM   37  C17 UNL     1      26.897 -22.052 -23.057  1.00  0.00     0.030 C 
BRANCH  37  38
HETATM   38  C18 UNL     1      25.415 -21.715 -23.062  1.00  0.00    -0.019 C 
HETATM   39  C19 UNL     1      25.122 -20.710 -21.991  1.00  0.00     0.010 C 
HETATM   40  C20 UNL     1      25.114 -21.085 -24.409  1.00  0.00     0.010 C 
ENDBRANCH  37  38
ENDBRANCH  36  37
ENDBRANCH  12  35
TORSDOF 14
ENDMDL
MODEL 3
REMARK VINA RESULT: -4.222031460      8.147     13.541
REMARK  14 active torsions:
REMARK  status: ('A' for Active; 'I' for Inactive)
REMARK    1  A    between atoms: C2_2  and  C3_3 
REMARK    2  A    between atoms: C6_6  and  C7_7 
REMARK    3  A    between atoms: C7_7  and  O1_8 
REMARK    4  A    between atoms: C9_11  and  O2_12 
REMARK    5  A    between atoms: C13_17  and  O3_18 
REMARK    6  A    between atoms: C14_21  and  C15_22 
REMARK    7  A    between atoms: C16_23  and  C17_24 
REMARK    8  A    between atoms: C17_24  and  C18_25 
REMARK    9  A    between atoms: C24_32  and  C25_33 
REMARK   10  A    between atoms: C25_33  and  O6_35 
REMARK   11  A    between atoms: O6_35  and  C27_36 
REMARK   12  A    between atoms: C27_36  and  C28_37 
REMARK   13  A    between atoms: C28_37  and  C29_38 
REMARK   14  A    between atoms: C29_38  and  O7_39 
ROOT
HETATM    1  C3  UNL     1      24.266 -24.688 -13.885  1.00  0.00     0.021 C 
HETATM    2  C4  UNL     1      23.855 -23.434 -13.172  1.00  0.00     0.027 C 
HETATM    3  C5  UNL     1      24.433 -25.878 -13.021  1.00  0.00    -0.006 C 
HETATM    4  C6  UNL     1      25.028 -26.069 -11.875  1.00  0.00    -0.056 C 
HETATM    5  C8  UNL     1      25.736 -25.093 -11.030  1.00  0.00     0.079 C 
HETATM    6  C9  UNL     1      27.163 -24.820 -11.207  1.00  0.00     0.099 C 
HETATM    7  C10 UNL     1      27.431 -23.332 -11.490  1.00  0.00     0.034 C 
HETATM    8  C11 UNL     1      27.614 -22.786 -12.655  1.00  0.00     0.009 C 
HETATM    9  C12 UNL     1      27.871 -21.317 -12.764  1.00  0.00     0.054 C 
HETATM   10  C13 UNL     1      27.566 -23.483 -13.951  1.00  0.00     0.185 C 
HETATM   11  O4  UNL     1      26.642 -24.356 -14.355  1.00  0.00    -0.320 OA
HETATM   12  C14 UNL     1      25.416 -24.519 -14.862  1.00  0.00     0.169 C 
HETATM   13  C21 UNL     1      27.408 -22.742 -10.143  1.00  0.00     0.163 C 
HETATM   14  O5  UNL     1      27.230 -21.539  -9.809  1.00  0.00    -0.292 OA
HETATM   15  C22 UNL     1      27.634 -23.805  -9.096  1.00  0.00     0.066 C 
HETATM   16  C23 UNL     1      26.458 -23.868  -8.232  1.00  0.00     0.018 C 
HETATM   17  C24 UNL     1      28.036 -24.910  -9.964  1.00  0.00     0.065 C 
ENDROOT
BRANCH  17  18
HETATM   18  C25 UNL     1      28.621 -26.142  -9.486  1.00  0.00     0.125 C 
HETATM   19  C26 UNL     1      29.535 -25.890  -8.260  1.00  0.00     0.040 C 
BRANCH  18  20
HETATM   20  O6  UNL     1      29.564 -26.641 -10.426  1.00  0.00    -0.386 OA
BRANCH  20  21
HETATM   21  C27 UNL     1      30.793 -26.134 -10.438  1.00  0.00     0.170 C 
BRANCH  21  22
HETATM   22  C28 UNL     1      31.787 -26.606 -11.459  1.00  0.00     0.052 C 
BRANCH  22  23
HETATM   23  C29 UNL     1      31.201 -27.154 -12.709  1.00  0.00     0.166 C 
BRANCH  23  24
HETATM   24  O7  UNL     1      30.201 -26.339 -13.242  1.00  0.00    -0.401 OA
ATOM     25  H7  UNL     1      29.759 -26.735 -13.984  1.00  0.00     0.209 HD
ENDBRANCH  23  24
ENDBRANCH  22  23
ENDBRANCH  21  22
ENDBRANCH  20  21
ENDBRANCH  18  20
ENDBRANCH  17  18
BRANCH   6  26
HETATM   26  O2  UNL     1      27.713 -25.653 -12.144  1.00  0.00    -0.384 OA
ATOM     27  H2  UNL     1      28.493 -25.270 -12.527  1.00  0.00     0.211 HD
ENDBRANCH   6  26
BRANCH   4  28
HETATM   28  C7  UNL     1      24.909 -27.518 -11.379  1.00  0.00     0.198 C 
BRANCH  28  29
HETATM   29  O1  UNL     1      26.110 -28.137 -11.267  1.00  0.00    -0.397 OA
ATOM     30  H1  UNL     1      26.180 -28.911 -11.814  1.00  0.00     0.209 HD
ENDBRANCH  28  29
ENDBRANCH   4  28
BRANCH  10  31
HETATM   31  O3  UNL     1      28.523 -23.231 -14.804  1.00  0.00    -0.341 OA
ATOM     32  H3  UNL     1      29.009 -23.972 -15.147  1.00  0.00     0.220 HD
ENDBRANCH  10  31
BRANCH   1  33
HETATM   33  C2  UNL     1      23.028 -24.947 -14.792  1.00  0.00    -0.021 C 
HETATM   34  C1  UNL     1      22.323 -26.027 -14.691  1.00  0.00     0.008 C 
ENDBRANCH   1  33
BRANCH  12  35
HETATM   35  C15 UNL     1      24.952 -23.577 -15.929  1.00  0.00     0.003 C 
HETATM   36  C16 UNL     1      25.701 -23.452 -17.013  1.00  0.00    -0.028 C 
BRANCH  36  37
HETATM   37  C17 UNL     1      25.269 -22.524 -18.095  1.00  0.00     0.030 C 
BRANCH  37  38
HETATM   38  C18 UNL     1      26.481 -22.057 -18.884  1.00  0.00    -0.019 C 
HETATM   39  C19 UNL     1      26.304 -20.624 -19.281  1.00  0.00     0.010 C 
HETATM   40  C20 UNL     1      27.675 -22.153 -17.952  1.00  0.00     0.010 C 
ENDBRANCH  37  38
ENDBRANCH  36  37
ENDBRANCH  12  35
TORSDOF 14
ENDMDL
MODEL 4
REMARK VINA RESULT: -4.200320473      6.009     11.473
REMARK  14 active torsions:
REMARK  status: ('A' for Active; 'I' for Inactive)
REMARK    1  A    between atoms: C2_2  and  C3_3 
REMARK    2  A    between atoms: C6_6  and  C7_7 
REMARK    3  A    between atoms: C7_7  and  O1_8 
REMARK    4  A    between atoms: C9_11  and  O2_12 
REMARK    5  A    between atoms: C13_17  and  O3_18 
REMARK    6  A    between atoms: C14_21  and  C15_22 
REMARK    7  A    between atoms: C16_23  and  C17_24 
REMARK    8  A    between atoms: C17_24  and  C18_25 
REMARK    9  A    between atoms: C24_32  and  C25_33 
REMARK   10  A    between atoms: C25_33  and  O6_35 
REMARK   11  A    between atoms: O6_35  and  C27_36 
REMARK   12  A    between atoms: C27_36  and  C28_37 
REMARK   13  A    between atoms: C28_37  and  C29_38 
REMARK   14  A    between atoms: C29_38  and  O7_39 
ROOT
HETATM    1  C3  UNL     1      24.902 -23.936 -20.728  1.00  0.00     0.021 C 
HETATM    2  C4  UNL     1      24.191 -24.477 -19.523  1.00  0.00     0.027 C 
HETATM    3  C5  UNL     1      25.682 -24.930 -21.498  1.00  0.00    -0.006 C 
HETATM    4  C6  UNL     1      26.520 -25.868 -21.147  1.00  0.00    -0.056 C 
HETATM    5  C8  UNL     1      26.951 -26.261 -19.796  1.00  0.00     0.079 C 
HETATM    6  C9  UNL     1      28.098 -25.626 -19.142  1.00  0.00     0.099 C 
HETATM    7  C10 UNL     1      27.710 -24.990 -17.796  1.00  0.00     0.034 C 
HETATM    8  C11 UNL     1      27.432 -23.738 -17.582  1.00  0.00     0.009 C 
HETATM    9  C12 UNL     1      27.077 -23.273 -16.206  1.00  0.00     0.054 C 
HETATM   10  C13 UNL     1      27.398 -22.676 -18.601  1.00  0.00     0.185 C 
HETATM   11  O4  UNL     1      26.822 -22.739 -19.802  1.00  0.00    -0.320 OA
HETATM   12  C14 UNL     1      25.678 -22.653 -20.489  1.00  0.00     0.169 C 
HETATM   13  C21 UNL     1      27.730 -26.142 -16.882  1.00  0.00     0.163 C 
HETATM   14  O5  UNL     1      27.174 -26.270 -15.758  1.00  0.00    -0.292 OA
HETATM   15  C22 UNL     1      28.552 -27.266 -17.465  1.00  0.00     0.066 C 
HETATM   16  C23 UNL     1      27.689 -28.429 -17.649  1.00  0.00     0.018 C 
HETATM   17  C24 UNL     1      29.166 -26.553 -18.584  1.00  0.00     0.065 C 
ENDROOT
BRANCH  17  18
HETATM   18  C25 UNL     1      30.263 -27.073 -19.369  1.00  0.00     0.125 C 
HETATM   19  C26 UNL     1      31.236 -27.901 -18.492  1.00  0.00     0.040 C 
BRANCH  18  20
HETATM   20  O6  UNL     1      31.114 -26.015 -19.791  1.00  0.00    -0.386 OA
BRANCH  20  21
HETATM   21  C27 UNL     1      32.431 -26.204 -19.784  1.00  0.00     0.170 C 
BRANCH  21  22
HETATM   22  C28 UNL     1      33.192 -26.219 -21.077  1.00  0.00     0.052 C 
BRANCH  22  23
HETATM   23  C29 UNL     1      32.797 -27.284 -22.034  1.00  0.00     0.166 C 
BRANCH  23  24
HETATM   24  O7  UNL     1      31.521 -27.089 -22.566  1.00  0.00    -0.401 OA
ATOM     25  H7  UNL     1      30.843 -27.067 -21.900  1.00  0.00     0.209 HD
ENDBRANCH  23  24
ENDBRANCH  22  23
ENDBRANCH  21  22
ENDBRANCH  20  21
ENDBRANCH  18  20
ENDBRANCH  17  18
BRANCH   6  26
HETATM   26  O2  UNL     1      28.726 -24.752 -19.988  1.00  0.00    -0.384 OA
ATOM     27  H2  UNL     1      29.666 -24.884 -19.980  1.00  0.00     0.211 HD
ENDBRANCH   6  26
BRANCH   4  28
HETATM   28  C7  UNL     1      27.070 -26.651 -22.349  1.00  0.00     0.198 C 
BRANCH  28  29
HETATM   29  O1  UNL     1      28.423 -26.729 -22.354  1.00  0.00    -0.397 OA
ATOM     30  H1  UNL     1      28.821 -26.299 -21.605  1.00  0.00     0.209 HD
ENDBRANCH  28  29
ENDBRANCH   4  28
BRANCH  10  31
HETATM   31  O3  UNL     1      27.994 -21.549 -18.313  1.00  0.00    -0.341 OA
ATOM     32  H3  UNL     1      28.806 -21.598 -17.822  1.00  0.00     0.220 HD
ENDBRANCH  10  31
BRANCH   1  33
HETATM   33  C2  UNL     1      23.704 -23.498 -21.621  1.00  0.00    -0.021 C 
HETATM   34  C1  UNL     1      23.471 -24.051 -22.767  1.00  0.00     0.008 C 
ENDBRANCH   1  33
BRANCH  12  35
HETATM   35  C15 UNL     1      24.685 -21.604 -20.097  1.00  0.00     0.003 C 
HETATM   36  C16 UNL     1      24.616 -21.261 -18.821  1.00  0.00    -0.028 C 
BRANCH  36  37
HETATM   37  C17 UNL     1      23.640 -20.220 -18.397  1.00  0.00     0.030 C 
BRANCH  37  38
HETATM   38  C18 UNL     1      22.478 -20.874 -17.666  1.00  0.00    -0.019 C 
HETATM   39  C19 UNL     1      22.982 -22.014 -16.835  1.00  0.00     0.010 C 
HETATM   40  C20 UNL     1      21.897 -19.823 -16.739  1.00  0.00     0.010 C 
ENDBRANCH  37  38
ENDBRANCH  36  37
ENDBRANCH  12  35
TORSDOF 14
ENDMDL
MODEL 5
REMARK VINA RESULT: -4.179005303      4.795     10.473
REMARK  14 active torsions:
REMARK  status: ('A' for Active; 'I' for Inactive)
REMARK    1  A    between atoms: C2_2  and  C3_3 
REMARK    2  A    between atoms: C6_6  and  C7_7 
REMARK    3  A    between atoms: C7_7  and  O1_8 
REMARK    4  A    between atoms: C9_11  and  O2_12 
REMARK    5  A    between atoms: C13_17  and  O3_18 
REMARK    6  A    between atoms: C14_21  and  C15_22 
REMARK    7  A    between atoms: C16_23  and  C17_24 
REMARK    8  A    between atoms: C17_24  and  C18_25 
REMARK    9  A    between atoms: C24_32  and  C25_33 
REMARK   10  A    between atoms: C25_33  and  O6_35 
REMARK   11  A    between atoms: O6_35  and  C27_36 
REMARK   12  A    between atoms: C27_36  and  C28_37 
REMARK   13  A    between atoms: C28_37  and  C29_38 
REMARK   14  A    between atoms: C29_38  and  O7_39 
ROOT
HETATM    1  C3  UNL     1      26.248 -24.242 -22.150  1.00  0.00     0.021 C 
HETATM    2  C4  UNL     1      24.809 -24.369 -21.749  1.00  0.00     0.027 C 
HETATM    3  C5  UNL     1      27.197 -25.050 -21.352  1.00  0.00    -0.006 C 
HETATM    4  C6  UNL     1      27.340 -25.245 -20.070  1.00  0.00    -0.056 C 
HETATM    5  C8  UNL     1      26.536 -24.707 -18.960  1.00  0.00     0.079 C 
HETATM    6  C9  UNL     1      26.853 -23.421 -18.337  1.00  0.00     0.099 C 
HETATM    7  C10 UNL     1      25.668 -22.443 -18.406  1.00  0.00     0.034 C 
HETATM    8  C11 UNL     1      25.495 -21.497 -19.280  1.00  0.00     0.009 C 
HETATM    9  C12 UNL     1      24.286 -20.621 -19.208  1.00  0.00     0.054 C 
HETATM   10  C13 UNL     1      26.389 -21.193 -20.410  1.00  0.00     0.185 C 
HETATM   11  O4  UNL     1      26.925 -22.067 -21.262  1.00  0.00    -0.320 OA
HETATM   12  C14 UNL     1      26.731 -22.816 -22.352  1.00  0.00     0.169 C 
HETATM   13  C21 UNL     1      24.834 -22.872 -17.274  1.00  0.00     0.163 C 
HETATM   14  O5  UNL     1      23.609 -22.657 -17.067  1.00  0.00    -0.292 OA
HETATM   15  C22 UNL     1      25.650 -23.671 -16.287  1.00  0.00     0.066 C 
HETATM   16  C23 UNL     1      25.087 -25.014 -16.193  1.00  0.00     0.018 C 
HETATM   17  C24 UNL     1      26.986 -23.411 -16.821  1.00  0.00     0.065 C 
ENDROOT
BRANCH  17  18
HETATM   18  C25 UNL     1      28.211 -23.730 -16.124  1.00  0.00     0.125 C 
HETATM   19  C26 UNL     1      28.277 -25.236 -15.767  1.00  0.00     0.040 C 
BRANCH  18  20
HETATM   20  O6  UNL     1      28.210 -23.145 -14.828  1.00  0.00    -0.386 OA
BRANCH  20  21
HETATM   21  C27 UNL     1      27.754 -23.855 -13.800  1.00  0.00     0.170 C 
BRANCH  21  22
HETATM   22  C28 UNL     1      26.943 -23.186 -12.729  1.00  0.00     0.052 C 
BRANCH  22  23
HETATM   23  C29 UNL     1      27.636 -22.095 -11.997  1.00  0.00     0.166 C 
BRANCH  23  24
HETATM   24  O7  UNL     1      28.575 -21.426 -12.783  1.00  0.00    -0.401 OA
ATOM     25  H7  UNL     1      29.444 -21.421 -12.397  1.00  0.00     0.209 HD
ENDBRANCH  23  24
ENDBRANCH  22  23
ENDBRANCH  21  22
ENDBRANCH  20  21
ENDBRANCH  18  20
ENDBRANCH  17  18
BRANCH   6  26
HETATM   26  O2  UNL     1      28.012 -22.899 -18.845  1.00  0.00    -0.384 OA
ATOM     27  H2  UNL     1      28.764 -23.419 -18.587  1.00  0.00     0.211 HD
ENDBRANCH   6  26
BRANCH   4  28
HETATM   28  C7  UNL     1      28.499 -26.198 -19.740  1.00  0.00     0.198 C 
BRANCH  28  29
HETATM   29  O1  UNL     1      29.713 -25.603 -19.830  1.00  0.00    -0.397 OA
ATOM     30  H1  UNL     1      30.298 -26.046 -20.434  1.00  0.00     0.209 HD
ENDBRANCH  28  29
ENDBRANCH   4  28
BRANCH  10  31
HETATM   31  O3  UNL     1      26.699 -19.939 -20.610  1.00  0.00    -0.341 OA
ATOM     32  H3  UNL     1      27.315 -19.748 -21.307  1.00  0.00     0.220 HD
ENDBRANCH  10  31
BRANCH   1  33
HETATM   33  C2  UNL     1      26.223 -24.844 -23.586  1.00  0.00    -0.021 C 
HETATM   34  C1  UNL     1      26.207 -26.122 -23.788  1.00  0.00     0.008 C 
ENDBRANCH   1  33
BRANCH  12  35
HETATM   35  C15 UNL     1      25.941 -22.240 -23.485  1.00  0.00     0.003 C 
HETATM   36  C16 UNL     1      25.221 -21.154 -23.249  1.00  0.00    -0.028 C 
BRANCH  36  37
HETATM   37  C17 UNL     1      24.423 -20.554 -24.354  1.00  0.00     0.030 C 
BRANCH  37  38
HETATM   38  C18 UNL     1      23.314 -19.691 -23.776  1.00  0.00    -0.019 C 
HETATM   39  C19 UNL     1      23.644 -19.328 -22.361  1.00  0.00     0.010 C 
HETATM   40  C20 UNL     1      23.273 -18.419 -24.602  1.00  0.00     0.010 C 
ENDBRANCH  37  38
ENDBRANCH  36  37
ENDBRANCH  12  35
TORSDOF 14
ENDMDL
