MODEL 1
REMARK VINA RESULT: -5.931310897      0.000      0.000
REMARK  12 active torsions:
REMARK  status: ('A' for Active; 'I' for Inactive)
REMARK    1  A    between atoms: C2_2  and  N1_3 
REMARK    2  A    between atoms: N1_3  and  C3_4 
REMARK    3  A    between atoms: N1_3  and  C5_6 
REMARK    4  A    between atoms: C5_6  and  C6_7 
REMARK    5  A    between atoms: C8_9  and  O1_10 
REMARK    6  A    between atoms: O1_10  and  C9_11 
REMARK    7  A    between atoms: C10_14  and  N3_15 
REMARK    8  A    between atoms: N3_15  and  C11_17 
REMARK    9  A    between atoms: C11_17  and  C12_18 
REMARK   10  A    between atoms: C15_21  and  C16_22 
REMARK   11  A    between atoms: C16_22  and  N4_23 
REMARK   12  A    between atoms: N6_32  and  C20_34 
ROOT
HETATM    1  C9  UNL     1      26.430 -22.389 -10.936  1.00  0.00     0.261 A 
HETATM    2  N2  UNL     1      25.136 -22.200 -11.421  1.00  0.00    -0.153 N 
ATOM      3  H2  UNL     1      24.967 -22.343 -12.416  1.00  0.00     0.188 HD
HETATM    4  C10 UNL     1      24.115 -21.844 -10.657  1.00  0.00     0.695 A 
HETATM    5  N5  UNL     1      24.345 -21.658  -9.350  1.00  0.00    -0.022 N 
ATOM      6  H5  UNL     1      23.568 -21.383  -8.750  1.00  0.00     0.203 HD
HETATM    7  C19 UNL     1      25.554 -21.820  -8.801  1.00  0.00     0.698 A 
HETATM    8  N6  UNL     1      25.824 -21.632  -7.572  1.00  0.00    -0.221 N 
ATOM      9  H6  UNL     1      26.784 -21.790  -7.265  1.00  0.00     0.178 HD
HETATM   10  N7  UNL     1      26.593 -22.190  -9.624  1.00  0.00    -0.149 N 
HETATM   11  C25 UNL     1      27.904 -22.383  -9.027  1.00  0.00     0.179 C 
ENDROOT
BRANCH   1  12
HETATM   12  O1  UNL     1      27.342 -22.743 -11.843  1.00  0.00    -0.261 OA
BRANCH  12  13
HETATM   13  C8  UNL     1      27.566 -23.301 -13.016  1.00  0.00     0.152 A 
HETATM   14  C7  UNL     1      27.663 -22.568 -14.230  1.00  0.00     0.067 A 
HETATM   15  C6  UNL     1      27.904 -23.403 -15.269  1.00  0.00    -0.004 A 
HETATM   16  C26 UNL     1      27.960 -24.695 -14.718  1.00  0.00     0.015 A 
HETATM   17  N8  UNL     1      27.759 -24.581 -13.412  1.00  0.00    -0.340 N 
HETATM   18  C27 UNL     1      28.201 -25.949 -15.514  1.00  0.00     0.069 C 
ATOM     19  H8  UNL     1      27.752 -25.375 -12.772  1.00  0.00     0.167 HD
BRANCH  15  20
HETATM   20  C5  UNL     1      28.062 -23.136 -16.697  1.00  0.00     0.313 C 
BRANCH  20  21
HETATM   21  N1  UNL     1      26.956 -22.646 -17.432  1.00  0.00     0.091 N 
BRANCH  21  22
HETATM   22  C2  UNL     1      25.878 -23.596 -17.398  1.00  0.00     0.268 C 
HETATM   23  C1  UNL     1      24.541 -23.028 -17.132  1.00  0.00     0.037 C 
ENDBRANCH  21  22
BRANCH  21  24
HETATM   24  C3  UNL     1      27.218 -22.133 -18.734  1.00  0.00     0.268 C 
HETATM   25  C4  UNL     1      26.783 -20.749 -19.059  1.00  0.00     0.037 C 
ENDBRANCH  21  24
ENDBRANCH  20  21
ENDBRANCH  15  20
ENDBRANCH  12  13
ENDBRANCH   1  12
BRANCH   4  26
HETATM   26  N3  UNL     1      22.971 -21.694 -11.157  1.00  0.00    -0.225 N 
ATOM     27  H3  UNL     1      22.822 -22.165 -12.049  1.00  0.00     0.177 HD
BRANCH  26  28
HETATM   28  C11 UNL     1      21.855 -20.963 -10.661  1.00  0.00     0.142 C 
BRANCH  28  29
HETATM   29  C12 UNL     1      22.074 -19.442 -10.781  1.00  0.00     0.004 C 
HETATM   30  C13 UNL     1      21.687 -18.840  -9.485  1.00  0.00     0.007 C 
HETATM   31  C14 UNL     1      21.694 -17.329  -9.573  1.00  0.00     0.007 C 
HETATM   32  C15 UNL     1      20.705 -16.929 -10.615  1.00  0.00     0.011 C 
HETATM   33  C17 UNL     1      20.917 -17.548 -11.966  1.00  0.00     0.007 C 
HETATM   34  C18 UNL     1      21.292 -18.974 -11.958  1.00  0.00     0.007 C 
BRANCH  32  35
HETATM   35  C16 UNL     1      20.787 -15.422 -10.793  1.00  0.00     0.234 C 
BRANCH  35  36
HETATM   36  N4  UNL     1      21.300 -14.754  -9.639  1.00  0.00    -0.079 N 
ATOM     37  H43 UNL     1      20.782 -13.896  -9.453  1.00  0.00     0.274 HD
ATOM     38  H42 UNL     1      21.075 -15.271  -8.788  1.00  0.00     0.274 HD
ATOM     39  H41 UNL     1      22.302 -14.570  -9.700  1.00  0.00     0.274 HD
ENDBRANCH  35  36
ENDBRANCH  32  35
ENDBRANCH  28  29
ENDBRANCH  26  28
ENDBRANCH   4  26
BRANCH   8  40
HETATM   40  C20 UNL     1      24.876 -21.217  -6.595  1.00  0.00     0.099 C 
HETATM   41  C21 UNL     1      24.771 -22.184  -5.425  1.00  0.00     0.026 C 
HETATM   42  C22 UNL     1      25.881 -21.839  -4.481  1.00  0.00     0.002 C 
HETATM   43  C23 UNL     1      26.642 -20.709  -5.142  1.00  0.00     0.002 C 
HETATM   44  C24 UNL     1      25.502 -19.997  -5.877  1.00  0.00     0.026 C 
ENDBRANCH   8  40
TORSDOF 12
ENDMDL
MODEL 2
REMARK VINA RESULT: -5.891508117      1.258      1.512
REMARK  12 active torsions:
REMARK  status: ('A' for Active; 'I' for Inactive)
REMARK    1  A    between atoms: C2_2  and  N1_3 
REMARK    2  A    between atoms: N1_3  and  C3_4 
REMARK    3  A    between atoms: N1_3  and  C5_6 
REMARK    4  A    between atoms: C5_6  and  C6_7 
REMARK    5  A    between atoms: C8_9  and  O1_10 
REMARK    6  A    between atoms: O1_10  and  C9_11 
REMARK    7  A    between atoms: C10_14  and  N3_15 
REMARK    8  A    between atoms: N3_15  and  C11_17 
REMARK    9  A    between atoms: C11_17  and  C12_18 
REMARK   10  A    between atoms: C15_21  and  C16_22 
REMARK   11  A    between atoms: C16_22  and  N4_23 
REMARK   12  A    between atoms: N6_32  and  C20_34 
ROOT
HETATM    1  C9  UNL     1      25.284 -22.670 -10.520  1.00  0.00     0.261 A 
HETATM    2  N2  UNL     1      24.068 -22.107 -10.910  1.00  0.00    -0.153 N 
ATOM      3  H2  UNL     1      23.726 -22.300 -11.851  1.00  0.00     0.188 HD
HETATM    4  C10 UNL     1      23.335 -21.336 -10.122  1.00  0.00     0.695 A 
HETATM    5  N5  UNL     1      23.791 -21.089  -8.887  1.00  0.00    -0.022 N 
ATOM      6  H5  UNL     1      23.237 -20.496  -8.270  1.00  0.00     0.203 HD
HETATM    7  C19 UNL     1      24.945 -21.589  -8.431  1.00  0.00     0.698 A 
HETATM    8  N6  UNL     1      25.429 -21.362  -7.276  1.00  0.00    -0.221 N 
ATOM      9  H6  UNL     1      26.317 -21.802  -7.037  1.00  0.00     0.178 HD
HETATM   10  N7  UNL     1      25.682 -22.386  -9.276  1.00  0.00    -0.149 N 
HETATM   11  C25 UNL     1      26.928 -22.946  -8.777  1.00  0.00     0.179 C 
ENDROOT
BRANCH   1  12
HETATM   12  O1  UNL     1      25.896 -23.419 -11.439  1.00  0.00    -0.261 OA
BRANCH  12  13
HETATM   13  C8  UNL     1      26.285 -23.517 -12.695  1.00  0.00     0.152 A 
HETATM   14  C7  UNL     1      25.404 -23.817 -13.770  1.00  0.00     0.067 A 
HETATM   15  C6  UNL     1      26.083 -23.847 -14.942  1.00  0.00    -0.004 A 
HETATM   16  C26 UNL     1      27.421 -23.564 -14.619  1.00  0.00     0.015 A 
HETATM   17  N8  UNL     1      27.484 -23.381 -13.307  1.00  0.00    -0.340 N 
HETATM   18  C27 UNL     1      28.542 -23.501 -15.621  1.00  0.00     0.069 C 
ATOM     19  H8  UNL     1      28.348 -23.160 -12.811  1.00  0.00     0.167 HD
BRANCH  15  20
HETATM   20  C5  UNL     1      25.631 -24.126 -16.304  1.00  0.00     0.313 C 
BRANCH  20  21
HETATM   21  N1  UNL     1      25.278 -23.045 -17.147  1.00  0.00     0.091 N 
BRANCH  21  22
HETATM   22  C2  UNL     1      23.849 -22.937 -17.243  1.00  0.00     0.268 C 
HETATM   23  C1  UNL     1      23.333 -21.585 -17.539  1.00  0.00     0.037 C 
ENDBRANCH  21  22
BRANCH  21  24
HETATM   24  C3  UNL     1      25.939 -22.962 -18.406  1.00  0.00     0.268 C 
HETATM   25  C4  UNL     1      26.955 -21.896 -18.611  1.00  0.00     0.037 C 
ENDBRANCH  21  24
ENDBRANCH  20  21
ENDBRANCH  15  20
ENDBRANCH  12  13
ENDBRANCH   1  12
BRANCH   4  26
HETATM   26  N3  UNL     1      22.246 -20.863 -10.534  1.00  0.00    -0.225 N 
ATOM     27  H3  UNL     1      21.885 -21.284 -11.390  1.00  0.00     0.177 HD
BRANCH  26  28
HETATM   28  C11 UNL     1      21.442 -19.826  -9.981  1.00  0.00     0.142 C 
BRANCH  28  29
HETATM   29  C12 UNL     1      21.772 -18.458 -10.608  1.00  0.00     0.004 C 
HETATM   30  C13 UNL     1      21.230 -17.420  -9.702  1.00  0.00     0.007 C 
HETATM   31  C14 UNL     1      21.345 -16.047 -10.330  1.00  0.00     0.007 C 
HETATM   32  C15 UNL     1      20.553 -16.058 -11.594  1.00  0.00     0.011 C 
HETATM   33  C17 UNL     1      20.931 -17.132 -12.574  1.00  0.00     0.007 C 
HETATM   34  C18 UNL     1      21.210 -18.455 -11.986  1.00  0.00     0.007 C 
BRANCH  32  35
HETATM   35  C16 UNL     1      20.757 -14.723 -12.292  1.00  0.00     0.234 C 
BRANCH  35  36
HETATM   36  N4  UNL     1      22.133 -14.347 -12.380  1.00  0.00    -0.079 N 
ATOM     37  H43 UNL     1      22.337 -13.563 -11.762  1.00  0.00     0.274 HD
ATOM     38  H42 UNL     1      22.733 -15.054 -11.954  1.00  0.00     0.274 HD
ATOM     39  H41 UNL     1      22.428 -14.146 -13.336  1.00  0.00     0.274 HD
ENDBRANCH  35  36
ENDBRANCH  32  35
ENDBRANCH  28  29
ENDBRANCH  26  28
ENDBRANCH   4  26
BRANCH   8  40
HETATM   40  C20 UNL     1      24.812 -20.536  -6.295  1.00  0.00     0.099 C 
HETATM   41  C21 UNL     1      23.925 -21.317  -5.337  1.00  0.00     0.026 C 
HETATM   42  C22 UNL     1      24.824 -21.884  -4.283  1.00  0.00     0.002 C 
HETATM   43  C23 UNL     1      26.225 -21.463  -4.672  1.00  0.00     0.002 C 
HETATM   44  C24 UNL     1      25.938 -20.106  -5.323  1.00  0.00     0.026 C 
ENDBRANCH   8  40
TORSDOF 12
ENDMDL
MODEL 3
REMARK VINA RESULT: -5.726528643      5.431      9.937
REMARK  12 active torsions:
REMARK  status: ('A' for Active; 'I' for Inactive)
REMARK    1  A    between atoms: C2_2  and  N1_3 
REMARK    2  A    between atoms: N1_3  and  C3_4 
REMARK    3  A    between atoms: N1_3  and  C5_6 
REMARK    4  A    between atoms: C5_6  and  C6_7 
REMARK    5  A    between atoms: C8_9  and  O1_10 
REMARK    6  A    between atoms: O1_10  and  C9_11 
REMARK    7  A    between atoms: C10_14  and  N3_15 
REMARK    8  A    between atoms: N3_15  and  C11_17 
REMARK    9  A    between atoms: C11_17  and  C12_18 
REMARK   10  A    between atoms: C15_21  and  C16_22 
REMARK   11  A    between atoms: C16_22  and  N4_23 
REMARK   12  A    between atoms: N6_32  and  C20_34 
ROOT
HETATM    1  C9  UNL     1      22.424 -19.297 -19.289  1.00  0.00     0.261 A 
HETATM    2  N2  UNL     1      22.104 -18.708 -18.066  1.00  0.00    -0.153 N 
ATOM      3  H2  UNL     1      22.416 -19.170 -17.211  1.00  0.00     0.188 HD
HETATM    4  C10 UNL     1      21.417 -17.582 -17.955  1.00  0.00     0.695 A 
HETATM    5  N5  UNL     1      21.012 -16.982 -19.082  1.00  0.00    -0.022 N 
ATOM      6  H5  UNL     1      20.481 -16.114 -19.011  1.00  0.00     0.203 HD
HETATM    7  C19 UNL     1      21.277 -17.475 -20.296  1.00  0.00     0.698 A 
HETATM    8  N6  UNL     1      20.893 -16.953 -21.392  1.00  0.00    -0.221 N 
ATOM      9  H6  UNL     1      21.158 -17.418 -22.260  1.00  0.00     0.178 HD
HETATM   10  N7  UNL     1      21.993 -18.647 -20.375  1.00  0.00    -0.149 N 
HETATM   11  C25 UNL     1      22.297 -19.177 -21.695  1.00  0.00     0.179 C 
ENDROOT
BRANCH   1  12
HETATM   12  O1  UNL     1      23.119 -20.433 -19.221  1.00  0.00    -0.261 OA
BRANCH  12  13
HETATM   13  C8  UNL     1      24.288 -21.019 -19.390  1.00  0.00     0.152 A 
HETATM   14  C7  UNL     1      25.016 -21.637 -18.337  1.00  0.00     0.067 A 
HETATM   15  C6  UNL     1      26.175 -22.159 -18.808  1.00  0.00    -0.004 A 
HETATM   16  C26 UNL     1      26.196 -21.869 -20.183  1.00  0.00     0.015 A 
HETATM   17  N8  UNL     1      25.082 -21.210 -20.469  1.00  0.00    -0.340 N 
HETATM   18  C27 UNL     1      27.312 -22.257 -21.116  1.00  0.00     0.069 C 
ATOM     19  H8  UNL     1      24.848 -20.881 -21.406  1.00  0.00     0.167 HD
BRANCH  15  20
HETATM   20  C5  UNL     1      27.257 -22.865 -18.123  1.00  0.00     0.313 C 
BRANCH  20  21
HETATM   21  N1  UNL     1      26.970 -24.080 -17.455  1.00  0.00     0.091 N 
BRANCH  21  22
HETATM   22  C2  UNL     1      26.915 -23.865 -16.036  1.00  0.00     0.268 C 
HETATM   23  C1  UNL     1      27.980 -23.003 -15.484  1.00  0.00     0.037 C 
ENDBRANCH  21  22
BRANCH  21  24
HETATM   24  C3  UNL     1      27.737 -25.220 -17.827  1.00  0.00     0.268 C 
HETATM   25  C4  UNL     1      28.323 -25.274 -19.193  1.00  0.00     0.037 C 
ENDBRANCH  21  24
ENDBRANCH  20  21
ENDBRANCH  15  20
ENDBRANCH  12  13
ENDBRANCH   1  12
BRANCH   4  26
HETATM   26  N3  UNL     1      21.165 -17.103 -16.820  1.00  0.00    -0.225 N 
ATOM     27  H3  UNL     1      21.120 -17.783 -16.062  1.00  0.00     0.177 HD
BRANCH  26  28
HETATM   28  C11 UNL     1      20.934 -15.751 -16.439  1.00  0.00     0.142 C 
BRANCH  28  29
HETATM   29  C12 UNL     1      20.553 -15.638 -14.951  1.00  0.00     0.004 C 
HETATM   30  C13 UNL     1      21.502 -14.688 -14.327  1.00  0.00     0.007 C 
HETATM   31  C14 UNL     1      21.319 -14.657 -12.824  1.00  0.00     0.007 C 
HETATM   32  C15 UNL     1      21.586 -16.029 -12.305  1.00  0.00     0.011 C 
HETATM   33  C17 UNL     1      20.759 -17.118 -12.926  1.00  0.00     0.007 C 
HETATM   34  C18 UNL     1      20.568 -17.014 -14.385  1.00  0.00     0.007 C 
BRANCH  32  35
HETATM   35  C16 UNL     1      21.293 -16.038 -10.814  1.00  0.00     0.234 C 
BRANCH  35  36
HETATM   36  N4  UNL     1      21.370 -14.737 -10.226  1.00  0.00    -0.079 N 
ATOM     37  H43 UNL     1      22.099 -14.702  -9.513  1.00  0.00     0.274 HD
ATOM     38  H42 UNL     1      21.752 -14.060 -10.887  1.00  0.00     0.274 HD
ATOM     39  H41 UNL     1      20.477 -14.418  -9.851  1.00  0.00     0.274 HD
ENDBRANCH  35  36
ENDBRANCH  32  35
ENDBRANCH  28  29
ENDBRANCH  26  28
ENDBRANCH   4  26
BRANCH   8  40
HETATM   40  C20 UNL     1      20.119 -15.763 -21.486  1.00  0.00     0.099 C 
HETATM   41  C21 UNL     1      20.897 -14.596 -22.077  1.00  0.00     0.026 C 
HETATM   42  C22 UNL     1      20.833 -14.747 -23.566  1.00  0.00     0.002 C 
HETATM   43  C23 UNL     1      20.060 -16.024 -23.814  1.00  0.00     0.002 C 
HETATM   44  C24 UNL     1      19.096 -16.002 -22.623  1.00  0.00     0.026 C 
ENDBRANCH   8  40
TORSDOF 12
ENDMDL
MODEL 4
REMARK VINA RESULT: -5.678928830      3.629     10.071
REMARK  12 active torsions:
REMARK  status: ('A' for Active; 'I' for Inactive)
REMARK    1  A    between atoms: C2_2  and  N1_3 
REMARK    2  A    between atoms: N1_3  and  C3_4 
REMARK    3  A    between atoms: N1_3  and  C5_6 
REMARK    4  A    between atoms: C5_6  and  C6_7 
REMARK    5  A    between atoms: C8_9  and  O1_10 
REMARK    6  A    between atoms: O1_10  and  C9_11 
REMARK    7  A    between atoms: C10_14  and  N3_15 
REMARK    8  A    between atoms: N3_15  and  C11_17 
REMARK    9  A    between atoms: C11_17  and  C12_18 
REMARK   10  A    between atoms: C15_21  and  C16_22 
REMARK   11  A    between atoms: C16_22  and  N4_23 
REMARK   12  A    between atoms: N6_32  and  C20_34 
ROOT
HETATM    1  C9  UNL     1      21.555 -20.236 -16.186  1.00  0.00     0.261 A 
HETATM    2  N2  UNL     1      21.428 -21.478 -15.565  1.00  0.00    -0.153 N 
ATOM      3  H2  UNL     1      20.773 -21.565 -14.788  1.00  0.00     0.188 HD
HETATM    4  C10 UNL     1      22.112 -22.551 -15.930  1.00  0.00     0.695 A 
HETATM    5  N5  UNL     1      22.970 -22.428 -16.952  1.00  0.00    -0.022 N 
ATOM      6  H5  UNL     1      23.504 -23.246 -17.244  1.00  0.00     0.203 HD
HETATM    7  C19 UNL     1      23.152 -21.276 -17.606  1.00  0.00     0.698 A 
HETATM    8  N6  UNL     1      23.971 -21.107 -18.565  1.00  0.00    -0.221 N 
ATOM      9  H6  UNL     1      24.022 -20.181 -18.991  1.00  0.00     0.178 HD
HETATM   10  N7  UNL     1      22.425 -20.181 -17.200  1.00  0.00    -0.149 N 
HETATM   11  C25 UNL     1      22.608 -18.931 -17.920  1.00  0.00     0.179 C 
ENDROOT
BRANCH   1  12
HETATM   12  O1  UNL     1      20.793 -19.259 -15.690  1.00  0.00    -0.261 OA
BRANCH  12  13
HETATM   13  C8  UNL     1      20.741 -18.189 -14.922  1.00  0.00     0.152 A 
HETATM   14  C7  UNL     1      20.425 -18.231 -13.536  1.00  0.00     0.067 A 
HETATM   15  C6  UNL     1      20.453 -16.984 -13.007  1.00  0.00    -0.004 A 
HETATM   16  C26 UNL     1      20.790 -16.125 -14.067  1.00  0.00     0.015 A 
HETATM   17  N8  UNL     1      20.946 -16.872 -15.152  1.00  0.00    -0.340 N 
HETATM   18  C27 UNL     1      20.927 -14.632 -13.940  1.00  0.00     0.069 C 
ATOM     19  H8  UNL     1      21.195 -16.492 -16.065  1.00  0.00     0.167 HD
BRANCH  15  20
HETATM   20  C5  UNL     1      20.185 -16.512 -11.650  1.00  0.00     0.313 C 
BRANCH  20  21
HETATM   21  N1  UNL     1      21.240 -16.494 -10.706  1.00  0.00     0.091 N 
BRANCH  21  22
HETATM   22  C2  UNL     1      21.039 -17.518  -9.719  1.00  0.00     0.268 C 
HETATM   23  C1  UNL     1      21.752 -18.787  -9.968  1.00  0.00     0.037 C 
ENDBRANCH  21  22
BRANCH  21  24
HETATM   24  C3  UNL     1      21.590 -15.231 -10.150  1.00  0.00     0.268 C 
HETATM   25  C4  UNL     1      21.858 -15.142  -8.690  1.00  0.00     0.037 C 
ENDBRANCH  21  24
ENDBRANCH  20  21
ENDBRANCH  15  20
ENDBRANCH  12  13
ENDBRANCH   1  12
BRANCH   4  26
HETATM   26  N3  UNL     1      21.948 -23.642 -15.329  1.00  0.00    -0.225 N 
ATOM     27  H3  UNL     1      21.364 -24.322 -15.816  1.00  0.00     0.177 HD
BRANCH  26  28
HETATM   28  C11 UNL     1      22.457 -24.069 -14.070  1.00  0.00     0.142 C 
BRANCH  28  29
HETATM   29  C12 UNL     1      23.775 -23.353 -13.719  1.00  0.00     0.004 C 
HETATM   30  C13 UNL     1      24.880 -24.271 -14.079  1.00  0.00     0.007 C 
HETATM   31  C14 UNL     1      26.208 -23.725 -13.598  1.00  0.00     0.007 C 
HETATM   32  C15 UNL     1      26.137 -23.601 -12.113  1.00  0.00     0.011 C 
HETATM   33  C17 UNL     1      24.996 -22.773 -11.597  1.00  0.00     0.007 C 
HETATM   34  C18 UNL     1      23.705 -22.976 -12.281  1.00  0.00     0.007 C 
BRANCH  32  35
HETATM   35  C16 UNL     1      27.421 -22.946 -11.631  1.00  0.00     0.234 C 
BRANCH  35  36
HETATM   36  N4  UNL     1      28.095 -22.221 -12.662  1.00  0.00    -0.079 N 
ATOM     37  H43 UNL     1      27.964 -22.669 -13.568  1.00  0.00     0.274 HD
ATOM     38  H42 UNL     1      27.629 -21.332 -12.847  1.00  0.00     0.274 HD
ATOM     39  H41 UNL     1      29.086 -22.080 -12.464  1.00  0.00     0.274 HD
ENDBRANCH  35  36
ENDBRANCH  32  35
ENDBRANCH  28  29
ENDBRANCH  26  28
ENDBRANCH   4  26
BRANCH   8  40
HETATM   40  C20 UNL     1      24.821 -22.124 -19.084  1.00  0.00     0.099 C 
HETATM   41  C21 UNL     1      25.168 -21.912 -20.551  1.00  0.00     0.026 C 
HETATM   42  C22 UNL     1      26.314 -20.948 -20.586  1.00  0.00     0.002 C 
HETATM   43  C23 UNL     1      26.582 -20.579 -19.143  1.00  0.00     0.002 C 
HETATM   44  C24 UNL     1      26.212 -21.892 -18.446  1.00  0.00     0.026 C 
ENDBRANCH   8  40
TORSDOF 12
ENDMDL
MODEL 5
REMARK VINA RESULT: -5.664945511      1.798      7.660
REMARK  12 active torsions:
REMARK  status: ('A' for Active; 'I' for Inactive)
REMARK    1  A    between atoms: C2_2  and  N1_3 
REMARK    2  A    between atoms: N1_3  and  C3_4 
REMARK    3  A    between atoms: N1_3  and  C5_6 
REMARK    4  A    between atoms: C5_6  and  C6_7 
REMARK    5  A    between atoms: C8_9  and  O1_10 
REMARK    6  A    between atoms: O1_10  and  C9_11 
REMARK    7  A    between atoms: C10_14  and  N3_15 
REMARK    8  A    between atoms: N3_15  and  C11_17 
REMARK    9  A    between atoms: C11_17  and  C12_18 
REMARK   10  A    between atoms: C15_21  and  C16_22 
REMARK   11  A    between atoms: C16_22  and  N4_23 
REMARK   12  A    between atoms: N6_32  and  C20_34 
ROOT
HETATM    1  C9  UNL     1      23.428 -21.446 -10.155  1.00  0.00     0.261 A 
HETATM    2  N2  UNL     1      24.534 -21.974 -10.821  1.00  0.00    -0.153 N 
ATOM      3  H2  UNL     1      24.466 -22.122 -11.828  1.00  0.00     0.188 HD
HETATM    4  C10 UNL     1      25.668 -22.293 -10.216  1.00  0.00     0.695 A 
HETATM    5  N5  UNL     1      25.749 -22.094  -8.894  1.00  0.00    -0.022 N 
ATOM      6  H5  UNL     1      26.616 -22.336  -8.414  1.00  0.00     0.203 HD
HETATM    7  C19 UNL     1      24.738 -21.592  -8.177  1.00  0.00     0.698 A 
HETATM    8  N6  UNL     1      24.761 -21.408  -6.918  1.00  0.00    -0.221 N 
ATOM      9  H6  UNL     1      23.929 -21.014  -6.478  1.00  0.00     0.178 HD
HETATM   10  N7  UNL     1      23.574 -21.271  -8.838  1.00  0.00    -0.149 N 
HETATM   11  C25 UNL     1      22.480 -20.708  -8.064  1.00  0.00     0.179 C 
ENDROOT
BRANCH   1  12
HETATM   12  O1  UNL     1      22.364 -21.185 -10.916  1.00  0.00    -0.261 OA
BRANCH  12  13
HETATM   13  C8  UNL     1      21.693 -20.273 -11.591  1.00  0.00     0.152 A 
HETATM   14  C7  UNL     1      21.693 -18.891 -11.257  1.00  0.00     0.067 A 
HETATM   15  C6  UNL     1      20.922 -18.195 -12.128  1.00  0.00    -0.004 A 
HETATM   16  C26 UNL     1      20.417 -19.142 -13.035  1.00  0.00     0.015 A 
HETATM   17  N8  UNL     1      20.893 -20.327 -12.681  1.00  0.00    -0.340 N 
HETATM   18  C27 UNL     1      19.498 -18.815 -14.181  1.00  0.00     0.069 C 
ATOM     19  H8  UNL     1      20.679 -21.192 -13.179  1.00  0.00     0.167 HD
BRANCH  15  20
HETATM   20  C5  UNL     1      20.595 -16.771 -12.192  1.00  0.00     0.313 C 
BRANCH  20  21
HETATM   21  N1  UNL     1      21.568 -15.823 -11.796  1.00  0.00     0.091 N 
BRANCH  21  22
HETATM   22  C2  UNL     1      21.084 -15.051 -10.685  1.00  0.00     0.268 C 
HETATM   23  C1  UNL     1      21.707 -15.357  -9.382  1.00  0.00     0.037 C 
ENDBRANCH  21  22
BRANCH  21  24
HETATM   24  C3  UNL     1      22.157 -15.032 -12.823  1.00  0.00     0.268 C 
HETATM   25  C4  UNL     1      21.449 -14.904 -14.124  1.00  0.00     0.037 C 
ENDBRANCH  21  24
ENDBRANCH  20  21
ENDBRANCH  15  20
ENDBRANCH  12  13
ENDBRANCH   1  12
BRANCH   4  26
HETATM   26  N3  UNL     1      26.629 -22.761 -10.877  1.00  0.00    -0.225 N 
ATOM     27  H3  UNL     1      27.525 -22.297 -10.729  1.00  0.00     0.177 HD
BRANCH  26  28
HETATM   28  C11 UNL     1      26.650 -23.844 -11.800  1.00  0.00     0.142 C 
BRANCH  28  29
HETATM   29  C12 UNL     1      26.466 -23.357 -13.250  1.00  0.00     0.004 C 
HETATM   30  C13 UNL     1      25.771 -24.435 -13.989  1.00  0.00     0.007 C 
HETATM   31  C14 UNL     1      25.712 -24.119 -15.469  1.00  0.00     0.007 C 
HETATM   32  C15 UNL     1      27.113 -24.009 -15.966  1.00  0.00     0.011 C 
HETATM   33  C17 UNL     1      27.972 -23.016 -15.237  1.00  0.00     0.007 C 
HETATM   34  C18 UNL     1      27.813 -22.997 -13.771  1.00  0.00     0.007 C 
BRANCH  32  35
HETATM   35  C16 UNL     1      27.067 -23.578 -17.422  1.00  0.00     0.234 C 
BRANCH  35  36
HETATM   36  N4  UNL     1      27.593 -22.265 -17.629  1.00  0.00    -0.079 N 
ATOM     37  H43 UNL     1      27.609 -22.030 -18.621  1.00  0.00     0.274 HD
ATOM     38  H42 UNL     1      26.940 -21.553 -17.300  1.00  0.00     0.274 HD
ATOM     39  H41 UNL     1      28.514 -22.137 -17.209  1.00  0.00     0.274 HD
ENDBRANCH  35  36
ENDBRANCH  32  35
ENDBRANCH  28  29
ENDBRANCH  26  28
ENDBRANCH   4  26
BRANCH   8  40
HETATM   40  C20 UNL     1      25.870 -21.716  -6.082  1.00  0.00     0.099 C 
HETATM   41  C21 UNL     1      26.607 -20.476  -5.597  1.00  0.00     0.026 C 
HETATM   42  C22 UNL     1      25.858 -19.970  -4.402  1.00  0.00     0.002 C 
HETATM   43  C23 UNL     1      24.672 -20.896  -4.242  1.00  0.00     0.002 C 
HETATM   44  C24 UNL     1      25.276 -22.213  -4.741  1.00  0.00     0.026 C 
ENDBRANCH   8  40
TORSDOF 12
ENDMDL
