MODEL 1
REMARK VINA RESULT: -4.413772116      0.000      0.000
REMARK  3 active torsions:
REMARK  status: ('A' for Active; 'I' for Inactive)
REMARK    1  A    between atoms: C2_2  and  N1_3 
REMARK    2  A    between atoms: C2_2  and  C3_7 
REMARK    3  A    between atoms: C8_12  and  N2_13 
ROOT
HETATM    1  C3  UNL     1      70.281  80.780  25.609  1.00  0.00     0.046 C 
HETATM    2  C4  UNL     1      69.529  80.748  26.922  1.00  0.00     0.009 C 
HETATM    3  C5  UNL     1      70.639  80.596  27.970  1.00  0.00     0.001 C 
HETATM    4  C6  UNL     1      71.692  81.626  27.841  1.00  0.00     0.002 C 
HETATM    5  C7  UNL     1      71.559  82.598  26.729  1.00  0.00     0.033 C 
HETATM    6  C8  UNL     1      70.871  82.150  25.503  1.00  0.00     0.189 C 
ENDROOT
BRANCH   1   7
HETATM    7  C2  UNL     1      69.431  80.391  24.444  1.00  0.00     0.185 C 
HETATM    8  C1  UNL     1      70.298  80.066  23.245  1.00  0.00     0.040 C 
BRANCH   7   9
HETATM    9  N1  UNL     1      68.581  79.260  24.683  1.00  0.00    -0.075 N 
ATOM     10  H13 UNL     1      67.815  79.466  25.325  1.00  0.00     0.274 HD
ATOM     11  H12 UNL     1      68.013  79.011  23.874  1.00  0.00     0.274 HD
ATOM     12  H11 UNL     1      69.173  78.494  25.004  1.00  0.00     0.274 HD
ENDBRANCH   7   9
ENDBRANCH   1   7
BRANCH   6  13
HETATM   13  N2  UNL     1      69.840  83.130  25.120  1.00  0.00    -0.075 N 
ATOM     14  H23 UNL     1      69.262  82.791  24.351  1.00  0.00     0.274 HD
ATOM     15  H22 UNL     1      69.114  83.214  25.832  1.00  0.00     0.274 HD
ATOM     16  H21 UNL     1      70.265  84.032  24.904  1.00  0.00     0.274 HD
ENDBRANCH   6  13
TORSDOF 3
ENDMDL
MODEL 2
REMARK VINA RESULT: -4.382962696      5.556      7.539
REMARK  3 active torsions:
REMARK  status: ('A' for Active; 'I' for Inactive)
REMARK    1  A    between atoms: C2_2  and  N1_3 
REMARK    2  A    between atoms: C2_2  and  C3_7 
REMARK    3  A    between atoms: C8_12  and  N2_13 
ROOT
HETATM    1  C3  UNL     1      71.594  79.452  32.054  1.00  0.00     0.046 C 
HETATM    2  C4  UNL     1      71.008  80.501  31.133  1.00  0.00     0.009 C 
HETATM    3  C5  UNL     1      70.909  79.781  29.782  1.00  0.00     0.001 C 
HETATM    4  C6  UNL     1      70.175  78.500  29.870  1.00  0.00     0.002 C 
HETATM    5  C7  UNL     1      69.696  78.082  31.209  1.00  0.00     0.033 C 
HETATM    6  C8  UNL     1      70.473  78.519  32.385  1.00  0.00     0.189 C 
ENDROOT
BRANCH   1   7
HETATM    7  C2  UNL     1      72.270  80.040  33.248  1.00  0.00     0.185 C 
HETATM    8  C1  UNL     1      73.602  79.359  33.488  1.00  0.00     0.040 C 
BRANCH   7   9
HETATM    9  N1  UNL     1      72.516  81.450  33.154  1.00  0.00    -0.075 N 
ATOM     10  H13 UNL     1      73.508  81.677  33.081  1.00  0.00     0.274 HD
ATOM     11  H12 UNL     1      72.223  81.846  32.260  1.00  0.00     0.274 HD
ATOM     12  H11 UNL     1      72.064  81.895  33.953  1.00  0.00     0.274 HD
ENDBRANCH   7   9
ENDBRANCH   1   7
BRANCH   6  13
HETATM   13  N2  UNL     1      69.574  79.123  33.384  1.00  0.00    -0.075 N 
ATOM     14  H23 UNL     1      69.500  80.134  33.264  1.00  0.00     0.274 HD
ATOM     15  H22 UNL     1      68.599  78.877  33.213  1.00  0.00     0.274 HD
ATOM     16  H21 UNL     1      69.869  78.874  34.328  1.00  0.00     0.274 HD
ENDBRANCH   6  13
TORSDOF 3
ENDMDL
MODEL 3
REMARK VINA RESULT: -4.336410643      2.067      3.061
REMARK  3 active torsions:
REMARK  status: ('A' for Active; 'I' for Inactive)
REMARK    1  A    between atoms: C2_2  and  N1_3 
REMARK    2  A    between atoms: C2_2  and  C3_7 
REMARK    3  A    between atoms: C8_12  and  N2_13 
ROOT
HETATM    1  C3  UNL     1      70.845  81.352  26.586  1.00  0.00     0.046 C 
HETATM    2  C4  UNL     1      69.350  81.223  26.786  1.00  0.00     0.009 C 
HETATM    3  C5  UNL     1      69.127  79.707  26.866  1.00  0.00     0.001 C 
HETATM    4  C6  UNL     1      69.984  79.056  27.880  1.00  0.00     0.002 C 
HETATM    5  C7  UNL     1      70.938  79.918  28.617  1.00  0.00     0.033 C 
HETATM    6  C8  UNL     1      71.464  81.110  27.926  1.00  0.00     0.189 C 
ENDROOT
BRANCH   1   7
HETATM    7  C2  UNL     1      71.236  82.650  25.960  1.00  0.00     0.185 C 
HETATM    8  C1  UNL     1      72.454  82.464  25.079  1.00  0.00     0.040 C 
BRANCH   7   9
HETATM    9  N1  UNL     1      70.210  83.253  25.159  1.00  0.00    -0.075 N 
ATOM     10  H13 UNL     1      69.281  82.881  25.356  1.00  0.00     0.274 HD
ATOM     11  H12 UNL     1      70.023  84.222  25.416  1.00  0.00     0.274 HD
ATOM     12  H11 UNL     1      70.481  83.147  24.181  1.00  0.00     0.274 HD
ENDBRANCH   7   9
ENDBRANCH   1   7
BRANCH   6  13
HETATM   13  N2  UNL     1      71.315  82.296  28.788  1.00  0.00    -0.075 N 
ATOM     14  H23 UNL     1      70.335  82.508  28.975  1.00  0.00     0.274 HD
ATOM     15  H22 UNL     1      71.617  82.109  29.744  1.00  0.00     0.274 HD
ATOM     16  H21 UNL     1      71.805  83.095  28.386  1.00  0.00     0.274 HD
ENDBRANCH   6  13
TORSDOF 3
ENDMDL
MODEL 4
REMARK VINA RESULT: -4.034857126      6.439      7.455
REMARK  3 active torsions:
REMARK  status: ('A' for Active; 'I' for Inactive)
REMARK    1  A    between atoms: C2_2  and  N1_3 
REMARK    2  A    between atoms: C2_2  and  C3_7 
REMARK    3  A    between atoms: C8_12  and  N2_13 
ROOT
HETATM    1  C3  UNL     1      71.195  79.275  32.397  1.00  0.00     0.046 C 
HETATM    2  C4  UNL     1      72.154  78.608  33.360  1.00  0.00     0.009 C 
HETATM    3  C5  UNL     1      73.457  79.396  33.177  1.00  0.00     0.001 C 
HETATM    4  C6  UNL     1      73.271  80.854  33.341  1.00  0.00     0.002 C 
HETATM    5  C7  UNL     1      71.894  81.337  33.603  1.00  0.00     0.033 C 
HETATM    6  C8  UNL     1      70.773  80.552  33.053  1.00  0.00     0.189 C 
ENDROOT
BRANCH   1   7
HETATM    7  C2  UNL     1      70.061  78.389  32.001  1.00  0.00     0.185 C 
HETATM    8  C1  UNL     1      70.000  78.256  30.493  1.00  0.00     0.040 C 
BRANCH   7   9
HETATM    9  N1  UNL     1      70.124  77.066  32.550  1.00  0.00    -0.075 N 
ATOM     10  H13 UNL     1      70.934  76.538  32.224  1.00  0.00     0.274 HD
ATOM     11  H12 UNL     1      70.352  77.058  33.544  1.00  0.00     0.274 HD
ATOM     12  H11 UNL     1      69.239  76.604  32.341  1.00  0.00     0.274 HD
ENDBRANCH   7   9
ENDBRANCH   1   7
BRANCH   6  13
HETATM   13  N2  UNL     1      69.780  80.287  34.109  1.00  0.00    -0.075 N 
ATOM     14  H23 UNL     1      70.223  80.135  35.016  1.00  0.00     0.274 HD
ATOM     15  H22 UNL     1      69.242  81.123  34.340  1.00  0.00     0.274 HD
ATOM     16  H21 UNL     1      69.176  79.508  33.847  1.00  0.00     0.274 HD
ENDBRANCH   6  13
TORSDOF 3
ENDMDL
MODEL 5
REMARK VINA RESULT: -3.842158262      1.233      1.628
REMARK  3 active torsions:
REMARK  status: ('A' for Active; 'I' for Inactive)
REMARK    1  A    between atoms: C2_2  and  N1_3 
REMARK    2  A    between atoms: C2_2  and  C3_7 
REMARK    3  A    between atoms: C8_12  and  N2_13 
ROOT
HETATM    1  C3  UNL     1      70.554  81.139  25.887  1.00  0.00     0.046 C 
HETATM    2  C4  UNL     1      70.720  81.796  27.241  1.00  0.00     0.009 C 
HETATM    3  C5  UNL     1      72.235  82.013  27.353  1.00  0.00     0.001 C 
HETATM    4  C6  UNL     1      72.795  82.744  26.196  1.00  0.00     0.002 C 
HETATM    5  C7  UNL     1      71.859  83.110  25.106  1.00  0.00     0.033 C 
HETATM    6  C8  UNL     1      70.694  82.233  24.877  1.00  0.00     0.189 C 
ENDROOT
BRANCH   1   7
HETATM    7  C2  UNL     1      69.285  80.362  25.771  1.00  0.00     0.185 C 
HETATM    8  C1  UNL     1      69.308  79.499  24.526  1.00  0.00     0.040 C 
BRANCH   7   9
HETATM    9  N1  UNL     1      69.013  79.503  26.887  1.00  0.00    -0.075 N 
ATOM     10  H13 UNL     1      68.054  79.157  26.899  1.00  0.00     0.274 HD
ATOM     11  H12 UNL     1      69.480  78.599  26.816  1.00  0.00     0.274 HD
ATOM     12  H11 UNL     1      69.261  80.013  27.735  1.00  0.00     0.274 HD
ENDBRANCH   7   9
ENDBRANCH   1   7
BRANCH   6  13
HETATM   13  N2  UNL     1      69.464  83.041  24.814  1.00  0.00    -0.075 N 
ATOM     14  H23 UNL     1      68.899  82.809  23.997  1.00  0.00     0.274 HD
ATOM     15  H22 UNL     1      68.799  82.775  25.540  1.00  0.00     0.274 HD
ATOM     16  H21 UNL     1      69.686  84.036  24.850  1.00  0.00     0.274 HD
ENDBRANCH   6  13
TORSDOF 3
ENDMDL
