MODEL 1
REMARK VINA RESULT: -4.307378560      0.000      0.000
REMARK  2 active torsions:
REMARK  status: ('A' for Active; 'I' for Inactive)
REMARK    1  A    between atoms: O1_2  and  C2_3 
REMARK    2  A    between atoms: C7_8  and  N1_9 
ROOT
HETATM    1  C2  UNL     1      70.646  81.066  32.527  1.00  0.00     0.151 C 
HETATM    2  C3  UNL     1      71.438  80.065  31.729  1.00  0.00     0.034 C 
HETATM    3  C4  UNL     1      70.533  78.868  31.472  1.00  0.00     0.003 C 
HETATM    4  C5  UNL     1      70.007  78.274  32.748  1.00  0.00     0.002 C 
HETATM    5  C6  UNL     1      69.309  79.355  33.582  1.00  0.00     0.035 C 
HETATM    6  C7  UNL     1      70.384  80.388  33.878  1.00  0.00     0.212 C 
ENDROOT
BRANCH   6   7
HETATM    7  N1  UNL     1      69.977  81.332  34.878  1.00  0.00    -0.073 N 
ATOM      8  H13 UNL     1      69.559  82.162  34.458  1.00  0.00     0.274 HD
ATOM      9  H12 UNL     1      69.169  80.995  35.401  1.00  0.00     0.274 HD
ATOM     10  H11 UNL     1      70.745  81.579  35.502  1.00  0.00     0.274 HD
ENDBRANCH   6   7
BRANCH   1  11
HETATM   11  O1  UNL     1      71.209  82.274  32.700  1.00  0.00    -0.389 OA
HETATM   12  C1  UNL     1      71.395  83.071  31.613  1.00  0.00     0.202 C 
ENDBRANCH   1  11
TORSDOF 2
ENDMDL
MODEL 2
REMARK VINA RESULT: -4.217482432      5.376      6.080
REMARK  2 active torsions:
REMARK  status: ('A' for Active; 'I' for Inactive)
REMARK    1  A    between atoms: O1_2  and  C2_3 
REMARK    2  A    between atoms: C7_8  and  N1_9 
ROOT
HETATM    1  C2  UNL     1      71.089  81.687  27.308  1.00  0.00     0.151 C 
HETATM    2  C3  UNL     1      71.223  81.833  25.815  1.00  0.00     0.034 C 
HETATM    3  C4  UNL     1      69.854  81.561  25.206  1.00  0.00     0.003 C 
HETATM    4  C5  UNL     1      69.325  80.208  25.589  1.00  0.00     0.002 C 
HETATM    5  C6  UNL     1      69.314  80.060  27.115  1.00  0.00     0.035 C 
HETATM    6  C7  UNL     1      70.767  80.205  27.541  1.00  0.00     0.212 C 
ENDROOT
BRANCH   6   7
HETATM    7  N1  UNL     1      70.979  79.821  28.907  1.00  0.00    -0.073 N 
ATOM      8  H13 UNL     1      71.372  80.588  29.451  1.00  0.00     0.274 HD
ATOM      9  H12 UNL     1      70.095  79.711  29.403  1.00  0.00     0.274 HD
ATOM     10  H11 UNL     1      71.554  78.982  28.980  1.00  0.00     0.274 HD
ENDBRANCH   6   7
BRANCH   1  11
HETATM   11  O1  UNL     1      72.146  82.067  28.044  1.00  0.00    -0.389 OA
HETATM   12  C1  UNL     1      73.091  82.861  27.472  1.00  0.00     0.202 C 
ENDBRANCH   1  11
TORSDOF 2
ENDMDL
MODEL 3
REMARK VINA RESULT: -4.163134794      5.562      6.373
REMARK  2 active torsions:
REMARK  status: ('A' for Active; 'I' for Inactive)
REMARK    1  A    between atoms: O1_2  and  C2_3 
REMARK    2  A    between atoms: C7_8  and  N1_9 
ROOT
HETATM    1  C2  UNL     1      69.541  80.410  26.777  1.00  0.00     0.151 C 
HETATM    2  C3  UNL     1      69.714  78.981  27.217  1.00  0.00     0.034 C 
HETATM    3  C4  UNL     1      69.980  78.996  28.717  1.00  0.00     0.003 C 
HETATM    4  C5  UNL     1      71.173  79.838  29.070  1.00  0.00     0.002 C 
HETATM    5  C6  UNL     1      71.005  81.252  28.503  1.00  0.00     0.035 C 
HETATM    6  C7  UNL     1      70.909  81.070  26.997  1.00  0.00     0.212 C 
ENDROOT
BRANCH   6   7
HETATM    7  N1  UNL     1      71.023  82.310  26.285  1.00  0.00    -0.073 N 
ATOM      8  H13 UNL     1      71.821  82.853  26.612  1.00  0.00     0.274 HD
ATOM      9  H12 UNL     1      71.316  82.159  25.321  1.00  0.00     0.274 HD
ATOM     10  H11 UNL     1      70.161  82.854  26.331  1.00  0.00     0.274 HD
ENDBRANCH   6   7
BRANCH   1  11
HETATM   11  O1  UNL     1      69.116  80.601  25.517  1.00  0.00    -0.389 OA
HETATM   12  C1  UNL     1      69.092  79.540  24.665  1.00  0.00     0.202 C 
ENDBRANCH   1  11
TORSDOF 2
ENDMDL
MODEL 4
REMARK VINA RESULT: -4.158909093      6.123      7.081
REMARK  2 active torsions:
REMARK  status: ('A' for Active; 'I' for Inactive)
REMARK    1  A    between atoms: O1_2  and  C2_3 
REMARK    2  A    between atoms: C7_8  and  N1_9 
ROOT
HETATM    1  C2  UNL     1      69.981  80.417  25.841  1.00  0.00     0.151 C 
HETATM    2  C3  UNL     1      70.059  81.914  25.704  1.00  0.00     0.034 C 
HETATM    3  C4  UNL     1      71.357  82.365  26.361  1.00  0.00     0.003 C 
HETATM    4  C5  UNL     1      71.443  81.931  27.797  1.00  0.00     0.002 C 
HETATM    5  C6  UNL     1      71.244  80.414  27.900  1.00  0.00     0.035 C 
HETATM    6  C7  UNL     1      69.851  80.156  27.348  1.00  0.00     0.212 C 
ENDROOT
BRANCH   6   7
HETATM    7  N1  UNL     1      69.391  78.824  27.620  1.00  0.00    -0.073 N 
ATOM      8  H13 UNL     1      68.660  78.822  28.331  1.00  0.00     0.274 HD
ATOM      9  H12 UNL     1      68.854  78.450  26.838  1.00  0.00     0.274 HD
ATOM     10  H11 UNL     1      70.159  78.203  27.875  1.00  0.00     0.274 HD
ENDBRANCH   6   7
BRANCH   1  11
HETATM   11  O1  UNL     1      68.997  79.804  25.163  1.00  0.00    -0.389 OA
HETATM   12  C1  UNL     1      69.211  79.462  23.864  1.00  0.00     0.202 C 
ENDBRANCH   1  11
TORSDOF 2
ENDMDL
MODEL 5
REMARK VINA RESULT: -4.154374610      4.701      5.518
REMARK  2 active torsions:
REMARK  status: ('A' for Active; 'I' for Inactive)
REMARK    1  A    between atoms: O1_2  and  C2_3 
REMARK    2  A    between atoms: C7_8  and  N1_9 
ROOT
HETATM    1  C2  UNL     1      70.773  81.250  28.272  1.00  0.00     0.151 C 
HETATM    2  C3  UNL     1      71.426  81.885  27.073  1.00  0.00     0.034 C 
HETATM    3  C4  UNL     1      70.398  81.903  25.950  1.00  0.00     0.003 C 
HETATM    4  C5  UNL     1      69.878  80.528  25.639  1.00  0.00     0.002 C 
HETATM    5  C6  UNL     1      69.326  79.874  26.912  1.00  0.00     0.035 C 
HETATM    6  C7  UNL     1      70.509  79.794  27.864  1.00  0.00     0.212 C 
ENDROOT
BRANCH   6   7
HETATM    7  N1  UNL     1      70.242  78.962  29.002  1.00  0.00    -0.073 N 
ATOM      8  H13 UNL     1      69.624  78.188  28.759  1.00  0.00     0.274 HD
ATOM      9  H12 UNL     1      71.067  78.428  29.273  1.00  0.00     0.274 HD
ATOM     10  H11 UNL     1      69.872  79.499  29.786  1.00  0.00     0.274 HD
ENDBRANCH   6   7
BRANCH   1  11
HETATM   11  O1  UNL     1      71.456  81.306  29.427  1.00  0.00    -0.389 OA
HETATM   12  C1  UNL     1      71.219  82.339  30.279  1.00  0.00     0.202 C 
ENDBRANCH   1  11
TORSDOF 2
ENDMDL
