MODEL 1
REMARK VINA RESULT: -5.950927027      0.000      0.000
REMARK  4 active torsions:
REMARK  status: ('A' for Active; 'I' for Inactive)
REMARK    1  A    between atoms: C1_2  and  C2_3 
REMARK    2  A    between atoms: C2_3  and  C3_4 
REMARK    3  A    between atoms: C3_4  and  N1_5 
REMARK    4  A    between atoms: N1_5  and  C4_7 
ROOT
HETATM    1  C4  UNL     1      -9.142 -32.164  16.884  1.00  0.00     0.100 A 
HETATM    2  C5  UNL     1      -9.969 -31.365  17.659  1.00  0.00     0.048 A 
HETATM    3  C6  UNL     1     -10.091 -31.592  19.015  1.00  0.00     0.005 A 
HETATM    4  C7  UNL     1      -9.403 -32.610  19.642  1.00  0.00     0.017 A 
HETATM    5  C8  UNL     1      -8.590 -33.383  18.838  1.00  0.00     0.089 A 
HETATM    6  N2  UNL     1      -8.481 -33.150  17.517  1.00  0.00    -0.353 N 
ATOM      7  H2  UNL     1      -7.867 -33.752  16.969  1.00  0.00     0.166 HD
ENDROOT
BRANCH   1   8
HETATM    8  N1  UNL     1      -9.055 -31.922  15.632  1.00  0.00    -0.376 N 
ATOM      9  H1  UNL     1      -9.926 -31.736  15.136  1.00  0.00     0.161 HD
BRANCH   8  10
HETATM   10  C3  UNL     1      -7.858 -31.888  14.866  1.00  0.00     0.123 C 
BRANCH  10  11
HETATM   11  C2  UNL     1      -7.929 -30.816  13.778  1.00  0.00     0.051 C 
BRANCH  11  12
HETATM   12  C1  UNL     1      -7.907 -29.447  14.420  1.00  0.00     0.224 C 
HETATM   13  F1  UNL     1      -7.825 -28.444  13.473  1.00  0.00    -0.255 F 
ENDBRANCH  11  12
ENDBRANCH  10  11
ENDBRANCH   8  10
ENDBRANCH   1   8
TORSDOF 4
ENDMDL
MODEL 2
REMARK VINA RESULT: -5.850790546      1.198      1.375
REMARK  4 active torsions:
REMARK  status: ('A' for Active; 'I' for Inactive)
REMARK    1  A    between atoms: C1_2  and  C2_3 
REMARK    2  A    between atoms: C2_3  and  C3_4 
REMARK    3  A    between atoms: C3_4  and  N1_5 
REMARK    4  A    between atoms: N1_5  and  C4_7 
ROOT
HETATM    1  C4  UNL     1      -9.338 -32.248  17.013  1.00  0.00     0.100 A 
HETATM    2  C5  UNL     1     -10.137 -31.499  17.863  1.00  0.00     0.048 A 
HETATM    3  C6  UNL     1     -10.127 -31.735  19.223  1.00  0.00     0.005 A 
HETATM    4  C7  UNL     1      -9.330 -32.714  19.780  1.00  0.00     0.017 A 
HETATM    5  C8  UNL     1      -8.548 -33.438  18.903  1.00  0.00     0.089 A 
HETATM    6  N2  UNL     1      -8.569 -33.197  17.579  1.00  0.00    -0.353 N 
ATOM      7  H2  UNL     1      -7.973 -33.762  16.974  1.00  0.00     0.166 HD
ENDROOT
BRANCH   1   8
HETATM    8  N1  UNL     1      -9.375 -31.999  15.760  1.00  0.00    -0.376 N 
ATOM      9  H1  UNL     1      -9.675 -32.756  15.147  1.00  0.00     0.161 HD
BRANCH   8  10
HETATM   10  C3  UNL     1      -9.036 -30.764  15.141  1.00  0.00     0.123 C 
BRANCH  10  11
HETATM   11  C2  UNL     1      -7.557 -30.728  14.755  1.00  0.00     0.051 C 
BRANCH  11  12
HETATM   12  C1  UNL     1      -7.285 -31.787  13.710  1.00  0.00     0.224 C 
HETATM   13  F1  UNL     1      -7.907 -31.489  12.512  1.00  0.00    -0.255 F 
ENDBRANCH  11  12
ENDBRANCH  10  11
ENDBRANCH   8  10
ENDBRANCH   1   8
TORSDOF 4
ENDMDL
MODEL 3
REMARK VINA RESULT: -5.828868059      0.829      1.414
REMARK  4 active torsions:
REMARK  status: ('A' for Active; 'I' for Inactive)
REMARK    1  A    between atoms: C1_2  and  C2_3 
REMARK    2  A    between atoms: C2_3  and  C3_4 
REMARK    3  A    between atoms: C3_4  and  N1_5 
REMARK    4  A    between atoms: N1_5  and  C4_7 
ROOT
HETATM    1  C4  UNL     1      -9.244 -31.958  16.871  1.00  0.00     0.100 A 
HETATM    2  C5  UNL     1      -8.508 -33.023  17.369  1.00  0.00     0.048 A 
HETATM    3  C6  UNL     1      -8.582 -33.360  18.705  1.00  0.00     0.005 A 
HETATM    4  C7  UNL     1      -9.382 -32.659  19.584  1.00  0.00     0.017 A 
HETATM    5  C8  UNL     1     -10.099 -31.607  19.051  1.00  0.00     0.089 A 
HETATM    6  N2  UNL     1     -10.017 -31.289  17.746  1.00  0.00    -0.353 N 
ATOM      7  H2  UNL     1     -10.568 -30.502  17.404  1.00  0.00     0.166 HD
ENDROOT
BRANCH   1   8
HETATM    8  N1  UNL     1      -9.149 -31.678  15.627  1.00  0.00    -0.376 N 
ATOM      9  H1  UNL     1      -9.985 -31.313  15.171  1.00  0.00     0.161 HD
BRANCH   8  10
HETATM   10  C3  UNL     1      -7.988 -31.827  14.821  1.00  0.00     0.123 C 
BRANCH  10  11
HETATM   11  C2  UNL     1      -7.935 -30.760  13.727  1.00  0.00     0.051 C 
BRANCH  11  12
HETATM   12  C1  UNL     1      -7.868 -29.390  14.365  1.00  0.00     0.224 C 
HETATM   13  F1  UNL     1      -7.799 -28.390  13.414  1.00  0.00    -0.255 F 
ENDBRANCH  11  12
ENDBRANCH  10  11
ENDBRANCH   8  10
ENDBRANCH   1   8
TORSDOF 4
ENDMDL
MODEL 4
REMARK VINA RESULT: -5.787444575      0.938      1.106
REMARK  4 active torsions:
REMARK  status: ('A' for Active; 'I' for Inactive)
REMARK    1  A    between atoms: C1_2  and  C2_3 
REMARK    2  A    between atoms: C2_3  and  C3_4 
REMARK    3  A    between atoms: C3_4  and  N1_5 
REMARK    4  A    between atoms: N1_5  and  C4_7 
ROOT
HETATM    1  C4  UNL     1      -8.893 -32.269  16.533  1.00  0.00     0.100 A 
HETATM    2  C5  UNL     1     -10.261 -32.044  16.556  1.00  0.00     0.048 A 
HETATM    3  C6  UNL     1     -10.875 -31.583  17.703  1.00  0.00     0.005 A 
HETATM    4  C7  UNL     1     -10.158 -31.333  18.855  1.00  0.00     0.017 A 
HETATM    5  C8  UNL     1      -8.800 -31.568  18.793  1.00  0.00     0.089 A 
HETATM    6  N2  UNL     1      -8.215 -32.018  17.668  1.00  0.00    -0.353 N 
ATOM      7  H2  UNL     1      -7.207 -32.176  17.676  1.00  0.00     0.166 HD
ENDROOT
BRANCH   1   8
HETATM    8  N1  UNL     1      -8.361 -32.695  15.451  1.00  0.00    -0.376 N 
ATOM      9  H1  UNL     1      -8.633 -33.627  15.138  1.00  0.00     0.161 HD
BRANCH   8  10
HETATM   10  C3  UNL     1      -7.424 -31.993  14.645  1.00  0.00     0.123 C 
BRANCH  10  11
HETATM   11  C2  UNL     1      -8.094 -30.838  13.899  1.00  0.00     0.051 C 
BRANCH  11  12
HETATM   12  C1  UNL     1      -7.453 -29.533  14.315  1.00  0.00     0.224 C 
HETATM   13  F1  UNL     1      -7.838 -28.493  13.492  1.00  0.00    -0.255 F 
ENDBRANCH  11  12
ENDBRANCH  10  11
ENDBRANCH   8  10
ENDBRANCH   1   8
TORSDOF 4
ENDMDL
MODEL 5
REMARK VINA RESULT: -5.736411034      1.025      1.518
REMARK  4 active torsions:
REMARK  status: ('A' for Active; 'I' for Inactive)
REMARK    1  A    between atoms: C1_2  and  C2_3 
REMARK    2  A    between atoms: C2_3  and  C3_4 
REMARK    3  A    between atoms: C3_4  and  N1_5 
REMARK    4  A    between atoms: N1_5  and  C4_7 
ROOT
HETATM    1  C4  UNL     1      -8.964 -32.337  16.547  1.00  0.00     0.100 A 
HETATM    2  C5  UNL     1      -8.231 -32.207  17.717  1.00  0.00     0.048 A 
HETATM    3  C6  UNL     1      -8.826 -31.729  18.867  1.00  0.00     0.005 A 
HETATM    4  C7  UNL     1     -10.158 -31.367  18.894  1.00  0.00     0.017 A 
HETATM    5  C8  UNL     1     -10.854 -31.510  17.710  1.00  0.00     0.089 A 
HETATM    6  N2  UNL     1     -10.259 -31.977  16.597  1.00  0.00    -0.353 N 
ATOM      7  H2  UNL     1     -10.819 -32.063  15.749  1.00  0.00     0.166 HD
ENDROOT
BRANCH   1   8
HETATM    8  N1  UNL     1      -8.376 -32.784  15.504  1.00  0.00    -0.376 N 
ATOM      9  H1  UNL     1      -8.608 -33.734  15.214  1.00  0.00     0.161 HD
BRANCH   8  10
HETATM   10  C3  UNL     1      -7.429 -32.081  14.709  1.00  0.00     0.123 C 
BRANCH  10  11
HETATM   11  C2  UNL     1      -8.092 -30.931  13.950  1.00  0.00     0.051 C 
BRANCH  11  12
HETATM   12  C1  UNL     1      -7.429 -29.628  14.337  1.00  0.00     0.224 C 
HETATM   13  F1  UNL     1      -7.813 -28.596  13.502  1.00  0.00    -0.255 F 
ENDBRANCH  11  12
ENDBRANCH  10  11
ENDBRANCH   8  10
ENDBRANCH   1   8
TORSDOF 4
ENDMDL
