MODEL 1
REMARK VINA RESULT: -6.086624357      0.000      0.000
REMARK  3 active torsions:
REMARK  status: ('A' for Active; 'I' for Inactive)
REMARK    1  A    between atoms: C3_4  and  O1_5 
REMARK    2  A    between atoms: O1_5  and  C4_6 
REMARK    3  A    between atoms: C4_6  and  C5_7 
ROOT
HETATM    1  F1  UNL     1      -7.816 -28.206  13.468  1.00  0.00    -0.186 F 
HETATM    2  C1  UNL     1      -7.802 -29.419  14.098  1.00  0.00     0.190 A 
HETATM    3  C2  UNL     1      -8.915 -30.153  14.455  1.00  0.00     0.099 A 
HETATM    4  C3  UNL     1      -8.455 -31.302  15.061  1.00  0.00     0.088 A 
HETATM    5  C8  UNL     1      -7.078 -31.239  15.057  1.00  0.00     0.127 A 
HETATM    6  N1  UNL     1      -6.698 -30.091  14.470  1.00  0.00    -0.340 N 
ATOM      7  H1  UNL     1      -5.736 -29.782  14.330  1.00  0.00     0.167 HD
ENDROOT
BRANCH   4   8
HETATM    8  O1  UNL     1      -9.202 -32.346  15.586  1.00  0.00    -0.349 OA
BRANCH   8   9
HETATM    9  C4  UNL     1      -8.811 -33.181  16.628  1.00  0.00     0.180 C 
BRANCH   9  10
HETATM   10  C5  UNL     1      -9.084 -32.590  17.994  1.00  0.00     0.010 A 
HETATM   11  C6  UNL     1      -8.578 -33.370  19.194  1.00  0.00     0.007 A 
HETATM   12  C7  UNL     1      -7.804 -32.174  18.759  1.00  0.00     0.007 A 
ENDBRANCH   9  10
ENDBRANCH   8   9
ENDBRANCH   4   8
TORSDOF 3
ENDMDL
MODEL 2
REMARK VINA RESULT: -6.028573028      3.626      5.369
REMARK  3 active torsions:
REMARK  status: ('A' for Active; 'I' for Inactive)
REMARK    1  A    between atoms: C3_4  and  O1_5 
REMARK    2  A    between atoms: O1_5  and  C4_6 
REMARK    3  A    between atoms: C4_6  and  C5_7 
ROOT
HETATM    1  F1  UNL     1     -10.395 -33.041  21.139  1.00  0.00    -0.186 F 
HETATM    2  C1  UNL     1      -9.771 -32.810  19.945  1.00  0.00     0.190 A 
HETATM    3  C2  UNL     1     -10.041 -31.765  19.084  1.00  0.00     0.099 A 
HETATM    4  C3  UNL     1      -9.192 -31.908  18.009  1.00  0.00     0.088 A 
HETATM    5  C8  UNL     1      -8.429 -33.032  18.241  1.00  0.00     0.127 A 
HETATM    6  N1  UNL     1      -8.792 -33.568  19.419  1.00  0.00    -0.340 N 
ATOM      7  H1  UNL     1      -8.394 -34.407  19.842  1.00  0.00     0.167 HD
ENDROOT
BRANCH   4   8
HETATM    8  O1  UNL     1      -9.093 -31.096  16.888  1.00  0.00    -0.349 OA
BRANCH   8   9
HETATM    9  C4  UNL     1      -9.105 -31.531  15.567  1.00  0.00     0.180 C 
BRANCH   9  10
HETATM   10  C5  UNL     1      -8.643 -30.470  14.590  1.00  0.00     0.010 A 
HETATM   11  C6  UNL     1      -7.147 -30.247  14.474  1.00  0.00     0.007 A 
HETATM   12  C7  UNL     1      -7.824 -31.031  13.403  1.00  0.00     0.007 A 
ENDBRANCH   9  10
ENDBRANCH   8   9
ENDBRANCH   4   8
TORSDOF 3
ENDMDL
MODEL 3
REMARK VINA RESULT: -5.990322771      0.965      1.210
REMARK  3 active torsions:
REMARK  status: ('A' for Active; 'I' for Inactive)
REMARK    1  A    between atoms: C3_4  and  O1_5 
REMARK    2  A    between atoms: O1_5  and  C4_6 
REMARK    3  A    between atoms: C4_6  and  C5_7 
ROOT
HETATM    1  F1  UNL     1      -7.779 -28.198  13.504  1.00  0.00    -0.186 F 
HETATM    2  C1  UNL     1      -7.801 -29.431  14.096  1.00  0.00     0.190 A 
HETATM    3  C2  UNL     1      -8.935 -30.124  14.469  1.00  0.00     0.099 A 
HETATM    4  C3  UNL     1      -8.509 -31.311  15.023  1.00  0.00     0.088 A 
HETATM    5  C8  UNL     1      -7.132 -31.311  14.973  1.00  0.00     0.127 A 
HETATM    6  N1  UNL     1      -6.718 -30.164  14.409  1.00  0.00    -0.340 N 
ATOM      7  H1  UNL     1      -5.747 -29.895  14.246  1.00  0.00     0.167 HD
ENDROOT
BRANCH   4   8
HETATM    8  O1  UNL     1      -9.287 -32.337  15.541  1.00  0.00    -0.349 OA
BRANCH   8   9
HETATM    9  C4  UNL     1     -10.044 -32.272  16.707  1.00  0.00     0.180 C 
BRANCH   9  10
HETATM   10  C5  UNL     1      -9.283 -31.679  17.874  1.00  0.00     0.010 A 
HETATM   11  C6  UNL     1     -10.074 -30.824  18.846  1.00  0.00     0.007 A 
HETATM   12  C7  UNL     1      -9.738 -32.217  19.251  1.00  0.00     0.007 A 
ENDBRANCH   9  10
ENDBRANCH   8   9
ENDBRANCH   4   8
TORSDOF 3
ENDMDL
MODEL 4
REMARK VINA RESULT: -5.979844786      1.075      1.279
REMARK  3 active torsions:
REMARK  status: ('A' for Active; 'I' for Inactive)
REMARK    1  A    between atoms: C3_4  and  O1_5 
REMARK    2  A    between atoms: O1_5  and  C4_6 
REMARK    3  A    between atoms: C4_6  and  C5_7 
ROOT
HETATM    1  F1  UNL     1      -7.873 -28.939  13.632  1.00  0.00    -0.186 F 
HETATM    2  C1  UNL     1      -7.947 -30.179  14.202  1.00  0.00     0.190 A 
HETATM    3  C2  UNL     1      -8.824 -30.555  15.200  1.00  0.00     0.099 A 
HETATM    4  C3  UNL     1      -8.563 -31.879  15.479  1.00  0.00     0.088 A 
HETATM    5  C8  UNL     1      -7.537 -32.274  14.648  1.00  0.00     0.127 A 
HETATM    6  N1  UNL     1      -7.175 -31.232  13.880  1.00  0.00    -0.340 N 
ATOM      7  H1  UNL     1      -6.439 -31.239  13.173  1.00  0.00     0.167 HD
ENDROOT
BRANCH   4   8
HETATM    8  O1  UNL     1      -9.191 -32.693  16.411  1.00  0.00    -0.349 OA
BRANCH   8   9
HETATM    9  C4  UNL     1      -8.603 -33.216  17.559  1.00  0.00     0.180 C 
BRANCH   9  10
HETATM   10  C5  UNL     1      -8.636 -32.257  18.730  1.00  0.00     0.010 A 
HETATM   11  C6  UNL     1      -9.968 -31.600  19.043  1.00  0.00     0.007 A 
HETATM   12  C7  UNL     1      -9.529 -32.736  19.901  1.00  0.00     0.007 A 
ENDBRANCH   9  10
ENDBRANCH   8   9
ENDBRANCH   4   8
TORSDOF 3
ENDMDL
MODEL 5
REMARK VINA RESULT: -5.864800376      1.280      1.413
REMARK  3 active torsions:
REMARK  status: ('A' for Active; 'I' for Inactive)
REMARK    1  A    between atoms: C3_4  and  O1_5 
REMARK    2  A    between atoms: O1_5  and  C4_6 
REMARK    3  A    between atoms: C4_6  and  C5_7 
ROOT
HETATM    1  F1  UNL     1      -7.584 -28.829  13.441  1.00  0.00    -0.186 F 
HETATM    2  C1  UNL     1      -7.815 -30.036  14.041  1.00  0.00     0.190 A 
HETATM    3  C2  UNL     1      -8.868 -30.327  14.884  1.00  0.00     0.099 A 
HETATM    4  C3  UNL     1      -8.721 -31.644  15.260  1.00  0.00     0.088 A 
HETATM    5  C8  UNL     1      -7.587 -32.120  14.638  1.00  0.00     0.127 A 
HETATM    6  N1  UNL     1      -7.049 -31.132  13.903  1.00  0.00    -0.340 N 
ATOM      7  H1  UNL     1      -6.203 -31.203  13.337  1.00  0.00     0.167 HD
ENDROOT
BRANCH   4   8
HETATM    8  O1  UNL     1      -9.539 -32.386  16.101  1.00  0.00    -0.349 OA
BRANCH   8   9
HETATM    9  C4  UNL     1     -10.608 -31.889  16.840  1.00  0.00     0.180 C 
BRANCH   9  10
HETATM   10  C5  UNL     1     -10.321 -31.822  18.325  1.00  0.00     0.010 A 
HETATM   11  C6  UNL     1      -8.876 -31.606  18.736  1.00  0.00     0.007 A 
HETATM   12  C7  UNL     1      -9.804 -30.442  18.797  1.00  0.00     0.007 A 
ENDBRANCH   9  10
ENDBRANCH   8   9
ENDBRANCH   4   8
TORSDOF 3
ENDMDL
