MODEL 1
REMARK VINA RESULT: -6.863900363      0.000      0.000
REMARK  8 active torsions:
REMARK  status: ('A' for Active; 'I' for Inactive)
REMARK       I    between atoms: N1_3  and  C3_5 
REMARK       I    between atoms: C3_5  and  N4_15 
REMARK    1  A    between atoms: N2_6  and  C4_8 
REMARK    2  A    between atoms: C4_8  and  C5_9 
REMARK    3  A    between atoms: C5_9  and  N3_10 
REMARK    4  A    between atoms: N3_10  and  C6_11 
REMARK    5  A    between atoms: N3_10  and  C8_13 
REMARK    6  A    between atoms: N4_15  and  C10_17 
REMARK    7  A    between atoms: N5_21  and  C14_22 
REMARK    8  A    between atoms: C16_24  and  O1_25 
ROOT
HETATM    1  C1  UNL     1      -7.846  25.184  52.578  1.00  0.00     0.037 C 
HETATM    2  C2  UNL     1      -6.698  24.947  52.845  1.00  0.00     0.015 C 
HETATM    3  N1  UNL     1      -5.372  24.647  53.164  1.00  0.00    -0.150 N 
ATOM      4  H1  UNL     1      -5.145  23.739  53.570  1.00  0.00     0.195 HD
HETATM    5  C3  UNL     1      -4.339  25.587  52.931  1.00  0.00     0.681 C 
HETATM    6  N2  UNL     1      -3.365  25.279  52.192  1.00  0.00    -0.224 N 
ATOM      7  H2  UNL     1      -3.385  24.339  51.796  1.00  0.00     0.177 HD
HETATM    8  N4  UNL     1      -4.427  26.861  53.543  1.00  0.00    -0.217 N 
ATOM      9  H4  UNL     1      -4.278  27.712  53.001  1.00  0.00     0.178 HD
ENDROOT
BRANCH   6  10
HETATM   10  C4  UNL     1      -2.228  26.084  51.836  1.00  0.00     0.158 C 
BRANCH  10  11
HETATM   11  C5  UNL     1      -1.209  26.125  52.936  1.00  0.00     0.142 C 
BRANCH  11  12
HETATM   12  N3  UNL     1      -0.133  25.243  52.694  1.00  0.00    -0.393 N 
BRANCH  12  13
HETATM   13  C6  UNL     1       0.199  24.320  53.687  1.00  0.00     0.054 C 
HETATM   14  C7  UNL     1      -0.455  24.667  55.000  1.00  0.00     0.054 C 
ENDBRANCH  12  13
BRANCH  12  15
HETATM   15  C8  UNL     1       0.889  25.714  51.838  1.00  0.00     0.117 C 
HETATM   16  C9  UNL     1       2.105  24.811  52.022  1.00  0.00     0.026 C 
ENDBRANCH  12  15
ENDBRANCH  11  12
ENDBRANCH  10  11
ENDBRANCH   6  10
BRANCH   8  17
HETATM   17  C10 UNL     1      -4.735  26.926  54.961  1.00  0.00     0.148 C 
HETATM   18  C11 UNL     1      -3.862  26.043  55.791  1.00  0.00     0.035 C 
HETATM   19  C12 UNL     1      -2.975  26.888  56.708  1.00  0.00     0.047 C 
HETATM   20  C13 UNL     1      -3.924  27.616  57.649  1.00  0.00     0.066 C 
HETATM   21  N5  UNL     1      -4.875  28.305  56.875  1.00  0.00    -0.346 N 
HETATM   22  C16 UNL     1      -4.710  28.354  55.474  1.00  0.00     0.246 C 
BRANCH  21  23
HETATM   23  C14 UNL     1      -5.815  29.134  57.503  1.00  0.00     0.061 C 
HETATM   24  C15 UNL     1      -6.155  28.759  58.917  1.00  0.00     0.055 C 
ENDBRANCH  21  23
BRANCH  22  25
HETATM   25  O1  UNL     1      -5.830  28.983  54.908  1.00  0.00    -0.374 OA
ATOM     26  H1  UNL     1      -6.138  29.601  55.561  1.00  0.00     0.212 HD
ENDBRANCH  22  25
ENDBRANCH   8  17
TORSDOF 8
ENDMDL
MODEL 2
REMARK VINA RESULT: -6.733306952      0.853      1.615
REMARK  8 active torsions:
REMARK  status: ('A' for Active; 'I' for Inactive)
REMARK       I    between atoms: N1_3  and  C3_5 
REMARK       I    between atoms: C3_5  and  N4_15 
REMARK    1  A    between atoms: N2_6  and  C4_8 
REMARK    2  A    between atoms: C4_8  and  C5_9 
REMARK    3  A    between atoms: C5_9  and  N3_10 
REMARK    4  A    between atoms: N3_10  and  C6_11 
REMARK    5  A    between atoms: N3_10  and  C8_13 
REMARK    6  A    between atoms: N4_15  and  C10_17 
REMARK    7  A    between atoms: N5_21  and  C14_22 
REMARK    8  A    between atoms: C16_24  and  O1_25 
ROOT
HETATM    1  C1  UNL     1      -7.364  25.304  52.259  1.00  0.00     0.037 C 
HETATM    2  C2  UNL     1      -6.240  25.067  52.614  1.00  0.00     0.015 C 
HETATM    3  N1  UNL     1      -4.942  24.765  53.033  1.00  0.00    -0.150 N 
ATOM      4  H1  UNL     1      -4.739  23.843  53.419  1.00  0.00     0.195 HD
HETATM    5  C3  UNL     1      -3.905  25.723  52.928  1.00  0.00     0.681 C 
HETATM    6  N2  UNL     1      -2.867  25.456  52.264  1.00  0.00    -0.224 N 
ATOM      7  H2  UNL     1      -2.842  24.533  51.829  1.00  0.00     0.177 HD
HETATM    8  N4  UNL     1      -4.061  26.969  53.583  1.00  0.00    -0.217 N 
ATOM      9  H4  UNL     1      -3.876  27.844  53.091  1.00  0.00     0.178 HD
ENDROOT
BRANCH   6  10
HETATM   10  C4  UNL     1      -1.714  26.285  52.041  1.00  0.00     0.158 C 
BRANCH  10  11
HETATM   11  C5  UNL     1      -0.471  25.677  52.621  1.00  0.00     0.142 C 
BRANCH  11  12
HETATM   12  N3  UNL     1       0.687  26.057  51.905  1.00  0.00    -0.393 N 
BRANCH  12  13
HETATM   13  C6  UNL     1       0.529  26.859  50.774  1.00  0.00     0.054 C 
HETATM   14  C7  UNL     1       1.082  26.186  49.543  1.00  0.00     0.054 C 
ENDBRANCH  12  13
BRANCH  12  15
HETATM   15  C8  UNL     1       1.780  25.162  51.955  1.00  0.00     0.117 C 
HETATM   16  C9  UNL     1       1.244  23.793  52.364  1.00  0.00     0.026 C 
ENDBRANCH  12  15
ENDBRANCH  11  12
ENDBRANCH  10  11
ENDBRANCH   6  10
BRANCH   8  17
HETATM   17  C10 UNL     1      -4.490  26.973  54.970  1.00  0.00     0.148 C 
HETATM   18  C11 UNL     1      -3.650  26.100  55.844  1.00  0.00     0.035 C 
HETATM   19  C12 UNL     1      -2.883  26.949  56.860  1.00  0.00     0.047 C 
HETATM   20  C13 UNL     1      -3.940  27.603  57.738  1.00  0.00     0.066 C 
HETATM   21  N5  UNL     1      -4.853  28.277  56.908  1.00  0.00    -0.346 N 
HETATM   22  C16 UNL     1      -4.573  28.382  55.527  1.00  0.00     0.246 C 
BRANCH  21  23
HETATM   23  C14 UNL     1      -5.880  29.042  57.477  1.00  0.00     0.061 C 
HETATM   24  C15 UNL     1      -6.159  28.759  58.926  1.00  0.00     0.055 C 
ENDBRANCH  21  23
BRANCH  22  25
HETATM   25  O1  UNL     1      -5.669  28.981  54.888  1.00  0.00    -0.374 OA
ATOM     26  H1  UNL     1      -5.394  29.136  53.992  1.00  0.00     0.212 HD
ENDBRANCH  22  25
ENDBRANCH   8  17
TORSDOF 8
ENDMDL
MODEL 3
REMARK VINA RESULT: -6.686784749      2.057      5.899
REMARK  8 active torsions:
REMARK  status: ('A' for Active; 'I' for Inactive)
REMARK       I    between atoms: N1_3  and  C3_5 
REMARK       I    between atoms: C3_5  and  N4_15 
REMARK    1  A    between atoms: N2_6  and  C4_8 
REMARK    2  A    between atoms: C4_8  and  C5_9 
REMARK    3  A    between atoms: C5_9  and  N3_10 
REMARK    4  A    between atoms: N3_10  and  C6_11 
REMARK    5  A    between atoms: N3_10  and  C8_13 
REMARK    6  A    between atoms: N4_15  and  C10_17 
REMARK    7  A    between atoms: N5_21  and  C14_22 
REMARK    8  A    between atoms: C16_24  and  O1_25 
ROOT
HETATM    1  C1  UNL     1      -8.402  24.000  51.702  1.00  0.00     0.037 C 
HETATM    2  C2  UNL     1      -8.129  25.078  52.160  1.00  0.00     0.015 C 
HETATM    3  N1  UNL     1      -7.820  26.342  52.667  1.00  0.00    -0.150 N 
ATOM      4  H1  UNL     1      -7.921  27.163  52.070  1.00  0.00     0.195 HD
HETATM    5  C3  UNL     1      -7.366  26.498  53.999  1.00  0.00     0.681 C 
HETATM    6  N2  UNL     1      -8.000  27.243  54.795  1.00  0.00    -0.224 N 
ATOM      7  H2  UNL     1      -8.828  27.701  54.413  1.00  0.00     0.177 HD
HETATM    8  N4  UNL     1      -6.198  25.808  54.406  1.00  0.00    -0.217 N 
ATOM      9  H4  UNL     1      -6.183  25.274  55.275  1.00  0.00     0.178 HD
ENDROOT
BRANCH   6  10
HETATM   10  C4  UNL     1      -7.705  27.529  56.172  1.00  0.00     0.158 C 
BRANCH  10  11
HETATM   11  C5  UNL     1      -6.928  28.804  56.321  1.00  0.00     0.142 C 
BRANCH  11  12
HETATM   12  N3  UNL     1      -5.822  28.652  57.187  1.00  0.00    -0.393 N 
BRANCH  12  13
HETATM   13  C6  UNL     1      -5.797  29.401  58.364  1.00  0.00     0.054 C 
HETATM   14  C7  UNL     1      -6.700  28.806  59.414  1.00  0.00     0.054 C 
ENDBRANCH  12  13
BRANCH  12  15
HETATM   15  C8  UNL     1      -4.593  28.296  56.584  1.00  0.00     0.117 C 
HETATM   16  C9  UNL     1      -3.748  27.581  57.635  1.00  0.00     0.026 C 
ENDBRANCH  12  15
ENDBRANCH  11  12
ENDBRANCH  10  11
ENDBRANCH   6  10
BRANCH   8  17
HETATM   17  C10 UNL     1      -5.022  25.879  53.557  1.00  0.00     0.148 C 
HETATM   18  C11 UNL     1      -4.965  27.129  52.741  1.00  0.00     0.035 C 
HETATM   19  C12 UNL     1      -3.780  27.993  53.179  1.00  0.00     0.047 C 
HETATM   20  C13 UNL     1      -2.534  27.179  52.866  1.00  0.00     0.066 C 
HETATM   21  N5  UNL     1      -2.660  25.920  53.478  1.00  0.00    -0.346 N 
HETATM   22  C16 UNL     1      -3.744  25.690  54.353  1.00  0.00     0.246 C 
BRANCH  21  23
HETATM   23  C14 UNL     1      -1.599  25.006  53.418  1.00  0.00     0.061 C 
HETATM   24  C15 UNL     1      -0.343  25.526  52.781  1.00  0.00     0.055 C 
ENDBRANCH  21  23
BRANCH  22  25
HETATM   25  O1  UNL     1      -3.734  24.342  54.744  1.00  0.00    -0.374 OA
ATOM     26  H1  UNL     1      -3.499  24.341  55.664  1.00  0.00     0.212 HD
ENDBRANCH  22  25
ENDBRANCH   8  17
TORSDOF 8
ENDMDL
MODEL 4
REMARK VINA RESULT: -6.665057092      2.107      6.008
REMARK  8 active torsions:
REMARK  status: ('A' for Active; 'I' for Inactive)
REMARK       I    between atoms: N1_3  and  C3_5 
REMARK       I    between atoms: C3_5  and  N4_15 
REMARK    1  A    between atoms: N2_6  and  C4_8 
REMARK    2  A    between atoms: C4_8  and  C5_9 
REMARK    3  A    between atoms: C5_9  and  N3_10 
REMARK    4  A    between atoms: N3_10  and  C6_11 
REMARK    5  A    between atoms: N3_10  and  C8_13 
REMARK    6  A    between atoms: N4_15  and  C10_17 
REMARK    7  A    between atoms: N5_21  and  C14_22 
REMARK    8  A    between atoms: C16_24  and  O1_25 
ROOT
HETATM    1  C1  UNL     1      -8.425  23.944  51.671  1.00  0.00     0.037 C 
HETATM    2  C2  UNL     1      -8.195  25.047  52.092  1.00  0.00     0.015 C 
HETATM    3  N1  UNL     1      -7.935  26.338  52.556  1.00  0.00    -0.150 N 
ATOM      4  H1  UNL     1      -8.040  27.131  51.923  1.00  0.00     0.195 HD
HETATM    5  C3  UNL     1      -7.527  26.560  53.894  1.00  0.00     0.681 C 
HETATM    6  N2  UNL     1      -8.204  27.318  54.640  1.00  0.00    -0.224 N 
ATOM      7  H2  UNL     1      -9.032  27.737  54.214  1.00  0.00     0.177 HD
HETATM    8  N4  UNL     1      -6.355  25.919  54.363  1.00  0.00    -0.217 N 
ATOM      9  H4  UNL     1      -6.352  25.420  55.253  1.00  0.00     0.178 HD
ENDROOT
BRANCH   6  10
HETATM   10  C4  UNL     1      -7.959  27.668  56.012  1.00  0.00     0.158 C 
BRANCH  10  11
HETATM   11  C5  UNL     1      -6.990  28.806  56.132  1.00  0.00     0.142 C 
BRANCH  11  12
HETATM   12  N3  UNL     1      -5.986  28.548  57.091  1.00  0.00    -0.393 N 
BRANCH  12  13
HETATM   13  C6  UNL     1      -4.666  28.439  56.652  1.00  0.00     0.054 C 
HETATM   14  C7  UNL     1      -3.823  27.663  57.632  1.00  0.00     0.054 C 
ENDBRANCH  12  13
BRANCH  12  15
HETATM   15  C8  UNL     1      -6.381  27.820  58.237  1.00  0.00     0.117 C 
HETATM   16  C9  UNL     1      -6.764  28.825  59.320  1.00  0.00     0.026 C 
ENDBRANCH  12  15
ENDBRANCH  11  12
ENDBRANCH  10  11
ENDBRANCH   6  10
BRANCH   8  17
HETATM   17  C10 UNL     1      -5.155  25.988  53.547  1.00  0.00     0.148 C 
HETATM   18  C11 UNL     1      -5.054  27.255  52.762  1.00  0.00     0.035 C 
HETATM   19  C12 UNL     1      -3.867  28.088  53.251  1.00  0.00     0.047 C 
HETATM   20  C13 UNL     1      -2.627  27.259  52.953  1.00  0.00     0.066 C 
HETATM   21  N5  UNL     1      -2.792  25.988  53.531  1.00  0.00    -0.346 N 
HETATM   22  C16 UNL     1      -3.903  25.758  54.372  1.00  0.00     0.246 C 
BRANCH  21  23
HETATM   23  C14 UNL     1      -1.745  25.057  53.478  1.00  0.00     0.061 C 
HETATM   24  C15 UNL     1      -0.504  25.529  52.776  1.00  0.00     0.055 C 
ENDBRANCH  21  23
BRANCH  22  25
HETATM   25  O1  UNL     1      -3.926  24.402  54.731  1.00  0.00    -0.374 OA
ATOM     26  H1  UNL     1      -3.233  24.292  55.371  1.00  0.00     0.212 HD
ENDBRANCH  22  25
ENDBRANCH   8  17
TORSDOF 8
ENDMDL
MODEL 5
REMARK VINA RESULT: -6.588685967      1.451      2.177
REMARK  8 active torsions:
REMARK  status: ('A' for Active; 'I' for Inactive)
REMARK       I    between atoms: N1_3  and  C3_5 
REMARK       I    between atoms: C3_5  and  N4_15 
REMARK    1  A    between atoms: N2_6  and  C4_8 
REMARK    2  A    between atoms: C4_8  and  C5_9 
REMARK    3  A    between atoms: C5_9  and  N3_10 
REMARK    4  A    between atoms: N3_10  and  C6_11 
REMARK    5  A    between atoms: N3_10  and  C8_13 
REMARK    6  A    between atoms: N4_15  and  C10_17 
REMARK    7  A    between atoms: N5_21  and  C14_22 
REMARK    8  A    between atoms: C16_24  and  O1_25 
ROOT
HETATM    1  C1  UNL     1      -7.267  25.306  52.170  1.00  0.00     0.037 C 
HETATM    2  C2  UNL     1      -6.151  25.077  52.553  1.00  0.00     0.015 C 
HETATM    3  N1  UNL     1      -4.862  24.784  53.005  1.00  0.00    -0.150 N 
ATOM      4  H1  UNL     1      -4.662  23.864  53.397  1.00  0.00     0.195 HD
HETATM    5  C3  UNL     1      -3.829  25.750  52.927  1.00  0.00     0.681 C 
HETATM    6  N2  UNL     1      -2.773  25.490  52.289  1.00  0.00    -0.224 N 
ATOM      7  H2  UNL     1      -2.730  24.567  51.855  1.00  0.00     0.177 HD
HETATM    8  N4  UNL     1      -4.011  26.995  53.576  1.00  0.00    -0.217 N 
ATOM      9  H4  UNL     1      -3.820  27.871  53.090  1.00  0.00     0.178 HD
ENDROOT
BRANCH   6  10
HETATM   10  C4  UNL     1      -1.621  26.327  52.094  1.00  0.00     0.158 C 
BRANCH  10  11
HETATM   11  C5  UNL     1      -1.496  26.779  50.669  1.00  0.00     0.142 C 
BRANCH  11  12
HETATM   12  N3  UNL     1      -0.220  27.320  50.395  1.00  0.00    -0.393 N 
BRANCH  12  13
HETATM   13  C6  UNL     1       0.783  26.454  49.958  1.00  0.00     0.054 C 
HETATM   14  C7  UNL     1       1.953  26.442  50.911  1.00  0.00     0.054 C 
ENDBRANCH  12  13
BRANCH  12  15
HETATM   15  C8  UNL     1       0.150  28.468  51.133  1.00  0.00     0.117 C 
HETATM   16  C9  UNL     1      -0.724  29.627  50.661  1.00  0.00     0.026 C 
ENDBRANCH  12  15
ENDBRANCH  11  12
ENDBRANCH  10  11
ENDBRANCH   6  10
BRANCH   8  17
HETATM   17  C10 UNL     1      -4.475  26.995  54.953  1.00  0.00     0.148 C 
HETATM   18  C11 UNL     1      -3.646  26.135  55.850  1.00  0.00     0.035 C 
HETATM   19  C12 UNL     1      -2.916  26.997  56.883  1.00  0.00     0.047 C 
HETATM   20  C13 UNL     1      -4.003  27.638  57.732  1.00  0.00     0.066 C 
HETATM   21  N5  UNL     1      -4.903  28.299  56.877  1.00  0.00    -0.346 N 
HETATM   22  C16 UNL     1      -4.590  28.404  55.504  1.00  0.00     0.246 C 
BRANCH  21  23
HETATM   23  C14 UNL     1      -5.954  29.051  57.419  1.00  0.00     0.061 C 
HETATM   24  C15 UNL     1      -6.242  28.795  58.871  1.00  0.00     0.055 C 
ENDBRANCH  21  23
BRANCH  22  25
HETATM   25  O1  UNL     1      -5.678  28.988  54.836  1.00  0.00    -0.374 OA
ATOM     26  H1  UNL     1      -5.335  29.300  54.007  1.00  0.00     0.212 HD
ENDBRANCH  22  25
ENDBRANCH   8  17
TORSDOF 8
ENDMDL
