MODEL 1
REMARK VINA RESULT: -8.828775706      0.000      0.000
REMARK  6 active torsions:
REMARK  status: ('A' for Active; 'I' for Inactive)
REMARK    1  A    between atoms: C3_6  and  O1_7 
REMARK    2  A    between atoms: C4_9  and  C6_11 
REMARK    3  A    between atoms: C6_11  and  C7_12 
REMARK    4  A    between atoms: C7_12  and  O3_14 
REMARK    5  A    between atoms: O3_14  and  C8_15 
REMARK    6  A    between atoms: N2_20  and  C13_21 
ROOT
HETATM    1  C1  UNL     1      -0.558   7.806  10.424  1.00  0.00     0.063 C 
HETATM    2  C2  UNL     1       0.849   7.367  10.437  1.00  0.00     0.282 C 
HETATM    3  N1  UNL     1       1.468   8.275  11.400  1.00  0.00    -0.026 N 
ATOM      4  H11 UNL     1       1.045   8.330  12.326  1.00  0.00     0.282 HD
ATOM      5  H12 UNL     1       1.364   9.275  11.229  1.00  0.00     0.282 HD
HETATM    6  C3  UNL     1       2.822   7.723  11.317  1.00  0.00     0.349 C 
HETATM    7  C4  UNL     1       2.956   7.849   9.773  1.00  0.00     0.087 C 
HETATM    8  C5  UNL     1       4.168   7.044   9.472  1.00  0.00     0.043 C 
HETATM    9  N2  UNL     1       1.694   7.366   9.364  1.00  0.00    -0.364 N 
ENDROOT
BRANCH   9  10
HETATM   10  C13 UNL     1       1.293   7.159   8.049  1.00  0.00     0.031 C 
HETATM   11  C14 UNL     1       0.476   5.845   8.061  1.00  0.00     0.031 C 
HETATM   12  C15 UNL     1      -0.706   5.897   7.158  1.00  0.00     0.007 C 
HETATM   13  C16 UNL     1      -0.476   6.328   5.759  1.00  0.00    -0.014 C 
HETATM   14  C17 UNL     1       0.891   5.878   5.304  1.00  0.00     0.009 C 
HETATM   15  C21 UNL     1      -0.678   7.779   5.469  1.00  0.00     0.009 C 
HETATM   16  C18 UNL     1       1.959   6.831   5.629  1.00  0.00    -0.012 C 
HETATM   17  C19 UNL     1       1.678   8.274   5.344  1.00  0.00     0.009 C 
HETATM   18  C23 UNL     1       2.418   6.784   7.094  1.00  0.00     0.035 C 
HETATM   19  C20 UNL     1       0.452   8.599   6.109  1.00  0.00    -0.012 C 
HETATM   20  C22 UNL     1       0.478   8.299   7.566  1.00  0.00     0.035 C 
ENDBRANCH   9  10
BRANCH   7  21
HETATM   21  C6  UNL     1       3.224   9.298   9.468  1.00  0.00     0.146 C 
BRANCH  21  22
HETATM   22  C7  UNL     1       4.601   9.735   9.404  1.00  0.00     0.261 C 
HETATM   23  O2  UNL     1       5.220  10.100  10.462  1.00  0.00    -0.265 OA
BRANCH  22  24
HETATM   24  O3  UNL     1       5.380   9.814   8.266  1.00  0.00    -0.316 OA
BRANCH  24  25
HETATM   25  C8  UNL     1       4.956   9.612   6.960  1.00  0.00     0.132 C 
HETATM   26  C9  UNL     1       5.639   8.379   6.411  1.00  0.00     0.032 C 
HETATM   27  C10 UNL     1       5.421   8.512   4.927  1.00  0.00     0.002 C 
HETATM   28  C11 UNL     1       5.130   9.985   4.669  1.00  0.00     0.002 C 
HETATM   29  C12 UNL     1       5.430  10.672   5.993  1.00  0.00     0.032 C 
ENDBRANCH  24  25
ENDBRANCH  22  24
ENDBRANCH  21  22
ENDBRANCH   7  21
BRANCH   6  30
HETATM   30  O1  UNL     1       2.763   6.433  11.740  1.00  0.00    -0.368 OA
ATOM     31  H1  UNL     1       3.560   6.003  11.454  1.00  0.00     0.212 HD
ENDBRANCH   6  30
TORSDOF 6
ENDMDL
MODEL 2
REMARK VINA RESULT: -8.700208236      2.289      3.529
REMARK  6 active torsions:
REMARK  status: ('A' for Active; 'I' for Inactive)
REMARK    1  A    between atoms: C3_6  and  O1_7 
REMARK    2  A    between atoms: C4_9  and  C6_11 
REMARK    3  A    between atoms: C6_11  and  C7_12 
REMARK    4  A    between atoms: C7_12  and  O3_14 
REMARK    5  A    between atoms: O3_14  and  C8_15 
REMARK    6  A    between atoms: N2_20  and  C13_21 
ROOT
HETATM    1  C1  UNL     1       2.674   8.277  10.226  1.00  0.00     0.063 C 
HETATM    2  C2  UNL     1       3.737   7.931   9.265  1.00  0.00     0.282 C 
HETATM    3  N1  UNL     1       4.816   8.849   9.622  1.00  0.00    -0.026 N 
ATOM      4  H11 UNL     1       5.123   8.849  10.595  1.00  0.00     0.282 HD
ATOM      5  H12 UNL     1       4.596   9.844   9.631  1.00  0.00     0.282 HD
HETATM    6  C3  UNL     1       5.778   8.388   8.619  1.00  0.00     0.349 C 
HETATM    7  C4  UNL     1       4.837   8.568   7.395  1.00  0.00     0.087 C 
HETATM    8  C5  UNL     1       5.555   7.852   6.308  1.00  0.00     0.043 C 
HETATM    9  N2  UNL     1       3.642   8.016   7.905  1.00  0.00    -0.364 N 
ENDROOT
BRANCH   9  10
HETATM   10  C13 UNL     1       2.467   7.821   7.187  1.00  0.00     0.031 C 
HETATM   11  C14 UNL     1       2.790   8.244   5.733  1.00  0.00     0.031 C 
HETATM   12  C15 UNL     1       2.148   7.358   4.724  1.00  0.00     0.007 C 
HETATM   13  C16 UNL     1       0.693   7.112   4.860  1.00  0.00    -0.014 C 
HETATM   14  C17 UNL     1       0.019   8.335   5.432  1.00  0.00     0.009 C 
HETATM   15  C21 UNL     1       0.295   5.887   5.617  1.00  0.00     0.009 C 
HETATM   16  C18 UNL     1       0.013   8.368   6.900  1.00  0.00    -0.012 C 
HETATM   17  C19 UNL     1      -0.364   7.096   7.596  1.00  0.00     0.009 C 
HETATM   18  C23 UNL     1       1.348   8.797   7.524  1.00  0.00     0.035 C 
HETATM   19  C20 UNL     1       0.596   6.078   7.111  1.00  0.00    -0.012 C 
HETATM   20  C22 UNL     1       2.041   6.404   7.256  1.00  0.00     0.035 C 
ENDBRANCH   9  10
BRANCH   7  21
HETATM   21  C6  UNL     1       4.789  10.039   7.084  1.00  0.00     0.146 C 
BRANCH  21  22
HETATM   22  C7  UNL     1       5.666  10.544   6.051  1.00  0.00     0.261 C 
HETATM   23  O2  UNL     1       5.235  10.723   4.860  1.00  0.00    -0.265 OA
BRANCH  22  24
HETATM   24  O3  UNL     1       6.998  10.875   6.201  1.00  0.00    -0.316 OA
BRANCH  24  25
HETATM   25  C8  UNL     1       7.934  11.011   5.185  1.00  0.00     0.132 C 
HETATM   26  C9  UNL     1       9.319  10.848   5.773  1.00  0.00     0.032 C 
HETATM   27  C10 UNL     1      10.206  11.407   4.693  1.00  0.00     0.002 C 
HETATM   28  C11 UNL     1       9.321  12.306   3.837  1.00  0.00     0.002 C 
HETATM   29  C12 UNL     1       8.015  12.406   4.611  1.00  0.00     0.032 C 
ENDBRANCH  24  25
ENDBRANCH  22  24
ENDBRANCH  21  22
ENDBRANCH   7  21
BRANCH   6  30
HETATM   30  O1  UNL     1       6.056   7.086   8.888  1.00  0.00    -0.368 OA
ATOM     31  H1  UNL     1       6.824   7.068   9.447  1.00  0.00     0.212 HD
ENDBRANCH   6  30
TORSDOF 6
ENDMDL
MODEL 3
REMARK VINA RESULT: -8.620816077      2.236      3.162
REMARK  6 active torsions:
REMARK  status: ('A' for Active; 'I' for Inactive)
REMARK    1  A    between atoms: C3_6  and  O1_7 
REMARK    2  A    between atoms: C4_9  and  C6_11 
REMARK    3  A    between atoms: C6_11  and  C7_12 
REMARK    4  A    between atoms: C7_12  and  O3_14 
REMARK    5  A    between atoms: O3_14  and  C8_15 
REMARK    6  A    between atoms: N2_20  and  C13_21 
ROOT
HETATM    1  C1  UNL     1       2.723   8.368  10.288  1.00  0.00     0.063 C 
HETATM    2  C2  UNL     1       3.772   7.993   9.324  1.00  0.00     0.282 C 
HETATM    3  N1  UNL     1       4.798   9.011   9.540  1.00  0.00    -0.026 N 
ATOM      4  H11 UNL     1       5.138   9.132  10.493  1.00  0.00     0.282 HD
ATOM      5  H12 UNL     1       4.510   9.986   9.457  1.00  0.00     0.282 HD
HETATM    6  C3  UNL     1       5.753   8.512   8.549  1.00  0.00     0.349 C 
HETATM    7  C4  UNL     1       4.759   8.502   7.354  1.00  0.00     0.087 C 
HETATM    8  C5  UNL     1       5.486   7.725   6.316  1.00  0.00     0.043 C 
HETATM    9  N2  UNL     1       3.623   7.930   7.967  1.00  0.00    -0.364 N 
ENDROOT
BRANCH   9  10
HETATM   10  C13 UNL     1       2.440   7.586   7.322  1.00  0.00     0.031 C 
HETATM   11  C14 UNL     1       2.190   6.099   7.669  1.00  0.00     0.031 C 
HETATM   12  C15 UNL     1       0.751   5.800   7.908  1.00  0.00     0.007 C 
HETATM   13  C16 UNL     1      -0.216   6.240   6.875  1.00  0.00    -0.014 C 
HETATM   14  C17 UNL     1       0.427   6.172   5.510  1.00  0.00     0.009 C 
HETATM   15  C21 UNL     1      -0.857   7.573   7.089  1.00  0.00     0.009 C 
HETATM   16  C18 UNL     1       1.161   7.390   5.148  1.00  0.00    -0.012 C 
HETATM   17  C19 UNL     1       0.475   8.693   5.421  1.00  0.00     0.009 C 
HETATM   18  C23 UNL     1       2.543   7.510   5.805  1.00  0.00     0.035 C 
HETATM   19  C20 UNL     1       0.176   8.688   6.871  1.00  0.00    -0.012 C 
HETATM   20  C22 UNL     1       1.324   8.445   7.786  1.00  0.00     0.035 C 
ENDBRANCH   9  10
BRANCH   7  21
HETATM   21  C6  UNL     1       4.599   9.926   6.898  1.00  0.00     0.146 C 
BRANCH  21  22
HETATM   22  C7  UNL     1       5.512  10.425   5.893  1.00  0.00     0.261 C 
HETATM   23  O2  UNL     1       5.159  10.487   4.665  1.00  0.00    -0.265 OA
BRANCH  22  24
HETATM   24  O3  UNL     1       6.802  10.868   6.109  1.00  0.00    -0.316 OA
BRANCH  24  25
HETATM   25  C8  UNL     1       7.803  10.990   5.156  1.00  0.00     0.132 C 
HETATM   26  C9  UNL     1       9.146  10.863   5.841  1.00  0.00     0.032 C 
HETATM   27  C10 UNL     1      10.098  11.407   4.808  1.00  0.00     0.002 C 
HETATM   28  C11 UNL     1       9.262  12.270   3.871  1.00  0.00     0.002 C 
HETATM   29  C12 UNL     1       7.905  12.371   4.552  1.00  0.00     0.032 C 
ENDBRANCH  24  25
ENDBRANCH  22  24
ENDBRANCH  21  22
ENDBRANCH   7  21
BRANCH   6  30
HETATM   30  O1  UNL     1       6.129   7.265   8.936  1.00  0.00    -0.368 OA
ATOM     31  H1  UNL     1       5.874   7.160   9.845  1.00  0.00     0.212 HD
ENDBRANCH   6  30
TORSDOF 6
ENDMDL
MODEL 4
REMARK VINA RESULT: -8.438473439      2.720      5.085
REMARK  6 active torsions:
REMARK  status: ('A' for Active; 'I' for Inactive)
REMARK    1  A    between atoms: C3_6  and  O1_7 
REMARK    2  A    between atoms: C4_9  and  C6_11 
REMARK    3  A    between atoms: C6_11  and  C7_12 
REMARK    4  A    between atoms: C7_12  and  O3_14 
REMARK    5  A    between atoms: O3_14  and  C8_15 
REMARK    6  A    between atoms: N2_20  and  C13_21 
ROOT
HETATM    1  C1  UNL     1       1.343   6.799  10.949  1.00  0.00     0.063 C 
HETATM    2  C2  UNL     1       0.679   7.671   9.963  1.00  0.00     0.282 C 
HETATM    3  N1  UNL     1      -0.549   6.943   9.654  1.00  0.00    -0.026 N 
ATOM      4  H11 UNL     1      -1.144   6.680  10.439  1.00  0.00     0.282 HD
ATOM      5  H12 UNL     1      -0.450   5.981   9.332  1.00  0.00     0.282 HD
HETATM    6  C3  UNL     1      -1.093   7.912   8.700  1.00  0.00     0.349 C 
HETATM    7  C4  UNL     1       0.160   7.958   7.781  1.00  0.00     0.087 C 
HETATM    8  C5  UNL     1      -0.100   9.137   6.913  1.00  0.00     0.043 C 
HETATM    9  N2  UNL     1       1.186   8.033   8.748  1.00  0.00    -0.364 N 
ENDROOT
BRANCH   9  10
HETATM   10  C13 UNL     1       2.541   8.200   8.480  1.00  0.00     0.031 C 
HETATM   11  C14 UNL     1       3.022   9.319   9.435  1.00  0.00     0.031 C 
HETATM   12  C15 UNL     1       4.381   9.059   9.983  1.00  0.00     0.007 C 
HETATM   13  C16 UNL     1       5.455   8.734   9.016  1.00  0.00    -0.014 C 
HETATM   14  C17 UNL     1       5.215   9.467   7.718  1.00  0.00     0.009 C 
HETATM   15  C21 UNL     1       5.704   7.282   8.762  1.00  0.00     0.009 C 
HETATM   16  C18 UNL     1       4.343   8.740   6.788  1.00  0.00    -0.012 C 
HETATM   17  C19 UNL     1       4.626   7.281   6.606  1.00  0.00     0.009 C 
HETATM   18  C23 UNL     1       2.849   8.828   7.128  1.00  0.00     0.035 C 
HETATM   19  C20 UNL     1       4.538   6.688   7.960  1.00  0.00    -0.012 C 
HETATM   20  C22 UNL     1       3.279   6.936   8.714  1.00  0.00     0.035 C 
ENDBRANCH   9  10
BRANCH   7  21
HETATM   21  C6  UNL     1       0.146   6.706   6.948  1.00  0.00     0.146 C 
BRANCH  21  22
HETATM   22  C7  UNL     1      -0.584   6.728   5.700  1.00  0.00     0.261 C 
HETATM   23  O2  UNL     1      -1.817   6.388   5.659  1.00  0.00    -0.265 OA
BRANCH  22  24
HETATM   24  O3  UNL     1      -0.081   7.092   4.466  1.00  0.00    -0.316 OA
BRANCH  24  25
HETATM   25  C8  UNL     1       1.151   6.732   3.939  1.00  0.00     0.132 C 
HETATM   26  C9  UNL     1       2.038   7.957   3.890  1.00  0.00     0.032 C 
HETATM   27  C10 UNL     1       3.140   7.532   2.957  1.00  0.00     0.002 C 
HETATM   28  C11 UNL     1       2.583   6.372   2.140  1.00  0.00     0.002 C 
HETATM   29  C12 UNL     1       1.101   6.341   2.480  1.00  0.00     0.032 C 
ENDBRANCH  24  25
ENDBRANCH  22  24
ENDBRANCH  21  22
ENDBRANCH   7  21
BRANCH   6  30
HETATM   30  O1  UNL     1      -1.300   9.074   9.372  1.00  0.00    -0.368 OA
ATOM     31  H1  UNL     1      -0.605   9.673   9.128  1.00  0.00     0.212 HD
ENDBRANCH   6  30
TORSDOF 6
ENDMDL
MODEL 5
REMARK VINA RESULT: -8.265776373      3.038      5.165
REMARK  6 active torsions:
REMARK  status: ('A' for Active; 'I' for Inactive)
REMARK    1  A    between atoms: C3_6  and  O1_7 
REMARK    2  A    between atoms: C4_9  and  C6_11 
REMARK    3  A    between atoms: C6_11  and  C7_12 
REMARK    4  A    between atoms: C7_12  and  O3_14 
REMARK    5  A    between atoms: O3_14  and  C8_15 
REMARK    6  A    between atoms: N2_20  and  C13_21 
ROOT
HETATM    1  C1  UNL     1       0.486   5.935   9.859  1.00  0.00     0.063 C 
HETATM    2  C2  UNL     1       0.061   6.897   8.827  1.00  0.00     0.282 C 
HETATM    3  N1  UNL     1      -0.952   6.154   8.080  1.00  0.00    -0.026 N 
ATOM      4  H11 UNL     1      -1.724   5.755   8.615  1.00  0.00     0.282 HD
ATOM      5  H12 UNL     1      -0.676   5.251   7.695  1.00  0.00     0.282 HD
HETATM    6  C3  UNL     1      -1.280   7.214   7.125  1.00  0.00     0.349 C 
HETATM    7  C4  UNL     1       0.177   7.452   6.637  1.00  0.00     0.087 C 
HETATM    8  C5  UNL     1       0.074   8.723   5.873  1.00  0.00     0.043 C 
HETATM    9  N2  UNL     1       0.865   7.448   7.870  1.00  0.00    -0.364 N 
ENDROOT
BRANCH   9  10
HETATM   10  C13 UNL     1       2.217   7.721   8.044  1.00  0.00     0.031 C 
HETATM   11  C14 UNL     1       2.318   8.520   9.366  1.00  0.00     0.031 C 
HETATM   12  C15 UNL     1       3.511   8.144  10.173  1.00  0.00     0.007 C 
HETATM   13  C16 UNL     1       4.825   8.148   9.488  1.00  0.00    -0.014 C 
HETATM   14  C17 UNL     1       4.848   9.226   8.432  1.00  0.00     0.009 C 
HETATM   15  C21 UNL     1       5.282   6.844   8.920  1.00  0.00     0.009 C 
HETATM   16  C18 UNL     1       4.325   8.786   7.133  1.00  0.00    -0.012 C 
HETATM   17  C19 UNL     1       4.798   7.453   6.638  1.00  0.00     0.009 C 
HETATM   18  C23 UNL     1       2.793   8.730   7.059  1.00  0.00     0.035 C 
HETATM   19  C20 UNL     1       4.429   6.484   7.694  1.00  0.00    -0.012 C 
HETATM   20  C22 UNL     1       3.000   6.465   8.110  1.00  0.00     0.035 C 
ENDBRANCH   9  10
BRANCH   7  21
HETATM   21  C6  UNL     1       0.520   6.326   5.701  1.00  0.00     0.146 C 
BRANCH  21  22
HETATM   22  C7  UNL     1       0.114   6.444   4.318  1.00  0.00     0.261 C 
HETATM   23  O2  UNL     1      -1.058   6.086   3.950  1.00  0.00    -0.265 OA
BRANCH  22  24
HETATM   24  O3  UNL     1       0.886   6.925   3.278  1.00  0.00    -0.316 OA
BRANCH  24  25
HETATM   25  C8  UNL     1       2.239   6.689   3.077  1.00  0.00     0.132 C 
HETATM   26  C9  UNL     1       3.019   7.899   3.543  1.00  0.00     0.032 C 
HETATM   27  C10 UNL     1       4.369   7.685   2.910  1.00  0.00     0.002 C 
HETATM   28  C11 UNL     1       4.148   6.725   1.748  1.00  0.00     0.002 C 
HETATM   29  C12 UNL     1       2.636   6.618   1.622  1.00  0.00     0.032 C 
ENDBRANCH  24  25
ENDBRANCH  22  24
ENDBRANCH  21  22
ENDBRANCH   7  21
BRANCH   6  30
HETATM   30  O1  UNL     1      -1.780   8.260   7.833  1.00  0.00    -0.368 OA
ATOM     31  H1  UNL     1      -1.847   9.000   7.240  1.00  0.00     0.212 HD
ENDBRANCH   6  30
TORSDOF 6
ENDMDL
