MODEL 1
REMARK VINA RESULT: -9.613207970      0.000      0.000
REMARK  6 active torsions:
REMARK  status: ('A' for Active; 'I' for Inactive)
REMARK    1  A    between atoms: C9_11  and  O3_12 
REMARK    2  A    between atoms: C10_14  and  O4_15 
REMARK    3  A    between atoms: O4_15  and  C11_16 
REMARK    4  A    between atoms: C11_16  and  C12_17 
REMARK    5  A    between atoms: C12_17  and  C13_18 
REMARK    6  A    between atoms: C18_23  and  O5_24 
ROOT
HETATM    1  C1  UNL     1      -0.133   7.390   5.117  1.00  0.00     0.025 C 
HETATM    2  C2  UNL     1       0.318   7.543   6.321  1.00  0.00     0.013 C 
HETATM    3  C3  UNL     1      -0.607   7.372   7.426  1.00  0.00     0.288 C 
HETATM    4  O1  UNL     1      -1.810   7.144   7.200  1.00  0.00    -0.260 OA
HETATM    5  O2  UNL     1      -0.137   7.464   8.717  1.00  0.00    -0.317 OA
HETATM    6  C4  UNL     1       1.265   7.465   9.027  1.00  0.00     0.189 C 
HETATM    7  C5  UNL     1       2.083   6.982   7.815  1.00  0.00    -0.010 C 
HETATM    8  C6  UNL     1       1.491   5.609   7.463  1.00  0.00     0.018 C 
HETATM    9  C7  UNL     1       3.470   6.743   8.239  1.00  0.00     0.002 C 
HETATM   10  C8  UNL     1       4.214   7.501   9.236  1.00  0.00     0.040 C 
HETATM   11  C9  UNL     1       5.544   8.094   8.845  1.00  0.00     0.150 C 
HETATM   12  C10 UNL     1       5.746   8.522   7.381  1.00  0.00     0.184 C 
HETATM   13  C18 UNL     1       4.443   8.301   6.771  1.00  0.00     0.086 C 
HETATM   14  C19 UNL     1       3.902   8.594   5.485  1.00  0.00     0.041 C 
HETATM   15  C20 UNL     1       2.481   8.008   5.472  1.00  0.00     0.013 C 
HETATM   16  C21 UNL     1       1.729   7.895   6.710  1.00  0.00     0.034 C 
HETATM   17  C22 UNL     1       4.254   6.847   6.958  1.00  0.00     0.046 C 
ENDROOT
BRANCH  12  18
HETATM   18  O4  UNL     1       6.272   9.780   7.288  1.00  0.00    -0.380 OA
BRANCH  18  19
HETATM   19  C11 UNL     1       7.142   9.916   6.218  1.00  0.00     0.168 C 
BRANCH  19  20
HETATM   20  C12 UNL     1       6.914  11.125   5.369  1.00  0.00     0.031 C 
BRANCH  20  21
HETATM   21  C13 UNL     1       8.123  12.028   5.309  1.00  0.00    -0.013 C 
HETATM   22  C14 UNL     1       9.352  11.414   5.896  1.00  0.00     0.005 C 
HETATM   23  C15 UNL     1      10.463  12.137   5.153  1.00  0.00     0.000 C 
HETATM   24  C16 UNL     1       9.958  12.142   3.739  1.00  0.00     0.000 C 
HETATM   25  C17 UNL     1       8.470  12.329   3.880  1.00  0.00     0.005 C 
ENDBRANCH  20  21
ENDBRANCH  19  20
ENDBRANCH  18  19
ENDBRANCH  12  18
BRANCH  11  26
HETATM   26  O3  UNL     1       5.686   9.273   9.598  1.00  0.00    -0.393 OA
ATOM     27  H3  UNL     1       5.304   9.969   9.077  1.00  0.00     0.210 HD
ENDBRANCH  11  26
BRANCH  13  28
HETATM   28  O5  UNL     1       3.728   9.220   7.578  1.00  0.00    -0.387 OA
ATOM     29  H5  UNL     1       3.077   8.604   7.894  1.00  0.00     0.210 HD
ENDBRANCH  13  28
TORSDOF 6
ENDMDL
MODEL 2
REMARK VINA RESULT: -9.579994568      1.099      1.369
REMARK  6 active torsions:
REMARK  status: ('A' for Active; 'I' for Inactive)
REMARK    1  A    between atoms: C9_11  and  O3_12 
REMARK    2  A    between atoms: C10_14  and  O4_15 
REMARK    3  A    between atoms: O4_15  and  C11_16 
REMARK    4  A    between atoms: C11_16  and  C12_17 
REMARK    5  A    between atoms: C12_17  and  C13_18 
REMARK    6  A    between atoms: C18_23  and  O5_24 
ROOT
HETATM    1  C1  UNL     1       1.063   6.736   3.313  1.00  0.00     0.025 C 
HETATM    2  C2  UNL     1       0.945   7.305   4.469  1.00  0.00     0.013 C 
HETATM    3  C3  UNL     1      -0.390   7.486   5.010  1.00  0.00     0.288 C 
HETATM    4  O1  UNL     1      -1.383   7.152   4.338  1.00  0.00    -0.260 OA
HETATM    5  O2  UNL     1      -0.538   8.029   6.267  1.00  0.00    -0.317 OA
HETATM    6  C4  UNL     1       0.566   8.186   7.172  1.00  0.00     0.189 C 
HETATM    7  C5  UNL     1       1.771   7.351   6.700  1.00  0.00    -0.010 C 
HETATM    8  C6  UNL     1       1.229   5.919   6.571  1.00  0.00     0.018 C 
HETATM    9  C7  UNL     1       2.779   7.321   7.769  1.00  0.00     0.002 C 
HETATM   10  C8  UNL     1       3.089   8.399   8.698  1.00  0.00     0.040 C 
HETATM   11  C9  UNL     1       4.517   8.872   8.801  1.00  0.00     0.150 C 
HETATM   12  C10 UNL     1       5.404   8.784   7.547  1.00  0.00     0.184 C 
HETATM   13  C18 UNL     1       4.494   8.321   6.510  1.00  0.00     0.086 C 
HETATM   14  C19 UNL     1       4.626   8.139   5.102  1.00  0.00     0.041 C 
HETATM   15  C20 UNL     1       3.299   7.532   4.620  1.00  0.00     0.013 C 
HETATM   16  C21 UNL     1       2.066   7.819   5.332  1.00  0.00     0.034 C 
HETATM   17  C22 UNL     1       4.059   7.012   7.039  1.00  0.00     0.046 C 
ENDROOT
BRANCH  12  18
HETATM   18  O4  UNL     1       6.071   9.953   7.314  1.00  0.00    -0.380 OA
BRANCH  18  19
HETATM   19  C11 UNL     1       7.007   9.840   6.298  1.00  0.00     0.168 C 
BRANCH  19  20
HETATM   20  C12 UNL     1       6.938  10.909   5.255  1.00  0.00     0.031 C 
BRANCH  20  21
HETATM   21  C13 UNL     1       8.119  11.849   5.310  1.00  0.00    -0.013 C 
HETATM   22  C14 UNL     1       9.364  11.208   5.828  1.00  0.00     0.005 C 
HETATM   23  C15 UNL     1      10.455  12.048   5.183  1.00  0.00     0.000 C 
HETATM   24  C16 UNL     1       9.953  12.204   3.776  1.00  0.00     0.000 C 
HETATM   25  C17 UNL     1       8.461  12.327   3.929  1.00  0.00     0.005 C 
ENDBRANCH  20  21
ENDBRANCH  19  20
ENDBRANCH  18  19
ENDBRANCH  12  18
BRANCH  11  26
HETATM   26  O3  UNL     1       4.457  10.241   9.116  1.00  0.00    -0.393 OA
ATOM     27  H3  UNL     1       5.340  10.500   9.349  1.00  0.00     0.210 HD
ENDBRANCH  11  26
BRANCH  13  28
HETATM   28  O5  UNL     1       3.617   9.433   6.555  1.00  0.00    -0.387 OA
ATOM     29  H5  UNL     1       3.252   9.320   5.685  1.00  0.00     0.210 HD
ENDBRANCH  13  28
TORSDOF 6
ENDMDL
MODEL 3
REMARK VINA RESULT: -9.371857904      1.238      1.777
REMARK  6 active torsions:
REMARK  status: ('A' for Active; 'I' for Inactive)
REMARK    1  A    between atoms: C9_11  and  O3_12 
REMARK    2  A    between atoms: C10_14  and  O4_15 
REMARK    3  A    between atoms: O4_15  and  C11_16 
REMARK    4  A    between atoms: C11_16  and  C12_17 
REMARK    5  A    between atoms: C12_17  and  C13_18 
REMARK    6  A    between atoms: C18_23  and  O5_24 
ROOT
HETATM    1  C1  UNL     1       1.634   7.138   3.754  1.00  0.00     0.025 C 
HETATM    2  C2  UNL     1       1.549   7.638   4.945  1.00  0.00     0.013 C 
HETATM    3  C3  UNL     1       0.232   7.969   5.457  1.00  0.00     0.288 C 
HETATM    4  O1  UNL     1      -0.770   7.824   4.733  1.00  0.00    -0.260 OA
HETATM    5  O2  UNL     1       0.110   8.441   6.745  1.00  0.00    -0.317 OA
HETATM    6  C4  UNL     1       1.188   8.380   7.692  1.00  0.00     0.189 C 
HETATM    7  C5  UNL     1       2.283   7.417   7.197  1.00  0.00    -0.010 C 
HETATM    8  C6  UNL     1       1.554   6.088   6.948  1.00  0.00     0.018 C 
HETATM    9  C7  UNL     1       3.234   7.173   8.291  1.00  0.00     0.002 C 
HETATM   10  C8  UNL     1       3.653   8.132   9.305  1.00  0.00     0.040 C 
HETATM   11  C9  UNL     1       5.127   8.391   9.485  1.00  0.00     0.150 C 
HETATM   12  C10 UNL     1       6.044   8.264   8.256  1.00  0.00     0.184 C 
HETATM   13  C18 UNL     1       5.121   8.005   7.160  1.00  0.00     0.086 C 
HETATM   14  C19 UNL     1       5.282   7.902   5.748  1.00  0.00     0.041 C 
HETATM   15  C20 UNL     1       3.904   7.521   5.183  1.00  0.00     0.013 C 
HETATM   16  C21 UNL     1       2.695   7.931   5.876  1.00  0.00     0.034 C 
HETATM   17  C22 UNL     1       4.487   6.737   7.580  1.00  0.00     0.046 C 
ENDROOT
BRANCH  12  18
HETATM   18  O4  UNL     1       6.875   9.341   8.128  1.00  0.00    -0.380 OA
BRANCH  18  19
HETATM   19  C11 UNL     1       7.832   9.161   7.142  1.00  0.00     0.168 C 
BRANCH  19  20
HETATM   20  C12 UNL     1       8.331  10.420   6.511  1.00  0.00     0.031 C 
BRANCH  20  21
HETATM   21  C13 UNL     1       7.763  10.639   5.127  1.00  0.00    -0.013 C 
HETATM   22  C14 UNL     1       6.365  11.165   5.136  1.00  0.00     0.005 C 
HETATM   23  C15 UNL     1       6.287  11.900   3.807  1.00  0.00     0.000 C 
HETATM   24  C16 UNL     1       7.601  12.626   3.761  1.00  0.00     0.000 C 
HETATM   25  C17 UNL     1       8.574  11.668   4.396  1.00  0.00     0.005 C 
ENDBRANCH  20  21
ENDBRANCH  19  20
ENDBRANCH  18  19
ENDBRANCH  12  18
BRANCH  11  26
HETATM   26  O3  UNL     1       5.245   9.730   9.896  1.00  0.00    -0.393 OA
ATOM     27  H3  UNL     1       5.575   9.708  10.786  1.00  0.00     0.210 HD
ENDBRANCH  11  26
BRANCH  13  28
HETATM   28  O5  UNL     1       4.404   9.223   7.259  1.00  0.00    -0.387 OA
ATOM     29  H5  UNL     1       3.580   8.843   7.539  1.00  0.00     0.210 HD
ENDBRANCH  13  28
TORSDOF 6
ENDMDL
MODEL 4
REMARK VINA RESULT: -9.169970513      1.575      2.863
REMARK  6 active torsions:
REMARK  status: ('A' for Active; 'I' for Inactive)
REMARK    1  A    between atoms: C9_11  and  O3_12 
REMARK    2  A    between atoms: C10_14  and  O4_15 
REMARK    3  A    between atoms: O4_15  and  C11_16 
REMARK    4  A    between atoms: C11_16  and  C12_17 
REMARK    5  A    between atoms: C12_17  and  C13_18 
REMARK    6  A    between atoms: C18_23  and  O5_24 
ROOT
HETATM    1  C1  UNL     1       0.088   6.242   9.648  1.00  0.00     0.025 C 
HETATM    2  C2  UNL     1       0.349   6.104   8.388  1.00  0.00     0.013 C 
HETATM    3  C3  UNL     1      -0.529   5.266   7.593  1.00  0.00     0.288 C 
HETATM    4  O1  UNL     1      -1.467   4.657   8.139  1.00  0.00    -0.260 OA
HETATM    5  O2  UNL     1      -0.310   5.157   6.238  1.00  0.00    -0.317 OA
HETATM    6  C4  UNL     1       0.584   6.031   5.531  1.00  0.00     0.189 C 
HETATM    7  C5  UNL     1       0.924   7.263   6.391  1.00  0.00    -0.010 C 
HETATM    8  C6  UNL     1      -0.438   7.874   6.755  1.00  0.00     0.018 C 
HETATM    9  C7  UNL     1       1.616   8.253   5.554  1.00  0.00     0.002 C 
HETATM   10  C8  UNL     1       2.544   7.972   4.467  1.00  0.00     0.040 C 
HETATM   11  C9  UNL     1       3.913   8.601   4.509  1.00  0.00     0.150 C 
HETATM   12  C10 UNL     1       4.547   8.873   5.885  1.00  0.00     0.184 C 
HETATM   13  C18 UNL     1       3.594   8.302   6.825  1.00  0.00     0.086 C 
HETATM   14  C19 UNL     1       3.610   8.103   8.236  1.00  0.00     0.041 C 
HETATM   15  C20 UNL     1       2.236   7.523   8.606  1.00  0.00     0.013 C 
HETATM   16  C21 UNL     1       1.498   6.727   7.640  1.00  0.00     0.034 C 
HETATM   17  C22 UNL     1       2.374   9.089   6.550  1.00  0.00     0.046 C 
ENDROOT
BRANCH  12  18
HETATM   18  O4  UNL     1       5.834   8.421   5.951  1.00  0.00    -0.380 OA
BRANCH  18  19
HETATM   19  C11 UNL     1       6.742   9.434   6.213  1.00  0.00     0.168 C 
BRANCH  19  20
HETATM   20  C12 UNL     1       6.661  10.608   5.291  1.00  0.00     0.031 C 
BRANCH  20  21
HETATM   21  C13 UNL     1       7.816  11.565   5.468  1.00  0.00    -0.013 C 
HETATM   22  C14 UNL     1       9.099  10.888   5.822  1.00  0.00     0.005 C 
HETATM   23  C15 UNL     1      10.138  11.865   5.296  1.00  0.00     0.000 C 
HETATM   24  C16 UNL     1       9.575  12.247   3.957  1.00  0.00     0.000 C 
HETATM   25  C17 UNL     1       8.087  12.289   4.181  1.00  0.00     0.005 C 
ENDBRANCH  20  21
ENDBRANCH  19  20
ENDBRANCH  18  19
ENDBRANCH  12  18
BRANCH  11  26
HETATM   26  O3  UNL     1       4.783   7.695   3.876  1.00  0.00    -0.393 OA
ATOM     27  H3  UNL     1       4.311   7.354   3.125  1.00  0.00     0.210 HD
ENDBRANCH  11  26
BRANCH  13  28
HETATM   28  O5  UNL     1       3.694   6.965   6.366  1.00  0.00    -0.387 OA
ATOM     29  H5  UNL     1       3.198   6.569   7.073  1.00  0.00     0.210 HD
ENDBRANCH  13  28
TORSDOF 6
ENDMDL
MODEL 5
REMARK VINA RESULT: -9.159446373      1.630      3.061
REMARK  6 active torsions:
REMARK  status: ('A' for Active; 'I' for Inactive)
REMARK    1  A    between atoms: C9_11  and  O3_12 
REMARK    2  A    between atoms: C10_14  and  O4_15 
REMARK    3  A    between atoms: O4_15  and  C11_16 
REMARK    4  A    between atoms: C11_16  and  C12_17 
REMARK    5  A    between atoms: C12_17  and  C13_18 
REMARK    6  A    between atoms: C18_23  and  O5_24 
ROOT
HETATM    1  C1  UNL     1      -0.172   6.189  10.237  1.00  0.00     0.025 C 
HETATM    2  C2  UNL     1       0.047   6.023   8.972  1.00  0.00     0.013 C 
HETATM    3  C3  UNL     1      -0.852   5.159   8.229  1.00  0.00     0.288 C 
HETATM    4  O1  UNL     1      -1.764   4.555   8.822  1.00  0.00    -0.260 OA
HETATM    5  O2  UNL     1      -0.679   5.018   6.870  1.00  0.00    -0.317 OA
HETATM    6  C4  UNL     1       0.181   5.882   6.110  1.00  0.00     0.189 C 
HETATM    7  C5  UNL     1       0.540   7.137   6.928  1.00  0.00    -0.010 C 
HETATM    8  C6  UNL     1      -0.814   7.746   7.325  1.00  0.00     0.018 C 
HETATM    9  C7  UNL     1       1.193   8.112   6.043  1.00  0.00     0.002 C 
HETATM   10  C8  UNL     1       2.085   7.813   4.931  1.00  0.00     0.040 C 
HETATM   11  C9  UNL     1       3.449   8.454   4.910  1.00  0.00     0.150 C 
HETATM   12  C10 UNL     1       4.128   8.765   6.256  1.00  0.00     0.184 C 
HETATM   13  C18 UNL     1       3.214   8.209   7.242  1.00  0.00     0.086 C 
HETATM   14  C19 UNL     1       3.281   8.045   8.657  1.00  0.00     0.041 C 
HETATM   15  C20 UNL     1       1.926   7.462   9.089  1.00  0.00     0.013 C 
HETATM   16  C21 UNL     1       1.163   6.637   8.169  1.00  0.00     0.034 C 
HETATM   17  C22 UNL     1       1.978   8.979   6.992  1.00  0.00     0.046 C 
ENDROOT
BRANCH  12  18
HETATM   18  O4  UNL     1       5.421   8.326   6.287  1.00  0.00    -0.380 OA
BRANCH  18  19
HETATM   19  C11 UNL     1       6.303   9.297   6.730  1.00  0.00     0.168 C 
BRANCH  19  20
HETATM   20  C12 UNL     1       6.287  10.569   5.944  1.00  0.00     0.031 C 
BRANCH  20  21
HETATM   21  C13 UNL     1       7.531  10.748   5.106  1.00  0.00    -0.013 C 
HETATM   22  C14 UNL     1       7.586  12.061   4.397  1.00  0.00     0.005 C 
HETATM   23  C15 UNL     1       9.082  12.276   4.226  1.00  0.00     0.000 C 
HETATM   24  C16 UNL     1       9.623  11.869   5.566  1.00  0.00     0.000 C 
HETATM   25  C17 UNL     1       8.750  10.714   5.981  1.00  0.00     0.005 C 
ENDBRANCH  20  21
ENDBRANCH  19  20
ENDBRANCH  18  19
ENDBRANCH  12  18
BRANCH  11  26
HETATM   26  O3  UNL     1       4.304   7.540   4.268  1.00  0.00    -0.393 OA
ATOM     27  H3  UNL     1       5.121   7.555   4.753  1.00  0.00     0.210 HD
ENDBRANCH  11  26
BRANCH  13  28
HETATM   28  O5  UNL     1       3.310   6.862   6.812  1.00  0.00    -0.387 OA
ATOM     29  H5  UNL     1       3.565   6.497   7.652  1.00  0.00     0.210 HD
ENDBRANCH  13  28
TORSDOF 6
ENDMDL
