MODEL 1
REMARK VINA RESULT: -7.554541871      0.000      0.000
REMARK  3 active torsions:
REMARK  status: ('A' for Active; 'I' for Inactive)
REMARK       I    between atoms: C2_2  and  N1_4 
REMARK    1  A    between atoms: C3_5  and  O2_6 
REMARK    2  A    between atoms: C4_8  and  O3_9 
REMARK    3  A    between atoms: C5_16  and  C6_17 
ROOT
HETATM    1  C1  UNL     1      -7.804 -14.583  -5.164  1.00  0.00     0.118 C 
HETATM    2  C2  UNL     1      -7.546 -15.602  -6.212  1.00  0.00     0.227 C 
HETATM    3  O1  UNL     1      -8.171 -16.669  -6.155  1.00  0.00    -0.273 OA
HETATM    4  N1  UNL     1      -6.612 -15.373  -7.253  1.00  0.00    -0.240 N 
HETATM    5  C3  UNL     1      -5.886 -14.203  -7.337  1.00  0.00     0.205 A 
HETATM    6  C4  UNL     1      -5.097 -14.353  -8.447  1.00  0.00     0.217 A 
HETATM    7  N2  UNL     1      -5.300 -15.524  -9.031  1.00  0.00    -0.196 N 
HETATM    8  N3  UNL     1      -4.939 -16.294 -10.038  1.00  0.00    -0.232 N 
ATOM      9  H3  UNL     1      -4.247 -16.064 -10.752  1.00  0.00     0.209 HD
HETATM   10  N4  UNL     1      -5.630 -17.412  -9.960  1.00  0.00    -0.282 N 
ATOM     11  H4  UNL     1      -5.552 -18.191 -10.613  1.00  0.00     0.188 HD
HETATM   12  C5  UNL     1      -6.454 -17.380  -8.896  1.00  0.00     0.097 A 
HETATM   13  C11 UNL     1      -6.249 -16.161  -8.283  1.00  0.00     0.171 A 
ENDROOT
BRANCH  12  14
HETATM   14  C6  UNL     1      -7.358 -18.427  -8.490  1.00  0.00     0.057 C 
HETATM   15  C7  UNL     1      -7.112 -19.660  -8.155  1.00  0.00     0.102 A 
HETATM   16  C8  UNL     1      -5.800 -20.239  -8.125  1.00  0.00     0.265 A 
HETATM   17  C10 UNL     1      -8.244 -20.552  -7.802  1.00  0.00     0.265 A 
HETATM   18  O4  UNL     1      -4.776 -19.569  -8.403  1.00  0.00    -0.267 OA
HETATM   19  N5  UNL     1      -5.568 -21.621  -7.771  1.00  0.00    -0.275 N 
HETATM   20  C9  UNL     1      -6.652 -22.455  -7.439  1.00  0.00     0.329 A 
ATOM     21  H5  UNL     1      -4.618 -21.992  -7.762  1.00  0.00     0.173 HD
HETATM   22  O5  UNL     1      -6.507 -23.674  -7.121  1.00  0.00    -0.246 OA
HETATM   23  N6  UNL     1      -7.958 -21.899  -7.463  1.00  0.00    -0.275 N 
ATOM     24  H6  UNL     1      -8.741 -22.508  -7.220  1.00  0.00     0.173 HD
HETATM   25  O6  UNL     1      -9.436 -20.129  -7.801  1.00  0.00    -0.267 OA
ENDBRANCH  12  14
BRANCH   5  26
HETATM   26  O2  UNL     1      -5.940 -13.111  -6.484  1.00  0.00    -0.342 OA
ATOM     27  H2  UNL     1      -5.270 -12.452  -6.342  1.00  0.00     0.219 HD
ENDBRANCH   5  26
BRANCH   6  28
HETATM   28  O3  UNL     1      -4.191 -13.403  -8.919  1.00  0.00    -0.342 OA
ATOM     29  H3  UNL     1      -3.250 -13.528  -8.974  1.00  0.00     0.219 HD
ENDBRANCH   6  28
TORSDOF 3
ENDMDL
MODEL 2
REMARK VINA RESULT: -7.189167471      1.605      2.233
REMARK  3 active torsions:
REMARK  status: ('A' for Active; 'I' for Inactive)
REMARK       I    between atoms: C2_2  and  N1_4 
REMARK    1  A    between atoms: C3_5  and  O2_6 
REMARK    2  A    between atoms: C4_8  and  O3_9 
REMARK    3  A    between atoms: C5_16  and  C6_17 
ROOT
HETATM    1  C1  UNL     1      -7.689 -16.796  -4.440  1.00  0.00     0.118 C 
HETATM    2  C2  UNL     1      -7.085 -17.380  -5.664  1.00  0.00     0.227 C 
HETATM    3  O1  UNL     1      -6.962 -18.611  -5.723  1.00  0.00    -0.273 OA
HETATM    4  N1  UNL     1      -6.657 -16.565  -6.741  1.00  0.00    -0.240 N 
HETATM    5  C3  UNL     1      -6.764 -15.190  -6.701  1.00  0.00     0.205 A 
HETATM    6  C4  UNL     1      -6.245 -14.759  -7.895  1.00  0.00     0.217 A 
HETATM    7  N2  UNL     1      -5.840 -15.775  -8.642  1.00  0.00    -0.196 N 
HETATM    8  N3  UNL     1      -5.291 -16.102  -9.794  1.00  0.00    -0.232 N 
ATOM      9  H3  UNL     1      -4.997 -15.454 -10.526  1.00  0.00     0.209 HD
HETATM   10  N4  UNL     1      -5.188 -17.414  -9.834  1.00  0.00    -0.282 N 
ATOM     11  H4  UNL     1      -4.795 -17.944 -10.612  1.00  0.00     0.188 HD
HETATM   12  C5  UNL     1      -5.673 -17.957  -8.702  1.00  0.00     0.097 A 
HETATM   13  C11 UNL     1      -6.099 -16.905  -7.919  1.00  0.00     0.171 A 
ENDROOT
BRANCH  12  14
HETATM   14  C6  UNL     1      -5.722 -19.363  -8.387  1.00  0.00     0.057 C 
HETATM   15  C7  UNL     1      -6.715 -20.202  -8.459  1.00  0.00     0.102 A 
HETATM   16  C8  UNL     1      -8.034 -19.851  -8.903  1.00  0.00     0.265 A 
HETATM   17  C10 UNL     1      -6.503 -21.609  -8.040  1.00  0.00     0.265 A 
HETATM   18  O4  UNL     1      -8.316 -18.688  -9.282  1.00  0.00    -0.267 OA
HETATM   19  N5  UNL     1      -9.118 -20.805  -8.946  1.00  0.00    -0.275 N 
HETATM   20  C9  UNL     1      -8.902 -22.136  -8.544  1.00  0.00     0.329 A 
ATOM     21  H5  UNL     1     -10.041 -20.513  -9.268  1.00  0.00     0.173 HD
HETATM   22  O5  UNL     1      -9.817 -23.015  -8.563  1.00  0.00    -0.246 OA
HETATM   23  N6  UNL     1      -7.603 -22.502  -8.103  1.00  0.00    -0.275 N 
ATOM     24  H6  UNL     1      -7.452 -23.469  -7.814  1.00  0.00     0.173 HD
HETATM   25  O6  UNL     1      -5.375 -22.009  -7.635  1.00  0.00    -0.267 OA
ENDBRANCH  12  14
BRANCH   5  26
HETATM   26  O2  UNL     1      -7.281 -14.411  -5.678  1.00  0.00    -0.342 OA
ATOM     27  H2  UNL     1      -7.568 -13.506  -5.726  1.00  0.00     0.219 HD
ENDBRANCH   5  26
BRANCH   6  28
HETATM   28  O3  UNL     1      -6.151 -13.425  -8.291  1.00  0.00    -0.342 OA
ATOM     29  H3  UNL     1      -5.646 -13.111  -9.032  1.00  0.00     0.219 HD
ENDBRANCH   6  28
TORSDOF 3
ENDMDL
MODEL 3
REMARK VINA RESULT: -6.919366273      1.850      3.416
REMARK  3 active torsions:
REMARK  status: ('A' for Active; 'I' for Inactive)
REMARK       I    between atoms: C2_2  and  N1_4 
REMARK    1  A    between atoms: C3_5  and  O2_6 
REMARK    2  A    between atoms: C4_8  and  O3_9 
REMARK    3  A    between atoms: C5_16  and  C6_17 
ROOT
HETATM    1  C1  UNL     1      -4.661 -13.845  -9.534  1.00  0.00     0.118 C 
HETATM    2  C2  UNL     1      -5.219 -15.001  -8.789  1.00  0.00     0.227 C 
HETATM    3  O1  UNL     1      -5.083 -16.130  -9.278  1.00  0.00    -0.273 OA
HETATM    4  N1  UNL     1      -5.890 -14.832  -7.553  1.00  0.00    -0.240 N 
HETATM    5  C3  UNL     1      -6.074 -13.587  -6.988  1.00  0.00     0.205 A 
HETATM    6  C4  UNL     1      -6.761 -13.822  -5.825  1.00  0.00     0.217 A 
HETATM    7  N2  UNL     1      -6.998 -15.113  -5.656  1.00  0.00    -0.196 N 
HETATM    8  N3  UNL     1      -7.552 -16.003  -4.856  1.00  0.00    -0.232 N 
ATOM      9  H3  UNL     1      -8.030 -15.806  -3.977  1.00  0.00     0.209 HD
HETATM   10  N4  UNL     1      -7.378 -17.193  -5.394  1.00  0.00    -0.282 N 
ATOM     11  H4  UNL     1      -7.708 -18.069  -4.988  1.00  0.00     0.188 HD
HETATM   12  C5  UNL     1      -6.703 -17.089  -6.554  1.00  0.00     0.097 A 
HETATM   13  C11 UNL     1      -6.451 -15.745  -6.737  1.00  0.00     0.171 A 
ENDROOT
BRANCH  12  14
HETATM   14  C6  UNL     1      -6.334 -18.178  -7.423  1.00  0.00     0.057 C 
HETATM   15  C7  UNL     1      -7.014 -19.229  -7.781  1.00  0.00     0.102 A 
HETATM   16  C8  UNL     1      -8.352 -19.508  -7.345  1.00  0.00     0.265 A 
HETATM   17  C10 UNL     1      -6.380 -20.228  -8.675  1.00  0.00     0.265 A 
HETATM   18  O4  UNL     1      -8.978 -18.725  -6.591  1.00  0.00    -0.267 OA
HETATM   19  N5  UNL     1      -9.066 -20.699  -7.745  1.00  0.00    -0.275 N 
HETATM   20  C9  UNL     1      -8.452 -21.638  -8.594  1.00  0.00     0.329 A 
ATOM     21  H5  UNL     1     -10.017 -20.858  -7.412  1.00  0.00     0.173 HD
HETATM   22  O5  UNL     1      -9.032 -22.699  -8.976  1.00  0.00    -0.246 OA
HETATM   23  N6  UNL     1      -7.128 -21.379  -9.036  1.00  0.00    -0.275 N 
ATOM     24  H6  UNL     1      -6.687 -22.062  -9.651  1.00  0.00     0.173 HD
HETATM   25  O6  UNL     1      -5.204 -20.066  -9.109  1.00  0.00    -0.267 OA
ENDBRANCH  12  14
BRANCH   5  26
HETATM   26  O2  UNL     1      -5.657 -12.362  -7.486  1.00  0.00    -0.342 OA
ATOM     27  H2  UNL     1      -6.073 -11.516  -7.367  1.00  0.00     0.219 HD
ENDBRANCH   5  26
BRANCH   6  28
HETATM   28  O3  UNL     1      -7.166 -12.839  -4.922  1.00  0.00    -0.342 OA
ATOM     29  H3  UNL     1      -7.275 -12.969  -3.987  1.00  0.00     0.219 HD
ENDBRANCH   6  28
TORSDOF 3
ENDMDL
MODEL 4
REMARK VINA RESULT: -6.502323095      1.917      3.496
REMARK  3 active torsions:
REMARK  status: ('A' for Active; 'I' for Inactive)
REMARK       I    between atoms: C2_2  and  N1_4 
REMARK    1  A    between atoms: C3_5  and  O2_6 
REMARK    2  A    between atoms: C4_8  and  O3_9 
REMARK    3  A    between atoms: C5_16  and  C6_17 
ROOT
HETATM    1  C1  UNL     1      -5.077 -15.532  -9.910  1.00  0.00     0.118 C 
HETATM    2  C2  UNL     1      -5.523 -16.519  -8.895  1.00  0.00     0.227 C 
HETATM    3  O1  UNL     1      -5.348 -17.721  -9.134  1.00  0.00    -0.273 OA
HETATM    4  N1  UNL     1      -6.133 -16.111  -7.683  1.00  0.00    -0.240 N 
HETATM    5  C3  UNL     1      -6.360 -14.781  -7.393  1.00  0.00     0.205 A 
HETATM    6  C4  UNL     1      -6.966 -14.784  -6.163  1.00  0.00     0.217 A 
HETATM    7  N2  UNL     1      -7.116 -16.016  -5.701  1.00  0.00    -0.196 N 
HETATM    8  N3  UNL     1      -7.572 -16.731  -4.691  1.00  0.00    -0.232 N 
ATOM      9  H3  UNL     1      -8.012 -16.365  -3.846  1.00  0.00     0.209 HD
HETATM   10  N4  UNL     1      -7.358 -18.000  -4.967  1.00  0.00    -0.282 N 
ATOM     11  H4  UNL     1      -7.612 -18.779  -4.359  1.00  0.00     0.188 HD
HETATM   12  C5  UNL     1      -6.756 -18.125  -6.164  1.00  0.00     0.097 A 
HETATM   13  C11 UNL     1      -6.594 -16.845  -6.652  1.00  0.00     0.171 A 
ENDROOT
BRANCH  12  14
HETATM   14  C6  UNL     1      -6.371 -19.362  -6.797  1.00  0.00     0.057 C 
HETATM   15  C7  UNL     1      -7.092 -20.224  -7.454  1.00  0.00     0.102 A 
HETATM   16  C8  UNL     1      -8.501 -20.083  -7.686  1.00  0.00     0.265 A 
HETATM   17  C10 UNL     1      -6.446 -21.448  -7.986  1.00  0.00     0.265 A 
HETATM   18  O4  UNL     1      -9.141 -19.083  -7.280  1.00  0.00    -0.267 OA
HETATM   19  N5  UNL     1      -9.273 -21.074  -8.400  1.00  0.00    -0.275 N 
HETATM   20  C9  UNL     1      -8.646 -22.231  -8.899  1.00  0.00     0.329 A 
ATOM     21  H5  UNL     1     -10.273 -20.935  -8.543  1.00  0.00     0.173 HD
HETATM   22  O5  UNL     1      -9.274 -23.132  -9.533  1.00  0.00    -0.246 OA
HETATM   23  N6  UNL     1      -7.252 -22.387  -8.680  1.00  0.00    -0.275 N 
ATOM     24  H6  UNL     1      -6.802 -23.228  -9.044  1.00  0.00     0.173 HD
HETATM   25  O6  UNL     1      -5.209 -21.658  -7.830  1.00  0.00    -0.267 OA
ENDBRANCH  12  14
BRANCH   5  26
HETATM   26  O2  UNL     1      -6.044 -13.679  -8.173  1.00  0.00    -0.342 OA
ATOM     27  H2  UNL     1      -6.138 -12.762  -7.945  1.00  0.00     0.219 HD
ENDBRANCH   5  26
BRANCH   6  28
HETATM   28  O3  UNL     1      -7.378 -13.645  -5.472  1.00  0.00    -0.342 OA
ATOM     29  H3  UNL     1      -7.682 -13.634  -4.571  1.00  0.00     0.219 HD
ENDBRANCH   6  28
TORSDOF 3
ENDMDL
MODEL 5
REMARK VINA RESULT: -5.254404354      3.933      6.711
REMARK  3 active torsions:
REMARK  status: ('A' for Active; 'I' for Inactive)
REMARK       I    between atoms: C2_2  and  N1_4 
REMARK    1  A    between atoms: C3_5  and  O2_6 
REMARK    2  A    between atoms: C4_8  and  O3_9 
REMARK    3  A    between atoms: C5_16  and  C6_17 
ROOT
HETATM    1  C1  UNL     1       0.024 -11.979  -8.162  1.00  0.00     0.118 C 
HETATM    2  C2  UNL     1      -1.414 -12.131  -8.496  1.00  0.00     0.227 C 
HETATM    3  O1  UNL     1      -1.878 -13.277  -8.569  1.00  0.00    -0.273 OA
HETATM    4  N1  UNL     1      -2.245 -11.007  -8.729  1.00  0.00    -0.240 N 
HETATM    5  C3  UNL     1      -1.757  -9.718  -8.674  1.00  0.00     0.205 A 
HETATM    6  C4  UNL     1      -2.833  -8.918  -8.961  1.00  0.00     0.217 A 
HETATM    7  N2  UNL     1      -3.923  -9.635  -9.181  1.00  0.00    -0.196 N 
HETATM    8  N3  UNL     1      -5.205  -9.568  -9.484  1.00  0.00    -0.232 N 
ATOM      9  H3  UNL     1      -5.740  -8.714  -9.648  1.00  0.00     0.209 HD
HETATM   10  N4  UNL     1      -5.672 -10.798  -9.538  1.00  0.00    -0.282 N 
ATOM     11  H4  UNL     1      -6.638 -11.045  -9.755  1.00  0.00     0.188 HD
HETATM   12  C5  UNL     1      -4.695 -11.683  -9.268  1.00  0.00     0.097 A 
HETATM   13  C11 UNL     1      -3.554 -10.943  -9.035  1.00  0.00     0.171 A 
ENDROOT
BRANCH  12  14
HETATM   14  C6  UNL     1      -4.832 -13.118  -9.239  1.00  0.00     0.057 C 
HETATM   15  C7  UNL     1      -5.430 -13.883  -8.374  1.00  0.00     0.102 A 
HETATM   16  C8  UNL     1      -6.115 -13.399  -7.209  1.00  0.00     0.265 A 
HETATM   17  C10 UNL     1      -5.397 -15.354  -8.566  1.00  0.00     0.265 A 
HETATM   18  O4  UNL     1      -6.203 -12.173  -6.957  1.00  0.00    -0.267 OA
HETATM   19  N5  UNL     1      -6.747 -14.282  -6.256  1.00  0.00    -0.275 N 
HETATM   20  C9  UNL     1      -6.707 -15.675  -6.452  1.00  0.00     0.329 A 
ATOM     21  H5  UNL     1      -7.223 -13.895  -5.442  1.00  0.00     0.173 HD
HETATM   22  O5  UNL     1      -7.245 -16.496  -5.649  1.00  0.00    -0.246 OA
HETATM   23  N6  UNL     1      -6.035 -16.173  -7.599  1.00  0.00    -0.275 N 
ATOM     24  H6  UNL     1      -6.009 -17.184  -7.737  1.00  0.00     0.173 HD
HETATM   25  O6  UNL     1      -4.817 -15.871  -9.563  1.00  0.00    -0.267 OA
ENDBRANCH  12  14
BRANCH   5  26
HETATM   26  O2  UNL     1      -0.461  -9.315  -8.391  1.00  0.00    -0.342 OA
ATOM     27  H2  UNL     1      -0.079  -9.147  -7.537  1.00  0.00     0.219 HD
ENDBRANCH   5  26
BRANCH   6  28
HETATM   28  O3  UNL     1      -2.802  -7.525  -9.016  1.00  0.00    -0.342 OA
ATOM     29  H3  UNL     1      -3.331  -6.946  -8.478  1.00  0.00     0.219 HD
ENDBRANCH   6  28
TORSDOF 3
ENDMDL
