MODEL 1
REMARK VINA RESULT: -7.306508920      0.000      0.000
REMARK  4 active torsions:
REMARK  status: ('A' for Active; 'I' for Inactive)
REMARK    1  A    between atoms: C3_7  and  N3_8 
REMARK    2  A    between atoms: N3_8  and  C4_10 
REMARK       I    between atoms: N7_19  and  C6_20 
REMARK    3  A    between atoms: C6_20  and  O2_22 
REMARK    4  A    between atoms: O2_22  and  C7_23 
ROOT
HETATM    1  C4  UNL     1      -6.849 -17.215  -7.925  1.00  0.00     0.738 A 
HETATM    2  N4  UNL     1      -7.604 -17.323  -6.792  1.00  0.00    -0.019 N 
ATOM      3  H4  UNL     1      -8.239 -18.081  -6.542  1.00  0.00     0.203 HD
HETATM    4  C5  UNL     1      -7.331 -16.207  -6.067  1.00  0.00     0.706 A 
HETATM    5  N5  UNL     1      -7.805 -15.862  -4.921  1.00  0.00    -0.233 N 
ATOM      6  H51 UNL     1      -7.599 -15.024  -4.376  1.00  0.00     0.174 HD
ATOM      7  H52 UNL     1      -8.478 -16.407  -4.382  1.00  0.00     0.174 HD
HETATM    8  N6  UNL     1      -6.446 -15.493  -6.775  1.00  0.00    -0.106 N 
ATOM      9  H6  UNL     1      -6.058 -14.599  -6.472  1.00  0.00     0.207 HD
HETATM   10  N7  UNL     1      -6.139 -16.087  -7.910  1.00  0.00    -0.009 N 
HETATM   11  C6  UNL     1      -5.240 -15.647  -8.931  1.00  0.00     0.402 C 
HETATM   12  O1  UNL     1      -5.050 -16.332  -9.969  1.00  0.00    -0.235 OA
ENDROOT
BRANCH   1  13
HETATM   13  N3  UNL     1      -6.829 -18.166  -8.974  1.00  0.00    -0.016 N 
ATOM     14  H3  UNL     1      -6.353 -17.902  -9.837  1.00  0.00     0.203 HD
BRANCH  13  15
HETATM   15  C3  UNL     1      -7.360 -19.336  -8.929  1.00  0.00     0.735 A 
HETATM   16  N2  UNL     1      -8.619 -19.538  -9.394  1.00  0.00    -0.129 N 
HETATM   17  N1  UNL     1      -9.213 -20.718  -9.372  1.00  0.00    -0.287 N 
ATOM     18  H2  UNL     1      -9.129 -18.743  -9.779  1.00  0.00     0.205 HD
HETATM   19  C2  UNL     1      -8.600 -21.808  -8.879  1.00  0.00     0.070 A 
ATOM     20  H1  UNL     1     -10.162 -20.803  -9.738  1.00  0.00     0.187 HD
HETATM   21  C1  UNL     1      -9.280 -23.128  -8.859  1.00  0.00     0.074 C 
HETATM   22  C11 UNL     1      -7.321 -21.630  -8.400  1.00  0.00     0.183 A 
HETATM   23  N8  UNL     1      -6.716 -20.405  -8.428  1.00  0.00    -0.052 N 
HETATM   24  N11 UNL     1      -6.469 -22.512  -7.858  1.00  0.00    -0.264 N 
HETATM   25  N9  UNL     1      -5.533 -20.570  -7.912  1.00  0.00    -0.203 N 
HETATM   26  N10 UNL     1      -5.374 -21.834  -7.564  1.00  0.00    -0.004 NA
ATOM     27  H9  UNL     1      -4.835 -19.835  -7.793  1.00  0.00     0.207 HD
ATOM     28  H11 UNL     1      -6.634 -23.506  -7.703  1.00  0.00     0.186 HD
ENDBRANCH  13  15
ENDBRANCH   1  13
BRANCH  11  29
HETATM   29  O2  UNL     1      -4.537 -14.466  -8.847  1.00  0.00    -0.292 OA
BRANCH  29  30
HETATM   30  C7  UNL     1      -5.092 -13.192  -8.790  1.00  0.00     0.061 C 
HETATM   31  C8  UNL     1      -6.204 -13.121  -9.824  1.00  0.00     0.046 C 
HETATM   32  C9  UNL     1      -4.028 -12.187  -9.211  1.00  0.00     0.046 C 
HETATM   33  C10 UNL     1      -5.602 -12.784  -7.448  1.00  0.00     0.046 C 
ENDBRANCH  29  30
ENDBRANCH  11  29
TORSDOF 4
ENDMDL
MODEL 2
REMARK VINA RESULT: -7.134904463      3.511      6.059
REMARK  4 active torsions:
REMARK  status: ('A' for Active; 'I' for Inactive)
REMARK    1  A    between atoms: C3_7  and  N3_8 
REMARK    2  A    between atoms: N3_8  and  C4_10 
REMARK       I    between atoms: N7_19  and  C6_20 
REMARK    3  A    between atoms: C6_20  and  O2_22 
REMARK    4  A    between atoms: O2_22  and  C7_23 
ROOT
HETATM    1  C4  UNL     1      -4.657 -12.027  -8.664  1.00  0.00     0.738 A 
HETATM    2  N4  UNL     1      -5.655 -11.321  -9.274  1.00  0.00    -0.019 N 
ATOM      3  H4  UNL     1      -6.659 -11.425  -9.134  1.00  0.00     0.203 HD
HETATM    4  C5  UNL     1      -5.026 -10.453 -10.108  1.00  0.00     0.706 A 
HETATM    5  N5  UNL     1      -5.550  -9.580 -10.896  1.00  0.00    -0.233 N 
ATOM      6  H51 UNL     1      -5.079  -8.928 -11.523  1.00  0.00     0.174 HD
ATOM      7  H52 UNL     1      -6.552  -9.418 -11.002  1.00  0.00     0.174 HD
HETATM    8  N6  UNL     1      -3.711 -10.665  -9.969  1.00  0.00    -0.106 N 
ATOM      9  H6  UNL     1      -2.991 -10.151 -10.477  1.00  0.00     0.207 HD
HETATM   10  N7  UNL     1      -3.463 -11.619  -9.095  1.00  0.00    -0.009 N 
HETATM   11  C6  UNL     1      -2.197 -12.134  -8.673  1.00  0.00     0.402 C 
HETATM   12  O1  UNL     1      -2.122 -13.056  -7.821  1.00  0.00    -0.235 OA
ENDROOT
BRANCH   1  13
HETATM   13  N3  UNL     1      -4.862 -13.053  -7.709  1.00  0.00    -0.016 N 
ATOM     14  H3  UNL     1      -4.622 -12.845  -6.740  1.00  0.00     0.203 HD
BRANCH  13  15
HETATM   15  C3  UNL     1      -5.327 -14.224  -7.963  1.00  0.00     0.735 A 
HETATM   16  N2  UNL     1      -4.972 -14.873  -9.101  1.00  0.00    -0.129 N 
HETATM   17  N1  UNL     1      -5.419 -16.076  -9.412  1.00  0.00    -0.287 N 
ATOM     18  H2  UNL     1      -4.332 -14.410  -9.745  1.00  0.00     0.205 HD
HETATM   19  C2  UNL     1      -6.266 -16.744  -8.609  1.00  0.00     0.070 A 
ATOM     20  H1  UNL     1      -5.114 -16.510 -10.283  1.00  0.00     0.187 HD
HETATM   21  C1  UNL     1      -6.762 -18.097  -8.971  1.00  0.00     0.074 C 
HETATM   22  C11 UNL     1      -6.643 -16.107  -7.446  1.00  0.00     0.183 A 
HETATM   23  N8  UNL     1      -6.173 -14.862  -7.135  1.00  0.00    -0.052 N 
HETATM   24  N11 UNL     1      -7.459 -16.511  -6.463  1.00  0.00    -0.264 N 
HETATM   25  N9  UNL     1      -6.708 -14.546  -5.991  1.00  0.00    -0.203 N 
HETATM   26  N10 UNL     1      -7.484 -15.531  -5.578  1.00  0.00    -0.004 NA
ATOM     27  H9  UNL     1      -6.551 -13.671  -5.491  1.00  0.00     0.207 HD
ATOM     28  H11 UNL     1      -7.961 -17.397  -6.410  1.00  0.00     0.186 HD
ENDBRANCH  13  15
ENDBRANCH   1  13
BRANCH  11  29
HETATM   29  O2  UNL     1      -1.001 -11.662  -9.163  1.00  0.00    -0.292 OA
BRANCH  29  30
HETATM   30  C7  UNL     1      -0.235 -10.647  -8.600  1.00  0.00     0.061 C 
HETATM   31  C8  UNL     1       0.452  -9.898  -9.730  1.00  0.00     0.046 C 
HETATM   32  C9  UNL     1       0.862 -11.286  -7.758  1.00  0.00     0.046 C 
HETATM   33  C10 UNL     1      -0.987  -9.698  -7.727  1.00  0.00     0.046 C 
ENDBRANCH  29  30
ENDBRANCH  11  29
TORSDOF 4
ENDMDL
MODEL 3
REMARK VINA RESULT: -6.922010916      0.992      2.135
REMARK  4 active torsions:
REMARK  status: ('A' for Active; 'I' for Inactive)
REMARK    1  A    between atoms: C3_7  and  N3_8 
REMARK    2  A    between atoms: N3_8  and  C4_10 
REMARK       I    between atoms: N7_19  and  C6_20 
REMARK    3  A    between atoms: C6_20  and  O2_22 
REMARK    4  A    between atoms: O2_22  and  C7_23 
ROOT
HETATM    1  C4  UNL     1      -6.319 -17.043  -7.643  1.00  0.00     0.738 A 
HETATM    2  N4  UNL     1      -6.993 -17.181  -6.463  1.00  0.00    -0.019 N 
ATOM      3  H4  UNL     1      -7.205 -18.048  -5.970  1.00  0.00     0.203 HD
HETATM    4  C5  UNL     1      -7.319 -15.918  -6.084  1.00  0.00     0.706 A 
HETATM    5  N5  UNL     1      -7.962 -15.540  -5.034  1.00  0.00    -0.233 N 
ATOM      6  H51 UNL     1      -8.207 -14.591  -4.749  1.00  0.00     0.174 HD
ATOM      7  H52 UNL     1      -8.325 -16.167  -4.317  1.00  0.00     0.174 HD
HETATM    8  N6  UNL     1      -6.841 -15.095  -7.025  1.00  0.00    -0.106 N 
ATOM      9  H6  UNL     1      -6.939 -14.079  -7.003  1.00  0.00     0.207 HD
HETATM   10  N7  UNL     1      -6.229 -15.758  -7.985  1.00  0.00    -0.009 N 
HETATM   11  C6  UNL     1      -5.591 -15.243  -9.157  1.00  0.00     0.402 C 
HETATM   12  O1  UNL     1      -5.044 -16.011  -9.989  1.00  0.00    -0.235 OA
ENDROOT
BRANCH   1  13
HETATM   13  N3  UNL     1      -5.793 -18.118  -8.402  1.00  0.00    -0.016 N 
ATOM     14  H3  UNL     1      -5.089 -17.894  -9.105  1.00  0.00     0.203 HD
BRANCH  13  15
HETATM   15  C3  UNL     1      -6.130 -19.352  -8.276  1.00  0.00     0.735 A 
HETATM   16  N2  UNL     1      -5.264 -20.251  -7.745  1.00  0.00    -0.129 N 
HETATM   17  N1  UNL     1      -5.557 -21.530  -7.593  1.00  0.00    -0.287 N 
ATOM     18  H2  UNL     1      -4.344 -19.925  -7.449  1.00  0.00     0.205 HD
HETATM   19  C2  UNL     1      -6.750 -22.030  -7.962  1.00  0.00     0.070 A 
ATOM     20  H1  UNL     1      -4.861 -22.155  -7.187  1.00  0.00     0.187 HD
HETATM   21  C1  UNL     1      -7.067 -23.470  -7.787  1.00  0.00     0.074 C 
HETATM   22  C11 UNL     1      -7.649 -21.137  -8.505  1.00  0.00     0.183 A 
HETATM   23  N8  UNL     1      -7.334 -19.816  -8.656  1.00  0.00    -0.052 N 
HETATM   24  N11 UNL     1      -8.895 -21.332  -8.958  1.00  0.00    -0.264 N 
HETATM   25  N9  UNL     1      -8.379 -19.251  -9.189  1.00  0.00    -0.203 N 
HETATM   26  N10 UNL     1      -9.324 -20.154  -9.375  1.00  0.00    -0.004 NA
ATOM     27  H9  UNL     1      -8.455 -18.262  -9.426  1.00  0.00     0.207 HD
ATOM     28  H11 UNL     1      -9.409 -22.212  -8.977  1.00  0.00     0.186 HD
ENDBRANCH  13  15
ENDBRANCH   1  13
BRANCH  11  29
HETATM   29  O2  UNL     1      -5.537 -13.898  -9.446  1.00  0.00    -0.292 OA
BRANCH  29  30
HETATM   30  C7  UNL     1      -4.766 -12.954  -8.776  1.00  0.00     0.061 C 
HETATM   31  C8  UNL     1      -5.091 -13.053  -7.294  1.00  0.00     0.046 C 
HETATM   32  C9  UNL     1      -5.201 -11.568  -9.236  1.00  0.00     0.046 C 
HETATM   33  C10 UNL     1      -3.294 -13.068  -8.996  1.00  0.00     0.046 C 
ENDBRANCH  29  30
ENDBRANCH  11  29
TORSDOF 4
ENDMDL
MODEL 4
REMARK VINA RESULT: -6.912722466      3.611      6.182
REMARK  4 active torsions:
REMARK  status: ('A' for Active; 'I' for Inactive)
REMARK    1  A    between atoms: C3_7  and  N3_8 
REMARK    2  A    between atoms: N3_8  and  C4_10 
REMARK       I    between atoms: N7_19  and  C6_20 
REMARK    3  A    between atoms: C6_20  and  O2_22 
REMARK    4  A    between atoms: O2_22  and  C7_23 
ROOT
HETATM    1  C4  UNL     1      -4.410 -12.178  -9.182  1.00  0.00     0.738 A 
HETATM    2  N4  UNL     1      -5.454 -11.450  -9.679  1.00  0.00    -0.019 N 
ATOM      3  H4  UNL     1      -6.361 -11.800  -9.985  1.00  0.00     0.203 HD
HETATM    4  C5  UNL     1      -5.027 -10.161  -9.679  1.00  0.00     0.706 A 
HETATM    5  N5  UNL     1      -5.663  -9.108 -10.060  1.00  0.00    -0.233 N 
ATOM      6  H51 UNL     1      -5.342  -8.139 -10.061  1.00  0.00     0.174 HD
ATOM      7  H52 UNL     1      -6.614  -9.104 -10.428  1.00  0.00     0.174 HD
HETATM    8  N6  UNL     1      -3.778 -10.166  -9.195  1.00  0.00    -0.106 N 
ATOM      9  H6  UNL     1      -3.205  -9.330  -9.080  1.00  0.00     0.207 HD
HETATM   10  N7  UNL     1      -3.382 -11.383  -8.887  1.00  0.00    -0.009 N 
HETATM   11  C6  UNL     1      -2.125 -11.802  -8.347  1.00  0.00     0.402 C 
HETATM   12  O1  UNL     1      -1.894 -13.014  -8.104  1.00  0.00    -0.235 OA
ENDROOT
BRANCH   1  13
HETATM   13  N3  UNL     1      -4.418 -13.584  -9.011  1.00  0.00    -0.016 N 
ATOM     14  H3  UNL     1      -3.738 -14.125  -9.545  1.00  0.00     0.203 HD
BRANCH  13  15
HETATM   15  C3  UNL     1      -5.211 -14.236  -8.237  1.00  0.00     0.735 A 
HETATM   16  N2  UNL     1      -5.691 -13.663  -7.105  1.00  0.00    -0.129 N 
HETATM   17  N1  UNL     1      -6.509 -14.286  -6.274  1.00  0.00    -0.287 N 
ATOM     18  H2  UNL     1      -5.409 -12.708  -6.884  1.00  0.00     0.205 HD
HETATM   19  C2  UNL     1      -6.921 -15.545  -6.501  1.00  0.00     0.070 A 
ATOM     20  H1  UNL     1      -6.834 -13.799  -5.439  1.00  0.00     0.187 HD
HETATM   21  C1  UNL     1      -7.839 -16.235  -5.559  1.00  0.00     0.074 C 
HETATM   22  C11 UNL     1      -6.448 -16.151  -7.645  1.00  0.00     0.183 A 
HETATM   23  N8  UNL     1      -5.603 -15.496  -8.497  1.00  0.00    -0.052 N 
HETATM   24  N11 UNL     1      -6.677 -17.377  -8.134  1.00  0.00    -0.264 N 
HETATM   25  N9  UNL     1      -5.345 -16.327  -9.465  1.00  0.00    -0.203 N 
HETATM   26  N10 UNL     1      -5.985 -17.463  -9.256  1.00  0.00    -0.004 NA
ATOM     27  H9  UNL     1      -4.739 -16.131 -10.262  1.00  0.00     0.207 HD
ATOM     28  H11 UNL     1      -7.267 -18.100  -7.722  1.00  0.00     0.186 HD
ENDBRANCH  13  15
ENDBRANCH   1  13
BRANCH  11  29
HETATM   29  O2  UNL     1      -1.105 -10.921  -8.065  1.00  0.00    -0.292 OA
BRANCH  29  30
HETATM   30  C7  UNL     1      -0.038 -10.619  -8.904  1.00  0.00     0.061 C 
HETATM   31  C8  UNL     1       1.201 -11.303  -8.348  1.00  0.00     0.046 C 
HETATM   32  C9  UNL     1       0.214  -9.118  -8.837  1.00  0.00     0.046 C 
HETATM   33  C10 UNL     1      -0.237 -10.986 -10.338  1.00  0.00     0.046 C 
ENDBRANCH  29  30
ENDBRANCH  11  29
TORSDOF 4
ENDMDL
MODEL 5
REMARK VINA RESULT: -6.681597853      3.254      7.790
REMARK  4 active torsions:
REMARK  status: ('A' for Active; 'I' for Inactive)
REMARK    1  A    between atoms: C3_7  and  N3_8 
REMARK    2  A    between atoms: N3_8  and  C4_10 
REMARK       I    between atoms: N7_19  and  C6_20 
REMARK    3  A    between atoms: C6_20  and  O2_22 
REMARK    4  A    between atoms: O2_22  and  C7_23 
ROOT
HETATM    1  C4  UNL     1      -5.614 -14.554  -7.762  1.00  0.00     0.738 A 
HETATM    2  N4  UNL     1      -6.107 -13.895  -6.671  1.00  0.00    -0.019 N 
ATOM      3  H4  UNL     1      -5.796 -12.999  -6.298  1.00  0.00     0.203 HD
HETATM    4  C5  UNL     1      -7.099 -14.687  -6.188  1.00  0.00     0.706 A 
HETATM    5  N5  UNL     1      -7.857 -14.485  -5.166  1.00  0.00    -0.233 N 
ATOM      6  H51 UNL     1      -8.602 -15.080  -4.803  1.00  0.00     0.174 HD
ATOM      7  H52 UNL     1      -7.809 -13.668  -4.559  1.00  0.00     0.174 HD
HETATM    8  N6  UNL     1      -7.162 -15.760  -6.986  1.00  0.00    -0.106 N 
ATOM      9  H6  UNL     1      -7.822 -16.529  -6.863  1.00  0.00     0.207 HD
HETATM   10  N7  UNL     1      -6.267 -15.701  -7.951  1.00  0.00    -0.009 N 
HETATM   11  C6  UNL     1      -6.019 -16.645  -8.996  1.00  0.00     0.402 C 
HETATM   12  O1  UNL     1      -5.120 -16.446  -9.852  1.00  0.00    -0.235 OA
ENDROOT
BRANCH   1  13
HETATM   13  N3  UNL     1      -4.554 -14.086  -8.575  1.00  0.00    -0.016 N 
ATOM     14  H3  UNL     1      -3.920 -14.784  -8.965  1.00  0.00     0.203 HD
BRANCH  13  15
HETATM   15  C3  UNL     1      -4.324 -12.855  -8.864  1.00  0.00     0.735 A 
HETATM   16  N2  UNL     1      -5.302 -12.079  -9.395  1.00  0.00    -0.129 N 
HETATM   17  N1  UNL     1      -5.122 -10.809  -9.711  1.00  0.00    -0.287 N 
ATOM     18  H2  UNL     1      -6.219 -12.495  -9.559  1.00  0.00     0.205 HD
HETATM   19  C2  UNL     1      -3.940 -10.196  -9.523  1.00  0.00     0.070 A 
ATOM     20  H1  UNL     1      -5.899 -10.280 -10.107  1.00  0.00     0.187 HD
HETATM   21  C1  UNL     1      -3.749  -8.767  -9.883  1.00  0.00     0.074 C 
HETATM   22  C11 UNL     1      -2.929 -10.962  -8.985  1.00  0.00     0.183 A 
HETATM   23  N8  UNL     1      -3.128 -12.275  -8.662  1.00  0.00    -0.052 N 
HETATM   24  N11 UNL     1      -1.663 -10.638  -8.685  1.00  0.00    -0.264 N 
HETATM   25  N9  UNL     1      -1.997 -12.708  -8.184  1.00  0.00    -0.203 N 
HETATM   26  N10 UNL     1      -1.109 -11.732  -8.194  1.00  0.00    -0.004 NA
ATOM     27  H9  UNL     1      -1.824 -13.657  -7.852  1.00  0.00     0.207 HD
ATOM     28  H11 UNL     1      -1.217  -9.730  -8.812  1.00  0.00     0.186 HD
ENDBRANCH  13  15
ENDBRANCH   1  13
BRANCH  11  29
HETATM   29  O2  UNL     1      -6.736 -17.813  -9.130  1.00  0.00    -0.292 OA
BRANCH  29  30
HETATM   30  C7  UNL     1      -6.551 -18.970  -8.380  1.00  0.00     0.061 C 
HETATM   31  C8  UNL     1      -6.775 -20.161  -9.297  1.00  0.00     0.046 C 
HETATM   32  C9  UNL     1      -7.634 -19.024  -7.309  1.00  0.00     0.046 C 
HETATM   33  C10 UNL     1      -5.228 -19.078  -7.699  1.00  0.00     0.046 C 
ENDBRANCH  29  30
ENDBRANCH  11  29
TORSDOF 4
ENDMDL
