MODEL 1
REMARK VINA RESULT: -7.311342611      0.000      0.000
REMARK  5 active torsions:
REMARK  status: ('A' for Active; 'I' for Inactive)
REMARK    1  A    between atoms: N1_2  and  C2_5 
REMARK    2  A    between atoms: C3_10  and  N4_11 
REMARK    3  A    between atoms: N4_11  and  N5_13 
REMARK    4  A    between atoms: C4_18  and  N7_19 
REMARK    5  A    between atoms: N7_19  and  C5_21 
ROOT
HETATM    1  C5  UNL     1      -6.645 -18.783  -8.314  1.00  0.00     0.153 A 
HETATM    2  N8  UNL     1      -5.384 -18.885  -7.876  1.00  0.00    -0.224 N 
ATOM      3  H8  UNL     1      -4.837 -18.038  -7.720  1.00  0.00     0.198 HD
HETATM    4  O3  UNL     1      -4.842 -20.052  -7.645  1.00  0.00    -0.154 OA
HETATM    5  N9  UNL     1      -5.466 -21.178  -7.817  1.00  0.00    -0.230 N 
ATOM      6  H9  UNL     1      -4.991 -22.059  -7.620  1.00  0.00     0.197 HD
HETATM    7  C6  UNL     1      -6.736 -21.182  -8.252  1.00  0.00     0.161 A 
HETATM    8  C7  UNL     1      -7.467 -22.421  -8.456  1.00  0.00     0.121 C 
HETATM    9  N10 UNL     1      -8.035 -23.416  -8.608  1.00  0.00    -0.190 NA
HETATM   10  C8  UNL     1      -7.337 -19.973  -8.506  1.00  0.00     0.116 A 
HETATM   11  S1  UNL     1      -8.885 -19.922  -9.040  1.00  0.00    -0.073 SA
ENDROOT
BRANCH   1  12
HETATM   12  N7  UNL     1      -7.172 -17.644  -8.537  1.00  0.00    -0.326 N 
ATOM     13  H7  UNL     1      -7.636 -17.489  -9.433  1.00  0.00     0.169 HD
BRANCH  12  14
HETATM   14  C4  UNL     1      -7.144 -16.579  -7.596  1.00  0.00     0.151 A 
HETATM   15  C2  UNL     1      -7.948 -16.714  -6.396  1.00  0.00     0.367 A 
HETATM   16  N2  UNL     1      -7.817 -15.584  -5.532  1.00  0.00    -0.285 N 
HETATM   17  N3  UNL     1      -7.015 -14.513  -5.866  1.00  0.00    -0.133 N 
ATOM     18  H2  UNL     1      -8.329 -15.568  -4.650  1.00  0.00     0.183 HD
HETATM   19  C3  UNL     1      -6.316 -14.429  -6.942  1.00  0.00     0.717 A 
ATOM     20  H3  UNL     1      -6.973 -13.732  -5.212  1.00  0.00     0.205 HD
HETATM   21  N6  UNL     1      -6.423 -15.553  -7.822  1.00  0.00    -0.174 N 
ATOM     22  H6  UNL     1      -5.885 -15.532  -8.688  1.00  0.00     0.185 HD
BRANCH  15  23
HETATM   23  N1  UNL     1      -7.721 -17.975  -5.699  1.00  0.00    -0.050 N 
HETATM   24  C1  UNL     1      -7.106 -17.755  -4.405  1.00  0.00     0.270 C 
ATOM     25  H12 UNL     1      -7.179 -18.626  -6.267  1.00  0.00     0.279 HD
ATOM     26  H11 UNL     1      -8.581 -18.519  -5.618  1.00  0.00     0.279 HD
ENDBRANCH  15  23
BRANCH  19  27
HETATM   27  N4  UNL     1      -5.503 -13.310  -7.250  1.00  0.00    -0.070 N 
ATOM     28  H4  UNL     1      -5.750 -12.383  -6.906  1.00  0.00     0.212 HD
BRANCH  27  29
HETATM   29  N5  UNL     1      -4.366 -13.489  -8.026  1.00  0.00    -0.024 N 
HETATM   30  O1  UNL     1      -4.356 -14.176  -9.075  1.00  0.00    -0.516 OA
HETATM   31  O2  UNL     1      -3.146 -12.904  -7.681  1.00  0.00    -0.516 OA
ENDBRANCH  27  29
ENDBRANCH  19  27
ENDBRANCH  12  14
ENDBRANCH   1  12
TORSDOF 5
ENDMDL
MODEL 2
REMARK VINA RESULT: -7.282173421      1.845      2.101
REMARK  5 active torsions:
REMARK  status: ('A' for Active; 'I' for Inactive)
REMARK    1  A    between atoms: N1_2  and  C2_5 
REMARK    2  A    between atoms: C3_10  and  N4_11 
REMARK    3  A    between atoms: N4_11  and  N5_13 
REMARK    4  A    between atoms: C4_18  and  N7_19 
REMARK    5  A    between atoms: N7_19  and  C5_21 
ROOT
HETATM    1  C5  UNL     1      -7.083 -19.269  -8.879  1.00  0.00     0.153 A 
HETATM    2  N8  UNL     1      -8.294 -18.999  -9.385  1.00  0.00    -0.224 N 
ATOM      3  H8  UNL     1      -8.485 -18.072  -9.763  1.00  0.00     0.198 HD
HETATM    4  O3  UNL     1      -9.236 -19.906  -9.400  1.00  0.00    -0.154 OA
HETATM    5  N9  UNL     1      -9.078 -21.111  -8.940  1.00  0.00    -0.230 N 
ATOM      6  H9  UNL     1      -9.850 -21.776  -8.979  1.00  0.00     0.197 HD
HETATM    7  C6  UNL     1      -7.900 -21.479  -8.413  1.00  0.00     0.161 A 
HETATM    8  C7  UNL     1      -7.685 -22.817  -7.889  1.00  0.00     0.121 C 
HETATM    9  N10 UNL     1      -7.531 -23.887  -7.480  1.00  0.00    -0.190 NA
HETATM   10  C8  UNL     1      -6.887 -20.551  -8.380  1.00  0.00     0.116 A 
HETATM   11  S1  UNL     1      -5.429 -20.949  -7.747  1.00  0.00    -0.073 SA
ENDROOT
BRANCH   1  12
HETATM   12  N7  UNL     1      -6.166 -18.384  -8.866  1.00  0.00    -0.326 N 
ATOM     13  H7  UNL     1      -5.249 -18.626  -9.241  1.00  0.00     0.169 HD
BRANCH  12  14
HETATM   14  C4  UNL     1      -6.363 -17.073  -8.351  1.00  0.00     0.151 A 
HETATM   15  C2  UNL     1      -7.133 -16.933  -7.130  1.00  0.00     0.367 A 
HETATM   16  N2  UNL     1      -7.242 -15.571  -6.716  1.00  0.00    -0.285 N 
HETATM   17  N3  UNL     1      -6.670 -14.550  -7.447  1.00  0.00    -0.133 N 
ATOM     18  H2  UNL     1      -7.753 -15.347  -5.863  1.00  0.00     0.183 HD
HETATM   19  C3  UNL     1      -5.993 -14.713  -8.529  1.00  0.00     0.717 A 
ATOM     20  H3  UNL     1      -6.793 -13.597  -7.105  1.00  0.00     0.205 HD
HETATM   21  N6  UNL     1      -5.862 -16.072  -8.960  1.00  0.00    -0.174 N 
ATOM     22  H6  UNL     1      -5.333 -16.251  -9.813  1.00  0.00     0.185 HD
BRANCH  15  23
HETATM   23  N1  UNL     1      -6.662 -17.803  -6.057  1.00  0.00    -0.050 N 
HETATM   24  C1  UNL     1      -7.341 -17.510  -4.810  1.00  0.00     0.270 C 
ATOM     25  H12 UNL     1      -5.648 -17.756  -5.953  1.00  0.00     0.279 HD
ATOM     26  H11 UNL     1      -6.747 -18.788  -6.308  1.00  0.00     0.279 HD
ENDBRANCH  15  23
BRANCH  19  27
HETATM   27  N4  UNL     1      -5.421 -13.638  -9.252  1.00  0.00    -0.070 N 
ATOM     28  H4  UNL     1      -5.575 -13.554 -10.257  1.00  0.00     0.212 HD
BRANCH  27  29
HETATM   29  N5  UNL     1      -4.648 -12.702  -8.581  1.00  0.00    -0.024 N 
HETATM   30  O1  UNL     1      -3.854 -13.005  -7.659  1.00  0.00    -0.516 OA
HETATM   31  O2  UNL     1      -4.708 -11.343  -8.897  1.00  0.00    -0.516 OA
ENDBRANCH  27  29
ENDBRANCH  19  27
ENDBRANCH  12  14
ENDBRANCH   1  12
TORSDOF 5
ENDMDL
MODEL 3
REMARK VINA RESULT: -7.054627733      1.122      1.374
REMARK  5 active torsions:
REMARK  status: ('A' for Active; 'I' for Inactive)
REMARK    1  A    between atoms: N1_2  and  C2_5 
REMARK    2  A    between atoms: C3_10  and  N4_11 
REMARK    3  A    between atoms: N4_11  and  N5_13 
REMARK    4  A    between atoms: C4_18  and  N7_19 
REMARK    5  A    between atoms: N7_19  and  C5_21 
ROOT
HETATM    1  C5  UNL     1      -6.352 -18.928  -8.751  1.00  0.00     0.153 A 
HETATM    2  N8  UNL     1      -5.087 -19.221  -8.423  1.00  0.00    -0.224 N 
ATOM      3  H8  UNL     1      -4.359 -18.518  -8.553  1.00  0.00     0.198 HD
HETATM    4  O3  UNL     1      -4.769 -20.394  -7.940  1.00  0.00    -0.154 OA
HETATM    5  N9  UNL     1      -5.632 -21.345  -7.743  1.00  0.00    -0.230 N 
ATOM      6  H9  UNL     1      -5.325 -22.240  -7.363  1.00  0.00     0.197 HD
HETATM    7  C6  UNL     1      -6.926 -21.149  -8.039  1.00  0.00     0.161 A 
HETATM    8  C7  UNL     1      -7.921 -22.188  -7.833  1.00  0.00     0.121 C 
HETATM    9  N10 UNL     1      -8.698 -23.025  -7.658  1.00  0.00    -0.190 NA
HETATM   10  C8  UNL     1      -7.295 -19.928  -8.550  1.00  0.00     0.116 A 
HETATM   11  S1  UNL     1      -8.863 -19.638  -8.930  1.00  0.00    -0.073 SA
ENDROOT
BRANCH   1  12
HETATM   12  N7  UNL     1      -6.659 -17.785  -9.222  1.00  0.00    -0.326 N 
ATOM     13  H7  UNL     1      -7.159 -17.741 -10.110  1.00  0.00     0.169 HD
BRANCH  12  14
HETATM   14  C4  UNL     1      -6.339 -16.565  -8.565  1.00  0.00     0.151 A 
HETATM   15  C2  UNL     1      -6.907 -16.334  -7.251  1.00  0.00     0.367 A 
HETATM   16  N2  UNL     1      -6.495 -15.082  -6.700  1.00  0.00    -0.285 N 
HETATM   17  N3  UNL     1      -5.663 -14.230  -7.396  1.00  0.00    -0.133 N 
ATOM     18  H2  UNL     1      -6.823 -14.812  -5.773  1.00  0.00     0.183 HD
HETATM   19  C3  UNL     1      -5.179 -14.469  -8.563  1.00  0.00     0.717 A 
ATOM     20  H3  UNL     1      -5.415 -13.345  -6.952  1.00  0.00     0.205 HD
HETATM   21  N6  UNL     1      -5.571 -15.723  -9.134  1.00  0.00    -0.174 N 
ATOM     22  H6  UNL     1      -5.210 -15.957 -10.058  1.00  0.00     0.185 HD
BRANCH  15  23
HETATM   23  N1  UNL     1      -6.685 -17.445  -6.332  1.00  0.00    -0.050 N 
HETATM   24  C1  UNL     1      -7.398 -17.243  -5.085  1.00  0.00     0.270 C 
ATOM     25  H12 UNL     1      -5.691 -17.609  -6.174  1.00  0.00     0.279 HD
ATOM     26  H11 UNL     1      -6.924 -18.340  -6.759  1.00  0.00     0.279 HD
ENDBRANCH  15  23
BRANCH  19  27
HETATM   27  N4  UNL     1      -4.327 -13.567  -9.246  1.00  0.00    -0.070 N 
ATOM     28  H4  UNL     1      -4.242 -13.608 -10.262  1.00  0.00     0.212 HD
BRANCH  27  29
HETATM   29  N5  UNL     1      -3.609 -12.628  -8.520  1.00  0.00    -0.024 N 
HETATM   30  O1  UNL     1      -2.704 -12.936  -7.709  1.00  0.00    -0.516 OA
HETATM   31  O2  UNL     1      -3.854 -11.260  -8.652  1.00  0.00    -0.516 OA
ENDBRANCH  27  29
ENDBRANCH  19  27
ENDBRANCH  12  14
ENDBRANCH   1  12
TORSDOF 5
ENDMDL
MODEL 4
REMARK VINA RESULT: -6.949692580      2.636      7.040
REMARK  5 active torsions:
REMARK  status: ('A' for Active; 'I' for Inactive)
REMARK    1  A    between atoms: N1_2  and  C2_5 
REMARK    2  A    between atoms: C3_10  and  N4_11 
REMARK    3  A    between atoms: N4_11  and  N5_13 
REMARK    4  A    between atoms: C4_18  and  N7_19 
REMARK    5  A    between atoms: N7_19  and  C5_21 
ROOT
HETATM    1  C5  UNL     1      -6.751 -17.738  -6.838  1.00  0.00     0.153 A 
HETATM    2  N8  UNL     1      -7.426 -17.732  -5.681  1.00  0.00    -0.224 N 
ATOM      3  H8  UNL     1      -7.740 -18.615  -5.279  1.00  0.00     0.198 HD
HETATM    4  O3  UNL     1      -7.690 -16.613  -5.060  1.00  0.00    -0.154 OA
HETATM    5  N9  UNL     1      -7.328 -15.446  -5.501  1.00  0.00    -0.230 N 
ATOM      6  H9  UNL     1      -7.563 -14.606  -4.972  1.00  0.00     0.197 HD
HETATM    7  C6  UNL     1      -6.646 -15.345  -6.652  1.00  0.00     0.161 A 
HETATM    8  C7  UNL     1      -6.224 -14.058  -7.178  1.00  0.00     0.121 C 
HETATM    9  N10 UNL     1      -5.893 -13.026  -7.579  1.00  0.00    -0.190 NA
HETATM   10  C8  UNL     1      -6.352 -16.502  -7.333  1.00  0.00     0.116 A 
HETATM   11  S1  UNL     1      -5.521 -16.436  -8.744  1.00  0.00    -0.073 SA
ENDROOT
BRANCH   1  12
HETATM   12  N7  UNL     1      -6.494 -18.830  -7.442  1.00  0.00    -0.326 N 
ATOM     13  H7  UNL     1      -5.519 -19.112  -7.545  1.00  0.00     0.169 HD
BRANCH  12  14
HETATM   14  C4  UNL     1      -7.504 -19.675  -7.978  1.00  0.00     0.151 A 
HETATM   15  C2  UNL     1      -8.411 -19.108  -8.957  1.00  0.00     0.367 A 
HETATM   16  N2  UNL     1      -9.365 -20.064  -9.423  1.00  0.00    -0.285 N 
HETATM   17  N3  UNL     1      -9.377 -21.358  -8.945  1.00  0.00    -0.133 N 
ATOM     18  H2  UNL     1     -10.051 -19.785 -10.123  1.00  0.00     0.183 HD
HETATM   19  C3  UNL     1      -8.554 -21.825  -8.074  1.00  0.00     0.717 A 
ATOM     20  H3  UNL     1     -10.090 -21.990  -9.310  1.00  0.00     0.205 HD
HETATM   21  N6  UNL     1      -7.583 -20.888  -7.597  1.00  0.00    -0.174 N 
ATOM     22  H6  UNL     1      -6.908 -21.214  -6.905  1.00  0.00     0.185 HD
BRANCH  15  23
HETATM   23  N1  UNL     1      -7.720 -18.435 -10.051  1.00  0.00    -0.050 N 
HETATM   24  C1  UNL     1      -6.762 -19.318 -10.687  1.00  0.00     0.270 C 
ATOM     25  H12 UNL     1      -7.283 -17.567  -9.741  1.00  0.00     0.279 HD
ATOM     26  H11 UNL     1      -8.377 -18.045 -10.727  1.00  0.00     0.279 HD
ENDBRANCH  15  23
BRANCH  19  27
HETATM   27  N4  UNL     1      -8.599 -23.162  -7.607  1.00  0.00    -0.070 N 
ATOM     28  H4  UNL     1      -9.363 -23.778  -7.882  1.00  0.00     0.212 HD
BRANCH  27  29
HETATM   29  N5  UNL     1      -7.593 -23.624  -6.771  1.00  0.00    -0.024 N 
HETATM   30  O1  UNL     1      -6.427 -23.859  -7.169  1.00  0.00    -0.516 OA
HETATM   31  O2  UNL     1      -7.821 -23.859  -5.414  1.00  0.00    -0.516 OA
ENDBRANCH  27  29
ENDBRANCH  19  27
ENDBRANCH  12  14
ENDBRANCH   1  12
TORSDOF 5
ENDMDL
MODEL 5
REMARK VINA RESULT: -6.195291667      3.615      6.275
REMARK  5 active torsions:
REMARK  status: ('A' for Active; 'I' for Inactive)
REMARK    1  A    between atoms: N1_2  and  C2_5 
REMARK    2  A    between atoms: C3_10  and  N4_11 
REMARK    3  A    between atoms: N4_11  and  N5_13 
REMARK    4  A    between atoms: C4_18  and  N7_19 
REMARK    5  A    between atoms: N7_19  and  C5_21 
ROOT
HETATM    1  C5  UNL     1      -5.550 -13.828  -8.242  1.00  0.00     0.153 A 
HETATM    2  N8  UNL     1      -5.189 -14.535  -9.320  1.00  0.00    -0.224 N 
ATOM      3  H8  UNL     1      -4.765 -14.057 -10.115  1.00  0.00     0.198 HD
HETATM    4  O3  UNL     1      -5.370 -15.829  -9.371  1.00  0.00    -0.154 OA
HETATM    5  N9  UNL     1      -5.901 -16.516  -8.405  1.00  0.00    -0.230 N 
ATOM      6  H9  UNL     1      -6.018 -17.525  -8.502  1.00  0.00     0.197 HD
HETATM    7  C6  UNL     1      -6.296 -15.899  -7.281  1.00  0.00     0.161 A 
HETATM    8  C7  UNL     1      -6.894 -16.634  -6.178  1.00  0.00     0.121 C 
HETATM    9  N10 UNL     1      -7.363 -17.235  -5.311  1.00  0.00    -0.190 NA
HETATM   10  C8  UNL     1      -6.121 -14.539  -7.193  1.00  0.00     0.116 A 
HETATM   11  S1  UNL     1      -6.586 -13.737  -5.842  1.00  0.00    -0.073 SA
ENDROOT
BRANCH   1  12
HETATM   12  N7  UNL     1      -5.372 -12.568  -8.194  1.00  0.00    -0.326 N 
ATOM     13  H7  UNL     1      -6.018 -12.005  -7.639  1.00  0.00     0.169 HD
BRANCH  12  14
HETATM   14  C4  UNL     1      -4.313 -11.908  -8.877  1.00  0.00     0.151 A 
HETATM   15  C2  UNL     1      -4.657 -10.812  -9.761  1.00  0.00     0.367 A 
HETATM   16  N2  UNL     1      -3.504 -10.231 -10.371  1.00  0.00    -0.285 N 
HETATM   17  N3  UNL     1      -2.237 -10.715 -10.118  1.00  0.00    -0.133 N 
ATOM     18  H2  UNL     1      -3.619  -9.443 -11.008  1.00  0.00     0.183 HD
HETATM   19  C3  UNL     1      -1.970 -11.693  -9.326  1.00  0.00     0.717 A 
ATOM     20  H3  UNL     1      -1.455 -10.264 -10.593  1.00  0.00     0.205 HD
HETATM   21  N6  UNL     1      -3.110 -12.287  -8.696  1.00  0.00    -0.174 N 
ATOM     22  H6  UNL     1      -2.948 -13.066  -8.057  1.00  0.00     0.185 HD
BRANCH  15  23
HETATM   23  N1  UNL     1      -5.511  -9.814  -9.125  1.00  0.00    -0.050 N 
HETATM   24  C1  UNL     1      -5.790  -8.713 -10.026  1.00  0.00     0.270 C 
ATOM     25  H12 UNL     1      -5.113  -9.487  -8.244  1.00  0.00     0.279 HD
ATOM     26  H11 UNL     1      -6.369 -10.229  -8.763  1.00  0.00     0.279 HD
ENDBRANCH  15  23
BRANCH  19  27
HETATM   27  N4  UNL     1      -0.654 -12.161  -9.092  1.00  0.00    -0.070 N 
ATOM     28  H4  UNL     1       0.122 -11.819  -9.658  1.00  0.00     0.212 HD
BRANCH  27  29
HETATM   29  N5  UNL     1      -0.432 -13.091  -8.087  1.00  0.00    -0.024 N 
HETATM   30  O1  UNL     1      -1.026 -13.058  -6.982  1.00  0.00    -0.516 OA
HETATM   31  O2  UNL     1       0.479 -14.137  -8.246  1.00  0.00    -0.516 OA
ENDBRANCH  27  29
ENDBRANCH  19  27
ENDBRANCH  12  14
ENDBRANCH   1  12
TORSDOF 5
ENDMDL
