MODEL 1
REMARK VINA RESULT: -7.057954451      0.000      0.000
REMARK  6 active torsions:
REMARK  status: ('A' for Active; 'I' for Inactive)
REMARK    1  A    between atoms: C4_10  and  O2_11 
REMARK    2  A    between atoms: C5_13  and  C6_14 
REMARK    3  A    between atoms: C6_14  and  N4_15 
REMARK    4  A    between atoms: N4_15  and  N5_17 
REMARK    5  A    between atoms: N5_17  and  C7_19 
REMARK    6  A    between atoms: C8_23  and  N7_24 
ROOT
HETATM    1  C1  UNL     1      -4.846 -12.737  -8.515  1.00  0.00     0.181 C 
HETATM    2  N1  UNL     1      -5.574 -13.451  -7.490  1.00  0.00    -0.265 N 
HETATM    3  N2  UNL     1      -6.000 -12.990  -6.343  1.00  0.00    -0.239 N 
ATOM      4  H2  UNL     1      -5.859 -12.030  -6.028  1.00  0.00     0.208 HD
HETATM    5  N3  UNL     1      -6.634 -13.912  -5.636  1.00  0.00    -0.279 N 
ATOM      6  H3  UNL     1      -7.050 -13.779  -4.715  1.00  0.00     0.189 HD
HETATM    7  C2  UNL     1      -6.636 -15.052  -6.342  1.00  0.00     0.148 A 
HETATM    8  C3  UNL     1      -7.131 -16.322  -6.133  1.00  0.00     0.239 A 
HETATM    9  O1  UNL     1      -7.755 -16.619  -5.058  1.00  0.00    -0.283 OA
HETATM   10  C4  UNL     1      -6.926 -17.244  -7.122  1.00  0.00     0.147 A 
HETATM   11  C5  UNL     1      -6.259 -16.984  -8.307  1.00  0.00     0.088 A 
HETATM   12  N8  UNL     1      -5.787 -15.738  -8.484  1.00  0.00    -0.336 N 
ATOM     13  H8  UNL     1      -5.293 -15.530  -9.351  1.00  0.00     0.168 HD
HETATM   14  C9  UNL     1      -5.930 -14.750  -7.581  1.00  0.00     0.156 A 
ENDROOT
BRANCH  11  15
HETATM   15  C6  UNL     1      -6.082 -18.021  -9.310  1.00  0.00     0.139 C 
BRANCH  15  16
HETATM   16  N4  UNL     1      -7.087 -18.648  -9.795  1.00  0.00    -0.308 N 
ATOM     17  H4  UNL     1      -7.952 -18.123  -9.920  1.00  0.00     0.186 HD
BRANCH  16  18
HETATM   18  N5  UNL     1      -7.094 -19.975 -10.162  1.00  0.00    -0.279 N 
ATOM     19  H5  UNL     1      -6.675 -20.250 -11.050  1.00  0.00     0.189 HD
BRANCH  18  20
HETATM   20  C7  UNL     1      -7.630 -20.891  -9.389  1.00  0.00     0.172 A 
HETATM   21  N6  UNL     1      -8.845 -21.442  -9.520  1.00  0.00    -0.303 N 
HETATM   22  S1  UNL     1      -9.201 -22.577  -8.358  1.00  0.00     0.013 SA
ATOM     23  H6  UNL     1      -9.494 -21.187 -10.265  1.00  0.00     0.176 HD
HETATM   24  C8  UNL     1      -7.875 -22.698  -7.329  1.00  0.00     0.129 A 
HETATM   25  S2  UNL     1      -6.850 -21.559  -8.048  1.00  0.00    -0.026 SA
BRANCH  24  26
HETATM   26  N7  UNL     1      -7.680 -23.448  -6.275  1.00  0.00    -0.387 N 
ATOM     27  H72 UNL     1      -6.821 -23.877  -5.931  1.00  0.00     0.157 HD
ATOM     28  H71 UNL     1      -8.333 -23.772  -5.561  1.00  0.00     0.157 HD
ENDBRANCH  24  26
ENDBRANCH  18  20
ENDBRANCH  16  18
ENDBRANCH  15  16
ENDBRANCH  11  15
BRANCH  10  29
HETATM   29  O2  UNL     1      -7.406 -18.538  -6.958  1.00  0.00    -0.355 OA
ATOM     30  H2  UNL     1      -6.883 -19.272  -7.261  1.00  0.00     0.218 HD
ENDBRANCH  10  29
TORSDOF 6
ENDMDL
MODEL 2
REMARK VINA RESULT: -6.958728158      1.260      1.568
REMARK  6 active torsions:
REMARK  status: ('A' for Active; 'I' for Inactive)
REMARK    1  A    between atoms: C4_10  and  O2_11 
REMARK    2  A    between atoms: C5_13  and  C6_14 
REMARK    3  A    between atoms: C6_14  and  N4_15 
REMARK    4  A    between atoms: N4_15  and  N5_17 
REMARK    5  A    between atoms: N5_17  and  C7_19 
REMARK    6  A    between atoms: C8_23  and  N7_24 
ROOT
HETATM    1  C1  UNL     1      -4.393 -13.140  -8.859  1.00  0.00     0.181 C 
HETATM    2  N1  UNL     1      -5.242 -13.648  -7.805  1.00  0.00    -0.265 N 
HETATM    3  N2  UNL     1      -5.670 -13.012  -6.745  1.00  0.00    -0.239 N 
ATOM      4  H2  UNL     1      -5.441 -12.041  -6.534  1.00  0.00     0.208 HD
HETATM    5  N3  UNL     1      -6.434 -13.774  -5.978  1.00  0.00    -0.279 N 
ATOM      6  H3  UNL     1      -6.876 -13.490  -5.105  1.00  0.00     0.189 HD
HETATM    7  C2  UNL     1      -6.525 -14.984  -6.549  1.00  0.00     0.148 A 
HETATM    8  C3  UNL     1      -7.165 -16.162  -6.228  1.00  0.00     0.239 A 
HETATM    9  O1  UNL     1      -7.869 -16.264  -5.165  1.00  0.00    -0.283 OA
HETATM   10  C4  UNL     1      -7.014 -17.211  -7.092  1.00  0.00     0.147 A 
HETATM   11  C5  UNL     1      -6.268 -17.164  -8.256  1.00  0.00     0.088 A 
HETATM   12  N8  UNL     1      -5.655 -16.003  -8.545  1.00  0.00    -0.336 N 
ATOM     13  H8  UNL     1      -5.100 -15.951  -9.399  1.00  0.00     0.168 HD
HETATM   14  C9  UNL     1      -5.732 -14.906  -7.770  1.00  0.00     0.156 A 
ENDROOT
BRANCH  11  15
HETATM   15  C6  UNL     1      -6.156 -18.326  -9.123  1.00  0.00     0.139 C 
BRANCH  15  16
HETATM   16  N4  UNL     1      -5.271 -19.225  -8.911  1.00  0.00    -0.308 N 
ATOM     17  H4  UNL     1      -4.448 -19.225  -9.514  1.00  0.00     0.186 HD
BRANCH  16  18
HETATM   18  N5  UNL     1      -5.339 -20.193  -7.935  1.00  0.00    -0.279 N 
ATOM     19  H5  UNL     1      -4.678 -20.168  -7.159  1.00  0.00     0.189 HD
BRANCH  18  20
HETATM   20  C7  UNL     1      -6.240 -21.147  -7.985  1.00  0.00     0.172 A 
HETATM   21  N6  UNL     1      -6.188 -22.335  -7.367  1.00  0.00    -0.303 N 
HETATM   22  S1  UNL     1      -7.509 -23.304  -7.653  1.00  0.00     0.013 SA
ATOM     23  H6  UNL     1      -5.407 -22.620  -6.775  1.00  0.00     0.176 HD
HETATM   24  C8  UNL     1      -8.555 -22.466  -8.670  1.00  0.00     0.129 A 
HETATM   25  S2  UNL     1      -7.675 -21.034  -8.870  1.00  0.00    -0.026 SA
BRANCH  24  26
HETATM   26  N7  UNL     1      -9.714 -22.810  -9.171  1.00  0.00    -0.387 N 
ATOM     27  H72 UNL     1      -9.927 -23.402  -9.973  1.00  0.00     0.157 HD
ATOM     28  H71 UNL     1     -10.661 -22.572  -8.876  1.00  0.00     0.157 HD
ENDBRANCH  24  26
ENDBRANCH  18  20
ENDBRANCH  16  18
ENDBRANCH  15  16
ENDBRANCH  11  15
BRANCH  10  29
HETATM   29  O2  UNL     1      -7.640 -18.421  -6.811  1.00  0.00    -0.355 OA
ATOM     30  H2  UNL     1      -8.573 -18.432  -6.628  1.00  0.00     0.218 HD
ENDBRANCH  10  29
TORSDOF 6
ENDMDL
MODEL 3
REMARK VINA RESULT: -6.742030527      4.313      7.931
REMARK  6 active torsions:
REMARK  status: ('A' for Active; 'I' for Inactive)
REMARK    1  A    between atoms: C4_10  and  O2_11 
REMARK    2  A    between atoms: C5_13  and  C6_14 
REMARK    3  A    between atoms: C6_14  and  N4_15 
REMARK    4  A    between atoms: N4_15  and  N5_17 
REMARK    5  A    between atoms: N5_17  and  C7_19 
REMARK    6  A    between atoms: C8_23  and  N7_24 
ROOT
HETATM    1  C1  UNL     1      -7.132 -20.014  -9.703  1.00  0.00     0.181 C 
HETATM    2  N1  UNL     1      -7.399 -19.303  -8.472  1.00  0.00    -0.265 N 
HETATM    3  N2  UNL     1      -8.047 -19.737  -7.422  1.00  0.00    -0.239 N 
ATOM      4  H2  UNL     1      -8.456 -20.668  -7.351  1.00  0.00     0.208 HD
HETATM    5  N3  UNL     1      -8.111 -18.827  -6.463  1.00  0.00    -0.279 N 
ATOM      6  H3  UNL     1      -8.566 -18.944  -5.557  1.00  0.00     0.189 HD
HETATM    7  C2  UNL     1      -7.475 -17.726  -6.887  1.00  0.00     0.148 A 
HETATM    8  C3  UNL     1      -7.218 -16.485  -6.344  1.00  0.00     0.239 A 
HETATM    9  O1  UNL     1      -7.622 -16.180  -5.170  1.00  0.00    -0.283 OA
HETATM   10  C4  UNL     1      -6.513 -15.600  -7.113  1.00  0.00     0.147 A 
HETATM   11  C5  UNL     1      -6.048 -15.870  -8.388  1.00  0.00     0.088 A 
HETATM   12  N8  UNL     1      -6.313 -17.087  -8.892  1.00  0.00    -0.336 N 
ATOM     13  H8  UNL     1      -5.978 -17.303  -9.831  1.00  0.00     0.168 HD
HETATM   14  C9  UNL     1      -6.997 -18.038  -8.228  1.00  0.00     0.156 A 
ENDROOT
BRANCH  11  15
HETATM   15  C6  UNL     1      -5.305 -14.873  -9.142  1.00  0.00     0.139 C 
BRANCH  15  16
HETATM   16  N4  UNL     1      -5.835 -13.750  -9.452  1.00  0.00    -0.308 N 
ATOM     17  H4  UNL     1      -6.455 -13.731 -10.261  1.00  0.00     0.186 HD
BRANCH  16  18
HETATM   18  N5  UNL     1      -5.636 -12.566  -8.780  1.00  0.00    -0.279 N 
ATOM     19  H5  UNL     1      -6.265 -12.311  -8.019  1.00  0.00     0.189 HD
BRANCH  18  20
HETATM   20  C7  UNL     1      -4.651 -11.758  -9.101  1.00  0.00     0.172 A 
HETATM   21  N6  UNL     1      -3.351 -11.925  -8.821  1.00  0.00    -0.303 N 
HETATM   22  S1  UNL     1      -2.376 -10.701  -9.383  1.00  0.00     0.013 SA
ATOM     23  H6  UNL     1      -2.992 -12.731  -8.309  1.00  0.00     0.176 HD
HETATM   24  C8  UNL     1      -3.356  -9.578 -10.167  1.00  0.00     0.129 A 
HETATM   25  S2  UNL     1      -4.864 -10.318  -9.957  1.00  0.00    -0.026 SA
BRANCH  24  26
HETATM   26  N7  UNL     1      -3.052  -8.455 -10.766  1.00  0.00    -0.387 N 
ATOM     27  H72 UNL     1      -2.192  -7.910 -10.730  1.00  0.00     0.157 HD
ATOM     28  H71 UNL     1      -3.599  -7.874 -11.403  1.00  0.00     0.157 HD
ENDBRANCH  24  26
ENDBRANCH  18  20
ENDBRANCH  16  18
ENDBRANCH  15  16
ENDBRANCH  11  15
BRANCH  10  29
HETATM   29  O2  UNL     1      -6.228 -14.335  -6.610  1.00  0.00    -0.355 OA
ATOM     30  H2  UNL     1      -5.323 -14.058  -6.532  1.00  0.00     0.218 HD
ENDBRANCH  10  29
TORSDOF 6
ENDMDL
MODEL 4
REMARK VINA RESULT: -6.726274320      4.287      7.811
REMARK  6 active torsions:
REMARK  status: ('A' for Active; 'I' for Inactive)
REMARK    1  A    between atoms: C4_10  and  O2_11 
REMARK    2  A    between atoms: C5_13  and  C6_14 
REMARK    3  A    between atoms: C6_14  and  N4_15 
REMARK    4  A    between atoms: N4_15  and  N5_17 
REMARK    5  A    between atoms: N5_17  and  C7_19 
REMARK    6  A    between atoms: C8_23  and  N7_24 
ROOT
HETATM    1  C1  UNL     1      -7.130 -19.926  -9.661  1.00  0.00     0.181 C 
HETATM    2  N1  UNL     1      -7.403 -19.223  -8.427  1.00  0.00    -0.265 N 
HETATM    3  N2  UNL     1      -8.056 -19.663  -7.383  1.00  0.00    -0.239 N 
ATOM      4  H2  UNL     1      -8.466 -20.594  -7.320  1.00  0.00     0.208 HD
HETATM    5  N3  UNL     1      -8.125 -18.759  -6.418  1.00  0.00    -0.279 N 
ATOM      6  H3  UNL     1      -8.584 -18.882  -5.516  1.00  0.00     0.189 HD
HETATM    7  C2  UNL     1      -7.486 -17.655  -6.832  1.00  0.00     0.148 A 
HETATM    8  C3  UNL     1      -7.230 -16.418  -6.280  1.00  0.00     0.239 A 
HETATM    9  O1  UNL     1      -7.641 -16.120  -5.107  1.00  0.00    -0.283 OA
HETATM   10  C4  UNL     1      -6.521 -15.529  -7.041  1.00  0.00     0.147 A 
HETATM   11  C5  UNL     1      -6.050 -15.791  -8.315  1.00  0.00     0.088 A 
HETATM   12  N8  UNL     1      -6.314 -17.005  -8.828  1.00  0.00    -0.336 N 
ATOM     13  H8  UNL     1      -5.974 -17.215  -9.766  1.00  0.00     0.168 HD
HETATM   14  C9  UNL     1      -7.001 -17.959  -8.173  1.00  0.00     0.156 A 
ENDROOT
BRANCH  11  15
HETATM   15  C6  UNL     1      -5.303 -14.791  -9.059  1.00  0.00     0.139 C 
BRANCH  15  16
HETATM   16  N4  UNL     1      -5.826 -13.659  -9.352  1.00  0.00    -0.308 N 
ATOM     17  H4  UNL     1      -6.497 -13.637 -10.119  1.00  0.00     0.186 HD
BRANCH  16  18
HETATM   18  N5  UNL     1      -5.555 -12.470  -8.714  1.00  0.00    -0.279 N 
ATOM     19  H5  UNL     1      -6.040 -12.247  -7.845  1.00  0.00     0.189 HD
BRANCH  18  20
HETATM   20  C7  UNL     1      -4.684 -11.618  -9.205  1.00  0.00     0.172 A 
HETATM   21  N6  UNL     1      -4.947 -10.550  -9.970  1.00  0.00    -0.303 N 
HETATM   22  S1  UNL     1      -3.597  -9.687 -10.414  1.00  0.00     0.013 SA
ATOM     23  H6  UNL     1      -5.892 -10.290 -10.254  1.00  0.00     0.176 HD
HETATM   24  C8  UNL     1      -2.254 -10.445  -9.741  1.00  0.00     0.129 A 
HETATM   25  S2  UNL     1      -3.019 -11.727  -8.943  1.00  0.00    -0.026 SA
BRANCH  24  26
HETATM   26  N7  UNL     1      -0.983 -10.143  -9.808  1.00  0.00    -0.387 N 
ATOM     27  H72 UNL     1      -0.535  -9.268 -10.079  1.00  0.00     0.157 HD
ATOM     28  H71 UNL     1      -0.155 -10.704  -9.604  1.00  0.00     0.157 HD
ENDBRANCH  24  26
ENDBRANCH  18  20
ENDBRANCH  16  18
ENDBRANCH  15  16
ENDBRANCH  11  15
BRANCH  10  29
HETATM   29  O2  UNL     1      -6.238 -14.268  -6.528  1.00  0.00    -0.355 OA
ATOM     30  H2  UNL     1      -6.950 -13.722  -6.212  1.00  0.00     0.218 HD
ENDBRANCH  10  29
TORSDOF 6
ENDMDL
MODEL 5
REMARK VINA RESULT: -6.049841570      4.529      8.113
REMARK  6 active torsions:
REMARK  status: ('A' for Active; 'I' for Inactive)
REMARK    1  A    between atoms: C4_10  and  O2_11 
REMARK    2  A    between atoms: C5_13  and  C6_14 
REMARK    3  A    between atoms: C6_14  and  N4_15 
REMARK    4  A    between atoms: N4_15  and  N5_17 
REMARK    5  A    between atoms: N5_17  and  C7_19 
REMARK    6  A    between atoms: C8_23  and  N7_24 
ROOT
HETATM    1  C1  UNL     1      -6.838 -19.739  -9.611  1.00  0.00     0.181 C 
HETATM    2  N1  UNL     1      -7.176 -19.016  -8.406  1.00  0.00    -0.265 N 
HETATM    3  N2  UNL     1      -7.847 -19.454  -7.372  1.00  0.00    -0.239 N 
ATOM      4  H2  UNL     1      -8.223 -20.399  -7.297  1.00  0.00     0.208 HD
HETATM    5  N3  UNL     1      -7.980 -18.529  -6.434  1.00  0.00    -0.279 N 
ATOM      6  H3  UNL     1      -8.463 -18.647  -5.544  1.00  0.00     0.189 HD
HETATM    7  C2  UNL     1      -7.370 -17.413  -6.856  1.00  0.00     0.148 A 
HETATM    8  C3  UNL     1      -7.179 -16.153  -6.330  1.00  0.00     0.239 A 
HETATM    9  O1  UNL     1      -7.638 -15.842  -5.178  1.00  0.00    -0.283 OA
HETATM   10  C4  UNL     1      -6.479 -15.257  -7.090  1.00  0.00     0.147 A 
HETATM   11  C5  UNL     1      -5.957 -15.533  -8.342  1.00  0.00     0.088 A 
HETATM   12  N8  UNL     1      -6.159 -16.769  -8.831  1.00  0.00    -0.336 N 
ATOM     13  H8  UNL     1      -5.781 -16.989  -9.752  1.00  0.00     0.168 HD
HETATM   14  C9  UNL     1      -6.831 -17.732  -8.173  1.00  0.00     0.156 A 
ENDROOT
BRANCH  11  15
HETATM   15  C6  UNL     1      -5.224 -14.524  -9.088  1.00  0.00     0.139 C 
BRANCH  15  16
HETATM   16  N4  UNL     1      -4.455 -13.692  -8.493  1.00  0.00    -0.308 N 
ATOM     17  H4  UNL     1      -3.967 -14.019  -7.659  1.00  0.00     0.186 HD
BRANCH  16  18
HETATM   18  N5  UNL     1      -4.232 -12.393  -8.887  1.00  0.00    -0.279 N 
ATOM     19  H5  UNL     1      -5.013 -11.833  -9.230  1.00  0.00     0.189 HD
BRANCH  18  20
HETATM   20  C7  UNL     1      -3.032 -11.861  -8.830  1.00  0.00     0.172 A 
HETATM   21  N6  UNL     1      -1.898 -12.473  -8.464  1.00  0.00    -0.303 N 
HETATM   22  S1  UNL     1      -0.556 -11.492  -8.509  1.00  0.00     0.013 SA
ATOM     23  H6  UNL     1      -1.861 -13.453  -8.183  1.00  0.00     0.176 HD
HETATM   24  C8  UNL     1      -1.047  -9.966  -9.022  1.00  0.00     0.129 A 
HETATM   25  S2  UNL     1      -2.703 -10.252  -9.225  1.00  0.00    -0.026 SA
BRANCH  24  26
HETATM   26  N7  UNL     1      -0.359  -8.870  -9.212  1.00  0.00    -0.387 N 
ATOM     27  H72 UNL     1       0.528  -8.579  -8.802  1.00  0.00     0.157 HD
ATOM     28  H71 UNL     1      -0.548  -8.062  -9.807  1.00  0.00     0.157 HD
ENDBRANCH  24  26
ENDBRANCH  18  20
ENDBRANCH  16  18
ENDBRANCH  15  16
ENDBRANCH  11  15
BRANCH  10  29
HETATM   29  O2  UNL     1      -6.260 -13.974  -6.602  1.00  0.00    -0.355 OA
ATOM     30  H2  UNL     1      -6.092 -13.265  -7.213  1.00  0.00     0.218 HD
ENDBRANCH  10  29
TORSDOF 6
ENDMDL
