MODEL 1
REMARK VINA RESULT: -7.436257293      0.000      0.000
REMARK  14 active torsions:
REMARK  status: ('A' for Active; 'I' for Inactive)
REMARK    1  A    between atoms: C2_4  and  C3_5 
REMARK    2  A    between atoms: C3_5  and  C4_6 
REMARK    3  A    between atoms: C4_6  and  C5_7 
REMARK    4  A    between atoms: C5_7  and  C6_8 
REMARK    5  A    between atoms: C6_8  and  C7_9 
REMARK    6  A    between atoms: C7_9  and  C8_10 
REMARK    7  A    between atoms: C8_10  and  C9_11 
REMARK    8  A    between atoms: C9_11  and  C10_12 
REMARK    9  A    between atoms: C10_12  and  C11_13 
REMARK   10  A    between atoms: C11_13  and  C12_14 
REMARK   11  A    between atoms: C12_14  and  C13_15 
REMARK   12  A    between atoms: C13_15  and  C14_16 
REMARK   13  A    between atoms: C14_16  and  C15_17 
REMARK   14  A    between atoms: C15_17  and  C16_18 
ROOT
HETATM    1  C9  UNL     1      21.666  -8.863  10.827  1.00  0.00     0.000 C 
ENDROOT
BRANCH   1   2
HETATM    2  C8  UNL     1      22.661  -7.696  10.957  1.00  0.00     0.000 C 
BRANCH   2   3
HETATM    3  C7  UNL     1      23.077  -7.484  12.367  1.00  0.00     0.000 C 
BRANCH   3   4
HETATM    4  C6  UNL     1      22.566  -8.615  13.231  1.00  0.00     0.000 C 
BRANCH   4   5
HETATM    5  C5  UNL     1      23.447  -8.930  14.405  1.00  0.00     0.000 C 
BRANCH   5   6
HETATM    6  C4  UNL     1      23.518 -10.399  14.708  1.00  0.00     0.006 C 
BRANCH   6   7
HETATM    7  C3  UNL     1      24.892 -10.787  15.120  1.00  0.00     0.058 C 
BRANCH   7   8
HETATM    8  C2  UNL     1      25.025 -12.273  15.289  1.00  0.00     0.025 A 
HETATM    9  N1  UNL     1      24.119 -13.212  15.002  1.00  0.00    -0.355 N 
HETATM   10  C1  UNL     1      24.642 -14.409  15.304  1.00  0.00     0.180 A 
ATOM     11  H1  UNL     1      23.189 -13.046  14.618  1.00  0.00     0.166 HD
HETATM   12  N4  UNL     1      25.867 -14.224  15.779  1.00  0.00    -0.360 N 
HETATM   13  C19 UNL     1      26.135 -12.913  15.783  1.00  0.00     0.113 A 
ATOM     14  H4  UNL     1      26.501 -14.960  16.090  1.00  0.00     0.166 HD
ENDBRANCH   7   8
ENDBRANCH   6   7
ENDBRANCH   5   6
ENDBRANCH   4   5
ENDBRANCH   3   4
ENDBRANCH   2   3
ENDBRANCH   1   2
BRANCH   1  15
HETATM   15  C10 UNL     1      20.502  -8.325  10.070  1.00  0.00     0.000 C 
BRANCH  15  16
HETATM   16  C11 UNL     1      20.099  -6.917  10.504  1.00  0.00     0.000 C 
BRANCH  16  17
HETATM   17  C12 UNL     1      19.653  -6.082   9.382  1.00  0.00     0.000 C 
BRANCH  17  18
HETATM   18  C13 UNL     1      20.608  -5.803   8.298  1.00  0.00     0.000 C 
BRANCH  18  19
HETATM   19  C14 UNL     1      21.707  -4.836   8.423  1.00  0.00     0.006 C 
BRANCH  19  20
HETATM   20  C15 UNL     1      21.333  -3.410   8.442  1.00  0.00     0.058 C 
BRANCH  20  21
HETATM   21  C16 UNL     1      21.667  -2.783   9.786  1.00  0.00     0.025 A 
HETATM   22  C17 UNL     1      20.886  -2.876  10.909  1.00  0.00     0.113 A 
HETATM   23  N2  UNL     1      21.494  -2.199  11.923  1.00  0.00    -0.360 N 
HETATM   24  C18 UNL     1      22.632  -1.699  11.422  1.00  0.00     0.180 A 
ATOM     25  H2  UNL     1      21.150  -2.093  12.877  1.00  0.00     0.166 HD
HETATM   26  N3  UNL     1      22.734  -2.056  10.124  1.00  0.00    -0.355 N 
ATOM     27  H3  UNL     1      23.503  -1.810   9.502  1.00  0.00     0.166 HD
ENDBRANCH  20  21
ENDBRANCH  19  20
ENDBRANCH  18  19
ENDBRANCH  17  18
ENDBRANCH  16  17
ENDBRANCH  15  16
ENDBRANCH   1  15
TORSDOF 14
ENDMDL
MODEL 2
REMARK VINA RESULT: -7.230158172      0.846      9.758
REMARK  14 active torsions:
REMARK  status: ('A' for Active; 'I' for Inactive)
REMARK    1  A    between atoms: C2_4  and  C3_5 
REMARK    2  A    between atoms: C3_5  and  C4_6 
REMARK    3  A    between atoms: C4_6  and  C5_7 
REMARK    4  A    between atoms: C5_7  and  C6_8 
REMARK    5  A    between atoms: C6_8  and  C7_9 
REMARK    6  A    between atoms: C7_9  and  C8_10 
REMARK    7  A    between atoms: C8_10  and  C9_11 
REMARK    8  A    between atoms: C9_11  and  C10_12 
REMARK    9  A    between atoms: C10_12  and  C11_13 
REMARK   10  A    between atoms: C11_13  and  C12_14 
REMARK   11  A    between atoms: C12_14  and  C13_15 
REMARK   12  A    between atoms: C13_15  and  C14_16 
REMARK   13  A    between atoms: C14_16  and  C15_17 
REMARK   14  A    between atoms: C15_17  and  C16_18 
ROOT
HETATM    1  C9  UNL     1      20.869  -8.393  10.934  1.00  0.00     0.000 C 
ENDROOT
BRANCH   1   2
HETATM    2  C8  UNL     1      20.263  -8.116   9.547  1.00  0.00     0.000 C 
BRANCH   2   3
HETATM    3  C7  UNL     1      19.610  -6.783   9.490  1.00  0.00     0.000 C 
BRANCH   3   4
HETATM    4  C6  UNL     1      20.297  -5.915   8.461  1.00  0.00     0.000 C 
BRANCH   4   5
HETATM    5  C5  UNL     1      21.020  -4.735   9.044  1.00  0.00     0.000 C 
BRANCH   5   6
HETATM    6  C4  UNL     1      20.632  -4.455  10.467  1.00  0.00     0.006 C 
BRANCH   6   7
HETATM    7  C3  UNL     1      21.820  -4.066  11.271  1.00  0.00     0.058 C 
BRANCH   7   8
HETATM    8  C2  UNL     1      21.951  -2.575  11.387  1.00  0.00     0.025 A 
HETATM    9  N1  UNL     1      21.517  -1.792  12.379  1.00  0.00    -0.355 N 
HETATM   10  C1  UNL     1      21.838  -0.523  12.087  1.00  0.00     0.180 A 
ATOM     11  H1  UNL     1      21.025  -2.106  13.216  1.00  0.00     0.166 HD
HETATM   12  N4  UNL     1      22.469  -0.508  10.920  1.00  0.00    -0.360 N 
HETATM   13  C19 UNL     1      22.555  -1.762  10.460  1.00  0.00     0.113 A 
ATOM     14  H4  UNL     1      22.829   0.323  10.450  1.00  0.00     0.166 HD
ENDBRANCH   7   8
ENDBRANCH   6   7
ENDBRANCH   5   6
ENDBRANCH   4   5
ENDBRANCH   3   4
ENDBRANCH   2   3
ENDBRANCH   1   2
BRANCH   1  15
HETATM   15  C10 UNL     1      22.244  -7.822  10.901  1.00  0.00     0.000 C 
BRANCH  15  16
HETATM   16  C11 UNL     1      22.852  -7.635  12.291  1.00  0.00     0.000 C 
BRANCH  16  17
HETATM   17  C12 UNL     1      22.528  -8.736  13.205  1.00  0.00     0.000 C 
BRANCH  17  18
HETATM   18  C13 UNL     1      23.407  -8.964  14.362  1.00  0.00     0.000 C 
BRANCH  18  19
HETATM   19  C14 UNL     1      23.590 -10.281  14.986  1.00  0.00     0.006 C 
BRANCH  19  20
HETATM   20  C15 UNL     1      24.979 -10.744  15.156  1.00  0.00     0.058 C 
BRANCH  20  21
HETATM   21  C16 UNL     1      25.030 -12.257  15.291  1.00  0.00     0.025 A 
HETATM   22  C17 UNL     1      26.085 -12.963  15.811  1.00  0.00     0.113 A 
HETATM   23  N2  UNL     1      25.783 -14.290  15.777  1.00  0.00    -0.360 N 
HETATM   24  C18 UNL     1      24.558 -14.392  15.244  1.00  0.00     0.180 A 
ATOM     25  H2  UNL     1      26.374 -15.057  16.097  1.00  0.00     0.166 HD
HETATM   26  N3  UNL     1      24.103 -13.155  14.950  1.00  0.00    -0.355 N 
ATOM     27  H3  UNL     1      23.197 -12.942  14.534  1.00  0.00     0.166 HD
ENDBRANCH  20  21
ENDBRANCH  19  20
ENDBRANCH  18  19
ENDBRANCH  17  18
ENDBRANCH  16  17
ENDBRANCH  15  16
ENDBRANCH   1  15
TORSDOF 14
ENDMDL
MODEL 3
REMARK VINA RESULT: -7.204860402      1.079      1.392
REMARK  14 active torsions:
REMARK  status: ('A' for Active; 'I' for Inactive)
REMARK    1  A    between atoms: C2_4  and  C3_5 
REMARK    2  A    between atoms: C3_5  and  C4_6 
REMARK    3  A    between atoms: C4_6  and  C5_7 
REMARK    4  A    between atoms: C5_7  and  C6_8 
REMARK    5  A    between atoms: C6_8  and  C7_9 
REMARK    6  A    between atoms: C7_9  and  C8_10 
REMARK    7  A    between atoms: C8_10  and  C9_11 
REMARK    8  A    between atoms: C9_11  and  C10_12 
REMARK    9  A    between atoms: C10_12  and  C11_13 
REMARK   10  A    between atoms: C11_13  and  C12_14 
REMARK   11  A    between atoms: C12_14  and  C13_15 
REMARK   12  A    between atoms: C13_15  and  C14_16 
REMARK   13  A    between atoms: C14_16  and  C15_17 
REMARK   14  A    between atoms: C15_17  and  C16_18 
ROOT
HETATM    1  C9  UNL     1      22.341  -6.569  11.807  1.00  0.00     0.000 C 
ENDROOT
BRANCH   1   2
HETATM    2  C8  UNL     1      22.968  -7.972  11.895  1.00  0.00     0.000 C 
BRANCH   2   3
HETATM    3  C7  UNL     1      21.936  -9.021  12.100  1.00  0.00     0.000 C 
BRANCH   3   4
HETATM    4  C6  UNL     1      22.292  -9.867  13.302  1.00  0.00     0.000 C 
BRANCH   4   5
HETATM    5  C5  UNL     1      23.235  -9.198  14.259  1.00  0.00     0.000 C 
BRANCH   5   6
HETATM    6  C4  UNL     1      23.582 -10.060  15.438  1.00  0.00     0.006 C 
BRANCH   6   7
HETATM    7  C3  UNL     1      25.008 -10.476  15.386  1.00  0.00     0.058 C 
BRANCH   7   8
HETATM    8  C2  UNL     1      25.153 -11.971  15.387  1.00  0.00     0.025 A 
HETATM    9  N1  UNL     1      26.229 -12.687  15.722  1.00  0.00    -0.355 N 
HETATM   10  C1  UNL     1      25.933 -13.987  15.581  1.00  0.00     0.180 A 
ATOM     11  H1  UNL     1      27.125 -12.309  16.032  1.00  0.00     0.166 HD
HETATM   12  N4  UNL     1      24.678 -14.087  15.160  1.00  0.00    -0.360 N 
HETATM   13  C19 UNL     1      24.167 -12.857  15.029  1.00  0.00     0.113 A 
ATOM     14  H4  UNL     1      24.185 -14.959  14.967  1.00  0.00     0.166 HD
ENDBRANCH   7   8
ENDBRANCH   6   7
ENDBRANCH   5   6
ENDBRANCH   4   5
ENDBRANCH   3   4
ENDBRANCH   2   3
ENDBRANCH   1   2
BRANCH   1  15
HETATM   15  C10 UNL     1      20.881  -6.784  11.609  1.00  0.00     0.000 C 
BRANCH  15  16
HETATM   16  C11 UNL     1      20.188  -5.614  10.912  1.00  0.00     0.000 C 
BRANCH  16  17
HETATM   17  C12 UNL     1      19.772  -5.936   9.542  1.00  0.00     0.000 C 
BRANCH  17  18
HETATM   18  C13 UNL     1      20.637  -5.510   8.431  1.00  0.00     0.000 C 
BRANCH  18  19
HETATM   19  C14 UNL     1      21.730  -4.541   8.588  1.00  0.00     0.006 C 
BRANCH  19  20
HETATM   20  C15 UNL     1      21.357  -3.114   8.566  1.00  0.00     0.058 C 
BRANCH  20  21
HETATM   21  C16 UNL     1      21.692  -2.450   9.890  1.00  0.00     0.025 A 
HETATM   22  C17 UNL     1      22.751  -2.792  10.693  1.00  0.00     0.113 A 
HETATM   23  N2  UNL     1      22.744  -1.989  11.793  1.00  0.00    -0.360 N 
HETATM   24  C18 UNL     1      21.695  -1.167  11.662  1.00  0.00     0.180 A 
ATOM     25  H2  UNL     1      23.409  -2.010  12.566  1.00  0.00     0.166 HD
HETATM   26  N3  UNL     1      21.058  -1.449  10.505  1.00  0.00    -0.355 N 
ATOM     27  H3  UNL     1      20.226  -0.973  10.157  1.00  0.00     0.166 HD
ENDBRANCH  20  21
ENDBRANCH  19  20
ENDBRANCH  18  19
ENDBRANCH  17  18
ENDBRANCH  16  17
ENDBRANCH  15  16
ENDBRANCH   1  15
TORSDOF 14
ENDMDL
MODEL 4
REMARK VINA RESULT: -7.197176211      0.850      9.894
REMARK  14 active torsions:
REMARK  status: ('A' for Active; 'I' for Inactive)
REMARK    1  A    between atoms: C2_4  and  C3_5 
REMARK    2  A    between atoms: C3_5  and  C4_6 
REMARK    3  A    between atoms: C4_6  and  C5_7 
REMARK    4  A    between atoms: C5_7  and  C6_8 
REMARK    5  A    between atoms: C6_8  and  C7_9 
REMARK    6  A    between atoms: C7_9  and  C8_10 
REMARK    7  A    between atoms: C8_10  and  C9_11 
REMARK    8  A    between atoms: C9_11  and  C10_12 
REMARK    9  A    between atoms: C10_12  and  C11_13 
REMARK   10  A    between atoms: C11_13  and  C12_14 
REMARK   11  A    between atoms: C12_14  and  C13_15 
REMARK   12  A    between atoms: C13_15  and  C14_16 
REMARK   13  A    between atoms: C14_16  and  C15_17 
REMARK   14  A    between atoms: C15_17  and  C16_18 
ROOT
HETATM    1  C9  UNL     1      22.666  -7.818  10.904  1.00  0.00     0.000 C 
ENDROOT
BRANCH   1   2
HETATM    2  C8  UNL     1      21.448  -8.731  10.675  1.00  0.00     0.000 C 
BRANCH   2   3
HETATM    3  C7  UNL     1      20.463  -8.109   9.753  1.00  0.00     0.000 C 
BRANCH   3   4
HETATM    4  C6  UNL     1      20.461  -6.608   9.935  1.00  0.00     0.000 C 
BRANCH   4   5
HETATM    5  C5  UNL     1      20.425  -5.839   8.647  1.00  0.00     0.000 C 
BRANCH   5   6
HETATM    6  C4  UNL     1      21.640  -4.981   8.441  1.00  0.00     0.006 C 
BRANCH   6   7
HETATM    7  C3  UNL     1      21.278  -3.540   8.464  1.00  0.00     0.058 C 
BRANCH   7   8
HETATM    8  C2  UNL     1      21.640  -2.894   9.770  1.00  0.00     0.025 A 
HETATM    9  N1  UNL     1      22.735  -2.186  10.056  1.00  0.00    -0.355 N 
HETATM   10  C1  UNL     1      22.663  -1.792  11.335  1.00  0.00     0.180 A 
ATOM     11  H1  UNL     1      23.498  -1.979   9.410  1.00  0.00     0.166 HD
HETATM   12  N4  UNL     1      21.529  -2.251  11.851  1.00  0.00    -0.360 N 
HETATM   13  C19 UNL     1      20.873  -2.937  10.908  1.00  0.00     0.113 A 
ATOM     14  H4  UNL     1      21.211  -2.104  12.809  1.00  0.00     0.166 HD
ENDBRANCH   7   8
ENDBRANCH   6   7
ENDBRANCH   5   6
ENDBRANCH   4   5
ENDBRANCH   3   4
ENDBRANCH   2   3
ENDBRANCH   1   2
BRANCH   1  15
HETATM   15  C10 UNL     1      23.002  -7.940  12.350  1.00  0.00     0.000 C 
BRANCH  15  16
HETATM   16  C11 UNL     1      22.004  -8.794  13.131  1.00  0.00     0.000 C 
BRANCH  16  17
HETATM   17  C12 UNL     1      22.657  -9.783  13.996  1.00  0.00     0.000 C 
BRANCH  17  18
HETATM   18  C13 UNL     1      23.773  -9.339  14.845  1.00  0.00     0.000 C 
BRANCH  18  19
HETATM   19  C14 UNL     1      24.775 -10.257  15.403  1.00  0.00     0.006 C 
BRANCH  19  20
HETATM   20  C15 UNL     1      24.534 -11.698  15.204  1.00  0.00     0.058 C 
BRANCH  20  21
HETATM   21  C16 UNL     1      25.699 -12.517  15.734  1.00  0.00     0.025 A 
HETATM   22  C17 UNL     1      26.335 -12.292  16.929  1.00  0.00     0.113 A 
HETATM   23  N2  UNL     1      27.325 -13.215  17.078  1.00  0.00    -0.360 N 
HETATM   24  C18 UNL     1      27.294 -13.992  15.987  1.00  0.00     0.180 A 
ATOM     25  H2  UNL     1      27.967 -13.298  17.866  1.00  0.00     0.166 HD
HETATM   26  N3  UNL     1      26.304 -13.566  15.173  1.00  0.00    -0.355 N 
ATOM     27  H3  UNL     1      26.059 -13.979  14.274  1.00  0.00     0.166 HD
ENDBRANCH  20  21
ENDBRANCH  19  20
ENDBRANCH  18  19
ENDBRANCH  17  18
ENDBRANCH  16  17
ENDBRANCH  15  16
ENDBRANCH   1  15
TORSDOF 14
ENDMDL
MODEL 5
REMARK VINA RESULT: -7.132409527      0.767      1.234
REMARK  14 active torsions:
REMARK  status: ('A' for Active; 'I' for Inactive)
REMARK    1  A    between atoms: C2_4  and  C3_5 
REMARK    2  A    between atoms: C3_5  and  C4_6 
REMARK    3  A    between atoms: C4_6  and  C5_7 
REMARK    4  A    between atoms: C5_7  and  C6_8 
REMARK    5  A    between atoms: C6_8  and  C7_9 
REMARK    6  A    between atoms: C7_9  and  C8_10 
REMARK    7  A    between atoms: C8_10  and  C9_11 
REMARK    8  A    between atoms: C9_11  and  C10_12 
REMARK    9  A    between atoms: C10_12  and  C11_13 
REMARK   10  A    between atoms: C11_13  and  C12_14 
REMARK   11  A    between atoms: C12_14  and  C13_15 
REMARK   12  A    between atoms: C13_15  and  C14_16 
REMARK   13  A    between atoms: C14_16  and  C15_17 
REMARK   14  A    between atoms: C15_17  and  C16_18 
ROOT
HETATM    1  C9  UNL     1      22.775  -7.557  11.907  1.00  0.00     0.000 C 
ENDROOT
BRANCH   1   2
HETATM    2  C8  UNL     1      21.714  -8.389  12.650  1.00  0.00     0.000 C 
BRANCH   2   3
HETATM    3  C7  UNL     1      22.317  -9.561  13.334  1.00  0.00     0.000 C 
BRANCH   3   4
HETATM    4  C6  UNL     1      23.373  -9.101  14.313  1.00  0.00     0.000 C 
BRANCH   4   5
HETATM    5  C5  UNL     1      23.097  -9.493  15.736  1.00  0.00     0.000 C 
BRANCH   5   6
HETATM    6  C4  UNL     1      24.262 -10.174  16.393  1.00  0.00     0.006 C 
BRANCH   6   7
HETATM    7  C3  UNL     1      25.177 -10.754  15.377  1.00  0.00     0.058 C 
BRANCH   7   8
HETATM    8  C2  UNL     1      25.119 -12.254  15.365  1.00  0.00     0.025 A 
HETATM    9  N1  UNL     1      24.110 -13.029  14.957  1.00  0.00    -0.355 N 
HETATM   10  C1  UNL     1      24.471 -14.311  15.116  1.00  0.00     0.180 A 
ATOM     11  H1  UNL     1      23.217 -12.702  14.588  1.00  0.00     0.166 HD
HETATM   12  N4  UNL     1      25.698 -14.341  15.621  1.00  0.00    -0.360 N 
HETATM   13  C19 UNL     1      26.127 -13.084  15.786  1.00  0.00     0.113 A 
ATOM     14  H4  UNL     1      26.227 -15.184  15.845  1.00  0.00     0.166 HD
ENDBRANCH   7   8
ENDBRANCH   6   7
ENDBRANCH   5   6
ENDBRANCH   4   5
ENDBRANCH   3   4
ENDBRANCH   2   3
ENDBRANCH   1   2
BRANCH   1  15
HETATM   15  C10 UNL     1      22.158  -6.223  11.672  1.00  0.00     0.000 C 
BRANCH  15  16
HETATM   16  C11 UNL     1      20.734  -6.305  11.123  1.00  0.00     0.000 C 
BRANCH  16  17
HETATM   17  C12 UNL     1      20.693  -6.715   9.714  1.00  0.00     0.000 C 
BRANCH  17  18
HETATM   18  C13 UNL     1      20.540  -5.672   8.688  1.00  0.00     0.000 C 
BRANCH  18  19
HETATM   19  C14 UNL     1      21.606  -4.723   8.341  1.00  0.00     0.006 C 
BRANCH  19  20
HETATM   20  C15 UNL     1      21.270  -3.290   8.432  1.00  0.00     0.058 C 
BRANCH  20  21
HETATM   21  C16 UNL     1      21.665  -2.730   9.789  1.00  0.00     0.025 A 
HETATM   22  C17 UNL     1      20.863  -2.735  10.902  1.00  0.00     0.113 A 
HETATM   23  N2  UNL     1      21.540  -2.156  11.932  1.00  0.00    -0.360 N 
HETATM   24  C18 UNL     1      22.741  -1.804  11.453  1.00  0.00     0.180 A 
ATOM     25  H2  UNL     1      21.200  -2.019  12.884  1.00  0.00     0.166 HD
HETATM   26  N3  UNL     1      22.814  -2.154  10.151  1.00  0.00    -0.355 N 
ATOM     27  H3  UNL     1      23.617  -2.003   9.542  1.00  0.00     0.166 HD
ENDBRANCH  20  21
ENDBRANCH  19  20
ENDBRANCH  18  19
ENDBRANCH  17  18
ENDBRANCH  16  17
ENDBRANCH  15  16
ENDBRANCH   1  15
TORSDOF 14
ENDMDL
