MODEL 1
REMARK VINA RESULT: -7.695728477      0.000      0.000
REMARK  13 active torsions:
REMARK  status: ('A' for Active; 'I' for Inactive)
REMARK    1  A    between atoms: C4_4  and  C5_5 
REMARK    2  A    between atoms: C5_5  and  C6_6 
REMARK    3  A    between atoms: C6_6  and  C7_7 
REMARK    4  A    between atoms: C7_7  and  N1_8 
REMARK    5  A    between atoms: N1_8  and  C8_11 
REMARK    6  A    between atoms: C8_11  and  C9_12 
REMARK    7  A    between atoms: C9_12  and  C10_13 
REMARK    8  A    between atoms: C10_13  and  C11_14 
REMARK    9  A    between atoms: C11_14  and  C12_15 
REMARK   10  A    between atoms: C12_15  and  C13_16 
REMARK   11  A    between atoms: C13_16  and  C14_17 
REMARK   12  A    between atoms: C14_17  and  N2_18 
REMARK   13  A    between atoms: N2_18  and  C15_20 
ROOT
HETATM    1  C8  UNL     1      20.548  -8.791  10.118  1.00  0.00     0.232 C 
ENDROOT
BRANCH   1   2
HETATM    2  N1  UNL     1      20.242  -7.394  10.211  1.00  0.00    -0.075 N 
ATOM      3  H12 UNL     1      20.948  -6.903  10.759  1.00  0.00     0.277 HD
ATOM      4  H11 UNL     1      19.430  -7.238  10.807  1.00  0.00     0.277 HD
BRANCH   2   5
HETATM    5  C7  UNL     1      20.064  -6.774   8.931  1.00  0.00     0.232 C 
BRANCH   5   6
HETATM    6  C6  UNL     1      20.202  -5.270   9.101  1.00  0.00     0.032 C 
BRANCH   6   7
HETATM    7  C5  UNL     1      20.259  -4.981  10.577  1.00  0.00     0.040 C 
BRANCH   7   8
HETATM    8  C4  UNL     1      21.198  -3.889  10.924  1.00  0.00    -0.058 A 
HETATM    9  C3  UNL     1      20.799  -2.576  10.985  1.00  0.00     0.007 A 
HETATM   10  C2  UNL     1      21.682  -1.565  11.314  1.00  0.00     0.001 A 
HETATM   11  C1  UNL     1      23.002  -1.862  11.593  1.00  0.00     0.000 A 
HETATM   12  C21 UNL     1      23.425  -3.176  11.538  1.00  0.00     0.001 A 
HETATM   13  C20 UNL     1      22.513  -4.171  11.203  1.00  0.00     0.007 A 
ENDBRANCH   7   8
ENDBRANCH   6   7
ENDBRANCH   5   6
ENDBRANCH   2   5
ENDBRANCH   1   2
BRANCH   1  14
HETATM   14  C9  UNL     1      21.485  -9.174  11.228  1.00  0.00     0.027 C 
BRANCH  14  15
HETATM   15  C10 UNL     1      22.389  -8.010  11.582  1.00  0.00     0.002 C 
BRANCH  15  16
HETATM   16  C11 UNL     1      22.856  -8.063  12.985  1.00  0.00     0.000 C 
BRANCH  16  17
HETATM   17  C12 UNL     1      22.713  -9.443  13.576  1.00  0.00     0.002 C 
BRANCH  17  18
HETATM   18  C13 UNL     1      23.033  -9.414  15.035  1.00  0.00     0.019 C 
BRANCH  18  19
HETATM   19  C14 UNL     1      24.521  -9.586  15.329  1.00  0.00     0.114 C 
BRANCH  19  20
HETATM   20  N2  UNL     1      24.946 -10.852  14.870  1.00  0.00    -0.417 N 
ATOM     21  H2  UNL     1      25.346 -10.988  13.942  1.00  0.00     0.153 HD
BRANCH  20  22
HETATM   22  C15 UNL     1      24.776 -11.933  15.795  1.00  0.00     0.076 C 
HETATM   23  C16 UNL     1      24.183 -13.094  15.019  1.00  0.00     0.024 C 
HETATM   24  C17 UNL     1      25.073 -14.283  15.324  1.00  0.00     0.002 C 
HETATM   25  C18 UNL     1      26.424 -13.612  15.597  1.00  0.00     0.002 C 
HETATM   26  C19 UNL     1      26.013 -12.441  16.435  1.00  0.00     0.024 C 
ENDBRANCH  20  22
ENDBRANCH  19  20
ENDBRANCH  18  19
ENDBRANCH  17  18
ENDBRANCH  16  17
ENDBRANCH  15  16
ENDBRANCH  14  15
ENDBRANCH   1  14
TORSDOF 13
ENDMDL
MODEL 2
REMARK VINA RESULT: -7.583071403      0.825      1.538
REMARK  13 active torsions:
REMARK  status: ('A' for Active; 'I' for Inactive)
REMARK    1  A    between atoms: C4_4  and  C5_5 
REMARK    2  A    between atoms: C5_5  and  C6_6 
REMARK    3  A    between atoms: C6_6  and  C7_7 
REMARK    4  A    between atoms: C7_7  and  N1_8 
REMARK    5  A    between atoms: N1_8  and  C8_11 
REMARK    6  A    between atoms: C8_11  and  C9_12 
REMARK    7  A    between atoms: C9_12  and  C10_13 
REMARK    8  A    between atoms: C10_13  and  C11_14 
REMARK    9  A    between atoms: C11_14  and  C12_15 
REMARK   10  A    between atoms: C12_15  and  C13_16 
REMARK   11  A    between atoms: C13_16  and  C14_17 
REMARK   12  A    between atoms: C14_17  and  N2_18 
REMARK   13  A    between atoms: N2_18  and  C15_20 
ROOT
HETATM    1  C8  UNL     1      20.503  -8.781  10.230  1.00  0.00     0.232 C 
ENDROOT
BRANCH   1   2
HETATM    2  N1  UNL     1      20.531  -7.352  10.325  1.00  0.00    -0.075 N 
ATOM      3  H12 UNL     1      21.433  -7.027  10.671  1.00  0.00     0.277 HD
ATOM      4  H11 UNL     1      19.934  -7.025  11.085  1.00  0.00     0.277 HD
BRANCH   2   5
HETATM    5  C7  UNL     1      20.191  -6.703   9.093  1.00  0.00     0.232 C 
BRANCH   5   6
HETATM    6  C6  UNL     1      20.884  -5.350   9.054  1.00  0.00     0.032 C 
BRANCH   6   7
HETATM    7  C5  UNL     1      21.658  -5.197  10.337  1.00  0.00     0.040 C 
BRANCH   7   8
HETATM    8  C4  UNL     1      21.876  -3.784  10.723  1.00  0.00    -0.058 A 
HETATM    9  C3  UNL     1      23.009  -3.375  11.384  1.00  0.00     0.007 A 
HETATM   10  C2  UNL     1      23.205  -2.053  11.736  1.00  0.00     0.001 A 
HETATM   11  C1  UNL     1      22.250  -1.104  11.426  1.00  0.00     0.000 A 
HETATM   12  C21 UNL     1      21.103  -1.493  10.762  1.00  0.00     0.001 A 
HETATM   13  C20 UNL     1      20.934  -2.831  10.421  1.00  0.00     0.007 A 
ENDBRANCH   7   8
ENDBRANCH   6   7
ENDBRANCH   5   6
ENDBRANCH   2   5
ENDBRANCH   1   2
BRANCH   1  14
HETATM   14  C9  UNL     1      21.277  -9.375  11.373  1.00  0.00     0.027 C 
BRANCH  14  15
HETATM   15  C10 UNL     1      21.565  -8.318  12.422  1.00  0.00     0.002 C 
BRANCH  15  16
HETATM   16  C11 UNL     1      22.900  -8.483  13.038  1.00  0.00     0.000 C 
BRANCH  16  17
HETATM   17  C12 UNL     1      22.946  -9.662  13.978  1.00  0.00     0.002 C 
BRANCH  17  18
HETATM   18  C13 UNL     1      23.899  -9.393  15.096  1.00  0.00     0.019 C 
BRANCH  18  19
HETATM   19  C14 UNL     1      24.899 -10.525  15.319  1.00  0.00     0.114 C 
BRANCH  19  20
HETATM   20  N2  UNL     1      24.200 -11.738  15.504  1.00  0.00    -0.417 N 
ATOM     21  H2  UNL     1      23.298 -11.779  15.978  1.00  0.00     0.153 HD
BRANCH  20  22
HETATM   22  C15 UNL     1      24.844 -12.907  14.980  1.00  0.00     0.076 C 
HETATM   23  C16 UNL     1      26.065 -13.165  15.841  1.00  0.00     0.024 C 
HETATM   24  C17 UNL     1      25.967 -14.619  16.260  1.00  0.00     0.002 C 
HETATM   25  C18 UNL     1      24.451 -14.852  16.259  1.00  0.00     0.002 C 
HETATM   26  C19 UNL     1      24.042 -14.153  15.000  1.00  0.00     0.024 C 
ENDBRANCH  20  22
ENDBRANCH  19  20
ENDBRANCH  18  19
ENDBRANCH  17  18
ENDBRANCH  16  17
ENDBRANCH  15  16
ENDBRANCH  14  15
ENDBRANCH   1  14
TORSDOF 13
ENDMDL
MODEL 3
REMARK VINA RESULT: -7.577597381      0.816      1.323
REMARK  13 active torsions:
REMARK  status: ('A' for Active; 'I' for Inactive)
REMARK    1  A    between atoms: C4_4  and  C5_5 
REMARK    2  A    between atoms: C5_5  and  C6_6 
REMARK    3  A    between atoms: C6_6  and  C7_7 
REMARK    4  A    between atoms: C7_7  and  N1_8 
REMARK    5  A    between atoms: N1_8  and  C8_11 
REMARK    6  A    between atoms: C8_11  and  C9_12 
REMARK    7  A    between atoms: C9_12  and  C10_13 
REMARK    8  A    between atoms: C10_13  and  C11_14 
REMARK    9  A    between atoms: C11_14  and  C12_15 
REMARK   10  A    between atoms: C12_15  and  C13_16 
REMARK   11  A    between atoms: C13_16  and  C14_17 
REMARK   12  A    between atoms: C14_17  and  N2_18 
REMARK   13  A    between atoms: N2_18  and  C15_20 
ROOT
HETATM    1  C8  UNL     1      20.323  -7.924  10.453  1.00  0.00     0.232 C 
ENDROOT
BRANCH   1   2
HETATM    2  N1  UNL     1      20.164  -7.425   9.119  1.00  0.00    -0.075 N 
ATOM      3  H12 UNL     1      19.674  -8.101   8.534  1.00  0.00     0.277 HD
ATOM      4  H11 UNL     1      21.059  -7.401   8.631  1.00  0.00     0.277 HD
BRANCH   2   5
HETATM    5  C7  UNL     1      19.521  -6.145   9.073  1.00  0.00     0.232 C 
BRANCH   5   6
HETATM    6  C6  UNL     1      20.139  -5.257  10.142  1.00  0.00     0.032 C 
BRANCH   6   7
HETATM    7  C5  UNL     1      21.238  -4.459   9.492  1.00  0.00     0.040 C 
BRANCH   7   8
HETATM    8  C4  UNL     1      21.707  -3.325  10.321  1.00  0.00    -0.058 A 
HETATM    9  C3  UNL     1      22.823  -3.417  11.117  1.00  0.00     0.007 A 
HETATM   10  C2  UNL     1      23.255  -2.351  11.885  1.00  0.00     0.001 A 
HETATM   11  C1  UNL     1      22.561  -1.157  11.864  1.00  0.00     0.000 A 
HETATM   12  C21 UNL     1      21.436  -1.042  11.071  1.00  0.00     0.001 A 
HETATM   13  C20 UNL     1      21.026  -2.132  10.310  1.00  0.00     0.007 A 
ENDBRANCH   7   8
ENDBRANCH   6   7
ENDBRANCH   5   6
ENDBRANCH   2   5
ENDBRANCH   1   2
BRANCH   1  14
HETATM   14  C9  UNL     1      21.628  -8.660  10.561  1.00  0.00     0.027 C 
BRANCH  14  15
HETATM   15  C10 UNL     1      22.754  -7.696  10.881  1.00  0.00     0.002 C 
BRANCH  15  16
HETATM   16  C11 UNL     1      22.780  -7.311  12.310  1.00  0.00     0.000 C 
BRANCH  16  17
HETATM   17  C12 UNL     1      22.343  -8.441  13.208  1.00  0.00     0.002 C 
BRANCH  17  18
HETATM   18  C13 UNL     1      23.468  -8.855  14.098  1.00  0.00     0.019 C 
BRANCH  18  19
HETATM   19  C14 UNL     1      23.455 -10.344  14.432  1.00  0.00     0.114 C 
BRANCH  19  20
HETATM   20  N2  UNL     1      24.658 -10.690  15.085  1.00  0.00    -0.417 N 
ATOM     21  H2  UNL     1      25.515 -10.150  14.967  1.00  0.00     0.153 HD
BRANCH  20  22
HETATM   22  C15 UNL     1      24.594 -11.850  15.925  1.00  0.00     0.076 C 
HETATM   23  C16 UNL     1      24.161 -13.009  15.049  1.00  0.00     0.024 C 
HETATM   24  C17 UNL     1      25.177 -14.108  15.296  1.00  0.00     0.002 C 
HETATM   25  C18 UNL     1      26.433 -13.307  15.660  1.00  0.00     0.002 C 
HETATM   26  C19 UNL     1      25.867 -12.258  16.566  1.00  0.00     0.024 C 
ENDBRANCH  20  22
ENDBRANCH  19  20
ENDBRANCH  18  19
ENDBRANCH  17  18
ENDBRANCH  16  17
ENDBRANCH  15  16
ENDBRANCH  14  15
ENDBRANCH   1  14
TORSDOF 13
ENDMDL
MODEL 4
REMARK VINA RESULT: -7.495771045      1.202      2.213
REMARK  13 active torsions:
REMARK  status: ('A' for Active; 'I' for Inactive)
REMARK    1  A    between atoms: C4_4  and  C5_5 
REMARK    2  A    between atoms: C5_5  and  C6_6 
REMARK    3  A    between atoms: C6_6  and  C7_7 
REMARK    4  A    between atoms: C7_7  and  N1_8 
REMARK    5  A    between atoms: N1_8  and  C8_11 
REMARK    6  A    between atoms: C8_11  and  C9_12 
REMARK    7  A    between atoms: C9_12  and  C10_13 
REMARK    8  A    between atoms: C10_13  and  C11_14 
REMARK    9  A    between atoms: C11_14  and  C12_15 
REMARK   10  A    between atoms: C12_15  and  C13_16 
REMARK   11  A    between atoms: C13_16  and  C14_17 
REMARK   12  A    between atoms: C14_17  and  N2_18 
REMARK   13  A    between atoms: N2_18  and  C15_20 
ROOT
HETATM    1  C8  UNL     1      22.409  -7.952  11.034  1.00  0.00     0.232 C 
ENDROOT
BRANCH   1   2
HETATM    2  N1  UNL     1      21.177  -8.675  10.917  1.00  0.00    -0.075 N 
ATOM      3  H12 UNL     1      20.588  -8.525  11.736  1.00  0.00     0.277 HD
ATOM      4  H11 UNL     1      21.334  -9.679  11.007  1.00  0.00     0.277 HD
BRANCH   2   5
HETATM    5  C7  UNL     1      20.465  -8.375   9.710  1.00  0.00     0.232 C 
BRANCH   5   6
HETATM    6  C6  UNL     1      19.733  -7.056   9.898  1.00  0.00     0.032 C 
BRANCH   6   7
HETATM    7  C5  UNL     1      20.177  -6.127   8.800  1.00  0.00     0.040 C 
BRANCH   7   8
HETATM    8  C4  UNL     1      20.718  -4.843   9.302  1.00  0.00    -0.058 A 
HETATM    9  C3  UNL     1      21.406  -3.974   8.491  1.00  0.00     0.007 A 
HETATM   10  C2  UNL     1      21.903  -2.776   8.969  1.00  0.00     0.001 A 
HETATM   11  C1  UNL     1      21.714  -2.426  10.291  1.00  0.00     0.000 A 
HETATM   12  C21 UNL     1      21.024  -3.284  11.125  1.00  0.00     0.001 A 
HETATM   13  C20 UNL     1      20.536  -4.483  10.615  1.00  0.00     0.007 A 
ENDBRANCH   7   8
ENDBRANCH   6   7
ENDBRANCH   5   6
ENDBRANCH   2   5
ENDBRANCH   1   2
BRANCH   1  14
HETATM   14  C9  UNL     1      22.769  -7.807  12.486  1.00  0.00     0.027 C 
BRANCH  14  15
HETATM   15  C10 UNL     1      22.009  -8.817  13.323  1.00  0.00     0.002 C 
BRANCH  15  16
HETATM   16  C11 UNL     1      22.904  -9.797  13.977  1.00  0.00     0.000 C 
BRANCH  16  17
HETATM   17  C12 UNL     1      23.708  -9.173  15.089  1.00  0.00     0.002 C 
BRANCH  17  18
HETATM   18  C13 UNL     1      24.842 -10.067  15.470  1.00  0.00     0.019 C 
BRANCH  18  19
HETATM   19  C14 UNL     1      24.594 -11.533  15.123  1.00  0.00     0.114 C 
BRANCH  19  20
HETATM   20  N2  UNL     1      25.715 -12.302  15.505  1.00  0.00    -0.417 N 
ATOM     21  H2  UNL     1      26.528 -11.888  15.963  1.00  0.00     0.153 HD
BRANCH  20  22
HETATM   22  C15 UNL     1      25.636 -13.701  15.208  1.00  0.00     0.076 C 
HETATM   23  C16 UNL     1      26.390 -14.432  16.301  1.00  0.00     0.024 C 
HETATM   24  C17 UNL     1      25.439 -15.499  16.809  1.00  0.00     0.002 C 
HETATM   25  C18 UNL     1      24.070 -14.862  16.542  1.00  0.00     0.002 C 
HETATM   26  C19 UNL     1      24.272 -14.282  15.176  1.00  0.00     0.024 C 
ENDBRANCH  20  22
ENDBRANCH  19  20
ENDBRANCH  18  19
ENDBRANCH  17  18
ENDBRANCH  16  17
ENDBRANCH  15  16
ENDBRANCH  14  15
ENDBRANCH   1  14
TORSDOF 13
ENDMDL
MODEL 5
REMARK VINA RESULT: -7.449331903      1.564      2.430
REMARK  13 active torsions:
REMARK  status: ('A' for Active; 'I' for Inactive)
REMARK    1  A    between atoms: C4_4  and  C5_5 
REMARK    2  A    between atoms: C5_5  and  C6_6 
REMARK    3  A    between atoms: C6_6  and  C7_7 
REMARK    4  A    between atoms: C7_7  and  N1_8 
REMARK    5  A    between atoms: N1_8  and  C8_11 
REMARK    6  A    between atoms: C8_11  and  C9_12 
REMARK    7  A    between atoms: C9_12  and  C10_13 
REMARK    8  A    between atoms: C10_13  and  C11_14 
REMARK    9  A    between atoms: C11_14  and  C12_15 
REMARK   10  A    between atoms: C12_15  and  C13_16 
REMARK   11  A    between atoms: C13_16  and  C14_17 
REMARK   12  A    between atoms: C14_17  and  N2_18 
REMARK   13  A    between atoms: N2_18  and  C15_20 
ROOT
HETATM    1  C8  UNL     1      20.135  -6.566  11.003  1.00  0.00     0.232 C 
ENDROOT
BRANCH   1   2
HETATM    2  N1  UNL     1      20.146  -5.201  10.565  1.00  0.00    -0.075 N 
ATOM      3  H12 UNL     1      20.925  -4.691  10.981  1.00  0.00     0.277 HD
ATOM      4  H11 UNL     1      19.369  -4.681  10.973  1.00  0.00     0.277 HD
BRANCH   2   5
HETATM    5  C7  UNL     1      20.154  -5.073   9.137  1.00  0.00     0.232 C 
BRANCH   5   6
HETATM    6  C6  UNL     1      21.526  -4.579   8.706  1.00  0.00     0.032 C 
BRANCH   6   7
HETATM    7  C5  UNL     1      21.473  -3.076   8.650  1.00  0.00     0.040 C 
BRANCH   7   8
HETATM    8  C4  UNL     1      21.838  -2.429   9.931  1.00  0.00    -0.058 A 
HETATM    9  C3  UNL     1      21.106  -1.394  10.461  1.00  0.00     0.007 A 
HETATM   10  C2  UNL     1      21.453  -0.800  11.659  1.00  0.00     0.001 A 
HETATM   11  C1  UNL     1      22.561  -1.243  12.356  1.00  0.00     0.000 A 
HETATM   12  C21 UNL     1      23.312  -2.282  11.842  1.00  0.00     0.001 A 
HETATM   13  C20 UNL     1      22.937  -2.859  10.633  1.00  0.00     0.007 A 
ENDBRANCH   7   8
ENDBRANCH   6   7
ENDBRANCH   5   6
ENDBRANCH   2   5
ENDBRANCH   1   2
BRANCH   1  14
HETATM   14  C9  UNL     1      19.719  -7.455   9.866  1.00  0.00     0.027 C 
BRANCH  14  15
HETATM   15  C10 UNL     1      20.546  -8.725   9.857  1.00  0.00     0.002 C 
BRANCH  15  16
HETATM   16  C11 UNL     1      21.610  -8.714  10.885  1.00  0.00     0.000 C 
BRANCH  16  17
HETATM   17  C12 UNL     1      21.499  -9.887  11.826  1.00  0.00     0.002 C 
BRANCH  17  18
HETATM   18  C13 UNL     1      21.845  -9.465  13.217  1.00  0.00     0.019 C 
BRANCH  18  19
HETATM   19  C14 UNL     1      23.019  -8.492  13.276  1.00  0.00     0.114 C 
BRANCH  19  20
HETATM   20  N2  UNL     1      23.784  -8.750  14.435  1.00  0.00    -0.417 N 
ATOM     21  H2  UNL     1      24.521  -8.120  14.751  1.00  0.00     0.153 HD
BRANCH  20  22
HETATM   22  C15 UNL     1      23.455  -9.955  15.137  1.00  0.00     0.076 C 
HETATM   23  C16 UNL     1      24.667 -10.862  15.056  1.00  0.00     0.024 C 
HETATM   24  C17 UNL     1      24.955 -11.285  16.483  1.00  0.00     0.002 C 
HETATM   25  C18 UNL     1      24.425 -10.091  17.285  1.00  0.00     0.002 C 
HETATM   26  C19 UNL     1      23.138  -9.803  16.577  1.00  0.00     0.024 C 
ENDBRANCH  20  22
ENDBRANCH  19  20
ENDBRANCH  18  19
ENDBRANCH  17  18
ENDBRANCH  16  17
ENDBRANCH  15  16
ENDBRANCH  14  15
ENDBRANCH   1  14
TORSDOF 13
ENDMDL
