MODEL 1
REMARK VINA RESULT: -7.894690141      0.000      0.000
REMARK  12 active torsions:
REMARK  status: ('A' for Active; 'I' for Inactive)
REMARK    1  A    between atoms: C4_4  and  C5_5 
REMARK    2  A    between atoms: C5_5  and  N1_6 
REMARK    3  A    between atoms: N1_6  and  C6_9 
REMARK    4  A    between atoms: C6_9  and  C7_10 
REMARK    5  A    between atoms: C7_10  and  C8_11 
REMARK    6  A    between atoms: C8_11  and  C9_12 
REMARK    7  A    between atoms: C9_12  and  C10_13 
REMARK    8  A    between atoms: C10_13  and  C11_14 
REMARK    9  A    between atoms: C11_14  and  C12_15 
REMARK   10  A    between atoms: C12_15  and  C13_16 
REMARK   11  A    between atoms: C13_16  and  C14_17 
REMARK   12  A    between atoms: C15_18  and  C16_19 
ROOT
HETATM    1  C8  UNL     1      22.628  -7.733  10.356  1.00  0.00     0.005 C 
ENDROOT
BRANCH   1   2
HETATM    2  C7  UNL     1      21.430  -8.577  10.592  1.00  0.00     0.028 C 
BRANCH   2   3
HETATM    3  C6  UNL     1      20.196  -8.274   9.865  1.00  0.00     0.232 C 
BRANCH   3   4
HETATM    4  N1  UNL     1      20.122  -7.244   8.895  1.00  0.00    -0.070 N 
ATOM      5  H12 UNL     1      19.683  -7.541   8.024  1.00  0.00     0.277 HD
ATOM      6  H11 UNL     1      21.030  -6.994   8.502  1.00  0.00     0.277 HD
BRANCH   4   7
HETATM    7  C5  UNL     1      19.438  -6.117   9.533  1.00  0.00     0.289 C 
BRANCH   7   8
HETATM    8  C4  UNL     1      20.271  -4.957   9.815  1.00  0.00     0.034 A 
HETATM    9  C3  UNL     1      21.017  -4.455   8.758  1.00  0.00     0.027 A 
HETATM   10  C2  UNL     1      21.741  -3.299   8.864  1.00  0.00     0.003 A 
HETATM   11  C1  UNL     1      21.748  -2.577  10.067  1.00  0.00     0.017 A 
HETATM   12  C20 UNL     1      20.993  -3.114  11.097  1.00  0.00     0.088 A 
HETATM   13  N3  UNL     1      20.293  -4.249  10.967  1.00  0.00    -0.368 N 
ATOM     14  H3  UNL     1      19.757  -4.591  11.765  1.00  0.00     0.165 HD
ENDBRANCH   7   8
ENDBRANCH   4   7
ENDBRANCH   3   4
ENDBRANCH   2   3
ENDBRANCH   1   2
BRANCH   1  15
HETATM   15  C9  UNL     1      22.795  -6.815  11.614  1.00  0.00     0.027 C 
BRANCH  15  16
HETATM   16  C10 UNL     1      22.345  -7.583  12.783  1.00  0.00    -0.031 C 
BRANCH  16  17
HETATM   17  C11 UNL     1      23.162  -8.429  13.629  1.00  0.00    -0.030 C 
BRANCH  17  18
HETATM   18  C12 UNL     1      22.708  -9.653  14.312  1.00  0.00     0.030 C 
BRANCH  18  19
HETATM   19  C13 UNL     1      23.158  -9.723  15.730  1.00  0.00     0.031 C 
BRANCH  19  20
HETATM   20  C14 UNL     1      24.554  -9.981  16.066  1.00  0.00    -0.026 C 
HETATM   21  C15 UNL     1      25.466 -10.892  15.413  1.00  0.00     0.009 C 
BRANCH  21  22
HETATM   22  C16 UNL     1      25.269 -12.335  15.428  1.00  0.00    -0.020 A 
HETATM   23  C17 UNL     1      24.199 -13.099  15.049  1.00  0.00     0.029 A 
HETATM   24  C18 UNL     1      24.484 -14.445  15.265  1.00  0.00     0.088 A 
HETATM   25  N2  UNL     1      25.727 -14.483  15.773  1.00  0.00    -0.374 N 
HETATM   26  C19 UNL     1      26.233 -13.258  15.888  1.00  0.00     0.099 A 
ATOM     27  H2  UNL     1      26.218 -15.338  16.035  1.00  0.00     0.164 HD
ENDBRANCH  21  22
ENDBRANCH  19  20
ENDBRANCH  18  19
ENDBRANCH  17  18
ENDBRANCH  16  17
ENDBRANCH  15  16
ENDBRANCH   1  15
TORSDOF 12
ENDMDL
MODEL 2
REMARK VINA RESULT: -7.646444844      1.668      9.702
REMARK  12 active torsions:
REMARK  status: ('A' for Active; 'I' for Inactive)
REMARK    1  A    between atoms: C4_4  and  C5_5 
REMARK    2  A    between atoms: C5_5  and  N1_6 
REMARK    3  A    between atoms: N1_6  and  C6_9 
REMARK    4  A    between atoms: C6_9  and  C7_10 
REMARK    5  A    between atoms: C7_10  and  C8_11 
REMARK    6  A    between atoms: C8_11  and  C9_12 
REMARK    7  A    between atoms: C9_12  and  C10_13 
REMARK    8  A    between atoms: C10_13  and  C11_14 
REMARK    9  A    between atoms: C11_14  and  C12_15 
REMARK   10  A    between atoms: C12_15  and  C13_16 
REMARK   11  A    between atoms: C13_16  and  C14_17 
REMARK   12  A    between atoms: C15_18  and  C16_19 
ROOT
HETATM    1  C8  UNL     1      22.542  -7.665  13.132  1.00  0.00     0.005 C 
ENDROOT
BRANCH   1   2
HETATM    2  C7  UNL     1      23.020  -9.024  13.492  1.00  0.00     0.028 C 
BRANCH   2   3
HETATM    3  C6  UNL     1      23.738  -9.211  14.754  1.00  0.00     0.232 C 
BRANCH   3   4
HETATM    4  N1  UNL     1      24.869 -10.057  14.862  1.00  0.00    -0.070 N 
ATOM      5  H12 UNL     1      25.748  -9.584  14.650  1.00  0.00     0.277 HD
ATOM      6  H11 UNL     1      24.920 -10.759  14.124  1.00  0.00     0.277 HD
BRANCH   4   7
HETATM    7  C5  UNL     1      24.834 -10.633  16.208  1.00  0.00     0.289 C 
BRANCH   7   8
HETATM    8  C4  UNL     1      24.536 -12.056  16.273  1.00  0.00     0.034 A 
HETATM    9  C3  UNL     1      24.468 -12.733  15.063  1.00  0.00     0.027 A 
HETATM   10  C2  UNL     1      24.318 -14.091  14.997  1.00  0.00     0.003 A 
HETATM   11  C1  UNL     1      24.228 -14.850  16.174  1.00  0.00     0.017 A 
HETATM   12  C20 UNL     1      24.296 -14.136  17.359  1.00  0.00     0.088 A 
HETATM   13  N3  UNL     1      24.443 -12.804  17.395  1.00  0.00    -0.368 N 
ATOM     14  H3  UNL     1      24.487 -12.339  18.302  1.00  0.00     0.165 HD
ENDBRANCH   7   8
ENDBRANCH   4   7
ENDBRANCH   3   4
ENDBRANCH   2   3
ENDBRANCH   1   2
BRANCH   1  15
HETATM   15  C9  UNL     1      23.052  -7.371  11.681  1.00  0.00     0.027 C 
BRANCH  15  16
HETATM   16  C10 UNL     1      22.350  -8.291  10.773  1.00  0.00    -0.031 C 
BRANCH  16  17
HETATM   17  C11 UNL     1      20.921  -8.519  10.708  1.00  0.00    -0.030 C 
BRANCH  17  18
HETATM   18  C12 UNL     1      20.067  -8.275   9.532  1.00  0.00     0.030 C 
BRANCH  18  19
HETATM   19  C13 UNL     1      19.680  -6.844   9.387  1.00  0.00     0.031 C 
BRANCH  19  20
HETATM   20  C14 UNL     1      20.405  -5.955   8.486  1.00  0.00    -0.026 C 
HETATM   21  C15 UNL     1      21.556  -5.136   8.790  1.00  0.00     0.009 C 
BRANCH  21  22
HETATM   22  C16 UNL     1      21.493  -4.020   9.726  1.00  0.00    -0.020 A 
HETATM   23  C17 UNL     1      21.321  -3.996  11.083  1.00  0.00     0.029 A 
HETATM   24  C18 UNL     1      21.316  -2.677  11.531  1.00  0.00     0.088 A 
HETATM   25  N2  UNL     1      21.485  -1.915  10.438  1.00  0.00    -0.374 N 
HETATM   26  C19 UNL     1      21.594  -2.665   9.345  1.00  0.00     0.099 A 
ATOM     27  H2  UNL     1      21.525  -0.895  10.446  1.00  0.00     0.164 HD
ENDBRANCH  21  22
ENDBRANCH  19  20
ENDBRANCH  18  19
ENDBRANCH  17  18
ENDBRANCH  16  17
ENDBRANCH  15  16
ENDBRANCH   1  15
TORSDOF 12
ENDMDL
MODEL 3
REMARK VINA RESULT: -7.586285235      0.979      1.584
REMARK  12 active torsions:
REMARK  status: ('A' for Active; 'I' for Inactive)
REMARK    1  A    between atoms: C4_4  and  C5_5 
REMARK    2  A    between atoms: C5_5  and  N1_6 
REMARK    3  A    between atoms: N1_6  and  C6_9 
REMARK    4  A    between atoms: C6_9  and  C7_10 
REMARK    5  A    between atoms: C7_10  and  C8_11 
REMARK    6  A    between atoms: C8_11  and  C9_12 
REMARK    7  A    between atoms: C9_12  and  C10_13 
REMARK    8  A    between atoms: C10_13  and  C11_14 
REMARK    9  A    between atoms: C11_14  and  C12_15 
REMARK   10  A    between atoms: C12_15  and  C13_16 
REMARK   11  A    between atoms: C13_16  and  C14_17 
REMARK   12  A    between atoms: C15_18  and  C16_19 
ROOT
HETATM    1  C8  UNL     1      22.709  -7.603  10.892  1.00  0.00     0.005 C 
ENDROOT
BRANCH   1   2
HETATM    2  C7  UNL     1      21.679  -8.633  10.607  1.00  0.00     0.028 C 
BRANCH   2   3
HETATM    3  C6  UNL     1      20.368  -8.207  10.114  1.00  0.00     0.232 C 
BRANCH   3   4
HETATM    4  N1  UNL     1      20.216  -7.459   8.920  1.00  0.00    -0.070 N 
ATOM      5  H12 UNL     1      19.788  -7.991   8.163  1.00  0.00     0.277 HD
ATOM      6  H11 UNL     1      21.100  -7.260   8.453  1.00  0.00     0.277 HD
BRANCH   4   7
HETATM    7  C5  UNL     1      19.464  -6.253   9.276  1.00  0.00     0.289 C 
BRANCH   7   8
HETATM    8  C4  UNL     1      20.270  -5.104   9.661  1.00  0.00     0.034 A 
HETATM    9  C3  UNL     1      21.009  -4.497   8.654  1.00  0.00     0.027 A 
HETATM   10  C2  UNL     1      21.706  -3.339   8.862  1.00  0.00     0.003 A 
HETATM   11  C1  UNL     1      21.693  -2.721  10.123  1.00  0.00     0.017 A 
HETATM   12  C20 UNL     1      20.946  -3.361  11.100  1.00  0.00     0.088 A 
HETATM   13  N3  UNL     1      20.272  -4.496  10.869  1.00  0.00    -0.368 N 
ATOM     14  H3  UNL     1      19.742  -4.917  11.632  1.00  0.00     0.165 HD
ENDBRANCH   7   8
ENDBRANCH   4   7
ENDBRANCH   3   4
ENDBRANCH   2   3
ENDBRANCH   1   2
BRANCH   1  15
HETATM   15  C9  UNL     1      22.834  -7.500  12.449  1.00  0.00     0.027 C 
BRANCH  15  16
HETATM   16  C10 UNL     1      22.212  -8.703  13.022  1.00  0.00    -0.031 C 
BRANCH  16  17
HETATM   17  C11 UNL     1      22.691  -9.469  14.154  1.00  0.00    -0.030 C 
BRANCH  17  18
HETATM   18  C12 UNL     1      23.799  -9.080  15.045  1.00  0.00     0.030 C 
BRANCH  18  19
HETATM   19  C13 UNL     1      24.787 -10.175  15.249  1.00  0.00     0.031 C 
BRANCH  19  20
HETATM   20  C14 UNL     1      24.358 -11.564  15.375  1.00  0.00    -0.026 C 
HETATM   21  C15 UNL     1      24.787 -12.535  16.355  1.00  0.00     0.009 C 
BRANCH  21  22
HETATM   22  C16 UNL     1      26.157 -13.027  16.416  1.00  0.00    -0.020 A 
HETATM   23  C17 UNL     1      27.183 -12.719  17.267  1.00  0.00     0.029 A 
HETATM   24  C18 UNL     1      28.318 -13.446  16.914  1.00  0.00     0.088 A 
HETATM   25  N2  UNL     1      27.966 -14.189  15.852  1.00  0.00    -0.374 N 
HETATM   26  C19 UNL     1      26.695 -13.975  15.519  1.00  0.00     0.099 A 
ATOM     27  H2  UNL     1      28.590 -14.832  15.365  1.00  0.00     0.164 HD
ENDBRANCH  21  22
ENDBRANCH  19  20
ENDBRANCH  18  19
ENDBRANCH  17  18
ENDBRANCH  16  17
ENDBRANCH  15  16
ENDBRANCH   1  15
TORSDOF 12
ENDMDL
MODEL 4
REMARK VINA RESULT: -7.534265644      1.652      9.705
REMARK  12 active torsions:
REMARK  status: ('A' for Active; 'I' for Inactive)
REMARK    1  A    between atoms: C4_4  and  C5_5 
REMARK    2  A    between atoms: C5_5  and  N1_6 
REMARK    3  A    between atoms: N1_6  and  C6_9 
REMARK    4  A    between atoms: C6_9  and  C7_10 
REMARK    5  A    between atoms: C7_10  and  C8_11 
REMARK    6  A    between atoms: C8_11  and  C9_12 
REMARK    7  A    between atoms: C9_12  and  C10_13 
REMARK    8  A    between atoms: C10_13  and  C11_14 
REMARK    9  A    between atoms: C11_14  and  C12_15 
REMARK   10  A    between atoms: C12_15  and  C13_16 
REMARK   11  A    between atoms: C13_16  and  C14_17 
REMARK   12  A    between atoms: C15_18  and  C16_19 
ROOT
HETATM    1  C8  UNL     1      22.634  -7.506  12.914  1.00  0.00     0.005 C 
ENDROOT
BRANCH   1   2
HETATM    2  C7  UNL     1      23.025  -8.898  13.250  1.00  0.00     0.028 C 
BRANCH   2   3
HETATM    3  C6  UNL     1      23.367  -9.223  14.636  1.00  0.00     0.232 C 
BRANCH   3   4
HETATM    4  N1  UNL     1      24.676  -9.603  15.023  1.00  0.00    -0.070 N 
ATOM      5  H12 UNL     1      25.311  -8.812  15.129  1.00  0.00     0.277 HD
ATOM      6  H11 UNL     1      25.192 -10.083  14.285  1.00  0.00     0.277 HD
BRANCH   4   7
HETATM    7  C5  UNL     1      24.536 -10.401  16.244  1.00  0.00     0.289 C 
BRANCH   7   8
HETATM    8  C4  UNL     1      25.265 -11.660  16.256  1.00  0.00     0.034 A 
HETATM    9  C3  UNL     1      24.875 -12.613  15.325  1.00  0.00     0.027 A 
HETATM   10  C2  UNL     1      25.560 -13.785  15.154  1.00  0.00     0.003 A 
HETATM   11  C1  UNL     1      26.697 -14.060  15.931  1.00  0.00     0.017 A 
HETATM   12  C20 UNL     1      27.049 -13.084  16.850  1.00  0.00     0.088 A 
HETATM   13  N3  UNL     1      26.360 -11.944  16.997  1.00  0.00    -0.368 N 
ATOM     14  H3  UNL     1      26.673 -11.267  17.692  1.00  0.00     0.165 HD
ENDBRANCH   7   8
ENDBRANCH   4   7
ENDBRANCH   3   4
ENDBRANCH   2   3
ENDBRANCH   1   2
BRANCH   1  15
HETATM   15  C9  UNL     1      22.990  -7.283  11.406  1.00  0.00     0.027 C 
BRANCH  15  16
HETATM   16  C10 UNL     1      22.332  -8.348  10.635  1.00  0.00    -0.031 C 
BRANCH  16  17
HETATM   17  C11 UNL     1      20.914  -8.638  10.598  1.00  0.00    -0.030 C 
BRANCH  17  18
HETATM   18  C12 UNL     1      19.997  -8.295   9.497  1.00  0.00     0.030 C 
BRANCH  18  19
HETATM   19  C13 UNL     1      19.659  -6.846   9.459  1.00  0.00     0.031 C 
BRANCH  19  20
HETATM   20  C14 UNL     1      20.315  -5.943   8.519  1.00  0.00    -0.026 C 
HETATM   21  C15 UNL     1      21.462  -5.098   8.761  1.00  0.00     0.009 C 
BRANCH  21  22
HETATM   22  C16 UNL     1      21.424  -3.982   9.697  1.00  0.00    -0.020 A 
HETATM   23  C17 UNL     1      21.286  -3.956  11.058  1.00  0.00     0.029 A 
HETATM   24  C18 UNL     1      21.295  -2.637  11.505  1.00  0.00     0.088 A 
HETATM   25  N2  UNL     1      21.438  -1.876  10.408  1.00  0.00    -0.374 N 
HETATM   26  C19 UNL     1      21.519  -2.627   9.312  1.00  0.00     0.099 A 
ATOM     27  H2  UNL     1      21.480  -0.857  10.414  1.00  0.00     0.164 HD
ENDBRANCH  21  22
ENDBRANCH  19  20
ENDBRANCH  18  19
ENDBRANCH  17  18
ENDBRANCH  16  17
ENDBRANCH  15  16
ENDBRANCH   1  15
TORSDOF 12
ENDMDL
MODEL 5
REMARK VINA RESULT: -7.521090858      1.053      1.401
REMARK  12 active torsions:
REMARK  status: ('A' for Active; 'I' for Inactive)
REMARK    1  A    between atoms: C4_4  and  C5_5 
REMARK    2  A    between atoms: C5_5  and  N1_6 
REMARK    3  A    between atoms: N1_6  and  C6_9 
REMARK    4  A    between atoms: C6_9  and  C7_10 
REMARK    5  A    between atoms: C7_10  and  C8_11 
REMARK    6  A    between atoms: C8_11  and  C9_12 
REMARK    7  A    between atoms: C9_12  and  C10_13 
REMARK    8  A    between atoms: C10_13  and  C11_14 
REMARK    9  A    between atoms: C11_14  and  C12_15 
REMARK   10  A    between atoms: C12_15  and  C13_16 
REMARK   11  A    between atoms: C13_16  and  C14_17 
REMARK   12  A    between atoms: C15_18  and  C16_19 
ROOT
HETATM    1  C8  UNL     1      21.583  -8.399  11.916  1.00  0.00     0.005 C 
ENDROOT
BRANCH   1   2
HETATM    2  C7  UNL     1      21.572  -8.325  10.433  1.00  0.00     0.028 C 
BRANCH   2   3
HETATM    3  C6  UNL     1      20.289  -8.201   9.739  1.00  0.00     0.232 C 
BRANCH   3   4
HETATM    4  N1  UNL     1      19.993  -7.109   8.886  1.00  0.00    -0.070 N 
ATOM      5  H12 UNL     1      19.383  -7.359   8.108  1.00  0.00     0.277 HD
ATOM      6  H11 UNL     1      20.792  -6.804   8.329  1.00  0.00     0.277 HD
BRANCH   4   7
HETATM    7  C5  UNL     1      19.443  -6.051   9.736  1.00  0.00     0.289 C 
BRANCH   7   8
HETATM    8  C4  UNL     1      20.288  -4.878   9.903  1.00  0.00     0.034 A 
HETATM    9  C3  UNL     1      20.988  -4.451   8.783  1.00  0.00     0.027 A 
HETATM   10  C2  UNL     1      21.717  -3.294   8.778  1.00  0.00     0.003 A 
HETATM   11  C1  UNL     1      21.776  -2.491   9.928  1.00  0.00     0.017 A 
HETATM   12  C20 UNL     1      21.066  -2.954  11.024  1.00  0.00     0.088 A 
HETATM   13  N3  UNL     1      20.360  -4.093  11.001  1.00  0.00    -0.368 N 
ATOM     14  H3  UNL     1      19.860  -4.378  11.844  1.00  0.00     0.165 HD
ENDBRANCH   7   8
ENDBRANCH   4   7
ENDBRANCH   3   4
ENDBRANCH   2   3
ENDBRANCH   1   2
BRANCH   1  15
HETATM   15  C9  UNL     1      21.568  -9.917  12.298  1.00  0.00     0.027 C 
BRANCH  15  16
HETATM   16  C10 UNL     1      22.370 -10.073  13.520  1.00  0.00    -0.031 C 
BRANCH  16  17
HETATM   17  C11 UNL     1      23.148  -9.045  14.180  1.00  0.00    -0.030 C 
BRANCH  17  18
HETATM   18  C12 UNL     1      23.924  -9.220  15.421  1.00  0.00     0.030 C 
BRANCH  18  19
HETATM   19  C13 UNL     1      23.095  -9.718  16.553  1.00  0.00     0.031 C 
BRANCH  19  20
HETATM   20  C14 UNL     1      23.651 -10.623  17.554  1.00  0.00    -0.026 C 
HETATM   21  C15 UNL     1      24.705 -11.596  17.376  1.00  0.00     0.009 C 
BRANCH  21  22
HETATM   22  C16 UNL     1      24.555 -12.758  16.510  1.00  0.00    -0.020 A 
HETATM   23  C17 UNL     1      24.515 -12.862  15.147  1.00  0.00     0.029 A 
HETATM   24  C18 UNL     1      24.342 -14.196  14.783  1.00  0.00     0.088 A 
HETATM   25  N2  UNL     1      24.278 -14.887  15.934  1.00  0.00    -0.374 N 
HETATM   26  C19 UNL     1      24.399 -14.079  16.984  1.00  0.00     0.099 A 
ATOM     27  H2  UNL     1      24.154 -15.898  15.994  1.00  0.00     0.164 HD
ENDBRANCH  21  22
ENDBRANCH  19  20
ENDBRANCH  18  19
ENDBRANCH  17  18
ENDBRANCH  16  17
ENDBRANCH  15  16
ENDBRANCH   1  15
TORSDOF 12
ENDMDL
