MODEL 1
REMARK VINA RESULT: -7.542812575      0.000      0.000
REMARK  13 active torsions:
REMARK  status: ('A' for Active; 'I' for Inactive)
REMARK    1  A    between atoms: C1_1  and  C2_2 
REMARK    2  A    between atoms: C1_1  and  C11_11 
REMARK    3  A    between atoms: C2_2  and  C3_3 
REMARK    4  A    between atoms: C3_3  and  C4_4 
REMARK    5  A    between atoms: C4_4  and  C5_5 
REMARK    6  A    between atoms: C5_5  and  C6_6 
REMARK    7  A    between atoms: C7_7  and  C8_8 
REMARK    8  A    between atoms: C11_11  and  C12_12 
REMARK    9  A    between atoms: C12_12  and  C13_13 
REMARK   10  A    between atoms: C13_13  and  C14_14 
REMARK   11  A    between atoms: C14_14  and  C15_15 
REMARK   12  A    between atoms: C15_15  and  N1_16 
REMARK   13  A    between atoms: N1_16  and  C16_18 
ROOT
HETATM    1  C13 UNL     1      22.442  -9.563  13.700  1.00  0.00     0.002 C 
ENDROOT
BRANCH   1   2
HETATM    2  C12 UNL     1      22.075  -8.570  12.687  1.00  0.00     0.000 C 
BRANCH   2   3
HETATM    3  C11 UNL     1      22.828  -7.318  12.505  1.00  0.00     0.000 C 
BRANCH   3   4
HETATM    4  C1  UNL     1      22.258  -6.229  11.697  1.00  0.00     0.000 C 
BRANCH   4   5
HETATM    5  C2  UNL     1      20.743  -6.436  11.486  1.00  0.00     0.000 C 
BRANCH   5   6
HETATM    6  C3  UNL     1      20.353  -5.900  10.162  1.00  0.00     0.004 C 
BRANCH   6   7
HETATM    7  C4  UNL     1      21.564  -5.971   9.220  1.00  0.00     0.027 C 
BRANCH   7   8
HETATM    8  C5  UNL     1      21.588  -4.858   8.273  1.00  0.00    -0.027 C 
BRANCH   8   9
HETATM    9  C6  UNL     1      21.219  -3.495   8.599  1.00  0.00    -0.008 C 
HETATM   10  C7  UNL     1      21.878  -2.529   9.439  1.00  0.00    -0.022 C 
BRANCH  10  11
HETATM   11  C8  UNL     1      22.122  -2.700  10.869  1.00  0.00     0.008 A 
HETATM   12  C9  UNL     1      23.446  -2.769  11.535  1.00  0.00     0.009 A 
HETATM   13  C10 UNL     1      22.511  -1.629  11.818  1.00  0.00     0.009 A 
ENDBRANCH  10  11
ENDBRANCH   8   9
ENDBRANCH   7   8
ENDBRANCH   6   7
ENDBRANCH   5   6
ENDBRANCH   4   5
ENDBRANCH   3   4
ENDBRANCH   2   3
ENDBRANCH   1   2
BRANCH   1  14
HETATM   14  C14 UNL     1      23.531  -9.193  14.643  1.00  0.00     0.019 C 
BRANCH  14  15
HETATM   15  C15 UNL     1      23.712 -10.351  15.673  1.00  0.00     0.115 C 
BRANCH  15  16
HETATM   16  N1  UNL     1      24.600 -11.262  15.053  1.00  0.00    -0.396 N 
ATOM     17  H1  UNL     1      24.706 -11.288  14.039  1.00  0.00     0.155 HD
BRANCH  16  18
HETATM   18  C16 UNL     1      25.343 -12.144  15.897  1.00  0.00     0.279 C 
HETATM   19  C17 UNL     1      25.519 -13.463  15.193  1.00  0.00     0.054 C 
HETATM   20  C18 UNL     1      24.154 -14.108  15.103  1.00  0.00     0.004 C 
HETATM   21  C19 UNL     1      23.990 -15.208  16.125  1.00  0.00     0.002 C 
HETATM   22  C20 UNL     1      24.020 -14.758  17.540  1.00  0.00     0.027 C 
HETATM   23  C21 UNL     1      24.897 -13.563  17.802  1.00  0.00     0.235 C 
HETATM   24  N2  UNL     1      24.516 -12.401  17.065  1.00  0.00    -0.055 N 
ATOM     25  H22 UNL     1      24.493 -11.583  17.674  1.00  0.00     0.279 HD
ATOM     26  H21 UNL     1      23.531 -12.449  16.804  1.00  0.00     0.279 HD
ENDBRANCH  16  18
ENDBRANCH  15  16
ENDBRANCH  14  15
ENDBRANCH   1  14
TORSDOF 13
ENDMDL
MODEL 2
REMARK VINA RESULT: -7.401027818      1.248      2.042
REMARK  13 active torsions:
REMARK  status: ('A' for Active; 'I' for Inactive)
REMARK    1  A    between atoms: C1_1  and  C2_2 
REMARK    2  A    between atoms: C1_1  and  C11_11 
REMARK    3  A    between atoms: C2_2  and  C3_3 
REMARK    4  A    between atoms: C3_3  and  C4_4 
REMARK    5  A    between atoms: C4_4  and  C5_5 
REMARK    6  A    between atoms: C5_5  and  C6_6 
REMARK    7  A    between atoms: C7_7  and  C8_8 
REMARK    8  A    between atoms: C11_11  and  C12_12 
REMARK    9  A    between atoms: C12_12  and  C13_13 
REMARK   10  A    between atoms: C13_13  and  C14_14 
REMARK   11  A    between atoms: C14_14  and  C15_15 
REMARK   12  A    between atoms: C15_15  and  N1_16 
REMARK   13  A    between atoms: N1_16  and  C16_18 
ROOT
HETATM    1  C13 UNL     1      22.066  -9.176  12.506  1.00  0.00     0.002 C 
ENDROOT
BRANCH   1   2
HETATM    2  C12 UNL     1      23.077  -8.327  11.873  1.00  0.00     0.000 C 
BRANCH   2   3
HETATM    3  C11 UNL     1      22.722  -7.136  11.082  1.00  0.00     0.000 C 
BRANCH   3   4
HETATM    4  C1  UNL     1      21.945  -6.050  11.699  1.00  0.00     0.000 C 
BRANCH   4   5
HETATM    5  C2  UNL     1      20.517  -5.994  11.116  1.00  0.00     0.000 C 
BRANCH   5   6
HETATM    6  C3  UNL     1      20.476  -6.750   9.843  1.00  0.00     0.004 C 
BRANCH   6   7
HETATM    7  C4  UNL     1      20.149  -5.779   8.698  1.00  0.00     0.027 C 
BRANCH   7   8
HETATM    8  C5  UNL     1      21.290  -4.933   8.354  1.00  0.00    -0.027 C 
BRANCH   8   9
HETATM    9  C6  UNL     1      21.292  -3.485   8.431  1.00  0.00    -0.008 C 
HETATM   10  C7  UNL     1      22.091  -2.599   9.237  1.00  0.00    -0.022 C 
BRANCH  10  11
HETATM   11  C8  UNL     1      22.093  -2.579  10.697  1.00  0.00     0.008 A 
HETATM   12  C9  UNL     1      23.287  -2.530  11.576  1.00  0.00     0.009 A 
HETATM   13  C10 UNL     1      22.317  -1.385  11.549  1.00  0.00     0.009 A 
ENDBRANCH  10  11
ENDBRANCH   8   9
ENDBRANCH   7   8
ENDBRANCH   6   7
ENDBRANCH   5   6
ENDBRANCH   4   5
ENDBRANCH   3   4
ENDBRANCH   2   3
ENDBRANCH   1   2
BRANCH   1  14
HETATM   14  C14 UNL     1      22.447  -9.844  13.779  1.00  0.00     0.019 C 
BRANCH  14  15
HETATM   15  C15 UNL     1      23.538  -8.981  14.486  1.00  0.00     0.115 C 
BRANCH  15  16
HETATM   16  N1  UNL     1      24.608  -9.872  14.740  1.00  0.00    -0.396 N 
ATOM     17  H1  UNL     1      25.538  -9.702  14.359  1.00  0.00     0.155 HD
BRANCH  16  18
HETATM   18  C16 UNL     1      24.339 -11.020  15.549  1.00  0.00     0.279 C 
HETATM   19  C17 UNL     1      24.509 -10.649  16.997  1.00  0.00     0.054 C 
HETATM   20  C18 UNL     1      25.982 -10.382  17.220  1.00  0.00     0.004 C 
HETATM   21  C19 UNL     1      26.656 -11.537  17.922  1.00  0.00     0.002 C 
HETATM   22  C20 UNL     1      26.691 -12.805  17.149  1.00  0.00     0.027 C 
HETATM   23  C21 UNL     1      25.515 -13.016  16.234  1.00  0.00     0.235 C 
HETATM   24  N2  UNL     1      25.370 -11.998  15.244  1.00  0.00    -0.055 N 
ATOM     25  H22 UNL     1      25.210 -12.412  14.325  1.00  0.00     0.279 HD
ATOM     26  H21 UNL     1      26.263 -11.536  15.071  1.00  0.00     0.279 HD
ENDBRANCH  16  18
ENDBRANCH  15  16
ENDBRANCH  14  15
ENDBRANCH   1  14
TORSDOF 13
ENDMDL
MODEL 3
REMARK VINA RESULT: -7.385228811      1.716      2.534
REMARK  13 active torsions:
REMARK  status: ('A' for Active; 'I' for Inactive)
REMARK    1  A    between atoms: C1_1  and  C2_2 
REMARK    2  A    between atoms: C1_1  and  C11_11 
REMARK    3  A    between atoms: C2_2  and  C3_3 
REMARK    4  A    between atoms: C3_3  and  C4_4 
REMARK    5  A    between atoms: C4_4  and  C5_5 
REMARK    6  A    between atoms: C5_5  and  C6_6 
REMARK    7  A    between atoms: C7_7  and  C8_8 
REMARK    8  A    between atoms: C11_11  and  C12_12 
REMARK    9  A    between atoms: C12_12  and  C13_13 
REMARK   10  A    between atoms: C13_13  and  C14_14 
REMARK   11  A    between atoms: C14_14  and  C15_15 
REMARK   12  A    between atoms: C15_15  and  N1_16 
REMARK   13  A    between atoms: N1_16  and  C16_18 
ROOT
HETATM    1  C13 UNL     1      22.954  -7.153  11.718  1.00  0.00     0.002 C 
ENDROOT
BRANCH   1   2
HETATM    2  C12 UNL     1      22.296  -8.010  10.730  1.00  0.00     0.000 C 
BRANCH   2   3
HETATM    3  C11 UNL     1      20.837  -8.217  10.714  1.00  0.00     0.000 C 
BRANCH   3   4
HETATM    4  C1  UNL     1      20.089  -8.079   9.456  1.00  0.00     0.000 C 
BRANCH   4   5
HETATM    5  C2  UNL     1      19.926  -6.592   9.072  1.00  0.00     0.000 C 
BRANCH   5   6
HETATM    6  C3  UNL     1      19.447  -5.831  10.248  1.00  0.00     0.004 C 
BRANCH   6   7
HETATM    7  C4  UNL     1      20.365  -4.619  10.465  1.00  0.00     0.027 C 
BRANCH   7   8
HETATM    8  C5  UNL     1      21.278  -4.415   9.343  1.00  0.00    -0.027 C 
BRANCH   8   9
HETATM    9  C6  UNL     1      21.898  -3.148   9.008  1.00  0.00    -0.008 C 
HETATM   10  C7  UNL     1      22.432  -2.121   9.864  1.00  0.00    -0.022 C 
BRANCH  10  11
HETATM   11  C8  UNL     1      21.655  -1.369  10.845  1.00  0.00     0.008 A 
HETATM   12  C9  UNL     1      21.903  -1.308  12.307  1.00  0.00     0.009 A 
HETATM   13  C10 UNL     1      22.047  -0.077  11.459  1.00  0.00     0.009 A 
ENDBRANCH  10  11
ENDBRANCH   8   9
ENDBRANCH   7   8
ENDBRANCH   6   7
ENDBRANCH   5   6
ENDBRANCH   4   5
ENDBRANCH   3   4
ENDBRANCH   2   3
ENDBRANCH   1   2
BRANCH   1  14
HETATM   14  C14 UNL     1      22.919  -7.608  13.134  1.00  0.00     0.019 C 
BRANCH  14  15
HETATM   15  C15 UNL     1      22.990  -9.167  13.159  1.00  0.00     0.115 C 
BRANCH  15  16
HETATM   16  N1  UNL     1      22.639  -9.532  14.480  1.00  0.00    -0.396 N 
ATOM     17  H1  UNL     1      21.707  -9.882  14.701  1.00  0.00     0.155 HD
BRANCH  16  18
HETATM   18  C16 UNL     1      23.637  -9.394  15.494  1.00  0.00     0.279 C 
HETATM   19  C17 UNL     1      24.766 -10.347  15.203  1.00  0.00     0.054 C 
HETATM   20  C18 UNL     1      24.231 -11.748  15.405  1.00  0.00     0.004 C 
HETATM   21  C19 UNL     1      24.695 -12.337  16.716  1.00  0.00     0.002 C 
HETATM   22  C20 UNL     1      24.190 -11.641  17.928  1.00  0.00     0.027 C 
HETATM   23  C21 UNL     1      23.974 -10.162  17.760  1.00  0.00     0.235 C 
HETATM   24  N2  UNL     1      23.031  -9.832  16.741  1.00  0.00    -0.055 N 
ATOM     25  H22 UNL     1      22.366  -9.137  17.079  1.00  0.00     0.279 HD
ATOM     26  H21 UNL     1      22.395 -10.613  16.575  1.00  0.00     0.279 HD
ENDBRANCH  16  18
ENDBRANCH  15  16
ENDBRANCH  14  15
ENDBRANCH   1  14
TORSDOF 13
ENDMDL
MODEL 4
REMARK VINA RESULT: -7.358706663      1.047      1.581
REMARK  13 active torsions:
REMARK  status: ('A' for Active; 'I' for Inactive)
REMARK    1  A    between atoms: C1_1  and  C2_2 
REMARK    2  A    between atoms: C1_1  and  C11_11 
REMARK    3  A    between atoms: C2_2  and  C3_3 
REMARK    4  A    between atoms: C3_3  and  C4_4 
REMARK    5  A    between atoms: C4_4  and  C5_5 
REMARK    6  A    between atoms: C5_5  and  C6_6 
REMARK    7  A    between atoms: C7_7  and  C8_8 
REMARK    8  A    between atoms: C11_11  and  C12_12 
REMARK    9  A    between atoms: C12_12  and  C13_13 
REMARK   10  A    between atoms: C13_13  and  C14_14 
REMARK   11  A    between atoms: C14_14  and  C15_15 
REMARK   12  A    between atoms: C15_15  and  N1_16 
REMARK   13  A    between atoms: N1_16  and  C16_18 
ROOT
HETATM    1  C13 UNL     1      23.440  -8.951  14.399  1.00  0.00     0.002 C 
ENDROOT
BRANCH   1   2
HETATM    2  C12 UNL     1      22.340  -9.360  13.522  1.00  0.00     0.000 C 
BRANCH   2   3
HETATM    3  C11 UNL     1      22.089  -8.715  12.223  1.00  0.00     0.000 C 
BRANCH   3   4
HETATM    4  C1  UNL     1      23.051  -7.740  11.688  1.00  0.00     0.000 C 
BRANCH   4   5
HETATM    5  C2  UNL     1      22.356  -6.400  11.365  1.00  0.00     0.000 C 
BRANCH   5   6
HETATM    6  C3  UNL     1      20.888  -6.575  11.449  1.00  0.00     0.004 C 
BRANCH   6   7
HETATM    7  C4  UNL     1      20.267  -6.233  10.087  1.00  0.00     0.027 C 
BRANCH   7   8
HETATM    8  C5  UNL     1      21.236  -5.622   9.180  1.00  0.00    -0.027 C 
BRANCH   8   9
HETATM    9  C6  UNL     1      21.076  -4.319   8.564  1.00  0.00    -0.008 C 
HETATM   10  C7  UNL     1      21.801  -3.094   8.783  1.00  0.00    -0.022 C 
BRANCH  10  11
HETATM   11  C8  UNL     1      21.858  -2.377  10.054  1.00  0.00     0.008 A 
HETATM   12  C9  UNL     1      21.261  -2.815  11.340  1.00  0.00     0.009 A 
HETATM   13  C10 UNL     1      22.750  -2.700  11.195  1.00  0.00     0.009 A 
ENDBRANCH  10  11
ENDBRANCH   8   9
ENDBRANCH   7   8
ENDBRANCH   6   7
ENDBRANCH   5   6
ENDBRANCH   4   5
ENDBRANCH   3   4
ENDBRANCH   2   3
ENDBRANCH   1   2
BRANCH   1  14
HETATM   14  C14 UNL     1      23.515  -9.600  15.735  1.00  0.00     0.019 C 
BRANCH  14  15
HETATM   15  C15 UNL     1      24.771 -10.526  15.769  1.00  0.00     0.115 C 
BRANCH  15  16
HETATM   16  N1  UNL     1      24.265 -11.841  15.644  1.00  0.00    -0.396 N 
ATOM     17  H1  UNL     1      23.309 -12.067  15.918  1.00  0.00     0.155 HD
BRANCH  16  18
HETATM   18  C16 UNL     1      25.140 -12.843  15.121  1.00  0.00     0.279 C 
HETATM   19  C17 UNL     1      24.428 -14.168  15.127  1.00  0.00     0.054 C 
HETATM   20  C18 UNL     1      24.240 -14.568  16.574  1.00  0.00     0.004 C 
HETATM   21  C19 UNL     1      25.230 -15.628  16.992  1.00  0.00     0.002 C 
HETATM   22  C20 UNL     1      26.652 -15.197  16.978  1.00  0.00     0.027 C 
HETATM   23  C21 UNL     1      26.989 -14.174  15.928  1.00  0.00     0.235 C 
HETATM   24  N2  UNL     1      26.248 -12.959  16.055  1.00  0.00    -0.055 N 
ATOM     25  H22 UNL     1      26.868 -12.153  15.978  1.00  0.00     0.279 HD
ATOM     26  H21 UNL     1      25.923 -12.836  17.014  1.00  0.00     0.279 HD
ENDBRANCH  16  18
ENDBRANCH  15  16
ENDBRANCH  14  15
ENDBRANCH   1  14
TORSDOF 13
ENDMDL
MODEL 5
REMARK VINA RESULT: -7.351784297      0.980      1.473
REMARK  13 active torsions:
REMARK  status: ('A' for Active; 'I' for Inactive)
REMARK    1  A    between atoms: C1_1  and  C2_2 
REMARK    2  A    between atoms: C1_1  and  C11_11 
REMARK    3  A    between atoms: C2_2  and  C3_3 
REMARK    4  A    between atoms: C3_3  and  C4_4 
REMARK    5  A    between atoms: C4_4  and  C5_5 
REMARK    6  A    between atoms: C5_5  and  C6_6 
REMARK    7  A    between atoms: C7_7  and  C8_8 
REMARK    8  A    between atoms: C11_11  and  C12_12 
REMARK    9  A    between atoms: C12_12  and  C13_13 
REMARK   10  A    between atoms: C13_13  and  C14_14 
REMARK   11  A    between atoms: C14_14  and  C15_15 
REMARK   12  A    between atoms: C15_15  and  N1_16 
REMARK   13  A    between atoms: N1_16  and  C16_18 
ROOT
HETATM    1  C13 UNL     1      23.056  -9.921  14.091  1.00  0.00     0.002 C 
ENDROOT
BRANCH   1   2
HETATM    2  C12 UNL     1      22.288  -8.918  13.351  1.00  0.00     0.000 C 
BRANCH   2   3
HETATM    3  C11 UNL     1      22.867  -7.624  12.949  1.00  0.00     0.000 C 
BRANCH   3   4
HETATM    4  C1  UNL     1      22.443  -6.988  11.692  1.00  0.00     0.000 C 
BRANCH   4   5
HETATM    5  C2  UNL     1      22.286  -8.037  10.571  1.00  0.00     0.000 C 
BRANCH   5   6
HETATM    6  C3  UNL     1      20.853  -8.186  10.233  1.00  0.00     0.004 C 
BRANCH   6   7
HETATM    7  C4  UNL     1      20.117  -6.889  10.601  1.00  0.00     0.027 C 
BRANCH   7   8
HETATM    8  C5  UNL     1      19.629  -6.182   9.420  1.00  0.00    -0.027 C 
BRANCH   8   9
HETATM    9  C6  UNL     1      20.459  -5.389   8.535  1.00  0.00    -0.008 C 
HETATM   10  C7  UNL     1      21.620  -4.587   8.823  1.00  0.00    -0.022 C 
BRANCH  10  11
HETATM   11  C8  UNL     1      21.631  -3.428   9.711  1.00  0.00     0.008 A 
HETATM   12  C9  UNL     1      20.899  -3.295  10.995  1.00  0.00     0.009 A 
HETATM   13  C10 UNL     1      22.400  -3.308  10.974  1.00  0.00     0.009 A 
ENDBRANCH  10  11
ENDBRANCH   8   9
ENDBRANCH   7   8
ENDBRANCH   6   7
ENDBRANCH   5   6
ENDBRANCH   4   5
ENDBRANCH   3   4
ENDBRANCH   2   3
ENDBRANCH   1   2
BRANCH   1  14
HETATM   14  C14 UNL     1      23.504  -9.551  15.461  1.00  0.00     0.019 C 
BRANCH  14  15
HETATM   15  C15 UNL     1      24.980 -10.024  15.646  1.00  0.00     0.115 C 
BRANCH  15  16
HETATM   16  N1  UNL     1      25.021 -11.330  15.103  1.00  0.00    -0.396 N 
ATOM     17  H1  UNL     1      24.597 -11.540  14.200  1.00  0.00     0.155 HD
BRANCH  16  18
HETATM   18  C16 UNL     1      25.678 -12.346  15.866  1.00  0.00     0.279 C 
HETATM   19  C17 UNL     1      25.602 -13.648  15.115  1.00  0.00     0.054 C 
HETATM   20  C18 UNL     1      24.151 -14.077  15.110  1.00  0.00     0.004 C 
HETATM   21  C19 UNL     1      23.893 -15.178  16.110  1.00  0.00     0.002 C 
HETATM   22  C20 UNL     1      24.090 -14.792  17.531  1.00  0.00     0.027 C 
HETATM   23  C21 UNL     1      25.155 -13.753  17.759  1.00  0.00     0.235 C 
HETATM   24  N2  UNL     1      24.905 -12.520  17.085  1.00  0.00    -0.055 N 
ATOM     25  H22 UNL     1      25.049 -11.731  17.716  1.00  0.00     0.279 HD
ATOM     26  H21 UNL     1      23.908 -12.410  16.896  1.00  0.00     0.279 HD
ENDBRANCH  16  18
ENDBRANCH  15  16
ENDBRANCH  14  15
ENDBRANCH   1  14
TORSDOF 13
ENDMDL
