MODEL 1
REMARK VINA RESULT: -6.601208520      0.000      0.000
REMARK  3 active torsions:
REMARK  status: ('A' for Active; 'I' for Inactive)
REMARK       I    between atoms: N1_4  and  C4_5 
REMARK    1  A    between atoms: C4_5  and  O2_7 
REMARK    2  A    between atoms: O2_7  and  C5_8 
REMARK    3  A    between atoms: C10_13  and  C11_14 
ROOT
HETATM    1  C1  UNL     1      30.492  11.885  -2.987  1.00  0.00     0.014 C 
HETATM    2  C2  UNL     1      30.340  13.282  -2.469  1.00  0.00     0.034 C 
HETATM    3  C3  UNL     1      31.467  14.108  -3.082  1.00  0.00     0.135 C 
HETATM    4  N1  UNL     1      31.375  15.422  -2.440  1.00  0.00    -0.327 N 
HETATM    5  C4  UNL     1      32.440  15.958  -1.705  1.00  0.00     0.363 C 
HETATM    6  O1  UNL     1      33.546  15.373  -1.532  1.00  0.00    -0.238 OA
HETATM    7  C9  UNL     1      30.153  16.137  -2.596  1.00  0.00     0.142 C 
HETATM    8  C10 UNL     1      28.910  15.336  -2.442  1.00  0.00     0.095 C 
HETATM    9  C14 UNL     1      29.018  13.896  -2.794  1.00  0.00     0.187 C 
HETATM   10  F1  UNL     1      28.716  13.777  -4.156  1.00  0.00    -0.248 F 
ENDROOT
BRANCH   5  11
HETATM   11  O2  UNL     1      32.308  17.205  -1.115  1.00  0.00    -0.294 OA
BRANCH  11  12
HETATM   12  C5  UNL     1      32.513  17.379   0.269  1.00  0.00     0.061 C 
HETATM   13  C6  UNL     1      32.438  16.027   0.926  1.00  0.00     0.046 C 
HETATM   14  C7  UNL     1      33.840  18.028   0.578  1.00  0.00     0.046 C 
HETATM   15  C8  UNL     1      31.425  18.303   0.778  1.00  0.00     0.046 C 
ENDBRANCH  11  12
ENDBRANCH   5  11
BRANCH   8  16
HETATM   16  C11 UNL     1      28.485  15.417  -0.992  1.00  0.00     0.059 A 
HETATM   17  N2  UNL     1      29.205  15.807   0.050  1.00  0.00    -0.363 N 
HETATM   18  C12 UNL     1      28.677  15.814   1.230  1.00  0.00     0.095 A 
ATOM     19  H2  UNL     1      30.173  16.101  -0.079  1.00  0.00     0.165 HD
HETATM   20  C13 UNL     1      27.371  15.410   1.350  1.00  0.00     0.068 A 
HETATM   21  S1  UNL     1      26.983  15.039  -0.276  1.00  0.00    -0.087 SA
ENDBRANCH   8  16
TORSDOF 3
ENDMDL
MODEL 2
REMARK VINA RESULT: -6.164391734      1.417      1.792
REMARK  3 active torsions:
REMARK  status: ('A' for Active; 'I' for Inactive)
REMARK       I    between atoms: N1_4  and  C4_5 
REMARK    1  A    between atoms: C4_5  and  O2_7 
REMARK    2  A    between atoms: O2_7  and  C5_8 
REMARK    3  A    between atoms: C10_13  and  C11_14 
ROOT
HETATM    1  C1  UNL     1      30.330  12.704  -2.694  1.00  0.00     0.014 C 
HETATM    2  C2  UNL     1      29.995  13.834  -1.769  1.00  0.00     0.034 C 
HETATM    3  C3  UNL     1      31.201  14.769  -1.754  1.00  0.00     0.135 C 
HETATM    4  N1  UNL     1      30.897  15.774  -0.733  1.00  0.00    -0.327 N 
HETATM    5  C4  UNL     1      31.724  15.965   0.381  1.00  0.00     0.363 C 
HETATM    6  O1  UNL     1      32.778  15.305   0.601  1.00  0.00    -0.238 OA
HETATM    7  C9  UNL     1      29.720  16.555  -0.921  1.00  0.00     0.142 C 
HETATM    8  C10 UNL     1      28.514  15.812  -1.369  1.00  0.00     0.095 C 
HETATM    9  C14 UNL     1      28.767  14.586  -2.170  1.00  0.00     0.187 C 
HETATM   10  F1  UNL     1      28.815  14.969  -3.515  1.00  0.00    -0.248 F 
ENDROOT
BRANCH   5  11
HETATM   11  O2  UNL     1      31.398  16.928   1.322  1.00  0.00    -0.294 OA
BRANCH  11  12
HETATM   12  C5  UNL     1      31.874  18.251   1.203  1.00  0.00     0.061 C 
HETATM   13  C6  UNL     1      30.686  19.165   1.068  1.00  0.00     0.046 C 
HETATM   14  C7  UNL     1      32.713  18.669   2.385  1.00  0.00     0.046 C 
HETATM   15  C8  UNL     1      32.759  18.307  -0.026  1.00  0.00     0.046 C 
ENDBRANCH  11  12
ENDBRANCH   5  11
BRANCH   8  16
HETATM   16  C11 UNL     1      27.743  15.396  -0.136  1.00  0.00     0.059 A 
HETATM   17  N2  UNL     1      28.016  15.673   1.131  1.00  0.00    -0.363 N 
HETATM   18  C12 UNL     1      27.241  15.233   2.067  1.00  0.00     0.095 A 
ATOM     19  H2  UNL     1      28.836  16.232   1.367  1.00  0.00     0.165 HD
HETATM   20  C13 UNL     1      26.152  14.485   1.698  1.00  0.00     0.068 A 
HETATM   21  S1  UNL     1      26.319  14.465  -0.006  1.00  0.00    -0.087 SA
ENDBRANCH   8  16
TORSDOF 3
ENDMDL
MODEL 3
REMARK VINA RESULT: -5.765480628      1.463      1.878
REMARK  3 active torsions:
REMARK  status: ('A' for Active; 'I' for Inactive)
REMARK       I    between atoms: N1_4  and  C4_5 
REMARK    1  A    between atoms: C4_5  and  O2_7 
REMARK    2  A    between atoms: O2_7  and  C5_8 
REMARK    3  A    between atoms: C10_13  and  C11_14 
ROOT
HETATM    1  C1  UNL     1      28.203  12.463  -3.894  1.00  0.00     0.014 C 
HETATM    2  C2  UNL     1      28.399  13.662  -3.018  1.00  0.00     0.034 C 
HETATM    3  C3  UNL     1      29.488  14.512  -3.667  1.00  0.00     0.135 C 
HETATM    4  N1  UNL     1      29.756  15.591  -2.712  1.00  0.00    -0.327 N 
HETATM    5  C4  UNL     1      31.027  15.786  -2.159  1.00  0.00     0.363 C 
HETATM    6  O1  UNL     1      32.032  15.069  -2.425  1.00  0.00    -0.238 OA
HETATM    7  C9  UNL     1      28.663  16.439  -2.369  1.00  0.00     0.142 C 
HETATM    8  C10 UNL     1      27.369  15.756  -2.113  1.00  0.00     0.095 C 
HETATM    9  C14 UNL     1      27.158  14.472  -2.833  1.00  0.00     0.187 C 
HETATM   10  F1  UNL     1      26.554  14.777  -4.059  1.00  0.00    -0.248 F 
ENDROOT
BRANCH   5  11
HETATM   11  O2  UNL     1      31.233  16.820  -1.260  1.00  0.00    -0.294 OA
BRANCH  11  12
HETATM   12  C5  UNL     1      31.746  16.570   0.030  1.00  0.00     0.061 C 
HETATM   13  C6  UNL     1      31.128  17.561   0.979  1.00  0.00     0.046 C 
HETATM   14  C7  UNL     1      31.465  15.163   0.499  1.00  0.00     0.046 C 
HETATM   15  C8  UNL     1      33.251  16.733  -0.039  1.00  0.00     0.046 C 
ENDBRANCH  11  12
ENDBRANCH   5  11
BRANCH   8  16
HETATM   16  C11 UNL     1      27.285  15.462  -0.631  1.00  0.00     0.059 A 
HETATM   17  N2  UNL     1      28.137  15.813   0.320  1.00  0.00    -0.363 N 
HETATM   18  C12 UNL     1      27.907  15.474   1.546  1.00  0.00     0.095 A 
ATOM     19  H2  UNL     1      28.974  16.349   0.086  1.00  0.00     0.165 HD
HETATM   20  C13 UNL     1      26.770  14.754   1.810  1.00  0.00     0.068 A 
HETATM   21  S1  UNL     1      26.094  14.609   0.244  1.00  0.00    -0.087 SA
ENDBRANCH   8  16
TORSDOF 3
ENDMDL
MODEL 4
REMARK VINA RESULT: -5.698217892      2.858      3.922
REMARK  3 active torsions:
REMARK  status: ('A' for Active; 'I' for Inactive)
REMARK       I    between atoms: N1_4  and  C4_5 
REMARK    1  A    between atoms: C4_5  and  O2_7 
REMARK    2  A    between atoms: O2_7  and  C5_8 
REMARK    3  A    between atoms: C10_13  and  C11_14 
ROOT
HETATM    1  C1  UNL     1      32.867  15.125  -1.036  1.00  0.00     0.014 C 
HETATM    2  C2  UNL     1      31.920  15.937  -0.207  1.00  0.00     0.034 C 
HETATM    3  C3  UNL     1      32.544  17.321  -0.046  1.00  0.00     0.135 C 
HETATM    4  N1  UNL     1      31.667  18.033   0.887  1.00  0.00    -0.327 N 
HETATM    5  C4  UNL     1      32.142  18.540   2.103  1.00  0.00     0.363 C 
HETATM    6  O1  UNL     1      33.337  18.430   2.496  1.00  0.00    -0.238 OA
HETATM    7  C9  UNL     1      30.304  18.193   0.503  1.00  0.00     0.142 C 
HETATM    8  C10 UNL     1      29.655  16.997  -0.092  1.00  0.00     0.095 C 
HETATM    9  C14 UNL     1      30.557  16.056  -0.808  1.00  0.00     0.187 C 
HETATM   10  F1  UNL     1      30.617  16.471  -2.143  1.00  0.00    -0.248 F 
ENDROOT
BRANCH   5  11
HETATM   11  O2  UNL     1      31.277  19.207   2.954  1.00  0.00    -0.294 OA
BRANCH  11  12
HETATM   12  C5  UNL     1      31.747  19.823   4.132  1.00  0.00     0.061 C 
HETATM   13  C6  UNL     1      30.568  20.426   4.847  1.00  0.00     0.046 C 
HETATM   14  C7  UNL     1      32.461  18.854   5.043  1.00  0.00     0.046 C 
HETATM   15  C8  UNL     1      32.749  20.884   3.723  1.00  0.00     0.046 C 
ENDBRANCH  11  12
ENDBRANCH   5  11
BRANCH   8  16
HETATM   16  C11 UNL     1      28.992  16.225   1.027  1.00  0.00     0.059 A 
HETATM   17  N2  UNL     1      29.418  16.062   2.271  1.00  0.00    -0.363 N 
HETATM   18  C12 UNL     1      28.718  15.364   3.104  1.00  0.00     0.095 A 
ATOM     19  H2  UNL     1      30.296  16.485   2.570  1.00  0.00     0.165 HD
HETATM   20  C13 UNL     1      27.544  14.815   2.653  1.00  0.00     0.068 A 
HETATM   21  S1  UNL     1      27.526  15.351   1.027  1.00  0.00    -0.087 SA
ENDBRANCH   8  16
TORSDOF 3
ENDMDL
MODEL 5
REMARK VINA RESULT: -5.580383806      2.539      4.684
REMARK  3 active torsions:
REMARK  status: ('A' for Active; 'I' for Inactive)
REMARK       I    between atoms: N1_4  and  C4_5 
REMARK    1  A    between atoms: C4_5  and  O2_7 
REMARK    2  A    between atoms: O2_7  and  C5_8 
REMARK    3  A    between atoms: C10_13  and  C11_14 
ROOT
HETATM    1  C1  UNL     1      30.433  17.531   0.596  1.00  0.00     0.014 C 
HETATM    2  C2  UNL     1      30.123  16.587  -0.525  1.00  0.00     0.034 C 
HETATM    3  C3  UNL     1      31.215  15.521  -0.523  1.00  0.00     0.135 C 
HETATM    4  N1  UNL     1      30.963  14.708  -1.716  1.00  0.00    -0.327 N 
HETATM    5  C4  UNL     1      31.920  14.569  -2.728  1.00  0.00     0.363 C 
HETATM    6  O1  UNL     1      33.057  15.117  -2.706  1.00  0.00    -0.238 OA
HETATM    7  C9  UNL     1      29.697  14.060  -1.803  1.00  0.00     0.142 C 
HETATM    8  C10 UNL     1      28.521  14.878  -1.409  1.00  0.00     0.095 C 
HETATM    9  C14 UNL     1      28.779  15.945  -0.406  1.00  0.00     0.187 C 
HETATM   10  F1  UNL     1      28.589  15.380   0.861  1.00  0.00    -0.248 F 
ENDROOT
BRANCH   5  11
HETATM   11  O2  UNL     1      31.637  13.789  -3.838  1.00  0.00    -0.294 OA
BRANCH  11  12
HETATM   12  C5  UNL     1      31.377  14.379  -5.092  1.00  0.00     0.061 C 
HETATM   13  C6  UNL     1      30.370  13.523  -5.811  1.00  0.00     0.046 C 
HETATM   14  C7  UNL     1      30.858  15.791  -4.969  1.00  0.00     0.046 C 
HETATM   15  C8  UNL     1      32.690  14.442  -5.847  1.00  0.00     0.046 C 
ENDBRANCH  11  12
ENDBRANCH   5  11
BRANCH   8  16
HETATM   16  C11 UNL     1      27.986  15.549  -2.655  1.00  0.00     0.059 A 
HETATM   17  N2  UNL     1      27.945  16.844  -2.932  1.00  0.00    -0.363 N 
HETATM   18  C12 UNL     1      27.449  17.246  -4.056  1.00  0.00     0.095 A 
ATOM     19  H2  UNL     1      28.303  17.523  -2.259  1.00  0.00     0.165 HD
HETATM   20  C13 UNL     1      26.980  16.294  -4.926  1.00  0.00     0.068 A 
HETATM   21  S1  UNL     1      27.291  14.856  -4.051  1.00  0.00    -0.087 SA
ENDBRANCH   8  16
TORSDOF 3
ENDMDL
