MODEL 1
REMARK VINA RESULT: -5.815629175      0.000      0.000
REMARK  1 active torsions:
REMARK  status: ('A' for Active; 'I' for Inactive)
REMARK    1  A    between atoms: C3_5  and  N1_6 
ROOT
HETATM    1  O1  UNL     1      32.214  13.220  -3.150  1.00  0.00    -0.290 OA
HETATM    2  C1  UNL     1      31.697  14.336  -3.479  1.00  0.00     0.192 C 
HETATM    3  C2  UNL     1      31.616  14.678  -4.891  1.00  0.00     0.110 C 
HETATM    4 CL1  UNL     1      32.960  14.215  -5.959  1.00  0.00    -0.078 Cl
HETATM    5  C3  UNL     1      30.604  15.317  -5.456  1.00  0.00     0.084 C 
HETATM    6  C8  UNL     1      29.483  15.710  -4.610  1.00  0.00     0.097 C 
HETATM    7  S1  UNL     1      27.999  15.841  -5.272  1.00  0.00    -0.070 SA
HETATM    8  S2  UNL     1      29.716  16.050  -2.864  1.00  0.00    -0.098 SA
HETATM    9  C9  UNL     1      31.222  15.191  -2.364  1.00  0.00     0.080 C 
HETATM   10  C10 UNL     1      32.342  16.151  -2.022  1.00  0.00     0.029 C 
HETATM   11  C11 UNL     1      33.176  15.528  -0.895  1.00  0.00     0.002 C 
HETATM   12  C12 UNL     1      32.383  15.659   0.383  1.00  0.00     0.000 C 
HETATM   13  C13 UNL     1      30.950  15.293   0.080  1.00  0.00     0.002 C 
HETATM   14  C14 UNL     1      30.883  14.365  -1.138  1.00  0.00     0.029 C 
ENDROOT
BRANCH   5  15
HETATM   15  N1  UNL     1      30.597  15.619  -6.863  1.00  0.00    -0.374 N 
HETATM   16  C4  UNL     1      30.019  14.714  -7.824  1.00  0.00     0.149 C 
HETATM   17  C5  UNL     1      29.573  15.386  -9.083  1.00  0.00     0.187 C 
HETATM   18  O2  UNL     1      30.436  16.337  -9.570  1.00  0.00    -0.388 OA
HETATM   19  C6  UNL     1      31.584  16.511  -8.817  1.00  0.00     0.187 C 
HETATM   20  C7  UNL     1      31.167  16.842  -7.398  1.00  0.00     0.149 C 
ENDBRANCH   5  15
TORSDOF 1
ENDMDL
MODEL 2
REMARK VINA RESULT: -5.713307806      0.371      1.128
REMARK  1 active torsions:
REMARK  status: ('A' for Active; 'I' for Inactive)
REMARK    1  A    between atoms: C3_5  and  N1_6 
ROOT
HETATM    1  O1  UNL     1      31.945  13.142  -3.047  1.00  0.00    -0.290 OA
HETATM    2  C1  UNL     1      31.470  14.278  -3.368  1.00  0.00     0.192 C 
HETATM    3  C2  UNL     1      31.301  14.591  -4.779  1.00  0.00     0.110 C 
HETATM    4 CL1  UNL     1      32.529  14.021  -5.932  1.00  0.00    -0.078 Cl
HETATM    5  C3  UNL     1      30.288  15.276  -5.285  1.00  0.00     0.084 C 
HETATM    6  C8  UNL     1      29.261  15.757  -4.368  1.00  0.00     0.097 C 
HETATM    7  S1  UNL     1      27.740  15.962  -4.920  1.00  0.00    -0.070 SA
HETATM    8  S2  UNL     1      29.646  16.124  -2.655  1.00  0.00    -0.098 SA
HETATM    9  C9  UNL     1      31.133  15.187  -2.246  1.00  0.00     0.080 C 
HETATM   10  C10 UNL     1      32.331  16.085  -2.017  1.00  0.00     0.029 C 
HETATM   11  C11 UNL     1      33.211  15.440  -0.938  1.00  0.00     0.002 C 
HETATM   12  C12 UNL     1      32.528  15.650   0.391  1.00  0.00     0.000 C 
HETATM   13  C13 UNL     1      31.056  15.365   0.208  1.00  0.00     0.002 C 
HETATM   14  C14 UNL     1      30.842  14.413  -0.974  1.00  0.00     0.029 C 
ENDROOT
BRANCH   5  15
HETATM   15  N1  UNL     1      30.191  15.544  -6.696  1.00  0.00    -0.374 N 
HETATM   16  C4  UNL     1      30.780  16.723  -7.279  1.00  0.00     0.149 C 
HETATM   17  C5  UNL     1      31.101  16.571  -8.733  1.00  0.00     0.187 C 
HETATM   18  O2  UNL     1      30.141  15.927  -9.473  1.00  0.00    -0.388 OA
HETATM   19  C6  UNL     1      29.029  15.530  -8.753  1.00  0.00     0.187 C 
HETATM   20  C7  UNL     1      29.499  14.654  -7.609  1.00  0.00     0.149 C 
ENDBRANCH   5  15
TORSDOF 1
ENDMDL
MODEL 3
REMARK VINA RESULT: -5.676523026      5.672      7.904
REMARK  1 active torsions:
REMARK  status: ('A' for Active; 'I' for Inactive)
REMARK    1  A    between atoms: C3_5  and  N1_6 
ROOT
HETATM    1  O1  UNL     1      30.319  17.523   1.385  1.00  0.00    -0.290 OA
HETATM    2  C1  UNL     1      29.827  16.425   0.971  1.00  0.00     0.192 C 
HETATM    3  C2  UNL     1      28.628  15.911   1.615  1.00  0.00     0.110 C 
HETATM    4 CL1  UNL     1      28.452  16.110   3.373  1.00  0.00    -0.078 Cl
HETATM    5  C3  UNL     1      27.638  15.296   0.988  1.00  0.00     0.084 C 
HETATM    6  C8  UNL     1      27.748  15.117  -0.455  1.00  0.00     0.097 C 
HETATM    7  S1  UNL     1      26.386  15.034  -1.349  1.00  0.00    -0.070 SA
HETATM    8  S2  UNL     1      29.350  14.988  -1.253  1.00  0.00    -0.098 SA
HETATM    9  C9  UNL     1      30.544  15.767  -0.148  1.00  0.00     0.080 C 
HETATM   10  C10 UNL     1      31.504  14.764   0.458  1.00  0.00     0.029 C 
HETATM   11  C11 UNL     1      32.864  15.452   0.632  1.00  0.00     0.002 C 
HETATM   12  C12 UNL     1      33.498  15.558  -0.733  1.00  0.00     0.000 C 
HETATM   13  C13 UNL     1      32.434  16.008  -1.706  1.00  0.00     0.002 C 
HETATM   14  C14 UNL     1      31.329  16.772  -0.970  1.00  0.00     0.029 C 
ENDROOT
BRANCH   5  15
HETATM   15  N1  UNL     1      26.481  14.816   1.697  1.00  0.00    -0.374 N 
HETATM   16  C4  UNL     1      26.512  13.578   2.434  1.00  0.00     0.149 C 
HETATM   17  C5  UNL     1      25.502  13.516   3.537  1.00  0.00     0.187 C 
HETATM   18  O2  UNL     1      24.264  14.017   3.217  1.00  0.00    -0.388 OA
HETATM   19  C6  UNL     1      24.152  14.490   1.922  1.00  0.00     0.187 C 
HETATM   20  C7  UNL     1      25.224  15.540   1.712  1.00  0.00     0.149 C 
ENDBRANCH   5  15
TORSDOF 1
ENDMDL
MODEL 4
REMARK VINA RESULT: -5.443090608      1.740      1.926
REMARK  1 active torsions:
REMARK  status: ('A' for Active; 'I' for Inactive)
REMARK    1  A    between atoms: C3_5  and  N1_6 
ROOT
HETATM    1  O1  UNL     1      30.722  12.960  -2.076  1.00  0.00    -0.290 OA
HETATM    2  C1  UNL     1      30.748  14.058  -2.717  1.00  0.00     0.192 C 
HETATM    3  C2  UNL     1      31.442  14.105  -3.996  1.00  0.00     0.110 C 
HETATM    4 CL1  UNL     1      32.948  13.178  -4.183  1.00  0.00    -0.078 Cl
HETATM    5  C3  UNL     1      31.036  14.792  -5.051  1.00  0.00     0.084 C 
HETATM    6  C8  UNL     1      29.802  15.561  -4.935  1.00  0.00     0.097 C 
HETATM    7  S1  UNL     1      28.908  15.832  -6.271  1.00  0.00    -0.070 SA
HETATM    8  S2  UNL     1      29.262  16.210  -3.352  1.00  0.00    -0.098 SA
HETATM    9  C9  UNL     1      30.054  15.204  -2.081  1.00  0.00     0.080 C 
HETATM   10  C10 UNL     1      31.091  15.981  -1.298  1.00  0.00     0.029 C 
HETATM   11  C11 UNL     1      31.087  15.462   0.146  1.00  0.00     0.002 C 
HETATM   12  C12 UNL     1      29.853  16.009   0.822  1.00  0.00     0.000 C 
HETATM   13  C13 UNL     1      28.696  15.869  -0.139  1.00  0.00     0.002 C 
HETATM   14  C14 UNL     1      28.965  14.735  -1.134  1.00  0.00     0.029 C 
ENDROOT
BRANCH   5  15
HETATM   15  N1  UNL     1      31.778  14.786  -6.284  1.00  0.00    -0.374 N 
HETATM   16  C4  UNL     1      31.539  13.795  -7.301  1.00  0.00     0.149 C 
HETATM   17  C5  UNL     1      31.927  14.244  -8.675  1.00  0.00     0.187 C 
HETATM   18  O2  UNL     1      33.114  14.930  -8.746  1.00  0.00    -0.388 OA
HETATM   19  C6  UNL     1      33.762  15.085  -7.533  1.00  0.00     0.187 C 
HETATM   20  C7  UNL     1      32.806  15.768  -6.576  1.00  0.00     0.149 C 
ENDBRANCH   5  15
TORSDOF 1
ENDMDL
MODEL 5
REMARK VINA RESULT: -5.345525736      1.695      2.166
REMARK  1 active torsions:
REMARK  status: ('A' for Active; 'I' for Inactive)
REMARK    1  A    between atoms: C3_5  and  N1_6 
ROOT
HETATM    1  O1  UNL     1      30.488  12.966  -2.029  1.00  0.00    -0.290 OA
HETATM    2  C1  UNL     1      30.502  14.055  -2.687  1.00  0.00     0.192 C 
HETATM    3  C2  UNL     1      31.145  14.073  -3.993  1.00  0.00     0.110 C 
HETATM    4 CL1  UNL     1      32.629  13.123  -4.226  1.00  0.00    -0.078 Cl
HETATM    5  C3  UNL     1      30.705  14.750  -5.041  1.00  0.00     0.084 C 
HETATM    6  C8  UNL     1      29.488  15.538  -4.887  1.00  0.00     0.097 C 
HETATM    7  S1  UNL     1      28.544  15.802  -6.190  1.00  0.00    -0.070 SA
HETATM    8  S2  UNL     1      29.021  16.218  -3.293  1.00  0.00    -0.098 SA
HETATM    9  C9  UNL     1      29.850  15.219  -2.040  1.00  0.00     0.080 C 
HETATM   10  C10 UNL     1      30.928  15.993  -1.311  1.00  0.00     0.029 C 
HETATM   11  C11 UNL     1      30.975  15.495   0.139  1.00  0.00     0.002 C 
HETATM   12  C12 UNL     1      29.777  16.068   0.856  1.00  0.00     0.000 C 
HETATM   13  C13 UNL     1      28.581  15.930  -0.055  1.00  0.00     0.002 C 
HETATM   14  C14 UNL     1      28.794  14.779  -1.044  1.00  0.00     0.029 C 
ENDROOT
BRANCH   5  15
HETATM   15  N1  UNL     1      31.398  14.717  -6.303  1.00  0.00    -0.374 N 
HETATM   16  C4  UNL     1      32.384  15.709  -6.645  1.00  0.00     0.149 C 
HETATM   17  C5  UNL     1      33.382  15.234  -7.654  1.00  0.00     0.187 C 
HETATM   18  O2  UNL     1      32.856  14.501  -8.688  1.00  0.00    -0.388 OA
HETATM   19  C6  UNL     1      31.485  14.329  -8.632  1.00  0.00     0.187 C 
HETATM   20  C7  UNL     1      31.147  13.692  -7.299  1.00  0.00     0.149 C 
ENDBRANCH   5  15
TORSDOF 1
ENDMDL
