MODEL 1
REMARK VINA RESULT: -8.773712911      0.000      0.000
REMARK  11 active torsions:
REMARK  status: ('A' for Active; 'I' for Inactive)
REMARK    1  A    between atoms: S1_2  and  C2_3 
REMARK    2  A    between atoms: C2_3  and  N1_5 
REMARK    3  A    between atoms: N1_5  and  C3_7 
REMARK    4  A    between atoms: C3_7  and  C4_8 
REMARK    5  A    between atoms: C9_18  and  C10_19 
REMARK    6  A    between atoms: C10_19  and  N4_20 
REMARK    7  A    between atoms: N4_20  and  C11_23 
REMARK    8  A    between atoms: C11_23  and  C12_24 
REMARK    9  A    between atoms: C16_29  and  O2_30 
REMARK   10  A    between atoms: O2_30  and  C17_31 
REMARK   11  A    between atoms: C17_31  and  C18_33 
ROOT
HETATM    1  C10 UNL     1      24.982  -4.329   9.107  1.00  0.00     0.240 C 
ENDROOT
BRANCH   1   2
HETATM    2  C9  UNL     1      25.797  -3.095   9.241  1.00  0.00     0.048 A 
HETATM    3  C3  UNL     1      25.648  -2.157  10.373  1.00  0.00     0.104 A 
HETATM    4  C7  UNL     1      27.069  -2.521  10.843  1.00  0.00     0.041 A 
HETATM    5  C8  UNL     1      27.230  -3.366   9.622  1.00  0.00     0.012 A 
BRANCH   3   6
HETATM    6  N1  UNL     1      24.661  -2.477  11.358  1.00  0.00    -0.358 N 
ATOM      7  H1  UNL     1      24.174  -3.358  11.191  1.00  0.00     0.162 HD
BRANCH   6   8
HETATM    8  C2  UNL     1      24.248  -1.807  12.495  1.00  0.00     0.135 C 
HETATM    9  S2  UNL     1      24.702  -2.683  13.939  1.00  0.00    -0.053 SA
BRANCH   8  10
HETATM   10  S1  UNL     1      23.410  -0.344  12.849  1.00  0.00    -0.105 SA
HETATM   11  C1  UNL     1      24.184   1.154  13.257  1.00  0.00     0.098 C 
ENDBRANCH   8  10
ENDBRANCH   6   8
ENDBRANCH   3   6
BRANCH   3  12
HETATM   12  C4  UNL     1      25.634  -0.716  10.017  1.00  0.00     0.177 A 
HETATM   13  N2  UNL     1      26.546   0.248  10.166  1.00  0.00    -0.325 N 
HETATM   14  C5  UNL     1      26.066   1.396   9.697  1.00  0.00     0.100 A 
ATOM     15  H2  UNL     1      27.471   0.123  10.577  1.00  0.00     0.169 HD
HETATM   16  C6  UNL     1      26.684   2.764   9.697  1.00  0.00     0.091 C 
HETATM   17  N3  UNL     1      24.814   1.129   9.234  1.00  0.00    -0.247 N 
HETATM   18  O1  UNL     1      24.581  -0.109   9.431  1.00  0.00    -0.220 OA
ATOM     19  H3  UNL     1      24.177   1.800   8.805  1.00  0.00     0.196 HD
ENDBRANCH   3  12
ENDBRANCH   1   2
BRANCH   1  20
HETATM   20  N4  UNL     1      24.338  -4.613   7.894  1.00  0.00    -0.071 N 
ATOM     21  H42 UNL     1      24.745  -4.070   7.133  1.00  0.00     0.277 HD
ATOM     22  H41 UNL     1      24.570  -5.554   7.574  1.00  0.00     0.277 HD
BRANCH  20  23
HETATM   23  C11 UNL     1      22.906  -4.429   7.945  1.00  0.00     0.270 C 
BRANCH  23  24
HETATM   24  C12 UNL     1      22.087  -5.239   7.062  1.00  0.00    -0.029 A 
HETATM   25  C13 UNL     1      22.427  -5.142   5.674  1.00  0.00     0.028 A 
HETATM   26  C14 UNL     1      21.783  -5.841   4.696  1.00  0.00     0.014 A 
HETATM   27 BR1  UNL     1      22.286  -5.674   2.877  1.00  0.00    -0.051 Br
HETATM   28  C15 UNL     1      20.749  -6.682   5.083  1.00  0.00     0.056 A 
HETATM   29  C16 UNL     1      20.383  -6.808   6.414  1.00  0.00     0.081 A 
HETATM   30  C22 UNL     1      21.061  -6.083   7.355  1.00  0.00     0.046 A 
BRANCH  29  31
HETATM   31  O2  UNL     1      19.327  -7.695   6.670  1.00  0.00    -0.275 OA
BRANCH  31  32
HETATM   32  C17 UNL     1      19.560  -8.826   7.452  1.00  0.00     0.300 C 
HETATM   33  O3  UNL     1      20.285  -9.732   6.946  1.00  0.00    -0.259 OA
BRANCH  32  34
HETATM   34  C18 UNL     1      19.016  -9.004   8.780  1.00  0.00     0.064 A 
HETATM   35  C19 UNL     1      18.777 -10.239   9.395  1.00  0.00     0.044 A 
HETATM   36  C20 UNL     1      18.218 -10.000  10.643  1.00  0.00     0.142 A 
HETATM   37  O4  UNL     1      18.131  -8.705  10.780  1.00  0.00    -0.334 OA
HETATM   38  C21 UNL     1      18.582  -8.091   9.717  1.00  0.00     0.159 A 
ENDBRANCH  32  34
ENDBRANCH  31  32
ENDBRANCH  29  31
ENDBRANCH  23  24
ENDBRANCH  20  23
ENDBRANCH   1  20
TORSDOF 11
ENDMDL
MODEL 2
REMARK VINA RESULT: -8.621309501      0.899      1.231
REMARK  11 active torsions:
REMARK  status: ('A' for Active; 'I' for Inactive)
REMARK    1  A    between atoms: S1_2  and  C2_3 
REMARK    2  A    between atoms: C2_3  and  N1_5 
REMARK    3  A    between atoms: N1_5  and  C3_7 
REMARK    4  A    between atoms: C3_7  and  C4_8 
REMARK    5  A    between atoms: C9_18  and  C10_19 
REMARK    6  A    between atoms: C10_19  and  N4_20 
REMARK    7  A    between atoms: N4_20  and  C11_23 
REMARK    8  A    between atoms: C11_23  and  C12_24 
REMARK    9  A    between atoms: C16_29  and  O2_30 
REMARK   10  A    between atoms: O2_30  and  C17_31 
REMARK   11  A    between atoms: C17_31  and  C18_33 
ROOT
HETATM    1  C10 UNL     1      25.189  -4.344   9.159  1.00  0.00     0.240 C 
ENDROOT
BRANCH   1   2
HETATM    2  C9  UNL     1      25.965  -3.088   9.317  1.00  0.00     0.048 A 
HETATM    3  C3  UNL     1      25.737  -2.142  10.429  1.00  0.00     0.104 A 
HETATM    4  C7  UNL     1      27.143  -2.463  10.971  1.00  0.00     0.041 A 
HETATM    5  C8  UNL     1      27.385  -3.317   9.770  1.00  0.00     0.012 A 
BRANCH   3   6
HETATM    6  N1  UNL     1      24.712  -2.477  11.369  1.00  0.00    -0.358 N 
ATOM      7  H1  UNL     1      24.236  -3.357  11.172  1.00  0.00     0.162 HD
BRANCH   6   8
HETATM    8  C2  UNL     1      24.251  -1.822  12.497  1.00  0.00     0.135 C 
HETATM    9  S2  UNL     1      24.637  -2.721  13.946  1.00  0.00    -0.053 SA
BRANCH   8  10
HETATM   10  S1  UNL     1      23.404  -0.360  12.835  1.00  0.00    -0.105 SA
HETATM   11  C1  UNL     1      24.166   1.137  13.267  1.00  0.00     0.098 C 
ENDBRANCH   8  10
ENDBRANCH   6   8
ENDBRANCH   3   6
BRANCH   3  12
HETATM   12  C4  UNL     1      25.704  -0.706  10.055  1.00  0.00     0.177 A 
HETATM   13  N2  UNL     1      26.606   0.270  10.183  1.00  0.00    -0.325 N 
HETATM   14  C5  UNL     1      26.109   1.407   9.704  1.00  0.00     0.100 A 
ATOM     15  H2  UNL     1      27.537   0.160  10.586  1.00  0.00     0.169 HD
HETATM   16  C6  UNL     1      26.711   2.782   9.682  1.00  0.00     0.091 C 
HETATM   17  N3  UNL     1      24.856   1.120   9.257  1.00  0.00    -0.247 N 
HETATM   18  O1  UNL     1      24.638  -0.118   9.472  1.00  0.00    -0.220 OA
ATOM     19  H3  UNL     1      24.206   1.778   8.827  1.00  0.00     0.196 HD
ENDBRANCH   3  12
ENDBRANCH   1   2
BRANCH   1  20
HETATM   20  N4  UNL     1      24.351  -4.513   8.047  1.00  0.00    -0.071 N 
ATOM     21  H42 UNL     1      24.574  -3.834   7.320  1.00  0.00     0.277 HD
ATOM     22  H41 UNL     1      24.581  -5.374   7.549  1.00  0.00     0.277 HD
BRANCH  20  23
HETATM   23  C11 UNL     1      22.945  -4.471   8.374  1.00  0.00     0.270 C 
BRANCH  23  24
HETATM   24  C12 UNL     1      22.011  -5.047   7.423  1.00  0.00    -0.029 A 
HETATM   25  C13 UNL     1      22.510  -5.155   6.085  1.00  0.00     0.028 A 
HETATM   26  C14 UNL     1      21.786  -5.685   5.058  1.00  0.00     0.014 A 
HETATM   27 BR1  UNL     1      22.506  -5.807   3.309  1.00  0.00    -0.051 Br
HETATM   28  C15 UNL     1      20.505  -6.136   5.342  1.00  0.00     0.056 A 
HETATM   29  C16 UNL     1      19.978  -6.052   6.621  1.00  0.00     0.081 A 
HETATM   30  C22 UNL     1      20.746  -5.509   7.615  1.00  0.00     0.046 A 
BRANCH  29  31
HETATM   31  O2  UNL     1      18.675  -6.548   6.774  1.00  0.00    -0.275 OA
BRANCH  31  32
HETATM   32  C17 UNL     1      18.265  -7.014   8.023  1.00  0.00     0.300 C 
HETATM   33  O3  UNL     1      17.695  -6.180   8.786  1.00  0.00    -0.259 OA
BRANCH  32  34
HETATM   34  C18 UNL     1      18.463  -8.375   8.472  1.00  0.00     0.064 A 
HETATM   35  C19 UNL     1      17.735  -9.002   9.489  1.00  0.00     0.044 A 
HETATM   36  C20 UNL     1      18.241 -10.284   9.656  1.00  0.00     0.142 A 
HETATM   37  O4  UNL     1      19.208 -10.428   8.792  1.00  0.00    -0.334 OA
HETATM   38  C21 UNL     1      19.370  -9.338   8.086  1.00  0.00     0.159 A 
ENDBRANCH  32  34
ENDBRANCH  31  32
ENDBRANCH  29  31
ENDBRANCH  23  24
ENDBRANCH  20  23
ENDBRANCH   1  20
TORSDOF 11
ENDMDL
MODEL 3
REMARK VINA RESULT: -8.315737088      1.546      1.979
REMARK  11 active torsions:
REMARK  status: ('A' for Active; 'I' for Inactive)
REMARK    1  A    between atoms: S1_2  and  C2_3 
REMARK    2  A    between atoms: C2_3  and  N1_5 
REMARK    3  A    between atoms: N1_5  and  C3_7 
REMARK    4  A    between atoms: C3_7  and  C4_8 
REMARK    5  A    between atoms: C9_18  and  C10_19 
REMARK    6  A    between atoms: C10_19  and  N4_20 
REMARK    7  A    between atoms: N4_20  and  C11_23 
REMARK    8  A    between atoms: C11_23  and  C12_24 
REMARK    9  A    between atoms: C16_29  and  O2_30 
REMARK   10  A    between atoms: O2_30  and  C17_31 
REMARK   11  A    between atoms: C17_31  and  C18_33 
ROOT
HETATM    1  C10 UNL     1      25.568  -4.373   9.310  1.00  0.00     0.240 C 
ENDROOT
BRANCH   1   2
HETATM    2  C9  UNL     1      26.242  -3.063   9.495  1.00  0.00     0.048 A 
HETATM    3  C3  UNL     1      25.856  -2.108  10.555  1.00  0.00     0.104 A 
HETATM    4  C7  UNL     1      27.229  -2.318  11.223  1.00  0.00     0.041 A 
HETATM    5  C8  UNL     1      27.629  -3.182  10.073  1.00  0.00     0.012 A 
BRANCH   3   6
HETATM    6  N1  UNL     1      24.778  -2.490  11.414  1.00  0.00    -0.358 N 
ATOM      7  H1  UNL     1      24.288  -3.335  11.120  1.00  0.00     0.162 HD
BRANCH   6   8
HETATM    8  C2  UNL     1      24.282  -1.920  12.573  1.00  0.00     0.135 C 
HETATM    9  S2  UNL     1      24.598  -2.939  13.959  1.00  0.00    -0.053 SA
BRANCH   8  10
HETATM   10  S1  UNL     1      23.441  -0.478  12.995  1.00  0.00    -0.105 SA
HETATM   11  C1  UNL     1      24.183   1.084  13.135  1.00  0.00     0.098 C 
ENDBRANCH   8  10
ENDBRANCH   6   8
ENDBRANCH   3   6
BRANCH   3  12
HETATM   12  C4  UNL     1      25.759  -0.687  10.137  1.00  0.00     0.177 A 
HETATM   13  N2  UNL     1      26.639   0.317  10.178  1.00  0.00    -0.325 N 
HETATM   14  C5  UNL     1      26.081   1.422   9.693  1.00  0.00     0.100 A 
ATOM     15  H2  UNL     1      27.594   0.246  10.529  1.00  0.00     0.169 HD
HETATM   16  C6  UNL     1      26.641   2.812   9.589  1.00  0.00     0.091 C 
HETATM   17  N3  UNL     1      24.813   1.086   9.331  1.00  0.00    -0.247 N 
HETATM   18  O1  UNL     1      24.644  -0.149   9.599  1.00  0.00    -0.220 OA
ATOM     19  H3  UNL     1      24.120   1.712   8.919  1.00  0.00     0.196 HD
ENDBRANCH   3  12
ENDBRANCH   1   2
BRANCH   1  20
HETATM   20  N4  UNL     1      24.697  -4.565   8.227  1.00  0.00    -0.071 N 
ATOM     21  H42 UNL     1      24.942  -3.949   7.452  1.00  0.00     0.277 HD
ATOM     22  H41 UNL     1      24.865  -5.468   7.785  1.00  0.00     0.277 HD
BRANCH  20  23
HETATM   23  C11 UNL     1      23.303  -4.417   8.577  1.00  0.00     0.270 C 
BRANCH  23  24
HETATM   24  C12 UNL     1      22.319  -4.589   7.524  1.00  0.00    -0.029 A 
HETATM   25  C13 UNL     1      21.445  -3.471   7.333  1.00  0.00     0.028 A 
HETATM   26  C14 UNL     1      20.469  -3.439   6.381  1.00  0.00     0.014 A 
HETATM   27 BR1  UNL     1      19.349  -1.925   6.173  1.00  0.00    -0.051 Br
HETATM   28  C15 UNL     1      20.330  -4.555   5.567  1.00  0.00     0.056 A 
HETATM   29  C16 UNL     1      21.151  -5.661   5.715  1.00  0.00     0.081 A 
HETATM   30  C22 UNL     1      22.114  -5.642   6.687  1.00  0.00     0.046 A 
BRANCH  29  31
HETATM   31  O2  UNL     1      20.909  -6.719   4.825  1.00  0.00    -0.275 OA
BRANCH  31  32
HETATM   32  C17 UNL     1      19.788  -7.526   5.013  1.00  0.00     0.300 C 
HETATM   33  O3  UNL     1      19.083  -7.773   3.991  1.00  0.00    -0.259 OA
BRANCH  32  34
HETATM   34  C18 UNL     1      19.405  -8.073   6.296  1.00  0.00     0.064 A 
HETATM   35  C19 UNL     1      20.122  -9.042   7.006  1.00  0.00     0.044 A 
HETATM   36  C20 UNL     1      19.419  -9.337   8.167  1.00  0.00     0.142 A 
HETATM   37  O4  UNL     1      18.349  -8.591   8.164  1.00  0.00    -0.334 OA
HETATM   38  C21 UNL     1      18.303  -7.843   7.091  1.00  0.00     0.159 A 
ENDBRANCH  32  34
ENDBRANCH  31  32
ENDBRANCH  29  31
ENDBRANCH  23  24
ENDBRANCH  20  23
ENDBRANCH   1  20
TORSDOF 11
ENDMDL
MODEL 4
REMARK VINA RESULT: -8.049879663      2.774      3.625
REMARK  11 active torsions:
REMARK  status: ('A' for Active; 'I' for Inactive)
REMARK    1  A    between atoms: S1_2  and  C2_3 
REMARK    2  A    between atoms: C2_3  and  N1_5 
REMARK    3  A    between atoms: N1_5  and  C3_7 
REMARK    4  A    between atoms: C3_7  and  C4_8 
REMARK    5  A    between atoms: C9_18  and  C10_19 
REMARK    6  A    between atoms: C10_19  and  N4_20 
REMARK    7  A    between atoms: N4_20  and  C11_23 
REMARK    8  A    between atoms: C11_23  and  C12_24 
REMARK    9  A    between atoms: C16_29  and  O2_30 
REMARK   10  A    between atoms: O2_30  and  C17_31 
REMARK   11  A    between atoms: C17_31  and  C18_33 
ROOT
HETATM    1  C10 UNL     1      25.430  -4.338   9.275  1.00  0.00     0.240 C 
ENDROOT
BRANCH   1   2
HETATM    2  C9  UNL     1      26.140  -3.043   9.427  1.00  0.00     0.048 A 
HETATM    3  C3  UNL     1      25.825  -2.080  10.503  1.00  0.00     0.104 A 
HETATM    4  C7  UNL     1      27.222  -2.321  11.107  1.00  0.00     0.041 A 
HETATM    5  C8  UNL     1      27.550  -3.193   9.940  1.00  0.00     0.012 A 
BRANCH   3   6
HETATM    6  N1  UNL     1      24.780  -2.439  11.412  1.00  0.00    -0.358 N 
ATOM      7  H1  UNL     1      24.311  -3.317  11.185  1.00  0.00     0.162 HD
BRANCH   6   8
HETATM    8  C2  UNL     1      24.291  -1.811  12.543  1.00  0.00     0.135 C 
HETATM    9  S2  UNL     1      24.643  -2.743  13.980  1.00  0.00    -0.053 SA
BRANCH   8  10
HETATM   10  S1  UNL     1      23.434  -0.358  12.895  1.00  0.00    -0.105 SA
HETATM   11  C1  UNL     1      24.188   1.154  13.287  1.00  0.00     0.098 C 
ENDBRANCH   8  10
ENDBRANCH   6   8
ENDBRANCH   3   6
BRANCH   3  12
HETATM   12  C4  UNL     1      25.739  -0.658  10.089  1.00  0.00     0.177 A 
HETATM   13  N2  UNL     1      26.615   0.347  10.164  1.00  0.00    -0.325 N 
HETATM   14  C5  UNL     1      26.072   1.454   9.666  1.00  0.00     0.100 A 
ATOM     15  H2  UNL     1      27.558   0.276  10.547  1.00  0.00     0.169 HD
HETATM   16  C6  UNL     1      26.633   2.845   9.588  1.00  0.00     0.091 C 
HETATM   17  N3  UNL     1      24.817   1.118   9.260  1.00  0.00    -0.247 N 
HETATM   18  O1  UNL     1      24.642  -0.119   9.517  1.00  0.00    -0.220 OA
ATOM     19  H3  UNL     1      24.138   1.744   8.828  1.00  0.00     0.196 HD
ENDBRANCH   3  12
ENDBRANCH   1   2
BRANCH   1  20
HETATM   20  N4  UNL     1      24.431  -4.478   8.299  1.00  0.00    -0.071 N 
ATOM     21  H42 UNL     1      24.631  -3.888   7.491  1.00  0.00     0.277 HD
ATOM     22  H41 UNL     1      24.486  -5.395   7.856  1.00  0.00     0.277 HD
BRANCH  20  23
HETATM   23  C11 UNL     1      23.100  -4.229   8.799  1.00  0.00     0.270 C 
BRANCH  23  24
HETATM   24  C12 UNL     1      22.083  -3.822   7.846  1.00  0.00    -0.029 A 
HETATM   25  C13 UNL     1      21.081  -2.947   8.376  1.00  0.00     0.028 A 
HETATM   26  C14 UNL     1      20.056  -2.445   7.630  1.00  0.00     0.014 A 
HETATM   27 BR1  UNL     1      18.765  -1.285   8.390  1.00  0.00    -0.051 Br
HETATM   28  C15 UNL     1      19.997  -2.812   6.293  1.00  0.00     0.056 A 
HETATM   29  C16 UNL     1      20.943  -3.657   5.735  1.00  0.00     0.081 A 
HETATM   30  C22 UNL     1      21.950  -4.134   6.528  1.00  0.00     0.046 A 
BRANCH  29  31
HETATM   31  O2  UNL     1      20.770  -3.944   4.372  1.00  0.00    -0.275 OA
BRANCH  31  32
HETATM   32  C17 UNL     1      21.271  -5.140   3.858  1.00  0.00     0.300 C 
HETATM   33  O3  UNL     1      22.385  -5.082   3.258  1.00  0.00    -0.259 OA
BRANCH  32  34
HETATM   34  C18 UNL     1      20.586  -6.408   3.973  1.00  0.00     0.064 A 
HETATM   35  C19 UNL     1      20.216  -7.225   2.899  1.00  0.00     0.044 A 
HETATM   36  C20 UNL     1      19.548  -8.331   3.407  1.00  0.00     0.142 A 
HETATM   37  O4  UNL     1      19.520  -8.197   4.704  1.00  0.00    -0.334 OA
HETATM   38  C21 UNL     1      20.112  -7.090   5.073  1.00  0.00     0.159 A 
ENDBRANCH  32  34
ENDBRANCH  31  32
ENDBRANCH  29  31
ENDBRANCH  23  24
ENDBRANCH  20  23
ENDBRANCH   1  20
TORSDOF 11
ENDMDL
MODEL 5
REMARK VINA RESULT: -7.991498670      8.129     10.484
REMARK  11 active torsions:
REMARK  status: ('A' for Active; 'I' for Inactive)
REMARK    1  A    between atoms: S1_2  and  C2_3 
REMARK    2  A    between atoms: C2_3  and  N1_5 
REMARK    3  A    between atoms: N1_5  and  C3_7 
REMARK    4  A    between atoms: C3_7  and  C4_8 
REMARK    5  A    between atoms: C9_18  and  C10_19 
REMARK    6  A    between atoms: C10_19  and  N4_20 
REMARK    7  A    between atoms: N4_20  and  C11_23 
REMARK    8  A    between atoms: C11_23  and  C12_24 
REMARK    9  A    between atoms: C16_29  and  O2_30 
REMARK   10  A    between atoms: O2_30  and  C17_31 
REMARK   11  A    between atoms: C17_31  and  C18_33 
ROOT
HETATM    1  C10 UNL     1      23.173  -3.841  15.239  1.00  0.00     0.240 C 
ENDROOT
BRANCH   1   2
HETATM    2  C9  UNL     1      24.015  -2.841  14.535  1.00  0.00     0.048 A 
HETATM    3  C3  UNL     1      23.639  -2.253  13.233  1.00  0.00     0.104 A 
HETATM    4  C7  UNL     1      23.492  -0.879  13.913  1.00  0.00     0.041 A 
HETATM    5  C8  UNL     1      23.993  -1.481  15.185  1.00  0.00     0.012 A 
BRANCH   3   6
HETATM    6  N1  UNL     1      22.410  -2.696  12.650  1.00  0.00    -0.358 N 
ATOM      7  H1  UNL     1      22.014  -3.527  13.090  1.00  0.00     0.162 HD
BRANCH   6   8
HETATM    8  C2  UNL     1      21.661  -2.199  11.598  1.00  0.00     0.135 C 
HETATM    9  S2  UNL     1      21.775  -3.243  10.199  1.00  0.00    -0.053 SA
BRANCH   8  10
HETATM   10  S1  UNL     1      20.655  -0.830  11.317  1.00  0.00    -0.105 SA
HETATM   11  C1  UNL     1      18.921  -0.864  11.355  1.00  0.00     0.098 C 
ENDBRANCH   8  10
ENDBRANCH   6   8
ENDBRANCH   3   6
BRANCH   3  12
HETATM   12  C4  UNL     1      24.729  -2.158  12.231  1.00  0.00     0.177 A 
HETATM   13  N2  UNL     1      25.619  -3.052  11.792  1.00  0.00    -0.325 N 
HETATM   14  C5  UNL     1      26.411  -2.489  10.885  1.00  0.00     0.100 A 
ATOM     15  H2  UNL     1      25.681  -4.021  12.106  1.00  0.00     0.169 HD
HETATM   16  C6  UNL     1      27.591  -3.064  10.156  1.00  0.00     0.091 C 
HETATM   17  N3  UNL     1      25.989  -1.202  10.752  1.00  0.00    -0.247 N 
HETATM   18  O1  UNL     1      25.007  -1.028  11.546  1.00  0.00    -0.220 OA
ATOM     19  H3  UNL     1      26.388  -0.501  10.127  1.00  0.00     0.196 HD
ENDBRANCH   3  12
ENDBRANCH   1   2
BRANCH   1  20
HETATM   20  N4  UNL     1      22.641  -3.543  16.503  1.00  0.00    -0.071 N 
ATOM     21  H42 UNL     1      23.386  -3.331  17.167  1.00  0.00     0.277 HD
ATOM     22  H41 UNL     1      22.165  -2.641  16.490  1.00  0.00     0.277 HD
BRANCH  20  23
HETATM   23  C11 UNL     1      21.773  -4.574  17.020  1.00  0.00     0.270 C 
BRANCH  23  24
HETATM   24  C12 UNL     1      21.957  -4.986  18.400  1.00  0.00    -0.029 A 
HETATM   25  C13 UNL     1      22.803  -4.128  19.173  1.00  0.00     0.028 A 
HETATM   26  C14 UNL     1      23.080  -4.341  20.491  1.00  0.00     0.014 A 
HETATM   27 BR1  UNL     1      24.203  -3.163  21.461  1.00  0.00    -0.051 Br
HETATM   28  C15 UNL     1      22.505  -5.450  21.096  1.00  0.00     0.056 A 
HETATM   29  C16 UNL     1      21.680  -6.310  20.389  1.00  0.00     0.081 A 
HETATM   30  C22 UNL     1      21.436  -6.051  19.068  1.00  0.00     0.046 A 
BRANCH  29  31
HETATM   31  O2  UNL     1      21.160  -7.388  21.120  1.00  0.00    -0.275 OA
BRANCH  31  32
HETATM   32  C17 UNL     1      19.832  -7.346  21.547  1.00  0.00     0.300 C 
HETATM   33  O3  UNL     1      18.986  -7.972  20.843  1.00  0.00    -0.259 OA
BRANCH  32  34
HETATM   34  C18 UNL     1      19.395  -6.631  22.725  1.00  0.00     0.064 A 
HETATM   35  C19 UNL     1      18.063  -6.484  23.130  1.00  0.00     0.044 A 
HETATM   36  C20 UNL     1      18.045  -5.706  24.280  1.00  0.00     0.142 A 
HETATM   37  O4  UNL     1      19.284  -5.406  24.558  1.00  0.00    -0.334 OA
HETATM   38  C21 UNL     1      20.099  -5.924  23.675  1.00  0.00     0.159 A 
ENDBRANCH  32  34
ENDBRANCH  31  32
ENDBRANCH  29  31
ENDBRANCH  23  24
ENDBRANCH  20  23
ENDBRANCH   1  20
TORSDOF 11
ENDMDL
