MODEL 1
REMARK VINA RESULT: -8.357281066      0.000      0.000
REMARK  9 active torsions:
REMARK  status: ('A' for Active; 'I' for Inactive)
REMARK    1  A    between atoms: C2_2  and  C3_3 
REMARK    2  A    between atoms: C3_3  and  C4_4 
REMARK    3  A    between atoms: C6_10  and  N3_11 
REMARK    4  A    between atoms: C11_18  and  N5_19 
REMARK    5  A    between atoms: N6_23  and  C13_24 
REMARK    6  A    between atoms: C13_24  and  C14_25 
REMARK    7  A    between atoms: C18_29  and  N7_30 
REMARK    8  A    between atoms: N7_30  and  C20_32 
REMARK    9  A    between atoms: C23_35  and  C24_37 
ROOT
HETATM    1  C24 UNL     1      23.360  -3.813  19.570  1.00  0.00     0.167 C 
HETATM    2  C25 UNL     1      23.191  -4.655  20.775  1.00  0.00     0.062 C 
HETATM    3  N8  UNL     1      23.060  -5.294  21.732  1.00  0.00    -0.197 NA
ENDROOT
BRANCH   1   4
HETATM    4  C23 UNL     1      22.026  -3.681  18.872  1.00  0.00     0.115 C 
HETATM    5  C22 UNL     1      21.692  -4.831  17.980  1.00  0.00     0.046 C 
HETATM    6  C21 UNL     1      22.577  -4.864  16.735  1.00  0.00     0.028 C 
HETATM    7  C20 UNL     1      22.326  -3.589  15.992  1.00  0.00     0.084 C 
HETATM    8  C27 UNL     1      22.634  -2.372  16.854  1.00  0.00     0.028 C 
HETATM    9  C26 UNL     1      21.889  -2.392  18.143  1.00  0.00     0.046 C 
HETATM   10  F1  UNL     1      21.034  -3.681  19.873  1.00  0.00    -0.242 F 
BRANCH   7  11
HETATM   11  N7  UNL     1      23.075  -3.505  14.805  1.00  0.00    -0.378 N 
HETATM   12  C19 UNL     1      24.187  -4.472  14.605  1.00  0.00     0.150 C 
BRANCH  11  13
HETATM   13  C18 UNL     1      22.897  -2.580  13.746  1.00  0.00     0.065 A 
HETATM   14  C17 UNL     1      23.436  -1.297  13.918  1.00  0.00     0.101 A 
HETATM   15  C16 UNL     1      23.331  -0.367  12.913  1.00  0.00    -0.020 A 
HETATM   16  O1  UNL     1      24.117  -0.708  14.987  1.00  0.00    -0.348 OA
HETATM   17  C15 UNL     1      22.701  -0.679  11.736  1.00  0.00     0.023 A 
HETATM   18  C30 UNL     1      23.994   0.890  13.395  1.00  0.00     0.068 C 
HETATM   19  C14 UNL     1      22.160  -1.905  11.512  1.00  0.00    -0.017 A 
HETATM   20  C28 UNL     1      22.289  -2.825  12.562  1.00  0.00     0.045 A 
HETATM   21  C29 UNL     1      24.008   0.689  14.893  1.00  0.00     0.180 C 
BRANCH  19  22
HETATM   22  C13 UNL     1      21.514  -2.302  10.300  1.00  0.00     0.110 C 
BRANCH  22  23
HETATM   23  N6  UNL     1      22.131  -3.117   9.340  1.00  0.00    -0.304 N 
HETATM   24  C4  UNL     1      23.458  -3.224   9.086  1.00  0.00     0.089 A 
HETATM   25  N1  UNL     1      23.601  -4.066   8.064  1.00  0.00    -0.329 N 
HETATM   26  C5  UNL     1      22.414  -4.514   7.643  1.00  0.00     0.153 A 
ATOM     27  H1  UNL     1      24.498  -4.334   7.656  1.00  0.00     0.168 HD
HETATM   28  N2  UNL     1      22.024  -5.350   6.664  1.00  0.00    -0.174 N 
HETATM   29  C12 UNL     1      21.463  -3.906   8.460  1.00  0.00     0.129 A 
HETATM   30  C6  UNL     1      20.748  -5.655   6.407  1.00  0.00     0.683 A 
ATOM     31  H2  UNL     1      22.746  -5.779   6.083  1.00  0.00     0.186 HD
HETATM   32  N4  UNL     1      19.828  -5.077   7.183  1.00  0.00    -0.175 N 
HETATM   33  C11 UNL     1      20.147  -4.222   8.189  1.00  0.00     0.146 A 
ATOM     34  H4  UNL     1      18.844  -5.286   7.014  1.00  0.00     0.186 HD
BRANCH  24  35
HETATM   35  C3  UNL     1      24.521  -2.543   9.790  1.00  0.00     0.076 C 
BRANCH  35  36
HETATM   36  C2  UNL     1      25.417  -3.493  10.604  1.00  0.00     0.003 C 
HETATM   37  C1  UNL     1      26.065  -2.659  11.682  1.00  0.00     0.005 C 
ENDBRANCH  35  36
ENDBRANCH  24  35
BRANCH  30  38
HETATM   38  N3  UNL     1      20.386  -6.554   5.342  1.00  0.00    -0.217 N 
HETATM   39  C7  UNL     1      19.599  -7.751   5.534  1.00  0.00     0.141 C 
HETATM   40  C8  UNL     1      19.295  -8.277   4.171  1.00  0.00     0.022 C 
HETATM   41  C9  UNL     1      20.190  -7.536   3.234  1.00  0.00     0.022 C 
HETATM   42  C10 UNL     1      20.757  -6.367   3.977  1.00  0.00     0.141 C 
ENDBRANCH  30  38
BRANCH  33  43
HETATM   43  N5  UNL     1      19.206  -3.685   8.893  1.00  0.00    -0.383 N 
ATOM     44  H52 UNL     1      18.253  -3.668   8.528  1.00  0.00     0.157 HD
ATOM     45  H51 UNL     1      19.422  -3.293   9.809  1.00  0.00     0.157 HD
ENDBRANCH  33  43
ENDBRANCH  22  23
ENDBRANCH  19  22
ENDBRANCH  11  13
ENDBRANCH   7  11
ENDBRANCH   1   4
TORSDOF 9
ENDMDL
MODEL 2
REMARK VINA RESULT: -8.356449604      3.279      8.539
REMARK  9 active torsions:
REMARK  status: ('A' for Active; 'I' for Inactive)
REMARK    1  A    between atoms: C2_2  and  C3_3 
REMARK    2  A    between atoms: C3_3  and  C4_4 
REMARK    3  A    between atoms: C6_10  and  N3_11 
REMARK    4  A    between atoms: C11_18  and  N5_19 
REMARK    5  A    between atoms: N6_23  and  C13_24 
REMARK    6  A    between atoms: C13_24  and  C14_25 
REMARK    7  A    between atoms: C18_29  and  N7_30 
REMARK    8  A    between atoms: N7_30  and  C20_32 
REMARK    9  A    between atoms: C23_35  and  C24_37 
ROOT
HETATM    1  C24 UNL     1      18.348  -2.699  12.165  1.00  0.00     0.167 C 
HETATM    2  C25 UNL     1      17.843  -3.888  12.887  1.00  0.00     0.062 C 
HETATM    3  N8  UNL     1      17.438  -4.803  13.470  1.00  0.00    -0.197 NA
ENDROOT
BRANCH   1   4
HETATM    4  C23 UNL     1      17.471  -2.447  10.960  1.00  0.00     0.115 C 
HETATM    5  C22 UNL     1      17.512  -3.539   9.942  1.00  0.00     0.046 C 
HETATM    6  C21 UNL     1      18.855  -3.594   9.216  1.00  0.00     0.028 C 
HETATM    7  C20 UNL     1      19.023  -2.279   8.519  1.00  0.00     0.084 C 
HETATM    8  C27 UNL     1      18.977  -1.117   9.503  1.00  0.00     0.028 C 
HETATM    9  C26 UNL     1      17.736  -1.128  10.327  1.00  0.00     0.046 C 
HETATM   10  F1  UNL     1      16.140  -2.410  11.419  1.00  0.00    -0.242 F 
BRANCH   7  11
HETATM   11  N7  UNL     1      20.225  -2.209   7.792  1.00  0.00    -0.378 N 
HETATM   12  C19 UNL     1      20.280  -1.312   6.608  1.00  0.00     0.150 C 
BRANCH  11  13
HETATM   13  C18 UNL     1      21.426  -2.915   8.057  1.00  0.00     0.065 A 
HETATM   14  C17 UNL     1      21.642  -4.102   7.344  1.00  0.00     0.101 A 
HETATM   15  C16 UNL     1      22.804  -4.811   7.526  1.00  0.00    -0.020 A 
HETATM   16  O1  UNL     1      20.861  -4.780   6.404  1.00  0.00    -0.348 OA
HETATM   17  C15 UNL     1      23.761  -4.371   8.403  1.00  0.00     0.023 A 
HETATM   18  C30 UNL     1      22.737  -6.018   6.636  1.00  0.00     0.068 C 
HETATM   19  C14 UNL     1      23.607  -3.228   9.122  1.00  0.00    -0.017 A 
HETATM   20  C28 UNL     1      22.408  -2.534   8.906  1.00  0.00     0.045 A 
HETATM   21  C29 UNL     1      21.254  -6.128   6.358  1.00  0.00     0.180 C 
BRANCH  19  22
HETATM   22  C13 UNL     1      24.576  -2.700  10.031  1.00  0.00     0.110 C 
BRANCH  22  23
HETATM   23  N6  UNL     1      24.227  -1.979  11.182  1.00  0.00    -0.304 N 
HETATM   24  C4  UNL     1      24.293  -0.637  11.359  1.00  0.00     0.089 A 
HETATM   25  N1  UNL     1      23.920  -0.382  12.613  1.00  0.00    -0.329 N 
HETATM   26  C5  UNL     1      23.612  -1.511  13.259  1.00  0.00     0.153 A 
ATOM     27  H1  UNL     1      23.875   0.550  13.025  1.00  0.00     0.168 HD
HETATM   28  N2  UNL     1      23.200  -1.790  14.509  1.00  0.00    -0.174 N 
HETATM   29  C12 UNL     1      23.808  -2.543  12.343  1.00  0.00     0.129 A 
HETATM   30  C6  UNL     1      22.956  -3.026  14.956  1.00  0.00     0.683 A 
ATOM     31  H2  UNL     1      23.067  -1.011  15.155  1.00  0.00     0.186 HD
HETATM   32  N4  UNL     1      23.143  -4.023  14.087  1.00  0.00    -0.175 N 
HETATM   33  C11 UNL     1      23.556  -3.818  12.811  1.00  0.00     0.146 A 
ATOM     34  H4  UNL     1      22.966  -4.979  14.395  1.00  0.00     0.186 HD
BRANCH  24  35
HETATM   35  C3  UNL     1      24.701   0.338  10.372  1.00  0.00     0.076 C 
BRANCH  35  36
HETATM   36  C2  UNL     1      25.595   1.449  10.949  1.00  0.00     0.003 C 
HETATM   37  C1  UNL     1      26.240   2.140   9.773  1.00  0.00     0.005 C 
ENDBRANCH  35  36
ENDBRANCH  24  35
BRANCH  30  38
HETATM   38  N3  UNL     1      22.522  -3.269  16.308  1.00  0.00    -0.217 N 
HETATM   39  C7  UNL     1      22.105  -4.563  16.797  1.00  0.00     0.141 C 
HETATM   40  C8  UNL     1      21.925  -4.417  18.272  1.00  0.00     0.022 C 
HETATM   41  C9  UNL     1      21.940  -2.950  18.545  1.00  0.00     0.022 C 
HETATM   42  C10 UNL     1      22.457  -2.264  17.318  1.00  0.00     0.141 C 
ENDBRANCH  30  38
BRANCH  33  43
HETATM   43  N5  UNL     1      23.732  -4.829  12.025  1.00  0.00    -0.383 N 
ATOM     44  H52 UNL     1      24.217  -5.656  12.374  1.00  0.00     0.157 HD
ATOM     45  H51 UNL     1      23.376  -4.794  11.071  1.00  0.00     0.157 HD
ENDBRANCH  33  43
ENDBRANCH  22  23
ENDBRANCH  19  22
ENDBRANCH  11  13
ENDBRANCH   7  11
ENDBRANCH   1   4
TORSDOF 9
ENDMDL
MODEL 3
REMARK VINA RESULT: -8.227023873      3.269      8.432
REMARK  9 active torsions:
REMARK  status: ('A' for Active; 'I' for Inactive)
REMARK    1  A    between atoms: C2_2  and  C3_3 
REMARK    2  A    between atoms: C3_3  and  C4_4 
REMARK    3  A    between atoms: C6_10  and  N3_11 
REMARK    4  A    between atoms: C11_18  and  N5_19 
REMARK    5  A    between atoms: N6_23  and  C13_24 
REMARK    6  A    between atoms: C13_24  and  C14_25 
REMARK    7  A    between atoms: C18_29  and  N7_30 
REMARK    8  A    between atoms: N7_30  and  C20_32 
REMARK    9  A    between atoms: C23_35  and  C24_37 
ROOT
HETATM    1  C24 UNL     1      17.679  -2.505  12.104  1.00  0.00     0.167 C 
HETATM    2  C25 UNL     1      17.687  -3.702  12.973  1.00  0.00     0.062 C 
HETATM    3  N8  UNL     1      17.679  -4.627  13.670  1.00  0.00    -0.197 NA
ENDROOT
BRANCH   1   4
HETATM    4  C23 UNL     1      16.825  -2.786  10.889  1.00  0.00     0.115 C 
HETATM    5  C22 UNL     1      17.195  -4.039  10.165  1.00  0.00     0.046 C 
HETATM    6  C21 UNL     1      18.539  -3.911   9.450  1.00  0.00     0.028 C 
HETATM    7  C20 UNL     1      18.394  -2.804   8.453  1.00  0.00     0.084 C 
HETATM    8  C27 UNL     1      18.002  -1.495   9.127  1.00  0.00     0.028 C 
HETATM    9  C26 UNL     1      16.769  -1.634   9.951  1.00  0.00     0.046 C 
HETATM   10  F1  UNL     1      15.509  -2.992  11.348  1.00  0.00    -0.242 F 
BRANCH   7  11
HETATM   11  N7  UNL     1      19.570  -2.596   7.710  1.00  0.00    -0.378 N 
HETATM   12  C19 UNL     1      19.447  -2.015   6.347  1.00  0.00     0.150 C 
BRANCH  11  13
HETATM   13  C18 UNL     1      20.897  -2.886   8.114  1.00  0.00     0.065 A 
HETATM   14  C17 UNL     1      21.523  -3.990   7.516  1.00  0.00     0.101 A 
HETATM   15  C16 UNL     1      22.822  -4.300   7.836  1.00  0.00    -0.020 A 
HETATM   16  O1  UNL     1      21.068  -4.926   6.583  1.00  0.00    -0.348 OA
HETATM   17  C15 UNL     1      23.520  -3.540   8.737  1.00  0.00     0.023 A 
HETATM   18  C30 UNL     1      23.199  -5.518   7.044  1.00  0.00     0.068 C 
HETATM   19  C14 UNL     1      22.967  -2.458   9.348  1.00  0.00    -0.017 A 
HETATM   20  C28 UNL     1      21.640  -2.176   8.995  1.00  0.00     0.045 A 
HETATM   21  C29 UNL     1      21.849  -6.090   6.675  1.00  0.00     0.180 C 
BRANCH  19  22
HETATM   22  C13 UNL     1      23.648  -1.610  10.276  1.00  0.00     0.110 C 
BRANCH  22  23
HETATM   23  N6  UNL     1      24.286  -2.096  11.425  1.00  0.00    -0.304 N 
HETATM   24  C4  UNL     1      25.613  -2.315  11.595  1.00  0.00     0.089 A 
HETATM   25  N1  UNL     1      25.780  -2.827  12.814  1.00  0.00    -0.329 N 
HETATM   26  C5  UNL     1      24.607  -2.949  13.445  1.00  0.00     0.153 A 
ATOM     27  H1  UNL     1      26.681  -3.092  13.212  1.00  0.00     0.168 HD
HETATM   28  N2  UNL     1      24.242  -3.408  14.656  1.00  0.00    -0.174 N 
HETATM   29  C12 UNL     1      23.642  -2.480  12.556  1.00  0.00     0.129 A 
HETATM   30  C6  UNL     1      22.977  -3.449  15.087  1.00  0.00     0.683 A 
ATOM     31  H2  UNL     1      24.973  -3.744  15.283  1.00  0.00     0.186 HD
HETATM   32  N4  UNL     1      22.043  -3.004  14.242  1.00  0.00    -0.175 N 
HETATM   33  C11 UNL     1      22.337  -2.527  13.006  1.00  0.00     0.146 A 
ATOM     34  H4  UNL     1      21.067  -3.022  14.539  1.00  0.00     0.186 HD
BRANCH  24  35
HETATM   35  C3  UNL     1      26.655  -2.048  10.629  1.00  0.00     0.076 C 
BRANCH  35  36
HETATM   36  C2  UNL     1      27.838  -3.029  10.724  1.00  0.00     0.003 C 
HETATM   37  C1  UNL     1      27.778  -3.899   9.493  1.00  0.00     0.005 C 
ENDBRANCH  35  36
ENDBRANCH  24  35
BRANCH  30  38
HETATM   38  N3  UNL     1      22.640  -3.956  16.392  1.00  0.00    -0.217 N 
HETATM   39  C7  UNL     1      22.676  -3.158  17.598  1.00  0.00     0.141 C 
HETATM   40  C8  UNL     1      22.079  -3.999  18.676  1.00  0.00     0.022 C 
HETATM   41  C9  UNL     1      22.004  -5.384  18.125  1.00  0.00     0.022 C 
HETATM   42  C10 UNL     1      22.230  -5.298  16.647  1.00  0.00     0.141 C 
ENDBRANCH  30  38
BRANCH  33  43
HETATM   43  N5  UNL     1      21.384  -2.126  12.232  1.00  0.00    -0.383 N 
ATOM     44  H52 UNL     1      20.418  -2.359  12.464  1.00  0.00     0.157 HD
ATOM     45  H51 UNL     1      21.604  -1.572  11.404  1.00  0.00     0.157 HD
ENDBRANCH  33  43
ENDBRANCH  22  23
ENDBRANCH  19  22
ENDBRANCH  11  13
ENDBRANCH   7  11
ENDBRANCH   1   4
TORSDOF 9
ENDMDL
MODEL 4
REMARK VINA RESULT: -8.204148591      3.587      8.910
REMARK  9 active torsions:
REMARK  status: ('A' for Active; 'I' for Inactive)
REMARK    1  A    between atoms: C2_2  and  C3_3 
REMARK    2  A    between atoms: C3_3  and  C4_4 
REMARK    3  A    between atoms: C6_10  and  N3_11 
REMARK    4  A    between atoms: C11_18  and  N5_19 
REMARK    5  A    between atoms: N6_23  and  C13_24 
REMARK    6  A    between atoms: C13_24  and  C14_25 
REMARK    7  A    between atoms: C18_29  and  N7_30 
REMARK    8  A    between atoms: N7_30  and  C20_32 
REMARK    9  A    between atoms: C23_35  and  C24_37 
ROOT
HETATM    1  C24 UNL     1      18.924  -9.107   9.980  1.00  0.00     0.167 C 
HETATM    2  C25 UNL     1      18.595 -10.519   9.687  1.00  0.00     0.062 C 
HETATM    3  N8  UNL     1      18.327 -11.627   9.480  1.00  0.00    -0.197 NA
ENDROOT
BRANCH   1   4
HETATM    4  C23 UNL     1      17.991  -8.212   9.197  1.00  0.00     0.115 C 
HETATM    5  C22 UNL     1      18.147  -8.322   7.716  1.00  0.00     0.046 C 
HETATM    6  C21 UNL     1      19.467  -7.722   7.234  1.00  0.00     0.028 C 
HETATM    7  C20 UNL     1      19.445  -6.273   7.609  1.00  0.00     0.084 C 
HETATM    8  C27 UNL     1      19.273  -6.089   9.111  1.00  0.00     0.028 C 
HETATM    9  C26 UNL     1      18.066  -6.791   9.629  1.00  0.00     0.046 C 
HETATM   10  F1  UNL     1      16.678  -8.645   9.470  1.00  0.00    -0.242 F 
BRANCH   7  11
HETATM   11  N7  UNL     1      20.608  -5.597   7.200  1.00  0.00    -0.378 N 
HETATM   12  C19 UNL     1      21.623  -6.352   6.420  1.00  0.00     0.150 C 
BRANCH  11  13
HETATM   13  C18 UNL     1      20.942  -4.243   7.454  1.00  0.00     0.065 A 
HETATM   14  C17 UNL     1      20.077  -3.263   6.945  1.00  0.00     0.101 A 
HETATM   15  C16 UNL     1      20.325  -1.935   7.190  1.00  0.00    -0.020 A 
HETATM   16  O1  UNL     1      18.916  -3.356   6.172  1.00  0.00    -0.348 OA
HETATM   17  C15 UNL     1      21.412  -1.551   7.931  1.00  0.00     0.023 A 
HETATM   18  C30 UNL     1      19.238  -1.146   6.519  1.00  0.00     0.068 C 
HETATM   19  C14 UNL     1      22.284  -2.455   8.450  1.00  0.00    -0.017 A 
HETATM   20  C28 UNL     1      21.997  -3.800   8.177  1.00  0.00     0.045 A 
HETATM   21  C29 UNL     1      18.702  -2.136   5.509  1.00  0.00     0.180 C 
BRANCH  19  22
HETATM   22  C13 UNL     1      23.421  -2.124   9.251  1.00  0.00     0.110 C 
BRANCH  22  23
HETATM   23  N6  UNL     1      23.869  -2.930  10.307  1.00  0.00    -0.304 N 
HETATM   24  C4  UNL     1      24.779  -3.933  10.244  1.00  0.00     0.089 A 
HETATM   25  N1  UNL     1      24.869  -4.467  11.461  1.00  0.00    -0.329 N 
HETATM   26  C5  UNL     1      24.051  -3.845  12.317  1.00  0.00     0.153 A 
ATOM     27  H1  UNL     1      25.480  -5.245  11.708  1.00  0.00     0.168 HD
HETATM   28  N2  UNL     1      23.770  -4.004  13.623  1.00  0.00    -0.174 N 
HETATM   29  C12 UNL     1      23.404  -2.855  11.580  1.00  0.00     0.129 A 
HETATM   30  C6  UNL     1      22.885  -3.258  14.292  1.00  0.00     0.683 A 
ATOM     31  H2  UNL     1      24.261  -4.739  14.134  1.00  0.00     0.186 HD
HETATM   32  N4  UNL     1      22.259  -2.307  13.595  1.00  0.00    -0.175 N 
HETATM   33  C11 UNL     1      22.491  -2.088  12.276  1.00  0.00     0.146 A 
ATOM     34  H4  UNL     1      21.577  -1.719  14.075  1.00  0.00     0.186 HD
BRANCH  24  35
HETATM   35  C3  UNL     1      25.510  -4.352   9.069  1.00  0.00     0.076 C 
BRANCH  35  36
HETATM   36  C2  UNL     1      26.746  -3.482   8.781  1.00  0.00     0.003 C 
HETATM   37  C1  UNL     1      27.809  -3.902   9.766  1.00  0.00     0.005 C 
ENDBRANCH  35  36
ENDBRANCH  24  35
BRANCH  30  38
HETATM   38  N3  UNL     1      22.618  -3.474  15.691  1.00  0.00    -0.217 N 
HETATM   39  C7  UNL     1      21.786  -4.544  16.194  1.00  0.00     0.141 C 
HETATM   40  C8  UNL     1      21.929  -4.525  17.679  1.00  0.00     0.022 C 
HETATM   41  C9  UNL     1      22.599  -3.233  18.011  1.00  0.00     0.022 C 
HETATM   42  C10 UNL     1      23.145  -2.663  16.739  1.00  0.00     0.141 C 
ENDBRANCH  30  38
BRANCH  33  43
HETATM   43  N5  UNL     1      21.838  -1.161  11.656  1.00  0.00    -0.383 N 
ATOM     44  H52 UNL     1      21.733  -0.245  12.093  1.00  0.00     0.157 HD
ATOM     45  H51 UNL     1      21.445  -1.350  10.735  1.00  0.00     0.157 HD
ENDBRANCH  33  43
ENDBRANCH  22  23
ENDBRANCH  19  22
ENDBRANCH  11  13
ENDBRANCH   7  11
ENDBRANCH   1   4
TORSDOF 9
ENDMDL
MODEL 5
REMARK VINA RESULT: -8.166198215      3.583      9.152
REMARK  9 active torsions:
REMARK  status: ('A' for Active; 'I' for Inactive)
REMARK    1  A    between atoms: C2_2  and  C3_3 
REMARK    2  A    between atoms: C3_3  and  C4_4 
REMARK    3  A    between atoms: C6_10  and  N3_11 
REMARK    4  A    between atoms: C11_18  and  N5_19 
REMARK    5  A    between atoms: N6_23  and  C13_24 
REMARK    6  A    between atoms: C13_24  and  C14_25 
REMARK    7  A    between atoms: C18_29  and  N7_30 
REMARK    8  A    between atoms: N7_30  and  C20_32 
REMARK    9  A    between atoms: C23_35  and  C24_37 
ROOT
HETATM    1  C24 UNL     1      17.359   0.927  10.018  1.00  0.00     0.167 C 
HETATM    2  C25 UNL     1      16.037   1.364   9.517  1.00  0.00     0.062 C 
HETATM    3  N8  UNL     1      15.012   1.708   9.102  1.00  0.00    -0.197 NA
ENDROOT
BRANCH   1   4
HETATM    4  C23 UNL     1      17.298  -0.548  10.342  1.00  0.00     0.115 C 
HETATM    5  C22 UNL     1      18.513  -1.066  11.039  1.00  0.00     0.046 C 
HETATM    6  C21 UNL     1      19.729  -1.104  10.116  1.00  0.00     0.028 C 
HETATM    7  C20 UNL     1      19.388  -2.031   8.990  1.00  0.00     0.084 C 
HETATM    8  C27 UNL     1      18.145  -1.566   8.243  1.00  0.00     0.028 C 
HETATM    9  C26 UNL     1      16.980  -1.381   9.152  1.00  0.00     0.046 C 
HETATM   10  F1  UNL     1      16.237  -0.728  11.251  1.00  0.00    -0.242 F 
BRANCH   7  11
HETATM   11  N7  UNL     1      20.444  -2.167   8.071  1.00  0.00    -0.378 N 
HETATM   12  C19 UNL     1      20.338  -1.460   6.768  1.00  0.00     0.150 C 
BRANCH  11  13
HETATM   13  C18 UNL     1      21.631  -2.924   8.240  1.00  0.00     0.065 A 
HETATM   14  C17 UNL     1      21.777  -4.072   7.448  1.00  0.00     0.101 A 
HETATM   15  C16 UNL     1      22.922  -4.826   7.537  1.00  0.00    -0.020 A 
HETATM   16  O1  UNL     1      20.935  -4.668   6.506  1.00  0.00    -0.348 OA
HETATM   17  C15 UNL     1      23.930  -4.469   8.395  1.00  0.00     0.023 A 
HETATM   18  C30 UNL     1      22.777  -5.973   6.581  1.00  0.00     0.068 C 
HETATM   19  C14 UNL     1      23.844  -3.366   9.186  1.00  0.00    -0.017 A 
HETATM   20  C28 UNL     1      22.660  -2.625   9.066  1.00  0.00     0.045 A 
HETATM   21  C29 UNL     1      21.282  -6.021   6.363  1.00  0.00     0.180 C 
BRANCH  19  22
HETATM   22  C13 UNL     1      24.867  -2.925  10.081  1.00  0.00     0.110 C 
BRANCH  22  23
HETATM   23  N6  UNL     1      24.602  -2.150  11.219  1.00  0.00    -0.304 N 
HETATM   24  C4  UNL     1      24.841  -0.826  11.384  1.00  0.00     0.089 A 
HETATM   25  N1  UNL     1      24.489  -0.509  12.629  1.00  0.00    -0.329 N 
HETATM   26  C5  UNL     1      24.027  -1.581  13.282  1.00  0.00     0.153 A 
ATOM     27  H1  UNL     1      24.561   0.426  13.031  1.00  0.00     0.168 HD
HETATM   28  N2  UNL     1      23.567  -1.788  14.529  1.00  0.00    -0.174 N 
HETATM   29  C12 UNL     1      24.098  -2.641  12.380  1.00  0.00     0.129 A 
HETATM   30  C6  UNL     1      23.157  -2.976  14.986  1.00  0.00     0.683 A 
ATOM     31  H2  UNL     1      23.528  -0.991  15.165  1.00  0.00     0.186 HD
HETATM   32  N4  UNL     1      23.222  -3.999  14.130  1.00  0.00    -0.175 N 
HETATM   33  C11 UNL     1      23.675  -3.865  12.857  1.00  0.00     0.146 A 
ATOM     34  H4  UNL     1      22.918  -4.920  14.446  1.00  0.00     0.186 HD
BRANCH  24  35
HETATM   35  C3  UNL     1      25.385   0.075  10.392  1.00  0.00     0.076 C 
BRANCH  35  36
HETATM   36  C2  UNL     1      25.624   1.497  10.930  1.00  0.00     0.003 C 
HETATM   37  C1  UNL     1      26.335   2.258   9.838  1.00  0.00     0.005 C 
ENDBRANCH  35  36
ENDBRANCH  24  35
BRANCH  30  38
HETATM   38  N3  UNL     1      22.678  -3.143  16.333  1.00  0.00    -0.217 N 
HETATM   39  C7  UNL     1      22.589  -2.067  17.294  1.00  0.00     0.141 C 
HETATM   40  C8  UNL     1      21.873  -2.620  18.481  1.00  0.00     0.022 C 
HETATM   41  C9  UNL     1      21.850  -4.101  18.294  1.00  0.00     0.022 C 
HETATM   42  C10 UNL     1      22.234  -4.386  16.875  1.00  0.00     0.141 C 
ENDBRANCH  30  38
BRANCH  33  43
HETATM   43  N5  UNL     1      23.727  -4.900  12.085  1.00  0.00    -0.383 N 
ATOM     44  H52 UNL     1      23.726  -5.834  12.497  1.00  0.00     0.157 HD
ATOM     45  H51 UNL     1      23.758  -4.774  11.074  1.00  0.00     0.157 HD
ENDBRANCH  33  43
ENDBRANCH  22  23
ENDBRANCH  19  22
ENDBRANCH  11  13
ENDBRANCH   7  11
ENDBRANCH   1   4
TORSDOF 9
ENDMDL
