MODEL 1
REMARK VINA RESULT: -10.834430015      0.000      0.000
REMARK  9 active torsions:
REMARK  status: ('A' for Active; 'I' for Inactive)
REMARK    1  A    between atoms: C2_2  and  N1_5 
REMARK       I    between atoms: N1_5  and  C5_7 
REMARK       I    between atoms: C5_7  and  N2_9 
REMARK    2  A    between atoms: N2_9  and  C6_11 
REMARK    3  A    between atoms: C9_14  and  C10_15 
REMARK    4  A    between atoms: C11_19  and  C12_20 
REMARK       I    between atoms: N4_23  and  C15_24 
REMARK    5  A    between atoms: C15_24  and  C16_26 
REMARK    6  A    between atoms: C16_26  and  C17_27 
REMARK    7  A    between atoms: C17_27  and  C18_28 
REMARK    8  A    between atoms: C18_28  and  C19_29 
REMARK    9  A    between atoms: C20_32  and  C21_33 
ROOT
HETATM    1  C10 UNL     1      21.889  -5.642  20.915  1.00  0.00     0.137 A 
HETATM    2  N3  UNL     1      22.545  -6.455  20.104  1.00  0.00    -0.242 N 
ATOM      3  H3  UNL     1      22.976  -7.344  20.354  1.00  0.00     0.196 HD
HETATM    4  O2  UNL     1      22.536  -5.904  18.931  1.00  0.00    -0.222 OA
HETATM    5  C11 UNL     1      21.894  -4.754  18.953  1.00  0.00     0.152 A 
HETATM    6  N7  UNL     1      21.478  -4.584  20.216  1.00  0.00    -0.322 N 
ATOM      7  H7  UNL     1      20.945  -3.792  20.576  1.00  0.00     0.169 HD
ENDROOT
BRANCH   5   8
HETATM    8  C12 UNL     1      21.680  -3.834  17.784  1.00  0.00     0.066 C 
HETATM    9  C13 UNL     1      21.747  -4.535  16.482  1.00  0.00     0.033 C 
HETATM   10  C14 UNL     1      22.915  -4.151  15.626  1.00  0.00     0.127 C 
HETATM   11  N4  UNL     1      23.144  -2.728  15.546  1.00  0.00    -0.349 N 
HETATM   12  C15 UNL     1      23.865  -2.175  14.412  1.00  0.00     0.243 C 
HETATM   13  C24 UNL     1      22.615  -1.880  16.580  1.00  0.00     0.127 C 
HETATM   14  O3  UNL     1      24.189  -2.997  13.542  1.00  0.00    -0.268 OA
HETATM   15  C25 UNL     1      22.590  -2.641  17.880  1.00  0.00     0.033 C 
BRANCH  12  16
HETATM   16  C16 UNL     1      24.165  -0.767  14.337  1.00  0.00     0.070 C 
BRANCH  16  17
HETATM   17  C17 UNL     1      23.522   0.119  13.380  1.00  0.00    -0.013 C 
BRANCH  17  18
HETATM   18  C18 UNL     1      23.523  -0.085  11.934  1.00  0.00     0.114 C 
BRANCH  18  19
HETATM   19  C19 UNL     1      24.787  -0.266  11.230  1.00  0.00     0.151 A 
HETATM   20  N5  UNL     1      25.339  -1.510  10.974  1.00  0.00    -0.326 N 
HETATM   21  C20 UNL     1      26.498  -1.369  10.308  1.00  0.00     0.108 A 
ATOM     22  H5  UNL     1      24.927  -2.401  11.251  1.00  0.00     0.169 HD
HETATM   23  N6  UNL     1      26.654  -0.053  10.153  1.00  0.00    -0.247 N 
HETATM   24  O4  UNL     1      25.628   0.563  10.711  1.00  0.00    -0.223 OA
ATOM     25  H6  UNL     1      27.435   0.402   9.681  1.00  0.00     0.196 HD
BRANCH  21  26
HETATM   26  C21 UNL     1      27.383  -2.471   9.872  1.00  0.00     0.055 A 
HETATM   27  C22 UNL     1      28.157  -3.226  10.904  1.00  0.00     0.013 A 
HETATM   28  C23 UNL     1      27.072  -3.881  10.113  1.00  0.00     0.013 A 
ENDBRANCH  21  26
ENDBRANCH  18  19
ENDBRANCH  17  18
ENDBRANCH  16  17
ENDBRANCH  12  16
ENDBRANCH   5   8
BRANCH   1  29
HETATM   29  C9  UNL     1      21.663  -5.844  22.362  1.00  0.00     0.011 A 
HETATM   30  C8  UNL     1      22.671  -6.096  23.233  1.00  0.00     0.017 A 
HETATM   31  C7  UNL     1      22.479  -6.311  24.593  1.00  0.00     0.032 A 
HETATM   32  C6  UNL     1      21.199  -6.271  25.113  1.00  0.00     0.058 A 
HETATM   33  C27 UNL     1      20.165  -6.008  24.204  1.00  0.00     0.061 A 
HETATM   34  C26 UNL     1      20.382  -5.798  22.860  1.00  0.00     0.041 A 
HETATM   35 CL1  UNL     1      18.511  -5.942  24.830  1.00  0.00    -0.082 Cl
BRANCH  32  36
HETATM   36  N2  UNL     1      20.894  -6.490  26.462  1.00  0.00    -0.307 N 
HETATM   37  C5  UNL     1      20.256  -7.552  27.087  1.00  0.00     0.321 C 
HETATM   38  N1  UNL     1      20.050  -7.543  28.518  1.00  0.00    -0.335 N 
HETATM   39  O1  UNL     1      19.834  -8.551  26.490  1.00  0.00    -0.247 OA
ATOM     40  H1  UNL     1      20.367  -6.740  29.059  1.00  0.00     0.165 HD
ATOM     41  H2  UNL     1      21.190  -5.744  27.090  1.00  0.00     0.170 HD
BRANCH  38  42
HETATM   42  C2  UNL     1      19.407  -8.645  29.202  1.00  0.00     0.023 C 
HETATM   43  C1  UNL     1      17.899  -8.582  29.029  1.00  0.00     0.037 C 
HETATM   44  C3  UNL     1      19.900  -9.952  28.688  1.00  0.00     0.037 C 
HETATM   45  C4  UNL     1      19.709  -8.487  30.694  1.00  0.00     0.037 C 
ENDBRANCH  38  42
ENDBRANCH  32  36
ENDBRANCH   1  29
TORSDOF 9
ENDMDL
MODEL 2
REMARK VINA RESULT: -10.608339968      2.326      3.933
REMARK  9 active torsions:
REMARK  status: ('A' for Active; 'I' for Inactive)
REMARK    1  A    between atoms: C2_2  and  N1_5 
REMARK       I    between atoms: N1_5  and  C5_7 
REMARK       I    between atoms: C5_7  and  N2_9 
REMARK    2  A    between atoms: N2_9  and  C6_11 
REMARK    3  A    between atoms: C9_14  and  C10_15 
REMARK    4  A    between atoms: C11_19  and  C12_20 
REMARK       I    between atoms: N4_23  and  C15_24 
REMARK    5  A    between atoms: C15_24  and  C16_26 
REMARK    6  A    between atoms: C16_26  and  C17_27 
REMARK    7  A    between atoms: C17_27  and  C18_28 
REMARK    8  A    between atoms: C18_28  and  C19_29 
REMARK    9  A    between atoms: C20_32  and  C21_33 
ROOT
HETATM    1  C10 UNL     1      22.551  -3.104  18.437  1.00  0.00     0.137 A 
HETATM    2  N3  UNL     1      21.853  -2.029  18.114  1.00  0.00    -0.242 N 
ATOM      3  H3  UNL     1      21.175  -1.546  18.702  1.00  0.00     0.196 HD
HETATM    4  O2  UNL     1      22.196  -1.705  16.906  1.00  0.00    -0.222 OA
HETATM    5  C11 UNL     1      23.096  -2.540  16.431  1.00  0.00     0.152 A 
HETATM    6  N7  UNL     1      23.328  -3.434  17.405  1.00  0.00    -0.322 N 
ATOM      7  H7  UNL     1      23.977  -4.219  17.364  1.00  0.00     0.169 HD
ENDROOT
BRANCH   5   8
HETATM    8  C12 UNL     1      23.728  -2.484  15.068  1.00  0.00     0.066 C 
HETATM    9  C13 UNL     1      23.063  -1.516  14.167  1.00  0.00     0.033 C 
HETATM   10  C14 UNL     1      22.353  -2.135  13.003  1.00  0.00     0.127 C 
HETATM   11  N4  UNL     1      23.116  -3.154  12.320  1.00  0.00    -0.349 N 
HETATM   12  C15 UNL     1      22.816  -3.475  10.935  1.00  0.00     0.243 C 
HETATM   13  C24 UNL     1      24.189  -3.805  13.023  1.00  0.00     0.127 C 
HETATM   14  O3  UNL     1      21.930  -2.781  10.413  1.00  0.00    -0.268 OA
HETATM   15  C25 UNL     1      23.855  -3.867  14.490  1.00  0.00     0.033 C 
BRANCH  12  16
HETATM   16  C16 UNL     1      23.517  -4.531  10.249  1.00  0.00     0.070 C 
BRANCH  16  17
HETATM   17  C17 UNL     1      24.475  -4.270   9.186  1.00  0.00    -0.013 C 
BRANCH  17  18
HETATM   18  C18 UNL     1      25.895  -4.009   9.398  1.00  0.00     0.114 C 
BRANCH  18  19
HETATM   19  C19 UNL     1      26.337  -2.671   9.775  1.00  0.00     0.151 A 
HETATM   20  N5  UNL     1      25.507  -1.564   9.744  1.00  0.00    -0.326 N 
HETATM   21  C20 UNL     1      26.181  -0.473  10.148  1.00  0.00     0.108 A 
ATOM     22  H5  UNL     1      24.528  -1.574   9.458  1.00  0.00     0.169 HD
HETATM   23  N6  UNL     1      27.412  -0.907  10.427  1.00  0.00    -0.247 N 
HETATM   24  O4  UNL     1      27.465  -2.206  10.192  1.00  0.00    -0.223 OA
ATOM     25  H6  UNL     1      28.183  -0.333  10.766  1.00  0.00     0.196 HD
BRANCH  21  26
HETATM   26  C21 UNL     1      25.633   0.898  10.235  1.00  0.00     0.055 A 
HETATM   27  C22 UNL     1      26.480   2.043   9.783  1.00  0.00     0.013 A 
HETATM   28  C23 UNL     1      25.229   1.667   9.057  1.00  0.00     0.013 A 
ENDBRANCH  21  26
ENDBRANCH  18  19
ENDBRANCH  17  18
ENDBRANCH  16  17
ENDBRANCH  12  16
ENDBRANCH   5   8
BRANCH   1  29
HETATM   29  C9  UNL     1      22.475  -3.847  19.713  1.00  0.00     0.011 A 
HETATM   30  C8  UNL     1      23.220  -3.519  20.797  1.00  0.00     0.017 A 
HETATM   31  C7  UNL     1      23.180  -4.217  21.999  1.00  0.00     0.032 A 
HETATM   32  C6  UNL     1      22.345  -5.311  22.122  1.00  0.00     0.058 A 
HETATM   33  C27 UNL     1      21.579  -5.641  20.995  1.00  0.00     0.061 A 
HETATM   34  C26 UNL     1      21.637  -4.932  19.816  1.00  0.00     0.041 A 
HETATM   35 CL1  UNL     1      20.492  -7.032  21.112  1.00  0.00    -0.082 Cl
BRANCH  32  36
HETATM   36  N2  UNL     1      22.243  -6.093  23.279  1.00  0.00    -0.307 N 
HETATM   37  C5  UNL     1      21.235  -6.180  24.230  1.00  0.00     0.321 C 
HETATM   38  N1  UNL     1      21.368  -7.074  25.358  1.00  0.00    -0.335 N 
HETATM   39  O1  UNL     1      20.185  -5.526  24.184  1.00  0.00    -0.247 OA
ATOM     40  H1  UNL     1      22.218  -7.629  25.453  1.00  0.00     0.165 HD
ATOM     41  H2  UNL     1      23.043  -6.700  23.452  1.00  0.00     0.170 HD
BRANCH  38  42
HETATM   42  C2  UNL     1      20.327  -7.203  26.355  1.00  0.00     0.023 C 
HETATM   43  C1  UNL     1      20.672  -6.410  27.603  1.00  0.00     0.037 C 
HETATM   44  C3  UNL     1      19.020  -6.727  25.824  1.00  0.00     0.037 C 
HETATM   45  C4  UNL     1      20.259  -8.680  26.749  1.00  0.00     0.037 C 
ENDBRANCH  38  42
ENDBRANCH  32  36
ENDBRANCH   1  29
TORSDOF 9
ENDMDL
MODEL 3
REMARK VINA RESULT: -10.604354207      1.511      2.104
REMARK  9 active torsions:
REMARK  status: ('A' for Active; 'I' for Inactive)
REMARK    1  A    between atoms: C2_2  and  N1_5 
REMARK       I    between atoms: N1_5  and  C5_7 
REMARK       I    between atoms: C5_7  and  N2_9 
REMARK    2  A    between atoms: N2_9  and  C6_11 
REMARK    3  A    between atoms: C9_14  and  C10_15 
REMARK    4  A    between atoms: C11_19  and  C12_20 
REMARK       I    between atoms: N4_23  and  C15_24 
REMARK    5  A    between atoms: C15_24  and  C16_26 
REMARK    6  A    between atoms: C16_26  and  C17_27 
REMARK    7  A    between atoms: C17_27  and  C18_28 
REMARK    8  A    between atoms: C18_28  and  C19_29 
REMARK    9  A    between atoms: C20_32  and  C21_33 
ROOT
HETATM    1  C10 UNL     1      21.838  -5.522  20.803  1.00  0.00     0.137 A 
HETATM    2  N3  UNL     1      22.275  -6.443  19.961  1.00  0.00    -0.242 N 
ATOM      3  H3  UNL     1      22.518  -7.407  20.187  1.00  0.00     0.196 HD
HETATM    4  O2  UNL     1      22.337  -5.885  18.792  1.00  0.00    -0.222 OA
HETATM    5  C11 UNL     1      21.954  -4.626  18.848  1.00  0.00     0.152 A 
HETATM    6  N7  UNL     1      21.633  -4.391  20.129  1.00  0.00    -0.322 N 
ATOM      7  H7  UNL     1      21.295  -3.510  20.516  1.00  0.00     0.169 HD
ENDROOT
BRANCH   5   8
HETATM    8  C12 UNL     1      21.894  -3.664  17.695  1.00  0.00     0.066 C 
HETATM    9  C13 UNL     1      21.169  -4.214  16.526  1.00  0.00     0.033 C 
HETATM   10  C14 UNL     1      22.025  -4.458  15.322  1.00  0.00     0.127 C 
HETATM   11  N4  UNL     1      22.922  -3.371  15.005  1.00  0.00    -0.349 N 
HETATM   12  C15 UNL     1      23.423  -3.219  13.650  1.00  0.00     0.243 C 
HETATM   13  C24 UNL     1      23.271  -2.436  16.041  1.00  0.00     0.127 C 
HETATM   14  O3  UNL     1      22.976  -4.033  12.829  1.00  0.00    -0.268 OA
HETATM   15  C25 UNL     1      23.267  -3.145  17.371  1.00  0.00     0.033 C 
BRANCH  12  16
HETATM   16  C16 UNL     1      24.370  -2.183  13.321  1.00  0.00     0.070 C 
BRANCH  16  17
HETATM   17  C17 UNL     1      25.501  -2.412  12.436  1.00  0.00    -0.013 C 
BRANCH  17  18
HETATM   18  C18 UNL     1      25.419  -2.442  10.979  1.00  0.00     0.114 C 
BRANCH  18  19
HETATM   19  C19 UNL     1      24.954  -1.265  10.256  1.00  0.00     0.151 A 
HETATM   20  N5  UNL     1      25.658  -0.073  10.217  1.00  0.00    -0.326 N 
HETATM   21  C20 UNL     1      24.994   0.829   9.474  1.00  0.00     0.108 A 
ATOM     22  H5  UNL     1      26.549   0.095  10.683  1.00  0.00     0.169 HD
HETATM   23  N6  UNL     1      23.895   0.196   9.058  1.00  0.00    -0.247 N 
HETATM   24  O4  UNL     1      23.906  -1.032   9.541  1.00  0.00    -0.223 OA
ATOM     25  H6  UNL     1      23.167   0.595   8.465  1.00  0.00     0.196 HD
BRANCH  21  26
HETATM   26  C21 UNL     1      25.425   2.219   9.213  1.00  0.00     0.055 A 
HETATM   27  C22 UNL     1      26.756   2.670   9.723  1.00  0.00     0.013 A 
HETATM   28  C23 UNL     1      26.483   2.556   8.259  1.00  0.00     0.013 A 
ENDBRANCH  21  26
ENDBRANCH  18  19
ENDBRANCH  17  18
ENDBRANCH  16  17
ENDBRANCH  12  16
ENDBRANCH   5   8
BRANCH   1  29
HETATM   29  C9  UNL     1      21.632  -5.693  22.257  1.00  0.00     0.011 A 
HETATM   30  C8  UNL     1      22.655  -5.903  23.122  1.00  0.00     0.017 A 
HETATM   31  C7  UNL     1      22.482  -6.089  24.489  1.00  0.00     0.032 A 
HETATM   32  C6  UNL     1      21.207  -6.063  25.023  1.00  0.00     0.058 A 
HETATM   33  C27 UNL     1      20.158  -5.844  24.119  1.00  0.00     0.061 A 
HETATM   34  C26 UNL     1      20.357  -5.663  22.768  1.00  0.00     0.041 A 
HETATM   35 CL1  UNL     1      18.509  -5.799  24.761  1.00  0.00    -0.082 Cl
BRANCH  32  36
HETATM   36  N2  UNL     1      20.921  -6.256  26.379  1.00  0.00    -0.307 N 
HETATM   37  C5  UNL     1      20.316  -7.317  27.038  1.00  0.00     0.321 C 
HETATM   38  N1  UNL     1      20.125  -7.277  28.470  1.00  0.00    -0.335 N 
HETATM   39  O1  UNL     1      19.914  -8.342  26.470  1.00  0.00    -0.247 OA
ATOM     40  H1  UNL     1      20.427  -6.453  28.988  1.00  0.00     0.165 HD
ATOM     41  H2  UNL     1      21.204  -5.487  26.986  1.00  0.00     0.170 HD
BRANCH  38  42
HETATM   42  C2  UNL     1      19.516  -8.377  29.189  1.00  0.00     0.023 C 
HETATM   43  C1  UNL     1      18.003  -8.255  29.182  1.00  0.00     0.037 C 
HETATM   44  C3  UNL     1      19.901  -9.684  28.587  1.00  0.00     0.037 C 
HETATM   45  C4  UNL     1      19.983  -8.279  30.643  1.00  0.00     0.037 C 
ENDBRANCH  38  42
ENDBRANCH  32  36
ENDBRANCH   1  29
TORSDOF 9
ENDMDL
MODEL 4
REMARK VINA RESULT: -10.476221152      4.737     14.588
REMARK  9 active torsions:
REMARK  status: ('A' for Active; 'I' for Inactive)
REMARK    1  A    between atoms: C2_2  and  N1_5 
REMARK       I    between atoms: N1_5  and  C5_7 
REMARK       I    between atoms: C5_7  and  N2_9 
REMARK    2  A    between atoms: N2_9  and  C6_11 
REMARK    3  A    between atoms: C9_14  and  C10_15 
REMARK    4  A    between atoms: C11_19  and  C12_20 
REMARK       I    between atoms: N4_23  and  C15_24 
REMARK    5  A    between atoms: C15_24  and  C16_26 
REMARK    6  A    between atoms: C16_26  and  C17_27 
REMARK    7  A    between atoms: C17_27  and  C18_28 
REMARK    8  A    between atoms: C18_28  and  C19_29 
REMARK    9  A    between atoms: C20_32  and  C21_33 
ROOT
HETATM    1  C10 UNL     1      23.224  -3.079  14.546  1.00  0.00     0.137 A 
HETATM    2  N3  UNL     1      23.996  -2.247  15.224  1.00  0.00    -0.242 N 
ATOM      3  H3  UNL     1      24.767  -1.693  14.851  1.00  0.00     0.196 HD
HETATM    4  O2  UNL     1      23.586  -2.270  16.454  1.00  0.00    -0.222 OA
HETATM    5  C11 UNL     1      22.570  -3.094  16.598  1.00  0.00     0.152 A 
HETATM    6  N7  UNL     1      22.334  -3.612  15.383  1.00  0.00    -0.322 N 
ATOM      7  H7  UNL     1      21.608  -4.286  15.144  1.00  0.00     0.169 HD
ENDROOT
BRANCH   5   8
HETATM    8  C12 UNL     1      21.834  -3.382  17.877  1.00  0.00     0.066 C 
HETATM    9  C13 UNL     1      22.240  -2.489  18.986  1.00  0.00     0.033 C 
HETATM   10  C14 UNL     1      22.958  -3.174  20.107  1.00  0.00     0.127 C 
HETATM   11  N4  UNL     1      22.341  -4.408  20.535  1.00  0.00    -0.349 N 
HETATM   12  C15 UNL     1      22.586  -4.911  21.876  1.00  0.00     0.243 C 
HETATM   13  C24 UNL     1      21.462  -5.095  19.627  1.00  0.00     0.127 C 
HETATM   14  O3  UNL     1      23.287  -4.182  22.593  1.00  0.00    -0.268 OA
HETATM   15  C25 UNL     1      21.915  -4.845  18.213  1.00  0.00     0.033 C 
BRANCH  12  16
HETATM   16  C16 UNL     1      22.036  -6.172  22.308  1.00  0.00     0.070 C 
BRANCH  16  17
HETATM   17  C17 UNL     1      20.622  -6.349  22.599  1.00  0.00    -0.013 C 
BRANCH  17  18
HETATM   18  C18 UNL     1      19.976  -5.940  23.842  1.00  0.00     0.114 C 
BRANCH  18  19
HETATM   19  C19 UNL     1      18.552  -5.623  23.848  1.00  0.00     0.151 A 
HETATM   20  N5  UNL     1      17.593  -6.440  23.275  1.00  0.00    -0.326 N 
HETATM   21  C20 UNL     1      16.373  -5.899  23.437  1.00  0.00     0.108 A 
ATOM     22  H5  UNL     1      17.783  -7.322  22.799  1.00  0.00     0.169 HD
HETATM   23  N6  UNL     1      16.581  -4.764  24.107  1.00  0.00    -0.247 N 
HETATM   24  O4  UNL     1      17.876  -4.635  24.328  1.00  0.00    -0.223 OA
ATOM     25  H6  UNL     1      15.860  -4.105  24.400  1.00  0.00     0.196 HD
BRANCH  21  26
HETATM   26  C21 UNL     1      15.101  -6.474  22.948  1.00  0.00     0.055 A 
HETATM   27  C22 UNL     1      14.041  -5.552  22.439  1.00  0.00     0.013 A 
HETATM   28  C23 UNL     1      14.740  -6.509  21.529  1.00  0.00     0.013 A 
ENDBRANCH  21  26
ENDBRANCH  18  19
ENDBRANCH  17  18
ENDBRANCH  16  17
ENDBRANCH  12  16
ENDBRANCH   5   8
BRANCH   1  29
HETATM   29  C9  UNL     1      23.332  -3.399  13.107  1.00  0.00     0.011 A 
HETATM   30  C8  UNL     1      23.695  -4.624  12.654  1.00  0.00     0.017 A 
HETATM   31  C7  UNL     1      23.825  -4.940  11.306  1.00  0.00     0.032 A 
HETATM   32  C6  UNL     1      23.578  -3.970  10.354  1.00  0.00     0.058 A 
HETATM   33  C27 UNL     1      23.202  -2.707  10.834  1.00  0.00     0.061 A 
HETATM   34  C26 UNL     1      23.081  -2.420  12.175  1.00  0.00     0.041 A 
HETATM   35 CL1  UNL     1      22.871  -1.436   9.647  1.00  0.00    -0.082 Cl
BRANCH  32  36
HETATM   36  N2  UNL     1      23.696  -4.177   8.974  1.00  0.00    -0.307 N 
HETATM   37  C5  UNL     1      22.749  -4.533   8.024  1.00  0.00     0.321 C 
HETATM   38  N1  UNL     1      23.126  -4.694   6.638  1.00  0.00    -0.335 N 
HETATM   39  O1  UNL     1      21.554  -4.730   8.283  1.00  0.00    -0.247 OA
ATOM     40  H1  UNL     1      24.100  -4.556   6.370  1.00  0.00     0.165 HD
ATOM     41  H2  UNL     1      24.638  -4.043   8.605  1.00  0.00     0.170 HD
BRANCH  38  42
HETATM   42  C2  UNL     1      22.158  -5.045   5.621  1.00  0.00     0.023 C 
HETATM   43  C1  UNL     1      21.425  -6.323   5.990  1.00  0.00     0.037 C 
HETATM   44  C3  UNL     1      21.163  -3.953   5.433  1.00  0.00     0.037 C 
HETATM   45  C4  UNL     1      22.936  -5.312   4.331  1.00  0.00     0.037 C 
ENDBRANCH  38  42
ENDBRANCH  32  36
ENDBRANCH   1  29
TORSDOF 9
ENDMDL
MODEL 5
REMARK VINA RESULT: -10.337338117      4.392     14.680
REMARK  9 active torsions:
REMARK  status: ('A' for Active; 'I' for Inactive)
REMARK    1  A    between atoms: C2_2  and  N1_5 
REMARK       I    between atoms: N1_5  and  C5_7 
REMARK       I    between atoms: C5_7  and  N2_9 
REMARK    2  A    between atoms: N2_9  and  C6_11 
REMARK    3  A    between atoms: C9_14  and  C10_15 
REMARK    4  A    between atoms: C11_19  and  C12_20 
REMARK       I    between atoms: N4_23  and  C15_24 
REMARK    5  A    between atoms: C15_24  and  C16_26 
REMARK    6  A    between atoms: C16_26  and  C17_27 
REMARK    7  A    between atoms: C17_27  and  C18_28 
REMARK    8  A    between atoms: C18_28  and  C19_29 
REMARK    9  A    between atoms: C20_32  and  C21_33 
ROOT
HETATM    1  C10 UNL     1      23.057  -3.145  14.559  1.00  0.00     0.137 A 
HETATM    2  N3  UNL     1      23.746  -2.248  15.245  1.00  0.00    -0.242 N 
ATOM      3  H3  UNL     1      24.441  -1.602  14.872  1.00  0.00     0.196 HD
HETATM    4  O2  UNL     1      23.369  -2.349  16.481  1.00  0.00    -0.222 OA
HETATM    5  C11 UNL     1      22.455  -3.287  16.622  1.00  0.00     0.152 A 
HETATM    6  N7  UNL     1      22.252  -3.796  15.398  1.00  0.00    -0.322 N 
ATOM      7  H7  UNL     1      21.601  -4.543  15.154  1.00  0.00     0.169 HD
ENDROOT
BRANCH   5   8
HETATM    8  C12 UNL     1      21.785  -3.688  17.906  1.00  0.00     0.066 C 
HETATM    9  C13 UNL     1      21.998  -2.708  18.996  1.00  0.00     0.033 C 
HETATM   10  C14 UNL     1      22.833  -3.212  20.132  1.00  0.00     0.127 C 
HETATM   11  N4  UNL     1      22.474  -4.535  20.587  1.00  0.00    -0.349 N 
HETATM   12  C15 UNL     1      22.808  -4.949  21.938  1.00  0.00     0.243 C 
HETATM   13  C24 UNL     1      21.756  -5.404  19.694  1.00  0.00     0.127 C 
HETATM   14  O3  UNL     1      23.345  -4.079  22.640  1.00  0.00    -0.268 OA
HETATM   15  C25 UNL     1      22.157  -5.098  18.275  1.00  0.00     0.033 C 
BRANCH  12  16
HETATM   16  C16 UNL     1      22.520  -6.286  22.398  1.00  0.00     0.070 C 
BRANCH  16  17
HETATM   17  C17 UNL     1      22.765  -6.710  23.767  1.00  0.00    -0.013 C 
BRANCH  17  18
HETATM   18  C18 UNL     1      22.078  -6.169  24.936  1.00  0.00     0.114 C 
BRANCH  18  19
HETATM   19  C19 UNL     1      20.635  -6.333  25.068  1.00  0.00     0.151 A 
HETATM   20  N5  UNL     1      19.720  -5.615  24.318  1.00  0.00    -0.326 N 
HETATM   21  C20 UNL     1      18.469  -5.979  24.648  1.00  0.00     0.108 A 
ATOM     22  H5  UNL     1      19.960  -4.913  23.617  1.00  0.00     0.169 HD
HETATM   23  N6  UNL     1      18.614  -6.914  25.589  1.00  0.00    -0.247 N 
HETATM   24  O4  UNL     1      19.903  -7.092  25.811  1.00  0.00    -0.223 OA
ATOM     25  H6  UNL     1      17.856  -7.408  26.059  1.00  0.00     0.196 HD
BRANCH  21  26
HETATM   26  C21 UNL     1      17.227  -5.422  24.070  1.00  0.00     0.055 A 
HETATM   27  C22 UNL     1      16.305  -6.332  23.326  1.00  0.00     0.013 A 
HETATM   28  C23 UNL     1      15.899  -5.704  24.620  1.00  0.00     0.013 A 
ENDBRANCH  21  26
ENDBRANCH  18  19
ENDBRANCH  17  18
ENDBRANCH  16  17
ENDBRANCH  12  16
ENDBRANCH   5   8
BRANCH   1  29
HETATM   29  C9  UNL     1      23.169  -3.413  13.109  1.00  0.00     0.011 A 
HETATM   30  C8  UNL     1      23.668  -4.573  12.615  1.00  0.00     0.017 A 
HETATM   31  C7  UNL     1      23.803  -4.837  11.257  1.00  0.00     0.032 A 
HETATM   32  C6  UNL     1      23.415  -3.881  10.337  1.00  0.00     0.058 A 
HETATM   33  C27 UNL     1      22.899  -2.686  10.859  1.00  0.00     0.061 A 
HETATM   34  C26 UNL     1      22.776  -2.450  12.210  1.00  0.00     0.041 A 
HETATM   35 CL1  UNL     1      22.385  -1.438   9.715  1.00  0.00    -0.082 Cl
BRANCH  32  36
HETATM   36  N2  UNL     1      23.524  -4.038   8.950  1.00  0.00    -0.307 N 
HETATM   37  C5  UNL     1      22.606  -4.491   8.012  1.00  0.00     0.321 C 
HETATM   38  N1  UNL     1      22.966  -4.568   6.614  1.00  0.00    -0.335 N 
HETATM   39  O1  UNL     1      21.453  -4.846   8.291  1.00  0.00    -0.247 OA
ATOM     40  H1  UNL     1      23.907  -4.299   6.328  1.00  0.00     0.165 HD
ATOM     41  H2  UNL     1      24.430  -3.776   8.564  1.00  0.00     0.170 HD
BRANCH  38  42
HETATM   42  C2  UNL     1      22.025  -5.016   5.609  1.00  0.00     0.023 C 
HETATM   43  C1  UNL     1      21.373  -6.324   6.024  1.00  0.00     0.037 C 
HETATM   44  C3  UNL     1      20.964  -3.997   5.381  1.00  0.00     0.037 C 
HETATM   45  C4  UNL     1      22.822  -5.281   4.330  1.00  0.00     0.037 C 
ENDBRANCH  38  42
ENDBRANCH  32  36
ENDBRANCH   1  29
TORSDOF 9
ENDMDL
