MODEL 1
REMARK VINA RESULT: -7.821380823      0.000      0.000
REMARK  12 active torsions:
REMARK  status: ('A' for Active; 'I' for Inactive)
REMARK    1  A    between atoms: C2_2  and  C3_3 
REMARK    2  A    between atoms: C4_4  and  C5_5 
REMARK    3  A    between atoms: C6_6  and  C7_7 
REMARK    4  A    between atoms: C8_8  and  C9_9 
REMARK    5  A    between atoms: C9_9  and  C10_10 
REMARK    6  A    between atoms: C10_10  and  C11_11 
REMARK    7  A    between atoms: C11_11  and  C12_12 
REMARK    8  A    between atoms: C11_11  and  C13_20 
REMARK    9  A    between atoms: C19_29  and  O2_30 
REMARK   10  A    between atoms: O2_30  and  C20_31 
REMARK   11  A    between atoms: C20_31  and  C23_34 
REMARK   12  A    between atoms: C24_37  and  C25_38 
ROOT
HETATM    1  C5  UNL     1      21.332  -4.209   8.588  1.00  0.00     0.050 A 
HETATM    2  C6  UNL     1      22.639  -4.457   8.147  1.00  0.00     0.043 A 
HETATM    3  C16 UNL     1      22.916  -5.279   7.113  1.00  0.00    -0.039 A 
HETATM    4  C17 UNL     1      24.317  -5.526   6.652  1.00  0.00     0.050 C 
HETATM    5  C18 UNL     1      21.835  -5.889   6.492  1.00  0.00     0.046 A 
HETATM    6  C19 UNL     1      20.546  -5.680   6.896  1.00  0.00     0.083 A 
HETATM    7  C24 UNL     1      20.262  -4.811   7.985  1.00  0.00     0.024 A 
ENDROOT
BRANCH   2   8
HETATM    8  C7  UNL     1      23.719  -3.961   8.964  1.00  0.00    -0.065 C 
HETATM    9  C8  UNL     1      24.658  -3.623   9.657  1.00  0.00    -0.101 C 
BRANCH   9  10
HETATM   10  C9  UNL     1      25.811  -3.311  10.522  1.00  0.00     0.095 C 
BRANCH  10  11
HETATM   11  C10 UNL     1      25.953  -1.791  10.518  1.00  0.00     0.031 C 
BRANCH  11  12
HETATM   12  C11 UNL     1      24.606  -1.129  10.523  1.00  0.00     0.115 C 
BRANCH  12  13
HETATM   13  C12 UNL     1      24.652   0.114   9.653  1.00  0.00     0.120 A 
HETATM   14  N1  UNL     1      25.706   0.898   9.416  1.00  0.00    -0.270 N 
HETATM   15  N2  UNL     1      25.336   1.895   8.612  1.00  0.00    -0.005 NA
ATOM     16  H1  UNL     1      26.644   0.758   9.791  1.00  0.00     0.185 HD
HETATM   17  N3  UNL     1      24.027   1.739   8.335  1.00  0.00    -0.225 N 
HETATM   18  N4  UNL     1      23.648   0.659   8.976  1.00  0.00    -0.274 N 
ATOM     19  H3  UNL     1      23.450   2.339   7.746  1.00  0.00     0.205 HD
ATOM     20  H4  UNL     1      22.699   0.284   8.957  1.00  0.00     0.189 HD
ENDBRANCH  12  13
BRANCH  12  21
HETATM   21  C13 UNL     1      24.354  -0.607  11.917  1.00  0.00     0.081 A 
HETATM   22  C14 UNL     1      24.203  -1.375  13.077  1.00  0.00     0.123 A 
HETATM   23  N5  UNL     1      23.993  -0.503  14.076  1.00  0.00    -0.354 N 
HETATM   24  C15 UNL     1      24.010   0.749  13.584  1.00  0.00     0.233 A 
ATOM     25  H5  UNL     1      23.843  -0.751  15.054  1.00  0.00     0.166 HD
HETATM   26  O1  UNL     1      24.232   0.619  12.292  1.00  0.00    -0.308 OA
ENDBRANCH  12  21
ENDBRANCH  11  12
ENDBRANCH  10  11
ENDBRANCH   9  10
ENDBRANCH   2   8
BRANCH   1  27
HETATM   27  C4  UNL     1      21.162  -3.271   9.691  1.00  0.00    -0.065 C 
HETATM   28  C3  UNL     1      20.980  -2.458  10.589  1.00  0.00    -0.101 C 
BRANCH  28  29
HETATM   29  C2  UNL     1      20.726  -1.491  11.688  1.00  0.00     0.090 C 
HETATM   30  C1  UNL     1      19.311  -0.962  11.448  1.00  0.00     0.018 C 
ENDBRANCH  28  29
ENDBRANCH   1  27
BRANCH   7  31
HETATM   31  C25 UNL     1      18.851  -4.539   8.371  1.00  0.00    -0.041 C 
HETATM   32  C26 UNL     1      18.267  -3.259   8.120  1.00  0.00     0.045 C 
HETATM   33  C27 UNL     1      17.233  -2.853   8.829  1.00  0.00     0.094 C 
HETATM   34  F1  UNL     1      16.700  -1.642   8.577  1.00  0.00    -0.211 F 
HETATM   35  C28 UNL     1      16.594  -3.667   9.880  1.00  0.00     0.070 C 
HETATM   36  C29 UNL     1      16.993  -5.094   9.926  1.00  0.00     0.011 C 
HETATM   37  C30 UNL     1      18.404  -5.341   9.533  1.00  0.00     0.040 C 
ENDBRANCH   7  31
BRANCH   6  38
HETATM   38  O2  UNL     1      19.509  -6.261   6.293  1.00  0.00    -0.329 OA
BRANCH  38  39
HETATM   39  C20 UNL     1      19.049  -7.542   6.104  1.00  0.00     0.148 C 
HETATM   40  C21 UNL     1      17.487  -7.534   6.149  1.00  0.00     0.058 C 
HETATM   41  C22 UNL     1      19.413  -8.130   4.753  1.00  0.00     0.058 C 
BRANCH  39  42
HETATM   42  C23 UNL     1      19.431  -8.522   7.169  1.00  0.00     0.209 C 
HETATM   43  O3  UNL     1      19.017  -8.562   8.316  1.00  0.00    -0.646 OA
HETATM   44  O4  UNL     1      20.371  -9.517   6.799  1.00  0.00    -0.646 OA
ENDBRANCH  39  42
ENDBRANCH  38  39
ENDBRANCH   6  38
TORSDOF 12
ENDMDL
MODEL 2
REMARK VINA RESULT: -7.772510641     15.928     18.841
REMARK  12 active torsions:
REMARK  status: ('A' for Active; 'I' for Inactive)
REMARK    1  A    between atoms: C2_2  and  C3_3 
REMARK    2  A    between atoms: C4_4  and  C5_5 
REMARK    3  A    between atoms: C6_6  and  C7_7 
REMARK    4  A    between atoms: C8_8  and  C9_9 
REMARK    5  A    between atoms: C9_9  and  C10_10 
REMARK    6  A    between atoms: C10_10  and  C11_11 
REMARK    7  A    between atoms: C11_11  and  C12_12 
REMARK    8  A    between atoms: C11_11  and  C13_20 
REMARK    9  A    between atoms: C19_29  and  O2_30 
REMARK   10  A    between atoms: O2_30  and  C20_31 
REMARK   11  A    between atoms: C20_31  and  C23_34 
REMARK   12  A    between atoms: C24_37  and  C25_38 
ROOT
HETATM    1  C5  UNL     1      17.299  -6.282  26.859  1.00  0.00     0.050 A 
HETATM    2  C6  UNL     1      18.540  -6.772  26.428  1.00  0.00     0.043 A 
HETATM    3  C16 UNL     1      19.588  -6.939  27.262  1.00  0.00    -0.039 A 
HETATM    4  C17 UNL     1      20.901  -7.470  26.785  1.00  0.00     0.050 C 
HETATM    5  C18 UNL     1      19.390  -6.594  28.592  1.00  0.00     0.046 A 
HETATM    6  C19 UNL     1      18.199  -6.105  29.052  1.00  0.00     0.083 A 
HETATM    7  C24 UNL     1      17.099  -5.934  28.167  1.00  0.00     0.024 A 
ENDROOT
BRANCH   2   8
HETATM    8  C7  UNL     1      18.739  -6.910  25.007  1.00  0.00    -0.065 C 
HETATM    9  C8  UNL     1      18.878  -6.945  23.801  1.00  0.00    -0.101 C 
BRANCH   9  10
HETATM   10  C9  UNL     1      18.988  -6.907  22.330  1.00  0.00     0.095 C 
BRANCH  10  11
HETATM   11  C10 UNL     1      19.967  -5.784  22.000  1.00  0.00     0.031 C 
BRANCH  11  12
HETATM   12  C11 UNL     1      21.247  -6.337  21.445  1.00  0.00     0.115 C 
BRANCH  12  13
HETATM   13  C12 UNL     1      22.389  -6.014  22.390  1.00  0.00     0.120 A 
HETATM   14  N1  UNL     1      23.281  -5.027  22.275  1.00  0.00    -0.270 N 
HETATM   15  N2  UNL     1      24.131  -5.085  23.300  1.00  0.00    -0.005 NA
ATOM     16  H1  UNL     1      23.308  -4.338  21.523  1.00  0.00     0.185 HD
HETATM   17  N3  UNL     1      23.772  -6.125  24.077  1.00  0.00    -0.225 N 
HETATM   18  N4  UNL     1      22.721  -6.661  23.501  1.00  0.00    -0.274 N 
ATOM     19  H3  UNL     1      24.225  -6.433  24.937  1.00  0.00     0.205 HD
ATOM     20  H4  UNL     1      22.222  -7.474  23.862  1.00  0.00     0.189 HD
ENDBRANCH  12  13
BRANCH  12  21
HETATM   21  C13 UNL     1      21.570  -5.572  20.184  1.00  0.00     0.081 A 
HETATM   22  C14 UNL     1      22.033  -6.113  18.979  1.00  0.00     0.123 A 
HETATM   23  N5  UNL     1      22.189  -5.075  18.141  1.00  0.00    -0.354 N 
HETATM   24  C15 UNL     1      21.844  -3.939  18.772  1.00  0.00     0.233 A 
ATOM     25  H5  UNL     1      22.517  -5.139  17.178  1.00  0.00     0.166 HD
HETATM   26  O1  UNL     1      21.482  -4.302  19.985  1.00  0.00    -0.308 OA
ENDBRANCH  12  21
ENDBRANCH  11  12
ENDBRANCH  10  11
ENDBRANCH   9  10
ENDBRANCH   2   8
BRANCH   1  27
HETATM   27  C4  UNL     1      16.235  -6.183  25.869  1.00  0.00    -0.065 C 
HETATM   28  C3  UNL     1      15.373  -6.069  25.007  1.00  0.00    -0.101 C 
BRANCH  28  29
HETATM   29  C2  UNL     1      14.347  -5.957  23.937  1.00  0.00     0.090 C 
HETATM   30  C1  UNL     1      15.084  -6.256  22.630  1.00  0.00     0.018 C 
ENDBRANCH  28  29
ENDBRANCH   1  27
BRANCH   7  31
HETATM   31  C25 UNL     1      15.787  -5.467  28.693  1.00  0.00    -0.041 C 
HETATM   32  C26 UNL     1      15.669  -4.176  29.295  1.00  0.00     0.045 C 
HETATM   33  C27 UNL     1      14.692  -3.929  30.144  1.00  0.00     0.094 C 
HETATM   34  F1  UNL     1      14.600  -2.707  30.701  1.00  0.00    -0.211 F 
HETATM   35  C28 UNL     1      13.658  -4.916  30.507  1.00  0.00     0.070 C 
HETATM   36  C29 UNL     1      13.596  -6.131  29.661  1.00  0.00     0.011 C 
HETATM   37  C30 UNL     1      14.916  -6.576  29.144  1.00  0.00     0.040 C 
ENDBRANCH   7  31
BRANCH   6  38
HETATM   38  O2  UNL     1      18.008  -5.782  30.331  1.00  0.00    -0.329 OA
BRANCH  38  39
HETATM   39  C20 UNL     1      17.934  -6.446  31.531  1.00  0.00     0.148 C 
HETATM   40  C21 UNL     1      16.798  -5.811  32.396  1.00  0.00     0.058 C 
HETATM   41  C22 UNL     1      17.568  -7.913  31.398  1.00  0.00     0.058 C 
BRANCH  39  42
HETATM   42  C23 UNL     1      19.148  -6.334  32.400  1.00  0.00     0.209 C 
HETATM   43  O3  UNL     1      19.472  -5.385  33.095  1.00  0.00    -0.646 OA
HETATM   44  O4  UNL     1      20.011  -7.459  32.421  1.00  0.00    -0.646 OA
ENDBRANCH  39  42
ENDBRANCH  38  39
ENDBRANCH   6  38
TORSDOF 12
ENDMDL
MODEL 3
REMARK VINA RESULT: -7.753082356     15.579     18.284
REMARK  12 active torsions:
REMARK  status: ('A' for Active; 'I' for Inactive)
REMARK    1  A    between atoms: C2_2  and  C3_3 
REMARK    2  A    between atoms: C4_4  and  C5_5 
REMARK    3  A    between atoms: C6_6  and  C7_7 
REMARK    4  A    between atoms: C8_8  and  C9_9 
REMARK    5  A    between atoms: C9_9  and  C10_10 
REMARK    6  A    between atoms: C10_10  and  C11_11 
REMARK    7  A    between atoms: C11_11  and  C12_12 
REMARK    8  A    between atoms: C11_11  and  C13_20 
REMARK    9  A    between atoms: C19_29  and  O2_30 
REMARK   10  A    between atoms: O2_30  and  C20_31 
REMARK   11  A    between atoms: C20_31  and  C23_34 
REMARK   12  A    between atoms: C24_37  and  C25_38 
ROOT
HETATM    1  C5  UNL     1      17.374  -6.286  26.377  1.00  0.00     0.050 A 
HETATM    2  C6  UNL     1      18.627  -6.748  25.950  1.00  0.00     0.043 A 
HETATM    3  C16 UNL     1      19.651  -6.971  26.801  1.00  0.00    -0.039 A 
HETATM    4  C17 UNL     1      20.978  -7.472  26.327  1.00  0.00     0.050 C 
HETATM    5  C18 UNL     1      19.415  -6.716  28.144  1.00  0.00     0.046 A 
HETATM    6  C19 UNL     1      18.211  -6.257  28.601  1.00  0.00     0.083 A 
HETATM    7  C24 UNL     1      17.136  -6.026  27.698  1.00  0.00     0.024 A 
ENDROOT
BRANCH   2   8
HETATM    8  C7  UNL     1      18.867  -6.792  24.529  1.00  0.00    -0.065 C 
HETATM    9  C8  UNL     1      18.984  -6.824  23.320  1.00  0.00    -0.101 C 
BRANCH   9  10
HETATM   10  C9  UNL     1      19.028  -6.885  21.847  1.00  0.00     0.095 C 
BRANCH  10  11
HETATM   11  C10 UNL     1      20.503  -6.916  21.461  1.00  0.00     0.031 C 
BRANCH  11  12
HETATM   12  C11 UNL     1      21.049  -5.525  21.324  1.00  0.00     0.115 C 
BRANCH  12  13
HETATM   13  C12 UNL     1      21.513  -5.302  19.896  1.00  0.00     0.120 A 
HETATM   14  N1  UNL     1      21.716  -4.134  19.284  1.00  0.00    -0.270 N 
HETATM   15  N2  UNL     1      22.108  -4.361  18.030  1.00  0.00    -0.005 NA
ATOM     16  H1  UNL     1      21.591  -3.214  19.707  1.00  0.00     0.185 HD
HETATM   17  N3  UNL     1      22.154  -5.694  17.846  1.00  0.00    -0.225 N 
HETATM   18  N4  UNL     1      21.792  -6.230  18.988  1.00  0.00    -0.274 N 
ATOM     19  H3  UNL     1      22.418  -6.187  16.992  1.00  0.00     0.205 HD
ATOM     20  H4  UNL     1      21.730  -7.234  19.157  1.00  0.00     0.189 HD
ENDBRANCH  12  13
BRANCH  12  21
HETATM   21  C13 UNL     1      22.311  -5.442  22.150  1.00  0.00     0.081 A 
HETATM   22  C14 UNL     1      22.575  -6.137  23.336  1.00  0.00     0.123 A 
HETATM   23  N5  UNL     1      23.803  -5.757  23.724  1.00  0.00    -0.354 N 
HETATM   24  C15 UNL     1      24.295  -4.873  22.838  1.00  0.00     0.233 A 
ATOM     25  H5  UNL     1      24.286  -6.087  24.559  1.00  0.00     0.166 HD
HETATM   26  O1  UNL     1      23.359  -4.729  21.923  1.00  0.00    -0.308 OA
ENDBRANCH  12  21
ENDBRANCH  11  12
ENDBRANCH  10  11
ENDBRANCH   9  10
ENDBRANCH   2   8
BRANCH   1  27
HETATM   27  C4  UNL     1      16.338  -6.121  25.366  1.00  0.00    -0.065 C 
HETATM   28  C3  UNL     1      15.480  -6.031  24.497  1.00  0.00    -0.101 C 
BRANCH  28  29
HETATM   29  C2  UNL     1      14.415  -5.946  23.464  1.00  0.00     0.090 C 
HETATM   30  C1  UNL     1      15.093  -6.320  22.145  1.00  0.00     0.018 C 
ENDBRANCH  28  29
ENDBRANCH   1  27
BRANCH   7  31
HETATM   31  C25 UNL     1      15.810  -5.592  28.217  1.00  0.00    -0.041 C 
HETATM   32  C26 UNL     1      15.671  -4.338  28.887  1.00  0.00     0.045 C 
HETATM   33  C27 UNL     1      14.673  -4.142  29.724  1.00  0.00     0.094 C 
HETATM   34  F1  UNL     1      14.562  -2.953  30.347  1.00  0.00    -0.211 F 
HETATM   35  C28 UNL     1      13.633  -5.151  30.005  1.00  0.00     0.070 C 
HETATM   36  C29 UNL     1      13.599  -6.317  29.090  1.00  0.00     0.011 C 
HETATM   37  C30 UNL     1      14.933  -6.728  28.583  1.00  0.00     0.040 C 
ENDBRANCH   7  31
BRANCH   6  38
HETATM   38  O2  UNL     1      17.984  -6.019  29.893  1.00  0.00    -0.329 OA
BRANCH  38  39
HETATM   39  C20 UNL     1      17.834  -6.764  31.037  1.00  0.00     0.148 C 
HETATM   40  C21 UNL     1      16.811  -6.052  31.980  1.00  0.00     0.058 C 
HETATM   41  C22 UNL     1      17.265  -8.150  30.795  1.00  0.00     0.058 C 
BRANCH  39  42
HETATM   42  C23 UNL     1      19.064  -6.894  31.881  1.00  0.00     0.209 C 
HETATM   43  O3  UNL     1      19.305  -6.315  32.927  1.00  0.00    -0.646 OA
HETATM   44  O4  UNL     1      20.053  -7.797  31.414  1.00  0.00    -0.646 OA
ENDBRANCH  39  42
ENDBRANCH  38  39
ENDBRANCH   6  38
TORSDOF 12
ENDMDL
MODEL 4
REMARK VINA RESULT: -7.711718652     14.129     16.776
REMARK  12 active torsions:
REMARK  status: ('A' for Active; 'I' for Inactive)
REMARK    1  A    between atoms: C2_2  and  C3_3 
REMARK    2  A    between atoms: C4_4  and  C5_5 
REMARK    3  A    between atoms: C6_6  and  C7_7 
REMARK    4  A    between atoms: C8_8  and  C9_9 
REMARK    5  A    between atoms: C9_9  and  C10_10 
REMARK    6  A    between atoms: C10_10  and  C11_11 
REMARK    7  A    between atoms: C11_11  and  C12_12 
REMARK    8  A    between atoms: C11_11  and  C13_20 
REMARK    9  A    between atoms: C19_29  and  O2_30 
REMARK   10  A    between atoms: O2_30  and  C20_31 
REMARK   11  A    between atoms: C20_31  and  C23_34 
REMARK   12  A    between atoms: C24_37  and  C25_38 
ROOT
HETATM    1  C5  UNL     1      18.419  -6.543  25.172  1.00  0.00     0.050 A 
HETATM    2  C6  UNL     1      19.762  -6.446  24.782  1.00  0.00     0.043 A 
HETATM    3  C16 UNL     1      20.784  -6.532  25.660  1.00  0.00    -0.039 A 
HETATM    4  C17 UNL     1      22.211  -6.434  25.224  1.00  0.00     0.050 C 
HETATM    5  C18 UNL     1      20.449  -6.718  26.994  1.00  0.00     0.046 A 
HETATM    6  C19 UNL     1      19.152  -6.809  27.416  1.00  0.00     0.083 A 
HETATM    7  C24 UNL     1      18.081  -6.720  26.485  1.00  0.00     0.024 A 
ENDROOT
BRANCH   2   8
HETATM    8  C7  UNL     1      20.030  -6.046  23.423  1.00  0.00    -0.065 C 
HETATM    9  C8  UNL     1      20.337  -5.735  22.290  1.00  0.00    -0.101 C 
BRANCH   9  10
HETATM   10  C9  UNL     1      20.806  -5.364  20.941  1.00  0.00     0.095 C 
BRANCH  10  11
HETATM   11  C10 UNL     1      21.810  -6.434  20.525  1.00  0.00     0.031 C 
BRANCH  11  12
HETATM   12  C11 UNL     1      22.960  -5.826  19.777  1.00  0.00     0.115 C 
BRANCH  12  13
HETATM   13  C12 UNL     1      23.512  -4.653  20.567  1.00  0.00     0.120 A 
HETATM   14  N1  UNL     1      22.960  -3.448  20.720  1.00  0.00    -0.270 N 
HETATM   15  N2  UNL     1      23.760  -2.694  21.474  1.00  0.00    -0.005 NA
ATOM     16  H1  UNL     1      22.069  -3.150  20.323  1.00  0.00     0.185 HD
HETATM   17  N3  UNL     1      24.836  -3.434  21.805  1.00  0.00    -0.225 N 
HETATM   18  N4  UNL     1      24.654  -4.607  21.244  1.00  0.00    -0.274 N 
ATOM     19  H3  UNL     1      25.630  -3.142  22.375  1.00  0.00     0.205 HD
ATOM     20  H4  UNL     1      25.309  -5.385  21.317  1.00  0.00     0.189 HD
ENDBRANCH  12  13
BRANCH  12  21
HETATM   21  C13 UNL     1      22.412  -5.206  18.513  1.00  0.00     0.081 A 
HETATM   22  C14 UNL     1      21.836  -5.888  17.436  1.00  0.00     0.123 A 
HETATM   23  N5  UNL     1      21.498  -4.948  16.539  1.00  0.00    -0.354 N 
HETATM   24  C15 UNL     1      21.836  -3.737  17.015  1.00  0.00     0.233 A 
ATOM     25  H5  UNL     1      21.054  -5.125  15.637  1.00  0.00     0.166 HD
HETATM   26  O1  UNL     1      22.374  -3.958  18.197  1.00  0.00    -0.308 OA
ENDBRANCH  12  21
ENDBRANCH  11  12
ENDBRANCH  10  11
ENDBRANCH   9  10
ENDBRANCH   2   8
BRANCH   1  27
HETATM   27  C4  UNL     1      17.409  -6.473  24.124  1.00  0.00    -0.065 C 
HETATM   28  C3  UNL     1      16.524  -6.434  23.278  1.00  0.00    -0.101 C 
BRANCH  28  29
HETATM   29  C2  UNL     1      15.435  -6.355  22.270  1.00  0.00     0.090 C 
HETATM   30  C1  UNL     1      14.162  -6.059  23.066  1.00  0.00     0.018 C 
ENDBRANCH  28  29
ENDBRANCH   1  27
BRANCH   7  31
HETATM   31  C25 UNL     1      16.677  -6.889  26.949  1.00  0.00    -0.041 C 
HETATM   32  C26 UNL     1      15.928  -8.048  26.577  1.00  0.00     0.045 C 
HETATM   33  C27 UNL     1      14.611  -8.013  26.576  1.00  0.00     0.094 C 
HETATM   34  F1  UNL     1      13.925  -9.115  26.220  1.00  0.00    -0.211 F 
HETATM   35  C28 UNL     1      13.826  -6.830  26.976  1.00  0.00     0.070 C 
HETATM   36  C29 UNL     1      14.583  -5.748  27.651  1.00  0.00     0.011 C 
HETATM   37  C30 UNL     1      15.983  -5.601  27.174  1.00  0.00     0.040 C 
ENDBRANCH   7  31
BRANCH   6  38
HETATM   38  O2  UNL     1      18.832  -6.995  28.697  1.00  0.00    -0.329 OA
BRANCH  38  39
HETATM   39  C20 UNL     1      18.747  -8.058  29.564  1.00  0.00     0.148 C 
HETATM   40  C21 UNL     1      19.877  -7.934  30.636  1.00  0.00     0.058 C 
HETATM   41  C22 UNL     1      17.448  -8.105  30.348  1.00  0.00     0.058 C 
BRANCH  39  42
HETATM   42  C23 UNL     1      18.983  -9.403  28.951  1.00  0.00     0.209 C 
HETATM   43  O3  UNL     1      18.150 -10.142  28.453  1.00  0.00    -0.646 OA
HETATM   44  O4  UNL     1      20.324  -9.863  28.943  1.00  0.00    -0.646 OA
ENDBRANCH  39  42
ENDBRANCH  38  39
ENDBRANCH   6  38
TORSDOF 12
ENDMDL
MODEL 5
REMARK VINA RESULT: -7.685827099      0.995      1.268
REMARK  12 active torsions:
REMARK  status: ('A' for Active; 'I' for Inactive)
REMARK    1  A    between atoms: C2_2  and  C3_3 
REMARK    2  A    between atoms: C4_4  and  C5_5 
REMARK    3  A    between atoms: C6_6  and  C7_7 
REMARK    4  A    between atoms: C8_8  and  C9_9 
REMARK    5  A    between atoms: C9_9  and  C10_10 
REMARK    6  A    between atoms: C10_10  and  C11_11 
REMARK    7  A    between atoms: C11_11  and  C12_12 
REMARK    8  A    between atoms: C11_11  and  C13_20 
REMARK    9  A    between atoms: C19_29  and  O2_30 
REMARK   10  A    between atoms: O2_30  and  C20_31 
REMARK   11  A    between atoms: C20_31  and  C23_34 
REMARK   12  A    between atoms: C24_37  and  C25_38 
ROOT
HETATM    1  C5  UNL     1      21.371  -4.390   8.601  1.00  0.00     0.050 A 
HETATM    2  C6  UNL     1      22.652  -4.594   8.070  1.00  0.00     0.043 A 
HETATM    3  C16 UNL     1      22.877  -5.357   6.979  1.00  0.00    -0.039 A 
HETATM    4  C17 UNL     1      24.250  -5.555   6.422  1.00  0.00     0.050 C 
HETATM    5  C18 UNL     1      21.768  -5.952   6.393  1.00  0.00     0.046 A 
HETATM    6  C19 UNL     1      20.504  -5.786   6.885  1.00  0.00     0.083 A 
HETATM    7  C24 UNL     1      20.275  -4.979   8.033  1.00  0.00     0.024 A 
ENDROOT
BRANCH   2   8
HETATM    8  C7  UNL     1      23.773  -4.122   8.845  1.00  0.00    -0.065 C 
HETATM    9  C8  UNL     1      24.751  -3.803   9.491  1.00  0.00    -0.101 C 
BRANCH   9  10
HETATM   10  C9  UNL     1      25.960  -3.513  10.285  1.00  0.00     0.095 C 
BRANCH  10  11
HETATM   11  C10 UNL     1      26.049  -1.994  10.396  1.00  0.00     0.031 C 
BRANCH  11  12
HETATM   12  C11 UNL     1      24.680  -1.382  10.453  1.00  0.00     0.115 C 
BRANCH  12  13
HETATM   13  C12 UNL     1      24.676  -0.082   9.670  1.00  0.00     0.120 A 
HETATM   14  N1  UNL     1      25.703   0.748   9.472  1.00  0.00    -0.270 N 
HETATM   15  N2  UNL     1      25.291   1.785   8.743  1.00  0.00    -0.005 NA
ATOM     16  H1  UNL     1      26.651   0.611   9.823  1.00  0.00     0.185 HD
HETATM   17  N3  UNL     1      23.983   1.610   8.474  1.00  0.00    -0.225 N 
HETATM   18  N4  UNL     1      23.646   0.477   9.045  1.00  0.00    -0.274 N 
ATOM     19  H3  UNL     1      23.379   2.230   7.936  1.00  0.00     0.205 HD
ATOM     20  H4  UNL     1      22.708   0.076   9.014  1.00  0.00     0.189 HD
ENDBRANCH  12  13
BRANCH  12  21
HETATM   21  C13 UNL     1      24.422  -0.965  11.881  1.00  0.00     0.081 A 
HETATM   22  C14 UNL     1      24.472  -1.790  13.010  1.00  0.00     0.123 A 
HETATM   23  N5  UNL     1      24.172  -1.006  14.058  1.00  0.00    -0.354 N 
HETATM   24  C15 UNL     1      23.945   0.247  13.625  1.00  0.00     0.233 A 
ATOM     25  H5  UNL     1      24.123  -1.312  15.030  1.00  0.00     0.166 HD
HETATM   26  O1  UNL     1      24.112   0.207  12.319  1.00  0.00    -0.308 OA
ENDBRANCH  12  21
ENDBRANCH  11  12
ENDBRANCH  10  11
ENDBRANCH   9  10
ENDBRANCH   2   8
BRANCH   1  27
HETATM   27  C4  UNL     1      21.256  -3.514   9.760  1.00  0.00    -0.065 C 
HETATM   28  C3  UNL     1      21.129  -2.744  10.704  1.00  0.00    -0.101 C 
BRANCH  28  29
HETATM   29  C2  UNL     1      20.937  -1.822  11.853  1.00  0.00     0.090 C 
HETATM   30  C1  UNL     1      20.784  -0.429  11.240  1.00  0.00     0.018 C 
ENDBRANCH  28  29
ENDBRANCH   1  27
BRANCH   7  31
HETATM   31  C25 UNL     1      18.886  -4.751   8.517  1.00  0.00    -0.041 C 
HETATM   32  C26 UNL     1      18.248  -5.711   9.361  1.00  0.00     0.045 C 
HETATM   33  C27 UNL     1      16.933  -5.768   9.423  1.00  0.00     0.094 C 
HETATM   34  F1  UNL     1      16.353  -6.682  10.223  1.00  0.00    -0.211 F 
HETATM   35  C28 UNL     1      16.041  -4.858   8.679  1.00  0.00     0.070 C 
HETATM   36  C29 UNL     1      16.691  -3.679   8.058  1.00  0.00     0.011 C 
HETATM   37  C30 UNL     1      18.077  -3.930   7.587  1.00  0.00     0.040 C 
ENDBRANCH   7  31
BRANCH   6  38
HETATM   38  O2  UNL     1      19.439  -6.352   6.316  1.00  0.00    -0.329 OA
BRANCH  38  39
HETATM   39  C20 UNL     1      18.987  -7.629   6.088  1.00  0.00     0.148 C 
HETATM   40  C21 UNL     1      17.425  -7.635   6.149  1.00  0.00     0.058 C 
HETATM   41  C22 UNL     1      19.340  -8.167   4.713  1.00  0.00     0.058 C 
BRANCH  39  42
HETATM   42  C23 UNL     1      19.387  -8.643   7.114  1.00  0.00     0.209 C 
HETATM   43  O3  UNL     1      18.917  -8.785   8.231  1.00  0.00    -0.646 OA
HETATM   44  O4  UNL     1      20.421  -9.538   6.742  1.00  0.00    -0.646 OA
ENDBRANCH  39  42
ENDBRANCH  38  39
ENDBRANCH   6  38
TORSDOF 12
ENDMDL
