MODEL 1
REMARK VINA RESULT: -5.379861494      0.000      0.000
REMARK  3 active torsions:
REMARK  status: ('A' for Active; 'I' for Inactive)
REMARK    1  A    between atoms: C3_3  and  C4_4 
REMARK    2  A    between atoms: C4_4  and  C5_5 
REMARK    3  A    between atoms: C5_5  and  N1_6 
ROOT
HETATM    1  C1  UNL     1     -28.139 -21.864 -30.104  1.00  0.00     0.012 C 
HETATM    2  C2  UNL     1     -26.973 -21.976 -29.797  1.00  0.00    -0.114 C 
HETATM    3  C3  UNL     1     -25.550 -22.090 -29.421  1.00  0.00     0.133 C 
ENDROOT
BRANCH   3   4
HETATM    4  C4  UNL     1     -25.256 -23.557 -29.194  1.00  0.00     0.096 C 
HETATM    5  C6  UNL     1     -23.906 -23.877 -28.657  1.00  0.00     0.067 C 
HETATM    6  C7  UNL     1     -24.659 -24.686 -27.597  1.00  0.00     0.172 C 
HETATM    7  O1  UNL     1     -25.824 -24.052 -28.024  1.00  0.00    -0.377 OA
BRANCH   4   8
HETATM    8  C5  UNL     1     -25.708 -24.361 -30.396  1.00  0.00     0.268 C 
BRANCH   8   9
HETATM    9  N1  UNL     1     -24.585 -24.757 -31.223  1.00  0.00    -0.076 N 
ATOM     10  H13 UNL     1     -23.698 -24.458 -30.817  1.00  0.00     0.274 HD
ATOM     11  H12 UNL     1     -24.439 -25.766 -31.195  1.00  0.00     0.274 HD
ATOM     12  H11 UNL     1     -24.688 -24.422 -32.181  1.00  0.00     0.274 HD
ENDBRANCH   8   9
ENDBRANCH   4   8
ENDBRANCH   3   4
TORSDOF 3
ENDMDL
MODEL 2
REMARK VINA RESULT: -5.256902816      2.488      3.533
REMARK  3 active torsions:
REMARK  status: ('A' for Active; 'I' for Inactive)
REMARK    1  A    between atoms: C3_3  and  C4_4 
REMARK    2  A    between atoms: C4_4  and  C5_5 
REMARK    3  A    between atoms: C5_5  and  N1_6 
ROOT
HETATM    1  C1  UNL     1     -24.067 -22.454 -28.685  1.00  0.00     0.012 C 
HETATM    2  C2  UNL     1     -25.262 -22.297 -28.808  1.00  0.00    -0.114 C 
HETATM    3  C3  UNL     1     -26.718 -22.090 -28.939  1.00  0.00     0.133 C 
ENDROOT
BRANCH   3   4
HETATM    4  C4  UNL     1     -27.150 -22.722 -30.245  1.00  0.00     0.096 C 
HETATM    5  C6  UNL     1     -26.174 -23.649 -30.877  1.00  0.00     0.067 C 
HETATM    6  C7  UNL     1     -27.343 -24.636 -30.936  1.00  0.00     0.172 C 
HETATM    7  O1  UNL     1     -28.029 -23.787 -30.070  1.00  0.00    -0.377 OA
BRANCH   4   8
HETATM    8  C5  UNL     1     -27.755 -21.666 -31.147  1.00  0.00     0.268 C 
BRANCH   8   9
HETATM    9  N1  UNL     1     -29.029 -21.197 -30.637  1.00  0.00    -0.076 N 
ATOM     10  H13 UNL     1     -28.966 -20.236 -30.301  1.00  0.00     0.274 HD
ATOM     11  H12 UNL     1     -29.703 -21.058 -31.389  1.00  0.00     0.274 HD
ATOM     12  H11 UNL     1     -29.395 -21.821 -29.918  1.00  0.00     0.274 HD
ENDBRANCH   8   9
ENDBRANCH   4   8
ENDBRANCH   3   4
TORSDOF 3
ENDMDL
MODEL 3
REMARK VINA RESULT: -5.241373578      2.128      3.759
REMARK  3 active torsions:
REMARK  status: ('A' for Active; 'I' for Inactive)
REMARK    1  A    between atoms: C3_3  and  C4_4 
REMARK    2  A    between atoms: C4_4  and  C5_5 
REMARK    3  A    between atoms: C5_5  and  N1_6 
ROOT
HETATM    1  C1  UNL     1     -24.268 -24.611 -28.304  1.00  0.00     0.012 C 
HETATM    2  C2  UNL     1     -24.703 -24.630 -29.435  1.00  0.00    -0.114 C 
HETATM    3  C3  UNL     1     -25.215 -24.666 -30.819  1.00  0.00     0.133 C 
ENDROOT
BRANCH   3   4
HETATM    4  C4  UNL     1     -26.598 -24.050 -30.808  1.00  0.00     0.096 C 
HETATM    5  C6  UNL     1     -27.468 -24.378 -31.969  1.00  0.00     0.067 C 
HETATM    6  C7  UNL     1     -28.507 -24.772 -30.916  1.00  0.00     0.172 C 
HETATM    7  O1  UNL     1     -27.485 -24.719 -29.970  1.00  0.00    -0.377 OA
BRANCH   4   8
HETATM    8  C5  UNL     1     -26.501 -22.585 -30.433  1.00  0.00     0.268 C 
BRANCH   8   9
HETATM    9  N1  UNL     1     -27.027 -21.733 -31.482  1.00  0.00    -0.076 N 
ATOM     10  H13 UNL     1     -26.560 -21.906 -32.373  1.00  0.00     0.274 HD
ATOM     11  H12 UNL     1     -27.974 -22.005 -31.745  1.00  0.00     0.274 HD
ATOM     12  H11 UNL     1     -26.980 -20.747 -31.222  1.00  0.00     0.274 HD
ENDBRANCH   8   9
ENDBRANCH   4   8
ENDBRANCH   3   4
TORSDOF 3
ENDMDL
MODEL 4
REMARK VINA RESULT: -5.065435908      2.116      2.913
REMARK  3 active torsions:
REMARK  status: ('A' for Active; 'I' for Inactive)
REMARK    1  A    between atoms: C3_3  and  C4_4 
REMARK    2  A    between atoms: C4_4  and  C5_5 
REMARK    3  A    between atoms: C5_5  and  N1_6 
ROOT
HETATM    1  C1  UNL     1     -24.804 -22.141 -28.291  1.00  0.00     0.012 C 
HETATM    2  C2  UNL     1     -25.860 -22.327 -28.854  1.00  0.00    -0.114 C 
HETATM    3  C3  UNL     1     -27.156 -22.532 -29.531  1.00  0.00     0.133 C 
ENDROOT
BRANCH   3   4
HETATM    4  C4  UNL     1     -26.997 -23.710 -30.468  1.00  0.00     0.096 C 
HETATM    5  C6  UNL     1     -25.719 -23.773 -31.227  1.00  0.00     0.067 C 
HETATM    6  C7  UNL     1     -25.622 -25.206 -30.697  1.00  0.00     0.172 C 
HETATM    7  O1  UNL     1     -26.649 -24.886 -29.811  1.00  0.00    -0.377 OA
BRANCH   4   8
HETATM    8  C5  UNL     1     -28.267 -23.896 -31.273  1.00  0.00     0.268 C 
BRANCH   8   9
HETATM    9  N1  UNL     1     -28.957 -25.116 -30.902  1.00  0.00    -0.076 N 
ATOM     10  H13 UNL     1     -29.968 -24.984 -30.890  1.00  0.00     0.274 HD
ATOM     11  H12 UNL     1     -28.898 -25.818 -31.639  1.00  0.00     0.274 HD
ATOM     12  H11 UNL     1     -28.619 -25.481 -30.011  1.00  0.00     0.274 HD
ENDBRANCH   8   9
ENDBRANCH   4   8
ENDBRANCH   3   4
TORSDOF 3
ENDMDL
MODEL 5
REMARK VINA RESULT: -5.062021981      1.623      2.807
REMARK  3 active torsions:
REMARK  status: ('A' for Active; 'I' for Inactive)
REMARK    1  A    between atoms: C3_3  and  C4_4 
REMARK    2  A    between atoms: C4_4  and  C5_5 
REMARK    3  A    between atoms: C5_5  and  N1_6 
ROOT
HETATM    1  C1  UNL     1     -27.425 -24.984 -32.060  1.00  0.00     0.012 C 
HETATM    2  C2  UNL     1     -26.439 -24.703 -31.415  1.00  0.00    -0.114 C 
HETATM    3  C3  UNL     1     -25.224 -24.369 -30.647  1.00  0.00     0.133 C 
ENDROOT
BRANCH   3   4
HETATM    4  C4  UNL     1     -25.663 -23.634 -29.398  1.00  0.00     0.096 C 
HETATM    5  C6  UNL     1     -25.542 -22.152 -29.436  1.00  0.00     0.067 C 
HETATM    6  C7  UNL     1     -27.005 -22.148 -28.987  1.00  0.00     0.172 C 
HETATM    7  O1  UNL     1     -27.045 -23.505 -29.300  1.00  0.00    -0.377 OA
BRANCH   4   8
HETATM    8  C5  UNL     1     -25.096 -24.324 -28.174  1.00  0.00     0.268 C 
BRANCH   8   9
HETATM    9  N1  UNL     1     -23.649 -24.242 -28.141  1.00  0.00    -0.076 N 
ATOM     10  H13 UNL     1     -23.222 -24.933 -28.759  1.00  0.00     0.274 HD
ATOM     11  H12 UNL     1     -23.312 -23.394 -28.595  1.00  0.00     0.274 HD
ATOM     12  H11 UNL     1     -23.291 -24.323 -27.189  1.00  0.00     0.274 HD
ENDBRANCH   8   9
ENDBRANCH   4   8
ENDBRANCH   3   4
TORSDOF 3
ENDMDL
