MODEL 1
REMARK VINA RESULT: -4.536331471      0.000      0.000
REMARK  3 active torsions:
REMARK  status: ('A' for Active; 'I' for Inactive)
REMARK    1  A    between atoms: N1_1  and  C1_5 
REMARK    2  A    between atoms: C1_5  and  C2_6 
REMARK    3  A    between atoms: C2_6  and  N2_7 
ROOT
HETATM    1  C2  UNL     1     -25.217 -24.850 -30.691  1.00  0.00     0.300 C 
ENDROOT
BRANCH   1   2
HETATM    2  C1  UNL     1     -26.521 -24.759 -31.451  1.00  0.00     0.259 C 
BRANCH   2   3
HETATM    3  N1  UNL     1     -26.736 -23.429 -31.996  1.00  0.00    -0.078 N 
ATOM      4  H13 UNL     1     -26.753 -22.724 -31.259  1.00  0.00     0.274 HD
ATOM      5  H12 UNL     1     -25.919 -23.103 -32.511  1.00  0.00     0.274 HD
ATOM      6  H11 UNL     1     -27.578 -23.387 -32.570  1.00  0.00     0.274 HD
ENDBRANCH   2   3
ENDBRANCH   1   2
BRANCH   1   7
HETATM    7  N2  UNL     1     -24.972 -23.620 -29.975  1.00  0.00     0.099 N 
HETATM    8  C3  UNL     1     -23.744 -23.475 -29.264  1.00  0.00     0.227 C 
HETATM    9  C4  UNL     1     -24.486 -22.471 -28.405  1.00  0.00     0.071 C 
HETATM   10  C6  UNL     1     -24.203 -24.500 -28.309  1.00  0.00     0.071 C 
HETATM   11  C5  UNL     1     -25.402 -23.658 -28.587  1.00  0.00     0.227 C 
ENDBRANCH   1   7
TORSDOF 3
ENDMDL
MODEL 2
REMARK VINA RESULT: -4.372385732      1.648      2.263
REMARK  3 active torsions:
REMARK  status: ('A' for Active; 'I' for Inactive)
REMARK    1  A    between atoms: N1_1  and  C1_5 
REMARK    2  A    between atoms: C1_5  and  C2_6 
REMARK    3  A    between atoms: C2_6  and  N2_7 
ROOT
HETATM    1  C2  UNL     1     -26.700 -22.087 -29.210  1.00  0.00     0.300 C 
ENDROOT
BRANCH   1   2
HETATM    2  C1  UNL     1     -27.701 -22.168 -30.340  1.00  0.00     0.259 C 
BRANCH   2   3
HETATM    3  N1  UNL     1     -27.163 -21.629 -31.577  1.00  0.00    -0.078 N 
ATOM      4  H13 UNL     1     -27.158 -22.331 -32.317  1.00  0.00     0.274 HD
ATOM      5  H12 UNL     1     -27.804 -20.957 -31.999  1.00  0.00     0.274 HD
ATOM      6  H11 UNL     1     -26.237 -21.224 -31.443  1.00  0.00     0.274 HD
ENDBRANCH   2   3
ENDBRANCH   1   2
BRANCH   1   7
HETATM    7  N2  UNL     1     -26.048 -23.363 -29.030  1.00  0.00     0.099 N 
HETATM    8  C3  UNL     1     -25.156 -23.526 -27.930  1.00  0.00     0.227 C 
HETATM    9  C4  UNL     1     -24.511 -24.621 -28.757  1.00  0.00     0.071 C 
HETATM   10  C6  UNL     1     -24.216 -22.598 -28.584  1.00  0.00     0.071 C 
HETATM   11  C5  UNL     1     -24.752 -23.452 -29.683  1.00  0.00     0.227 C 
ENDBRANCH   1   7
TORSDOF 3
ENDMDL
MODEL 3
REMARK VINA RESULT: -4.349324594      1.656      2.139
REMARK  3 active torsions:
REMARK  status: ('A' for Active; 'I' for Inactive)
REMARK    1  A    between atoms: N1_1  and  C1_5 
REMARK    2  A    between atoms: C1_5  and  C2_6 
REMARK    3  A    between atoms: C2_6  and  N2_7 
ROOT
HETATM    1  C2  UNL     1     -26.890 -22.061 -29.163  1.00  0.00     0.300 C 
ENDROOT
BRANCH   1   2
HETATM    2  C1  UNL     1     -27.797 -22.064 -30.373  1.00  0.00     0.259 C 
BRANCH   2   3
HETATM    3  N1  UNL     1     -27.097 -21.637 -31.573  1.00  0.00    -0.078 N 
ATOM      4  H13 UNL     1     -26.105 -21.484 -31.389  1.00  0.00     0.274 HD
ATOM      5  H12 UNL     1     -27.019 -22.397 -32.248  1.00  0.00     0.274 HD
ATOM      6  H11 UNL     1     -27.528 -20.813 -31.990  1.00  0.00     0.274 HD
ENDBRANCH   2   3
ENDBRANCH   1   2
BRANCH   1   7
HETATM    7  N2  UNL     1     -25.545 -22.417 -29.549  1.00  0.00     0.099 N 
HETATM    8  C3  UNL     1     -25.154 -23.787 -29.482  1.00  0.00     0.227 C 
HETATM    9  C4  UNL     1     -23.737 -23.263 -29.352  1.00  0.00     0.071 C 
HETATM   10  C6  UNL     1     -25.224 -23.711 -28.012  1.00  0.00     0.071 C 
HETATM   11  C5  UNL     1     -24.603 -22.425 -28.441  1.00  0.00     0.227 C 
ENDBRANCH   1   7
TORSDOF 3
ENDMDL
MODEL 4
REMARK VINA RESULT: -4.347506923      1.432      1.961
REMARK  3 active torsions:
REMARK  status: ('A' for Active; 'I' for Inactive)
REMARK    1  A    between atoms: N1_1  and  C1_5 
REMARK    2  A    between atoms: C1_5  and  C2_6 
REMARK    3  A    between atoms: C2_6  and  N2_7 
ROOT
HETATM    1  C2  UNL     1     -26.628 -24.224 -30.220  1.00  0.00     0.300 C 
ENDROOT
BRANCH   1   2
HETATM    2  C1  UNL     1     -26.187 -25.019 -31.428  1.00  0.00     0.259 C 
BRANCH   2   3
HETATM    3  N1  UNL     1     -24.815 -25.483 -31.297  1.00  0.00    -0.078 N 
ATOM      4  H13 UNL     1     -24.712 -26.439 -31.637  1.00  0.00     0.274 HD
ATOM      5  H12 UNL     1     -24.199 -25.010 -31.958  1.00  0.00     0.274 HD
ATOM      6  H11 UNL     1     -24.474 -25.390 -30.340  1.00  0.00     0.274 HD
ENDBRANCH   2   3
ENDBRANCH   1   2
BRANCH   1   7
HETATM    7  N2  UNL     1     -25.480 -23.669 -29.544  1.00  0.00     0.099 N 
HETATM    8  C3  UNL     1     -25.633 -23.204 -28.204  1.00  0.00     0.227 C 
HETATM    9  C4  UNL     1     -24.440 -22.314 -28.492  1.00  0.00     0.071 C 
HETATM   10  C6  UNL     1     -26.469 -22.100 -28.708  1.00  0.00     0.071 C 
HETATM   11  C5  UNL     1     -25.355 -22.228 -29.691  1.00  0.00     0.227 C 
ENDBRANCH   1   7
TORSDOF 3
ENDMDL
MODEL 5
REMARK VINA RESULT: -4.332578214      1.643      2.242
REMARK  3 active torsions:
REMARK  status: ('A' for Active; 'I' for Inactive)
REMARK    1  A    between atoms: N1_1  and  C1_5 
REMARK    2  A    between atoms: C1_5  and  C2_6 
REMARK    3  A    between atoms: C2_6  and  N2_7 
ROOT
HETATM    1  C2  UNL     1     -25.835 -22.154 -29.760  1.00  0.00     0.300 C 
ENDROOT
BRANCH   1   2
HETATM    2  C1  UNL     1     -27.292 -22.080 -29.362  1.00  0.00     0.259 C 
BRANCH   2   3
HETATM    3  N1  UNL     1     -28.116 -21.540 -30.429  1.00  0.00    -0.078 N 
ATOM      4  H13 UNL     1     -29.103 -21.745 -30.277  1.00  0.00     0.274 HD
ATOM      5  H12 UNL     1     -28.156 -20.521 -30.388  1.00  0.00     0.274 HD
ATOM      6  H11 UNL     1     -27.808 -21.862 -31.347  1.00  0.00     0.274 HD
ENDBRANCH   2   3
ENDBRANCH   1   2
BRANCH   1   7
HETATM    7  N2  UNL     1     -25.120 -23.035 -28.867  1.00  0.00     0.099 N 
HETATM    8  C3  UNL     1     -23.873 -23.579 -29.295  1.00  0.00     0.227 C 
HETATM    9  C4  UNL     1     -24.148 -24.699 -28.311  1.00  0.00     0.071 C 
HETATM   10  C6  UNL     1     -24.596 -24.393 -30.289  1.00  0.00     0.071 C 
HETATM   11  C5  UNL     1     -25.436 -24.442 -29.057  1.00  0.00     0.227 C 
ENDBRANCH   1   7
TORSDOF 3
ENDMDL
