MODEL 1
REMARK VINA RESULT: -4.707535136      0.000      0.000
REMARK  2 active torsions:
REMARK  status: ('A' for Active; 'I' for Inactive)
REMARK    1  A    between atoms: C2_4  and  C3_5 
REMARK    2  A    between atoms: C3_5  and  N2_6 
ROOT
HETATM    1  N2  UNL     1     -25.492 -22.984 -28.856  1.00  0.00    -0.349 N 
HETATM    2  C4  UNL     1     -25.476 -24.321 -28.794  1.00  0.00     0.108 A 
HETATM    3  C5  UNL     1     -24.191 -24.772 -28.631  1.00  0.00     0.106 A 
HETATM    4  N3  UNL     1     -23.437 -23.660 -28.598  1.00  0.00    -0.361 N 
ATOM      5  H3  UNL     1     -22.423 -23.641 -28.487  1.00  0.00     0.166 HD
HETATM    6  C6  UNL     1     -24.220 -22.578 -28.734  1.00  0.00     0.182 A 
ENDROOT
BRANCH   1   7
HETATM    7  C3  UNL     1     -26.669 -22.113 -29.026  1.00  0.00     0.159 C 
BRANCH   7   8
HETATM    8  C2  UNL     1     -27.085 -22.060 -30.489  1.00  0.00     0.137 A 
HETATM    9  C1  UNL     1     -28.505 -21.739 -30.788  1.00  0.00     0.083 A 
HETATM   10  N1  UNL     1     -28.124 -22.948 -30.913  1.00  0.00    -0.390 N 
ATOM     11  H1  UNL     1     -28.384 -23.905 -31.154  1.00  0.00     0.159 HD
ENDBRANCH   7   8
ENDBRANCH   1   7
TORSDOF 2
ENDMDL
MODEL 2
REMARK VINA RESULT: -4.481263158      1.687      2.103
REMARK  2 active torsions:
REMARK  status: ('A' for Active; 'I' for Inactive)
REMARK    1  A    between atoms: C2_4  and  C3_5 
REMARK    2  A    between atoms: C3_5  and  N2_6 
ROOT
HETATM    1  N2  UNL     1     -25.309 -23.761 -29.891  1.00  0.00    -0.349 N 
HETATM    2  C4  UNL     1     -25.318 -22.526 -29.374  1.00  0.00     0.108 A 
HETATM    3  C5  UNL     1     -24.346 -22.408 -28.413  1.00  0.00     0.106 A 
HETATM    4  N3  UNL     1     -23.756 -23.616 -28.370  1.00  0.00    -0.361 N 
ATOM      5  H3  UNL     1     -22.985 -23.870 -27.754  1.00  0.00     0.166 HD
HETATM    6  C6  UNL     1     -24.336 -24.434 -29.262  1.00  0.00     0.182 A 
ENDROOT
BRANCH   1   7
HETATM    7  C3  UNL     1     -26.193 -24.292 -30.945  1.00  0.00     0.159 C 
BRANCH   7   8
HETATM    8  C2  UNL     1     -27.634 -24.338 -30.458  1.00  0.00     0.137 A 
HETATM    9  C1  UNL     1     -28.661 -24.852 -31.401  1.00  0.00     0.083 A 
HETATM   10  N1  UNL     1     -28.606 -23.595 -31.200  1.00  0.00    -0.390 N 
ATOM     11  H1  UNL     1     -28.994 -22.677 -31.421  1.00  0.00     0.159 HD
ENDBRANCH   7   8
ENDBRANCH   1   7
TORSDOF 2
ENDMDL
MODEL 3
REMARK VINA RESULT: -4.390174017      1.658      1.755
REMARK  2 active torsions:
REMARK  status: ('A' for Active; 'I' for Inactive)
REMARK    1  A    between atoms: C2_4  and  C3_5 
REMARK    2  A    between atoms: C3_5  and  N2_6 
ROOT
HETATM    1  N2  UNL     1     -25.491 -23.437 -29.778  1.00  0.00    -0.349 N 
HETATM    2  C4  UNL     1     -24.869 -24.584 -29.483  1.00  0.00     0.108 A 
HETATM    3  C5  UNL     1     -23.885 -24.364 -28.553  1.00  0.00     0.106 A 
HETATM    4  N3  UNL     1     -23.938 -23.044 -28.303  1.00  0.00    -0.361 N 
ATOM      5  H3  UNL     1     -23.333 -22.546 -27.650  1.00  0.00     0.166 HD
HETATM    6  C6  UNL     1     -24.907 -22.482 -29.041  1.00  0.00     0.182 A 
ENDROOT
BRANCH   1   7
HETATM    7  C3  UNL     1     -26.603 -23.244 -30.728  1.00  0.00     0.159 C 
BRANCH   7   8
HETATM    8  C2  UNL     1     -27.628 -24.359 -30.578  1.00  0.00     0.137 A 
HETATM    9  C1  UNL     1     -28.083 -25.043 -31.817  1.00  0.00     0.083 A 
HETATM   10  N1  UNL     1     -28.873 -24.208 -31.268  1.00  0.00    -0.390 N 
ATOM     11  H1  UNL     1     -29.782 -23.745 -31.300  1.00  0.00     0.159 HD
ENDBRANCH   7   8
ENDBRANCH   1   7
TORSDOF 2
ENDMDL
MODEL 4
REMARK VINA RESULT: -4.346827699      0.750      1.239
REMARK  2 active torsions:
REMARK  status: ('A' for Active; 'I' for Inactive)
REMARK    1  A    between atoms: C2_4  and  C3_5 
REMARK    2  A    between atoms: C3_5  and  N2_6 
ROOT
HETATM    1  N2  UNL     1     -25.729 -23.055 -29.081  1.00  0.00    -0.349 N 
HETATM    2  C4  UNL     1     -24.488 -22.760 -28.676  1.00  0.00     0.108 A 
HETATM    3  C5  UNL     1     -23.686 -23.870 -28.758  1.00  0.00     0.106 A 
HETATM    4  N3  UNL     1     -24.490 -24.842 -29.224  1.00  0.00    -0.361 N 
ATOM      5  H3  UNL     1     -24.205 -25.805 -29.403  1.00  0.00     0.166 HD
HETATM    6  C6  UNL     1     -25.724 -24.352 -29.421  1.00  0.00     0.182 A 
ENDROOT
BRANCH   1   7
HETATM    7  C3  UNL     1     -26.886 -22.144 -29.145  1.00  0.00     0.159 C 
BRANCH   7   8
HETATM    8  C2  UNL     1     -27.383 -22.017 -30.578  1.00  0.00     0.137 A 
HETATM    9  C1  UNL     1     -28.805 -21.634 -30.779  1.00  0.00     0.083 A 
HETATM   10  N1  UNL     1     -28.478 -22.850 -30.974  1.00  0.00    -0.390 N 
ATOM     11  H1  UNL     1     -28.787 -23.787 -31.236  1.00  0.00     0.159 HD
ENDBRANCH   7   8
ENDBRANCH   1   7
TORSDOF 2
ENDMDL
MODEL 5
REMARK VINA RESULT: -4.342052910      1.219      4.227
REMARK  2 active torsions:
REMARK  status: ('A' for Active; 'I' for Inactive)
REMARK    1  A    between atoms: C2_4  and  C3_5 
REMARK    2  A    between atoms: C3_5  and  N2_6 
ROOT
HETATM    1  N2  UNL     1     -27.059 -23.384 -30.051  1.00  0.00    -0.349 N 
HETATM    2  C4  UNL     1     -28.035 -23.386 -30.967  1.00  0.00     0.108 A 
HETATM    3  C5  UNL     1     -28.717 -22.196 -30.934  1.00  0.00     0.106 A 
HETATM    4  N3  UNL     1     -28.118 -21.482 -29.966  1.00  0.00    -0.361 N 
ATOM      5  H3  UNL     1     -28.384 -20.540 -29.681  1.00  0.00     0.166 HD
HETATM    6  C6  UNL     1     -27.116 -22.197 -29.431  1.00  0.00     0.182 A 
ENDROOT
BRANCH   1   7
HETATM    7  C3  UNL     1     -26.102 -24.468 -29.767  1.00  0.00     0.159 C 
BRANCH   7   8
HETATM    8  C2  UNL     1     -25.198 -24.088 -28.603  1.00  0.00     0.137 A 
HETATM    9  C1  UNL     1     -23.775 -23.784 -28.910  1.00  0.00     0.083 A 
HETATM   10  N1  UNL     1     -24.046 -24.904 -28.367  1.00  0.00    -0.390 N 
ATOM     11  H1  UNL     1     -23.685 -25.788 -28.006  1.00  0.00     0.159 HD
ENDBRANCH   7   8
ENDBRANCH   1   7
TORSDOF 2
ENDMDL
