MODEL 1
REMARK VINA RESULT: -8.475541371      0.000      0.000
REMARK  9 active torsions:
REMARK  status: ('A' for Active; 'I' for Inactive)
REMARK    1  A    between atoms: O1_2  and  C2_3 
REMARK    2  A    between atoms: C3_4  and  O2_5 
REMARK    3  A    between atoms: C4_7  and  C5_8 
REMARK    4  A    between atoms: N1_9  and  N2_11 
REMARK       I    between atoms: N2_11  and  C6_13 
REMARK    5  A    between atoms: C10_20  and  O4_21 
REMARK    6  A    between atoms: O4_21  and  C11_22 
REMARK    7  A    between atoms: C12_23  and  O5_24 
REMARK    8  A    between atoms: C12_23  and  C13_26 
REMARK    9  A    between atoms: C16_32  and  O8_33 
ROOT
HETATM    1  C2  UNL     1     -16.838  -9.198  18.499  1.00  0.00     0.136 A 
HETATM    2  C3  UNL     1     -15.757  -8.858  17.627  1.00  0.00     0.116 A 
HETATM    3  C4  UNL     1     -15.369  -9.734  16.662  1.00  0.00     0.045 A 
HETATM    4  C8  UNL     1     -16.017 -10.974  16.518  1.00  0.00     0.064 A 
HETATM    5  N3  UNL     1     -15.688 -11.853  15.572  1.00  0.00    -0.361 N 
ATOM      6  H3  UNL     1     -14.919 -11.640  14.936  1.00  0.00     0.165 HD
HETATM    7  C9  UNL     1     -16.353 -13.020  15.440  1.00  0.00     0.130 A 
HETATM    8  C10 UNL     1     -17.408 -13.359  16.278  1.00  0.00     0.141 A 
HETATM    9  C14 UNL     1     -17.780 -12.490  17.262  1.00  0.00     0.222 A 
HETATM   10  O7  UNL     1     -18.721 -12.739  18.059  1.00  0.00    -0.284 OA
HETATM   11  C15 UNL     1     -17.077 -11.289  17.383  1.00  0.00     0.081 A 
HETATM   12  C16 UNL     1     -17.461 -10.401  18.352  1.00  0.00     0.118 A 
ENDROOT
BRANCH   3  13
HETATM   13  C5  UNL     1     -14.396  -9.386  15.642  1.00  0.00     0.123 C 
HETATM   14  N1  UNL     1     -13.257  -9.037  15.973  1.00  0.00    -0.308 N 
ATOM     15  H1  UNL     1     -13.172  -9.054  16.990  1.00  0.00     0.186 HD
BRANCH  14  16
HETATM   16  N2  UNL     1     -12.078  -8.636  15.417  1.00  0.00    -0.271 N 
HETATM   17  C6  UNL     1     -12.047  -7.373  14.794  1.00  0.00     0.232 C 
HETATM   18  C7  UNL     1     -10.823  -6.800  14.217  1.00  0.00     0.119 C 
HETATM   19  O3  UNL     1     -13.095  -6.629  14.696  1.00  0.00    -0.272 OA
ATOM     20  H2  UNL     1     -11.249  -9.228  15.452  1.00  0.00     0.190 HD
ENDBRANCH  14  16
ENDBRANCH   3  13
BRANCH   2  21
HETATM   21  O2  UNL     1     -15.198  -7.645  17.866  1.00  0.00    -0.357 OA
ATOM     22  H2  UNL     1     -14.920  -7.177  17.087  1.00  0.00     0.217 HD
ENDBRANCH   2  21
BRANCH   1  23
HETATM   23  O1  UNL     1     -17.205  -8.287  19.446  1.00  0.00    -0.351 OA
HETATM   24  C1  UNL     1     -18.211  -7.363  19.335  1.00  0.00     0.210 C 
ENDBRANCH   1  23
BRANCH  12  25
HETATM   25  O8  UNL     1     -18.527 -10.730  19.217  1.00  0.00    -0.357 OA
ATOM     26  H8  UNL     1     -18.415 -11.442  19.836  1.00  0.00     0.217 HD
ENDBRANCH  12  25
BRANCH   8  27
HETATM   27  O4  UNL     1     -18.053 -14.576  16.048  1.00  0.00    -0.314 OA
BRANCH  27  28
HETATM   28  C11 UNL     1     -17.457 -15.716  16.018  1.00  0.00     0.184 C 
HETATM   29  C12 UNL     1     -17.584 -16.960  16.721  1.00  0.00     0.153 C 
BRANCH  29  30
HETATM   30  O5  UNL     1     -16.942 -18.001  16.267  1.00  0.00    -0.355 OA
ATOM     31  H5  UNL     1     -17.315 -18.863  16.410  1.00  0.00     0.218 HD
ENDBRANCH  29  30
BRANCH  29  32
HETATM   32  C13 UNL     1     -18.376 -17.154  17.925  1.00  0.00     0.289 C 
HETATM   33  N4  UNL     1     -18.494 -18.453  18.440  1.00  0.00    -0.055 NA
HETATM   34  O6  UNL     1     -18.915 -16.127  18.425  1.00  0.00    -0.269 OA
ENDBRANCH  29  32
ENDBRANCH  27  28
ENDBRANCH   8  27
TORSDOF 9
ENDMDL
MODEL 2
REMARK VINA RESULT: -8.464569556      2.302      7.909
REMARK  9 active torsions:
REMARK  status: ('A' for Active; 'I' for Inactive)
REMARK    1  A    between atoms: O1_2  and  C2_3 
REMARK    2  A    between atoms: C3_4  and  O2_5 
REMARK    3  A    between atoms: C4_7  and  C5_8 
REMARK    4  A    between atoms: N1_9  and  N2_11 
REMARK       I    between atoms: N2_11  and  C6_13 
REMARK    5  A    between atoms: C10_20  and  O4_21 
REMARK    6  A    between atoms: O4_21  and  C11_22 
REMARK    7  A    between atoms: C12_23  and  O5_24 
REMARK    8  A    between atoms: C12_23  and  C13_26 
REMARK    9  A    between atoms: C16_32  and  O8_33 
ROOT
HETATM    1  C2  UNL     1     -16.159  -8.364  18.758  1.00  0.00     0.136 A 
HETATM    2  C3  UNL     1     -16.698  -9.498  18.074  1.00  0.00     0.116 A 
HETATM    3  C4  UNL     1     -16.043 -10.007  16.996  1.00  0.00     0.045 A 
HETATM    4  C8  UNL     1     -14.845  -9.425  16.546  1.00  0.00     0.064 A 
HETATM    5  N3  UNL     1     -14.156  -9.904  15.511  1.00  0.00    -0.361 N 
ATOM      6  H3  UNL     1     -14.515 -10.712  15.000  1.00  0.00     0.165 HD
HETATM    7  C9  UNL     1     -12.992  -9.342  15.124  1.00  0.00     0.130 A 
HETATM    8  C10 UNL     1     -12.455  -8.243  15.785  1.00  0.00     0.141 A 
HETATM    9  C14 UNL     1     -13.127  -7.717  16.851  1.00  0.00     0.222 A 
HETATM   10  O7  UNL     1     -12.701  -6.720  17.488  1.00  0.00    -0.284 OA
HETATM   11  C15 UNL     1     -14.332  -8.313  17.232  1.00  0.00     0.081 A 
HETATM   12  C16 UNL     1     -14.997  -7.807  18.316  1.00  0.00     0.118 A 
ENDROOT
BRANCH   3  13
HETATM   13  C5  UNL     1     -16.442 -11.250  16.361  1.00  0.00     0.123 C 
HETATM   14  N1  UNL     1     -17.014 -12.123  17.023  1.00  0.00    -0.308 N 
ATOM     15  H1  UNL     1     -17.129 -11.806  17.986  1.00  0.00     0.186 HD
BRANCH  14  16
HETATM   16  N2  UNL     1     -17.540 -13.373  16.882  1.00  0.00    -0.271 N 
HETATM   17  C6  UNL     1     -18.734 -13.660  17.573  1.00  0.00     0.232 C 
HETATM   18  C7  UNL     1     -19.435 -14.946  17.452  1.00  0.00     0.119 C 
HETATM   19  O3  UNL     1     -19.298 -12.805  18.356  1.00  0.00    -0.272 OA
ATOM     20  H2  UNL     1     -17.087 -14.075  16.298  1.00  0.00     0.190 HD
ENDBRANCH  14  16
ENDBRANCH   3  13
BRANCH   2  21
HETATM   21  O2  UNL     1     -17.863  -9.967  18.587  1.00  0.00    -0.357 OA
ATOM     22  H2  UNL     1     -17.774 -10.423  19.416  1.00  0.00     0.217 HD
ENDBRANCH   2  21
BRANCH   1  23
HETATM   23  O1  UNL     1     -16.840  -7.891  19.842  1.00  0.00    -0.351 OA
HETATM   24  C1  UNL     1     -17.728  -6.847  19.849  1.00  0.00     0.210 C 
ENDBRANCH   1  23
BRANCH  12  25
HETATM   25  O8  UNL     1     -14.472  -6.687  18.997  1.00  0.00    -0.357 OA
ATOM     26  H8  UNL     1     -14.915  -5.850  18.916  1.00  0.00     0.217 HD
ENDBRANCH  12  25
BRANCH   8  27
HETATM   27  O4  UNL     1     -11.233  -7.746  15.330  1.00  0.00    -0.314 OA
BRANCH  27  28
HETATM   28  C11 UNL     1     -11.075  -7.120  14.217  1.00  0.00     0.184 C 
HETATM   29  C12 UNL     1     -10.885  -7.496  12.846  1.00  0.00     0.153 C 
BRANCH  29  30
HETATM   30  O5  UNL     1     -10.985  -6.574  11.927  1.00  0.00    -0.355 OA
ATOM     31  H5  UNL     1     -10.214  -6.355  11.418  1.00  0.00     0.218 HD
ENDBRANCH  29  30
BRANCH  29  32
HETATM   32  C13 UNL     1     -10.574  -8.841  12.391  1.00  0.00     0.289 C 
HETATM   33  N4  UNL     1      -9.865  -9.687  13.257  1.00  0.00    -0.055 NA
HETATM   34  O6  UNL     1     -10.963  -9.156  11.232  1.00  0.00    -0.269 OA
ENDBRANCH  29  32
ENDBRANCH  27  28
ENDBRANCH   8  27
TORSDOF 9
ENDMDL
MODEL 3
REMARK VINA RESULT: -8.401745428      1.209      1.390
REMARK  9 active torsions:
REMARK  status: ('A' for Active; 'I' for Inactive)
REMARK    1  A    between atoms: O1_2  and  C2_3 
REMARK    2  A    between atoms: C3_4  and  O2_5 
REMARK    3  A    between atoms: C4_7  and  C5_8 
REMARK    4  A    between atoms: N1_9  and  N2_11 
REMARK       I    between atoms: N2_11  and  C6_13 
REMARK    5  A    between atoms: C10_20  and  O4_21 
REMARK    6  A    between atoms: O4_21  and  C11_22 
REMARK    7  A    between atoms: C12_23  and  O5_24 
REMARK    8  A    between atoms: C12_23  and  C13_26 
REMARK    9  A    between atoms: C16_32  and  O8_33 
ROOT
HETATM    1  C2  UNL     1     -15.368  -8.538  18.378  1.00  0.00     0.136 A 
HETATM    2  C3  UNL     1     -14.282  -8.405  17.456  1.00  0.00     0.116 A 
HETATM    3  C4  UNL     1     -14.143  -9.306  16.447  1.00  0.00     0.045 A 
HETATM    4  C8  UNL     1     -15.053 -10.368  16.304  1.00  0.00     0.064 A 
HETATM    5  N3  UNL     1     -14.972 -11.260  15.317  1.00  0.00    -0.361 N 
ATOM      6  H3  UNL     1     -14.207 -11.193  14.644  1.00  0.00     0.165 HD
HETATM    7  C9  UNL     1     -15.881 -12.248  15.189  1.00  0.00     0.130 A 
HETATM    8  C10 UNL     1     -16.943 -12.384  16.076  1.00  0.00     0.141 A 
HETATM    9  C14 UNL     1     -17.067 -11.495  17.104  1.00  0.00     0.222 A 
HETATM   10  O7  UNL     1     -17.999 -11.565  17.945  1.00  0.00    -0.284 OA
HETATM   11  C15 UNL     1     -16.113 -10.481  17.219  1.00  0.00     0.081 A 
HETATM   12  C16 UNL     1     -16.245  -9.570  18.232  1.00  0.00     0.118 A 
ENDROOT
BRANCH   3  13
HETATM   13  C5  UNL     1     -13.170  -9.137  15.383  1.00  0.00     0.123 C 
HETATM   14  N1  UNL     1     -12.063  -8.648  15.636  1.00  0.00    -0.308 N 
ATOM     15  H1  UNL     1     -12.001  -8.427  16.631  1.00  0.00     0.186 HD
BRANCH  14  16
HETATM   16  N2  UNL     1     -10.897  -8.308  15.015  1.00  0.00    -0.271 N 
HETATM   17  C6  UNL     1     -10.855  -7.074  14.337  1.00  0.00     0.232 C 
HETATM   18  C7  UNL     1      -9.641  -6.564  13.685  1.00  0.00     0.119 C 
HETATM   19  O3  UNL     1     -11.883  -6.301  14.251  1.00  0.00    -0.272 OA
ATOM     20  H2  UNL     1     -10.085  -8.924  15.040  1.00  0.00     0.190 HD
ENDBRANCH  14  16
ENDBRANCH   3  13
BRANCH   2  21
HETATM   21  O2  UNL     1     -13.461  -7.353  17.697  1.00  0.00    -0.357 OA
ATOM     22  H2  UNL     1     -12.534  -7.554  17.640  1.00  0.00     0.217 HD
ENDBRANCH   2  21
BRANCH   1  23
HETATM   23  O1  UNL     1     -15.479  -7.608  19.369  1.00  0.00    -0.351 OA
HETATM   24  C1  UNL     1     -16.228  -6.460  19.325  1.00  0.00     0.210 C 
ENDBRANCH   1  23
BRANCH  12  25
HETATM   25  O8  UNL     1     -17.314  -9.694  19.147  1.00  0.00    -0.357 OA
ATOM     26  H8  UNL     1     -17.828 -10.492  19.149  1.00  0.00     0.217 HD
ENDBRANCH  12  25
BRANCH   8  27
HETATM   27  O4  UNL     1     -17.848 -13.422  15.849  1.00  0.00    -0.314 OA
BRANCH  27  28
HETATM   28  C11 UNL     1     -17.531 -14.668  15.833  1.00  0.00     0.184 C 
HETATM   29  C12 UNL     1     -17.925 -15.838  16.565  1.00  0.00     0.153 C 
BRANCH  29  30
HETATM   30  O5  UNL     1     -17.549 -17.006  16.122  1.00  0.00    -0.355 OA
ATOM     31  H5  UNL     1     -17.105 -17.597  16.719  1.00  0.00     0.218 HD
ENDBRANCH  29  30
BRANCH  29  32
HETATM   32  C13 UNL     1     -18.713 -15.824  17.786  1.00  0.00     0.289 C 
HETATM   33  N4  UNL     1     -19.097 -17.053  18.342  1.00  0.00    -0.055 NA
HETATM   34  O6  UNL     1     -19.006 -14.692  18.264  1.00  0.00    -0.269 OA
ENDBRANCH  29  32
ENDBRANCH  27  28
ENDBRANCH   8  27
TORSDOF 9
ENDMDL
MODEL 4
REMARK VINA RESULT: -8.336197749      2.629      7.645
REMARK  9 active torsions:
REMARK  status: ('A' for Active; 'I' for Inactive)
REMARK    1  A    between atoms: O1_2  and  C2_3 
REMARK    2  A    between atoms: C3_4  and  O2_5 
REMARK    3  A    between atoms: C4_7  and  C5_8 
REMARK    4  A    between atoms: N1_9  and  N2_11 
REMARK       I    between atoms: N2_11  and  C6_13 
REMARK    5  A    between atoms: C10_20  and  O4_21 
REMARK    6  A    between atoms: O4_21  and  C11_22 
REMARK    7  A    between atoms: C12_23  and  O5_24 
REMARK    8  A    between atoms: C12_23  and  C13_26 
REMARK    9  A    between atoms: C16_32  and  O8_33 
ROOT
HETATM    1  C2  UNL     1     -15.726  -6.996  18.842  1.00  0.00     0.136 A 
HETATM    2  C3  UNL     1     -16.652  -7.938  18.294  1.00  0.00     0.116 A 
HETATM    3  C4  UNL     1     -16.272  -8.727  17.254  1.00  0.00     0.045 A 
HETATM    4  C8  UNL     1     -14.980  -8.621  16.709  1.00  0.00     0.064 A 
HETATM    5  N3  UNL     1     -14.555  -9.391  15.707  1.00  0.00    -0.361 N 
ATOM      6  H3  UNL     1     -15.193 -10.071  15.293  1.00  0.00     0.165 HD
HETATM    7  C9  UNL     1     -13.298  -9.286  15.229  1.00  0.00     0.130 A 
HETATM    8  C10 UNL     1     -12.387  -8.378  15.756  1.00  0.00     0.141 A 
HETATM    9  C14 UNL     1     -12.778  -7.568  16.783  1.00  0.00     0.222 A 
HETATM   10  O7  UNL     1     -12.007  -6.720  17.302  1.00  0.00    -0.284 OA
HETATM   11  C15 UNL     1     -14.085  -7.691  17.261  1.00  0.00     0.081 A 
HETATM   12  C16 UNL     1     -14.476  -6.900  18.308  1.00  0.00     0.118 A 
ENDROOT
BRANCH   3  13
HETATM   13  C5  UNL     1     -17.098  -9.814  16.761  1.00  0.00     0.123 C 
HETATM   14  N1  UNL     1     -17.386 -10.756  17.509  1.00  0.00    -0.308 N 
ATOM     15  H1  UNL     1     -16.968 -10.606  18.428  1.00  0.00     0.186 HD
BRANCH  14  16
HETATM   16  N2  UNL     1     -18.080 -11.929  17.503  1.00  0.00    -0.271 N 
HETATM   17  C6  UNL     1     -17.514 -13.019  16.813  1.00  0.00     0.232 C 
HETATM   18  C7  UNL     1     -18.131 -14.352  16.787  1.00  0.00     0.119 C 
HETATM   19  O3  UNL     1     -16.406 -12.920  16.162  1.00  0.00    -0.272 OA
ATOM     20  H2  UNL     1     -18.978 -12.015  17.980  1.00  0.00     0.190 HD
ENDBRANCH  14  16
ENDBRANCH   3  13
BRANCH   2  21
HETATM   21  O2  UNL     1     -17.871  -7.944  18.888  1.00  0.00    -0.357 OA
ATOM     22  H2  UNL     1     -18.128  -8.782  19.255  1.00  0.00     0.217 HD
ENDBRANCH   2  21
BRANCH   1  23
HETATM   23  O1  UNL     1     -16.141  -6.231  19.892  1.00  0.00    -0.351 OA
HETATM   24  C1  UNL     1     -16.688  -4.977  19.816  1.00  0.00     0.210 C 
ENDBRANCH   1  23
BRANCH  12  25
HETATM   25  O8  UNL     1     -13.568  -5.967  18.855  1.00  0.00    -0.357 OA
ATOM     26  H8  UNL     1     -13.908  -5.211  19.318  1.00  0.00     0.217 HD
ENDBRANCH  12  25
BRANCH   8  27
HETATM   27  O4  UNL     1     -11.101  -8.360  15.215  1.00  0.00    -0.314 OA
BRANCH  27  28
HETATM   28  C11 UNL     1     -10.613  -9.296  14.479  1.00  0.00     0.184 C 
HETATM   29  C12 UNL     1     -10.334  -9.463  13.082  1.00  0.00     0.153 C 
BRANCH  29  30
HETATM   30  O5  UNL     1      -9.615 -10.486  12.707  1.00  0.00    -0.355 OA
ATOM     31  H5  UNL     1     -10.047 -11.323  12.584  1.00  0.00     0.218 HD
ENDBRANCH  29  30
BRANCH  29  32
HETATM   32  C13 UNL     1     -10.804  -8.575  12.032  1.00  0.00     0.289 C 
HETATM   33  N4  UNL     1     -11.010  -7.224  12.348  1.00  0.00    -0.055 NA
HETATM   34  O6  UNL     1     -11.002  -9.088  10.895  1.00  0.00    -0.269 OA
ENDBRANCH  29  32
ENDBRANCH  27  28
ENDBRANCH   8  27
TORSDOF 9
ENDMDL
MODEL 5
REMARK VINA RESULT: -8.331432941      2.658      8.119
REMARK  9 active torsions:
REMARK  status: ('A' for Active; 'I' for Inactive)
REMARK    1  A    between atoms: O1_2  and  C2_3 
REMARK    2  A    between atoms: C3_4  and  O2_5 
REMARK    3  A    between atoms: C4_7  and  C5_8 
REMARK    4  A    between atoms: N1_9  and  N2_11 
REMARK       I    between atoms: N2_11  and  C6_13 
REMARK    5  A    between atoms: C10_20  and  O4_21 
REMARK    6  A    between atoms: O4_21  and  C11_22 
REMARK    7  A    between atoms: C12_23  and  O5_24 
REMARK    8  A    between atoms: C12_23  and  C13_26 
REMARK    9  A    between atoms: C16_32  and  O8_33 
ROOT
HETATM    1  C2  UNL     1     -17.768  -8.851  15.097  1.00  0.00     0.136 A 
HETATM    2  C3  UNL     1     -17.754 -10.203  15.564  1.00  0.00     0.116 A 
HETATM    3  C4  UNL     1     -16.567 -10.814  15.821  1.00  0.00     0.045 A 
HETATM    4  C8  UNL     1     -15.353 -10.130  15.628  1.00  0.00     0.064 A 
HETATM    5  N3  UNL     1     -14.168 -10.679  15.891  1.00  0.00    -0.361 N 
ATOM      6  H3  UNL     1     -14.124 -11.643  16.223  1.00  0.00     0.165 HD
HETATM    7  C9  UNL     1     -13.023  -9.984  15.727  1.00  0.00     0.130 A 
HETATM    8  C10 UNL     1     -13.024  -8.668  15.279  1.00  0.00     0.141 A 
HETATM    9  C14 UNL     1     -14.215  -8.065  14.996  1.00  0.00     0.222 A 
HETATM   10  O7  UNL     1     -14.287  -6.880  14.581  1.00  0.00    -0.284 OA
HETATM   11  C15 UNL     1     -15.388  -8.803  15.171  1.00  0.00     0.081 A 
HETATM   12  C16 UNL     1     -16.588  -8.196  14.914  1.00  0.00     0.118 A 
ENDROOT
BRANCH   3  13
HETATM   13  C5  UNL     1     -16.485 -12.119  16.452  1.00  0.00     0.123 C 
HETATM   14  N1  UNL     1     -17.337 -12.978  16.197  1.00  0.00    -0.308 N 
ATOM     15  H1  UNL     1     -18.013 -12.608  15.529  1.00  0.00     0.186 HD
BRANCH  14  16
HETATM   16  N2  UNL     1     -17.664 -14.262  16.522  1.00  0.00    -0.271 N 
HETATM   17  C6  UNL     1     -18.616 -14.454  17.543  1.00  0.00     0.232 C 
HETATM   18  C7  UNL     1     -19.101 -15.783  17.939  1.00  0.00     0.119 C 
HETATM   19  O3  UNL     1     -19.134 -13.470  18.194  1.00  0.00    -0.272 OA
ATOM     20  H2  UNL     1     -17.236 -15.054  16.044  1.00  0.00     0.190 HD
ENDBRANCH  14  16
ENDBRANCH   3  13
BRANCH   2  21
HETATM   21  O2  UNL     1     -18.981 -10.766  15.700  1.00  0.00    -0.357 OA
ATOM     22  H2  UNL     1     -19.081 -11.606  15.267  1.00  0.00     0.217 HD
ENDBRANCH   2  21
BRANCH   1  23
HETATM   23  O1  UNL     1     -18.980  -8.270  14.862  1.00  0.00    -0.351 OA
HETATM   24  C1  UNL     1     -19.606  -8.164  13.647  1.00  0.00     0.210 C 
ENDBRANCH   1  23
BRANCH  12  25
HETATM   25  O8  UNL     1     -16.610  -6.862  14.453  1.00  0.00    -0.357 OA
ATOM     26  H8  UNL     1     -16.125  -6.201  14.933  1.00  0.00     0.217 HD
ENDBRANCH  12  25
BRANCH   8  27
HETATM   27  O4  UNL     1     -11.792  -8.022  15.165  1.00  0.00    -0.314 OA
BRANCH  27  28
HETATM   28  C11 UNL     1     -11.423  -7.346  14.134  1.00  0.00     0.184 C 
HETATM   29  C12 UNL     1     -10.974  -7.660  12.808  1.00  0.00     0.153 C 
BRANCH  29  30
HETATM   30  O5  UNL     1     -10.894  -6.696  11.932  1.00  0.00    -0.355 OA
ATOM     31  H5  UNL     1     -11.675  -6.456  11.448  1.00  0.00     0.218 HD
ENDBRANCH  29  30
BRANCH  29  32
HETATM   32  C13 UNL     1     -10.586  -8.986  12.357  1.00  0.00     0.289 C 
HETATM   33  N4  UNL     1      -9.849  -9.796  13.233  1.00  0.00    -0.055 NA
HETATM   34  O6  UNL     1     -10.939  -9.319  11.191  1.00  0.00    -0.269 OA
ENDBRANCH  29  32
ENDBRANCH  27  28
ENDBRANCH   8  27
TORSDOF 9
ENDMDL
