MODEL 1
REMARK VINA RESULT: -7.061523198      0.000      0.000
REMARK  8 active torsions:
REMARK  status: ('A' for Active; 'I' for Inactive)
REMARK    1  A    between atoms: N1_2  and  C3_4 
REMARK    2  A    between atoms: C4_5  and  C5_6 
REMARK    3  A    between atoms: N2_11  and  O3_12 
REMARK    4  A    between atoms: O3_12  and  C7_13 
REMARK    5  A    between atoms: C7_13  and  O4_14 
REMARK    6  A    between atoms: O4_14  and  C8_15 
REMARK       I    between atoms: C8_15  and  N3_17 
REMARK    7  A    between atoms: N3_17  and  S2_19 
REMARK    8  A    between atoms: S2_19  and  N4_22 
REMARK       I    between atoms: N4_22  and  C9_24 
ROOT
HETATM    1  O4  UNL     1     -13.728  -8.141  15.268  1.00  0.00    -0.276 OA
ENDROOT
BRANCH   1   2
HETATM    2  C7  UNL     1     -14.467  -9.238  15.811  1.00  0.00     0.375 C 
BRANCH   2   3
HETATM    3  O3  UNL     1     -15.631  -9.339  15.052  1.00  0.00    -0.274 OA
BRANCH   3   4
HETATM    4  N2  UNL     1     -16.670  -9.281  15.890  1.00  0.00    -0.150 NA
HETATM    5  C3  UNL     1     -17.006 -10.487  16.554  1.00  0.00     0.346 C 
HETATM    6  C4  UNL     1     -17.748 -11.368  15.543  1.00  0.00     0.199 C 
HETATM    7  S1  UNL     1     -18.844 -10.086  14.833  1.00  0.00    -0.133 SA
HETATM    8  C6  UNL     1     -17.833  -8.649  15.373  1.00  0.00     0.198 C 
BRANCH   5   9
HETATM    9  N1  UNL     1     -17.843 -10.182  17.674  1.00  0.00     0.101 N 
HETATM   10  C1  UNL     1     -17.064  -9.567  18.714  1.00  0.00     0.311 C 
HETATM   11  C2  UNL     1     -18.606 -11.271  18.187  1.00  0.00     0.311 C 
ENDBRANCH   5   9
BRANCH   6  12
HETATM   12  C5  UNL     1     -16.829 -11.810  14.482  1.00  0.00     0.190 C 
HETATM   13  O1  UNL     1     -17.155 -11.755  13.263  1.00  0.00    -0.647 OA
HETATM   14  O2  UNL     1     -15.554 -12.316  14.733  1.00  0.00    -0.647 OA
ENDBRANCH   6  12
ENDBRANCH   3   4
ENDBRANCH   2   3
ENDBRANCH   1   2
BRANCH   1  15
HETATM   15  C8  UNL     1     -12.340  -8.191  15.217  1.00  0.00     0.377 C 
HETATM   16  O5  UNL     1     -11.683  -7.621  16.100  1.00  0.00    -0.237 OA
HETATM   17  N3  UNL     1     -11.714  -8.897  14.147  1.00  0.00    -0.212 N 
ATOM     18  H3  UNL     1     -12.271  -9.358  13.428  1.00  0.00     0.185 HD
BRANCH  17  19
HETATM   19  S2  UNL     1     -10.001  -8.950  14.100  1.00  0.00     0.329 S 
HETATM   20  O6  UNL     1      -9.476  -9.582  15.373  1.00  0.00    -0.182 OA
HETATM   21  O7  UNL     1      -9.544  -9.799  12.943  1.00  0.00    -0.182 OA
BRANCH  19  22
HETATM   22  N4  UNL     1      -9.281  -7.403  13.896  1.00  0.00    -0.241 N 
HETATM   23  C9  UNL     1     -10.090  -6.249  13.745  1.00  0.00     0.196 C 
HETATM   24  N5  UNL     1     -10.090  -5.345  14.652  1.00  0.00    -0.373 N 
HETATM   25  N6  UNL     1     -10.888  -6.122  12.581  1.00  0.00    -0.063 NA
ATOM     26  H52 UNL     1      -9.516  -5.436  15.490  1.00  0.00     0.158 HD
ATOM     27  H51 UNL     1     -10.672  -4.515  14.543  1.00  0.00     0.158 HD
ATOM     28  H4  UNL     1      -8.265  -7.314  13.883  1.00  0.00     0.183 HD
ENDBRANCH  19  22
ENDBRANCH  17  19
ENDBRANCH   1  15
TORSDOF 8
ENDMDL
MODEL 2
REMARK VINA RESULT: -7.043730101      2.874      4.357
REMARK  8 active torsions:
REMARK  status: ('A' for Active; 'I' for Inactive)
REMARK    1  A    between atoms: N1_2  and  C3_4 
REMARK    2  A    between atoms: C4_5  and  C5_6 
REMARK    3  A    between atoms: N2_11  and  O3_12 
REMARK    4  A    between atoms: O3_12  and  C7_13 
REMARK    5  A    between atoms: C7_13  and  O4_14 
REMARK    6  A    between atoms: O4_14  and  C8_15 
REMARK       I    between atoms: C8_15  and  N3_17 
REMARK    7  A    between atoms: N3_17  and  S2_19 
REMARK    8  A    between atoms: S2_19  and  N4_22 
REMARK       I    between atoms: N4_22  and  C9_24 
ROOT
HETATM    1  O4  UNL     1     -12.364 -10.694  15.364  1.00  0.00    -0.276 OA
ENDROOT
BRANCH   1   2
HETATM    2  C7  UNL     1     -13.687 -10.235  15.650  1.00  0.00     0.375 C 
BRANCH   2   3
HETATM    3  O3  UNL     1     -13.552  -9.206  16.581  1.00  0.00    -0.274 OA
BRANCH   3   4
HETATM    4  N2  UNL     1     -14.678  -8.487  16.560  1.00  0.00    -0.150 NA
HETATM    5  C3  UNL     1     -14.575  -7.180  16.022  1.00  0.00     0.346 C 
HETATM    6  C4  UNL     1     -13.920  -6.300  17.092  1.00  0.00     0.199 C 
HETATM    7  S1  UNL     1     -14.873  -6.892  18.537  1.00  0.00    -0.133 SA
HETATM    8  C6  UNL     1     -15.413  -8.475  17.776  1.00  0.00     0.198 C 
BRANCH   5   9
HETATM    9  N1  UNL     1     -15.888  -6.705  15.706  1.00  0.00     0.101 N 
HETATM   10  C1  UNL     1     -16.422  -7.444  14.595  1.00  0.00     0.311 C 
HETATM   11  C2  UNL     1     -15.997  -5.302  15.481  1.00  0.00     0.311 C 
ENDBRANCH   5   9
BRANCH   6  12
HETATM   12  C5  UNL     1     -12.516  -6.697  17.287  1.00  0.00     0.190 C 
HETATM   13  O1  UNL     1     -12.037  -6.877  18.443  1.00  0.00    -0.647 OA
HETATM   14  O2  UNL     1     -11.623  -6.900  16.237  1.00  0.00    -0.647 OA
ENDBRANCH   6  12
ENDBRANCH   3   4
ENDBRANCH   2   3
ENDBRANCH   1   2
BRANCH   1  15
HETATM   15  C8  UNL     1     -11.495  -9.902  14.622  1.00  0.00     0.377 C 
HETATM   16  O5  UNL     1     -10.312 -10.252  14.506  1.00  0.00    -0.237 OA
HETATM   17  N3  UNL     1     -11.993  -8.710  14.018  1.00  0.00    -0.212 N 
ATOM     18  H3  UNL     1     -12.970  -8.438  14.127  1.00  0.00     0.185 HD
BRANCH  17  19
HETATM   19  S2  UNL     1     -10.909  -7.746  13.105  1.00  0.00     0.329 S 
HETATM   20  O6  UNL     1     -10.383  -8.546  11.930  1.00  0.00    -0.182 OA
HETATM   21  O7  UNL     1     -11.627  -6.541  12.556  1.00  0.00    -0.182 OA
BRANCH  19  22
HETATM   22  N4  UNL     1      -9.585  -7.156  14.029  1.00  0.00    -0.241 N 
HETATM   23  C9  UNL     1      -9.263  -5.776  14.021  1.00  0.00     0.196 C 
HETATM   24  N5  UNL     1      -9.400  -5.082  15.089  1.00  0.00    -0.373 N 
HETATM   25  N6  UNL     1      -8.791  -5.191  12.820  1.00  0.00    -0.063 NA
ATOM     26  H52 UNL     1      -9.739  -5.503  15.954  1.00  0.00     0.158 HD
ATOM     27  H51 UNL     1      -9.168  -4.089  15.084  1.00  0.00     0.158 HD
ATOM     28  H4  UNL     1      -9.027  -7.804  14.586  1.00  0.00     0.183 HD
ENDBRANCH  19  22
ENDBRANCH  17  19
ENDBRANCH   1  15
TORSDOF 8
ENDMDL
MODEL 3
REMARK VINA RESULT: -7.042087520      1.632      1.974
REMARK  8 active torsions:
REMARK  status: ('A' for Active; 'I' for Inactive)
REMARK    1  A    between atoms: N1_2  and  C3_4 
REMARK    2  A    between atoms: C4_5  and  C5_6 
REMARK    3  A    between atoms: N2_11  and  O3_12 
REMARK    4  A    between atoms: O3_12  and  C7_13 
REMARK    5  A    between atoms: C7_13  and  O4_14 
REMARK    6  A    between atoms: O4_14  and  C8_15 
REMARK       I    between atoms: C8_15  and  N3_17 
REMARK    7  A    between atoms: N3_17  and  S2_19 
REMARK    8  A    between atoms: S2_19  and  N4_22 
REMARK       I    between atoms: N4_22  and  C9_24 
ROOT
HETATM    1  O4  UNL     1     -13.631 -11.204  15.796  1.00  0.00    -0.276 OA
ENDROOT
BRANCH   1   2
HETATM    2  C7  UNL     1     -14.830 -11.483  15.069  1.00  0.00     0.375 C 
BRANCH   2   3
HETATM    3  O3  UNL     1     -15.747 -11.967  16.000  1.00  0.00    -0.274 OA
BRANCH   3   4
HETATM    4  N2  UNL     1     -16.405 -10.920  16.506  1.00  0.00    -0.150 NA
HETATM    5  C3  UNL     1     -17.361 -11.208  17.511  1.00  0.00     0.346 C 
HETATM    6  C4  UNL     1     -18.602 -11.769  16.807  1.00  0.00     0.199 C 
HETATM    7  S1  UNL     1     -18.688 -10.568  15.431  1.00  0.00    -0.133 SA
HETATM    8  C6  UNL     1     -16.938 -10.017  15.547  1.00  0.00     0.198 C 
BRANCH   5   9
HETATM    9  N1  UNL     1     -17.676 -10.000  18.211  1.00  0.00     0.101 N 
HETATM   10  C1  UNL     1     -16.492  -9.474  18.835  1.00  0.00     0.311 C 
HETATM   11  C2  UNL     1     -18.745 -10.093  19.149  1.00  0.00     0.311 C 
ENDBRANCH   5   9
BRANCH   6  12
HETATM   12  C5  UNL     1     -18.307 -13.091  16.232  1.00  0.00     0.190 C 
HETATM   13  O1  UNL     1     -18.415 -13.309  14.993  1.00  0.00    -0.647 OA
HETATM   14  O2  UNL     1     -17.896 -14.184  16.993  1.00  0.00    -0.647 OA
ENDBRANCH   6  12
ENDBRANCH   3   4
ENDBRANCH   2   3
ENDBRANCH   1   2
BRANCH   1  15
HETATM   15  C8  UNL     1     -12.717 -10.279  15.306  1.00  0.00     0.377 C 
HETATM   16  O5  UNL     1     -12.906  -9.073  15.521  1.00  0.00    -0.237 OA
HETATM   17  N3  UNL     1     -11.588 -10.746  14.570  1.00  0.00    -0.212 N 
ATOM     18  H3  UNL     1     -11.450 -11.744  14.402  1.00  0.00     0.185 HD
BRANCH  17  19
HETATM   19  S2  UNL     1     -10.469  -9.592  13.975  1.00  0.00     0.329 S 
HETATM   20  O6  UNL     1      -9.454  -9.265  15.052  1.00  0.00    -0.182 OA
HETATM   21  O7  UNL     1      -9.722 -10.159  12.796  1.00  0.00    -0.182 OA
BRANCH  19  22
HETATM   22  N4  UNL     1     -11.216  -8.140  13.439  1.00  0.00    -0.241 N 
HETATM   23  C9  UNL     1     -10.658  -6.880  13.773  1.00  0.00     0.196 C 
HETATM   24  N5  UNL     1     -10.170  -6.133  12.854  1.00  0.00    -0.373 N 
HETATM   25  N6  UNL     1     -10.653  -6.474  15.130  1.00  0.00    -0.063 NA
ATOM     26  H52 UNL     1     -10.173  -6.426  11.877  1.00  0.00     0.158 HD
ATOM     27  H51 UNL     1      -9.769  -5.227  13.095  1.00  0.00     0.158 HD
ATOM     28  H4  UNL     1     -12.066  -8.184  12.877  1.00  0.00     0.183 HD
ENDBRANCH  19  22
ENDBRANCH  17  19
ENDBRANCH   1  15
TORSDOF 8
ENDMDL
MODEL 4
REMARK VINA RESULT: -7.033729622      2.628      3.647
REMARK  8 active torsions:
REMARK  status: ('A' for Active; 'I' for Inactive)
REMARK    1  A    between atoms: N1_2  and  C3_4 
REMARK    2  A    between atoms: C4_5  and  C5_6 
REMARK    3  A    between atoms: N2_11  and  O3_12 
REMARK    4  A    between atoms: O3_12  and  C7_13 
REMARK    5  A    between atoms: C7_13  and  O4_14 
REMARK    6  A    between atoms: O4_14  and  C8_15 
REMARK       I    between atoms: C8_15  and  N3_17 
REMARK    7  A    between atoms: N3_17  and  S2_19 
REMARK    8  A    between atoms: S2_19  and  N4_22 
REMARK       I    between atoms: N4_22  and  C9_24 
ROOT
HETATM    1  O4  UNL     1     -13.350  -6.944  17.780  1.00  0.00    -0.276 OA
ENDROOT
BRANCH   1   2
HETATM    2  C7  UNL     1     -14.609  -7.472  18.205  1.00  0.00     0.375 C 
BRANCH   2   3
HETATM    3  O3  UNL     1     -15.570  -6.918  17.361  1.00  0.00    -0.274 OA
BRANCH   3   4
HETATM    4  N2  UNL     1     -16.481  -7.862  17.106  1.00  0.00    -0.150 NA
HETATM    5  C3  UNL     1     -16.340  -8.552  15.877  1.00  0.00     0.346 C 
HETATM    6  C4  UNL     1     -16.856  -7.622  14.774  1.00  0.00     0.199 C 
HETATM    7  S1  UNL     1     -18.373  -7.038  15.613  1.00  0.00    -0.133 SA
HETATM    8  C6  UNL     1     -17.832  -7.474  17.314  1.00  0.00     0.198 C 
BRANCH   5   9
HETATM    9  N1  UNL     1     -17.112  -9.756  15.930  1.00  0.00     0.101 N 
HETATM   10  C1  UNL     1     -16.534 -10.667  16.880  1.00  0.00     0.311 C 
HETATM   11  C2  UNL     1     -17.333 -10.401  14.678  1.00  0.00     0.311 C 
ENDBRANCH   5   9
BRANCH   6  12
HETATM   12  C5  UNL     1     -15.957  -6.468  14.620  1.00  0.00     0.190 C 
HETATM   13  O1  UNL     1     -14.738  -6.618  14.323  1.00  0.00    -0.647 OA
HETATM   14  O2  UNL     1     -16.368  -5.146  14.787  1.00  0.00    -0.647 OA
ENDBRANCH   6  12
ENDBRANCH   3   4
ENDBRANCH   2   3
ENDBRANCH   1   2
BRANCH   1  15
HETATM   15  C8  UNL     1     -12.729  -7.447  16.643  1.00  0.00     0.377 C 
HETATM   16  O5  UNL     1     -12.898  -8.638  16.341  1.00  0.00    -0.237 OA
HETATM   17  N3  UNL     1     -11.914  -6.578  15.859  1.00  0.00    -0.212 N 
ATOM     18  H3  UNL     1     -11.786  -5.601  16.126  1.00  0.00     0.185 HD
BRANCH  17  19
HETATM   19  S2  UNL     1     -11.157  -7.214  14.459  1.00  0.00     0.329 S 
HETATM   20  O6  UNL     1     -11.417  -6.299  13.280  1.00  0.00    -0.182 OA
HETATM   21  O7  UNL     1      -9.667  -7.284  14.667  1.00  0.00    -0.182 OA
BRANCH  19  22
HETATM   22  N4  UNL     1     -11.680  -8.805  14.071  1.00  0.00    -0.241 N 
HETATM   23  C9  UNL     1     -10.759  -9.882  14.068  1.00  0.00     0.196 C 
HETATM   24  N5  UNL     1     -10.871 -10.821  14.933  1.00  0.00    -0.373 N 
HETATM   25  N6  UNL     1      -9.727  -9.896  13.098  1.00  0.00    -0.063 NA
ATOM     26  H52 UNL     1     -11.614 -10.810  15.632  1.00  0.00     0.158 HD
ATOM     27  H51 UNL     1     -10.208 -11.596  14.931  1.00  0.00     0.158 HD
ATOM     28  H4  UNL     1     -12.659  -8.974  13.840  1.00  0.00     0.183 HD
ENDBRANCH  19  22
ENDBRANCH  17  19
ENDBRANCH   1  15
TORSDOF 8
ENDMDL
MODEL 5
REMARK VINA RESULT: -7.017792004      1.187      1.393
REMARK  8 active torsions:
REMARK  status: ('A' for Active; 'I' for Inactive)
REMARK    1  A    between atoms: N1_2  and  C3_4 
REMARK    2  A    between atoms: C4_5  and  C5_6 
REMARK    3  A    between atoms: N2_11  and  O3_12 
REMARK    4  A    between atoms: O3_12  and  C7_13 
REMARK    5  A    between atoms: C7_13  and  O4_14 
REMARK    6  A    between atoms: O4_14  and  C8_15 
REMARK       I    between atoms: C8_15  and  N3_17 
REMARK    7  A    between atoms: N3_17  and  S2_19 
REMARK    8  A    between atoms: S2_19  and  N4_22 
REMARK       I    between atoms: N4_22  and  C9_24 
ROOT
HETATM    1  O4  UNL     1     -13.527  -7.289  15.864  1.00  0.00    -0.276 OA
ENDROOT
BRANCH   1   2
HETATM    2  C7  UNL     1     -14.474  -7.307  14.794  1.00  0.00     0.375 C 
BRANCH   2   3
HETATM    3  O3  UNL     1     -15.004  -8.596  14.762  1.00  0.00    -0.274 OA
BRANCH   3   4
HETATM    4  N2  UNL     1     -16.078  -8.614  15.557  1.00  0.00    -0.150 NA
HETATM    5  C3  UNL     1     -15.966  -9.383  16.742  1.00  0.00     0.346 C 
HETATM    6  C4  UNL     1     -16.118 -10.855  16.342  1.00  0.00     0.199 C 
HETATM    7  S1  UNL     1     -17.538 -10.672  15.204  1.00  0.00    -0.133 SA
HETATM    8  C6  UNL     1     -17.312  -8.874  14.902  1.00  0.00     0.198 C 
BRANCH   5   9
HETATM    9  N1  UNL     1     -17.004  -8.992  17.647  1.00  0.00     0.101 N 
HETATM   10  C1  UNL     1     -16.718  -7.690  18.186  1.00  0.00     0.311 C 
HETATM   11  C2  UNL     1     -17.294  -9.920  18.689  1.00  0.00     0.311 C 
ENDBRANCH   5   9
BRANCH   6  12
HETATM   12  C5  UNL     1     -14.958 -11.288  15.547  1.00  0.00     0.190 C 
HETATM   13  O1  UNL     1     -15.082 -12.111  14.596  1.00  0.00    -0.647 OA
HETATM   14  O2  UNL     1     -13.659 -10.838  15.777  1.00  0.00    -0.647 OA
ENDBRANCH   6  12
ENDBRANCH   3   4
ENDBRANCH   2   3
ENDBRANCH   1   2
BRANCH   1  15
HETATM   15  C8  UNL     1     -12.191  -7.586  15.620  1.00  0.00     0.377 C 
HETATM   16  O5  UNL     1     -11.325  -7.143  16.388  1.00  0.00    -0.237 OA
HETATM   17  N3  UNL     1     -11.859  -8.393  14.492  1.00  0.00    -0.212 N 
ATOM     18  H3  UNL     1     -12.586  -8.747  13.870  1.00  0.00     0.185 HD
BRANCH  17  19
HETATM   19  S2  UNL     1     -10.207  -8.752  14.207  1.00  0.00     0.329 S 
HETATM   20  O6  UNL     1      -9.657  -9.567  15.360  1.00  0.00    -0.182 OA
HETATM   21  O7  UNL     1     -10.068  -9.577  12.954  1.00  0.00    -0.182 OA
BRANCH  19  22
HETATM   22  N4  UNL     1      -9.237  -7.350  13.989  1.00  0.00    -0.241 N 
HETATM   23  C9  UNL     1      -9.841  -6.079  13.821  1.00  0.00     0.196 C 
HETATM   24  N5  UNL     1      -9.692  -5.177  14.718  1.00  0.00    -0.373 N 
HETATM   25  N6  UNL     1     -10.603  -5.834  12.651  1.00  0.00    -0.063 NA
ATOM     26  H52 UNL     1      -9.144  -5.353  15.559  1.00  0.00     0.158 HD
ATOM     27  H51 UNL     1     -10.127  -4.262  14.596  1.00  0.00     0.158 HD
ATOM     28  H4  UNL     1      -8.221  -7.433  13.980  1.00  0.00     0.183 HD
ENDBRANCH  19  22
ENDBRANCH  17  19
ENDBRANCH   1  15
TORSDOF 8
ENDMDL
