MODEL 1
REMARK VINA RESULT: -6.938230587      0.000      0.000
REMARK  12 active torsions:
REMARK  status: ('A' for Active; 'I' for Inactive)
REMARK    1  A    between atoms: O1_2  and  C2_3 
REMARK    2  A    between atoms: C2_3  and  C3_5 
REMARK    3  A    between atoms: C3_5  and  C4_6 
REMARK    4  A    between atoms: C4_6  and  O4_8 
REMARK    5  A    between atoms: O4_8  and  C5_9 
REMARK    6  A    between atoms: C7_16  and  N1_17 
REMARK    7  A    between atoms: N1_17  and  C8_19 
REMARK    8  A    between atoms: C8_19  and  C9_20 
REMARK    9  A    between atoms: C8_19  and  C10_25 
REMARK   10  A    between atoms: C9_20  and  N2_21 
REMARK   11  A    between atoms: C10_25  and  N4_29 
REMARK   12  A    between atoms: N4_29  and  C11_31 
ROOT
HETATM    1  N1  UNL     1     -12.676  -8.608  16.067  1.00  0.00    -0.381 N 
ATOM      2  H1  UNL     1     -12.270  -8.212  16.914  1.00  0.00     0.156 HD
ENDROOT
BRANCH   1   3
HETATM    3  C7  UNL     1     -14.036  -9.110  16.020  1.00  0.00     0.271 C 
HETATM    4  C5  UNL     1     -14.693  -8.876  17.337  1.00  0.00     0.206 C 
HETATM    5  C6  UNL     1     -14.978  -7.381  17.564  1.00  0.00     0.229 C 
HETATM    6  O5  UNL     1     -15.929  -6.916  16.690  1.00  0.00    -0.251 OA
HETATM    7  S1  UNL     1     -15.280  -7.042  15.148  1.00  0.00     0.404 S 
HETATM    8  O6  UNL     1     -16.442  -6.872  14.186  1.00  0.00    -0.169 OA
HETATM    9  O7  UNL     1     -14.283  -5.956  14.911  1.00  0.00    -0.169 OA
HETATM   10  O8  UNL     1     -14.676  -8.563  14.937  1.00  0.00    -0.225 OA
BRANCH   4  11
HETATM   11  O4  UNL     1     -15.831  -9.603  17.632  1.00  0.00    -0.309 OA
BRANCH  11  12
HETATM   12  C4  UNL     1     -16.591 -10.376  16.796  1.00  0.00     0.268 C 
HETATM   13  O3  UNL     1     -17.474  -9.765  16.162  1.00  0.00    -0.265 OA
BRANCH  12  14
HETATM   14  C3  UNL     1     -16.379 -11.855  16.647  1.00  0.00     0.222 C 
BRANCH  14  15
HETATM   15  C2  UNL     1     -16.245 -12.227  15.213  1.00  0.00     0.267 C 
HETATM   16  O2  UNL     1     -15.132 -12.198  14.639  1.00  0.00    -0.265 OA
BRANCH  15  17
HETATM   17  O1  UNL     1     -17.390 -12.609  14.524  1.00  0.00    -0.326 OA
HETATM   18  C1  UNL     1     -17.801 -11.920  13.363  1.00  0.00     0.213 C 
ENDBRANCH  15  17
ENDBRANCH  14  15
ENDBRANCH  12  14
ENDBRANCH  11  12
ENDBRANCH   4  11
ENDBRANCH   1   3
BRANCH   1  19
HETATM   19  C8  UNL     1     -11.953  -8.707  14.851  1.00  0.00     0.171 C 
BRANCH  19  20
HETATM   20  C9  UNL     1     -10.796  -9.718  14.911  1.00  0.00     0.262 C 
BRANCH  20  21
HETATM   21  N2  UNL     1     -11.274 -11.037  14.523  1.00  0.00    -0.077 N 
ATOM     22  H23 UNL     1     -12.094 -11.320  15.058  1.00  0.00     0.274 HD
ATOM     23  H22 UNL     1     -11.696 -11.034  13.595  1.00  0.00     0.274 HD
ATOM     24  H21 UNL     1     -10.516 -11.715  14.597  1.00  0.00     0.274 HD
ENDBRANCH  20  21
ENDBRANCH  19  20
BRANCH  19  25
HETATM   25  C10 UNL     1     -11.423  -7.373  14.525  1.00  0.00     0.095 C 
HETATM   26  N3  UNL     1     -11.534  -6.414  15.351  1.00  0.00    -0.387 N 
ATOM     27  H32 UNL     1     -11.994  -6.576  16.247  1.00  0.00     0.157 HD
ATOM     28  H31 UNL     1     -11.167  -5.489  15.125  1.00  0.00     0.157 HD
BRANCH  25  29
HETATM   29  N4  UNL     1     -10.789  -7.149  13.290  1.00  0.00    -0.374 N 
ATOM     30  H4  UNL     1     -10.605  -7.940  12.673  1.00  0.00     0.161 HD
BRANCH  29  31
HETATM   31  C11 UNL     1     -10.397  -5.836  12.881  1.00  0.00     0.074 C 
HETATM   32  C12 UNL     1      -9.010  -5.491  13.362  1.00  0.00     0.031 C 
HETATM   33  C13 UNL     1     -10.392  -5.726  11.366  1.00  0.00     0.031 C 
ENDBRANCH  29  31
ENDBRANCH  25  29
ENDBRANCH  19  25
ENDBRANCH   1  19
TORSDOF 12
ENDMDL
MODEL 2
REMARK VINA RESULT: -6.808776051      1.307      1.532
REMARK  12 active torsions:
REMARK  status: ('A' for Active; 'I' for Inactive)
REMARK    1  A    between atoms: O1_2  and  C2_3 
REMARK    2  A    between atoms: C2_3  and  C3_5 
REMARK    3  A    between atoms: C3_5  and  C4_6 
REMARK    4  A    between atoms: C4_6  and  O4_8 
REMARK    5  A    between atoms: O4_8  and  C5_9 
REMARK    6  A    between atoms: C7_16  and  N1_17 
REMARK    7  A    between atoms: N1_17  and  C8_19 
REMARK    8  A    between atoms: C8_19  and  C9_20 
REMARK    9  A    between atoms: C8_19  and  C10_25 
REMARK   10  A    between atoms: C9_20  and  N2_21 
REMARK   11  A    between atoms: C10_25  and  N4_29 
REMARK   12  A    between atoms: N4_29  and  C11_31 
ROOT
HETATM    1  N1  UNL     1     -13.431  -8.653  16.408  1.00  0.00    -0.381 N 
ATOM      2  H1  UNL     1     -12.988  -8.745  17.322  1.00  0.00     0.156 HD
ENDROOT
BRANCH   1   3
HETATM    3  C7  UNL     1     -14.869  -8.550  16.251  1.00  0.00     0.271 C 
HETATM    4  C5  UNL     1     -15.540  -9.308  17.344  1.00  0.00     0.206 C 
HETATM    5  C6  UNL     1     -15.379  -8.599  18.700  1.00  0.00     0.229 C 
HETATM    6  O5  UNL     1     -16.062  -7.408  18.724  1.00  0.00    -0.251 OA
HETATM    7  S1  UNL     1     -15.345  -6.409  17.582  1.00  0.00     0.404 S 
HETATM    8  O6  UNL     1     -16.310  -5.257  17.365  1.00  0.00    -0.169 OA
HETATM    9  O7  UNL     1     -14.049  -5.875  18.097  1.00  0.00    -0.169 OA
HETATM   10  O8  UNL     1     -15.214  -7.226  16.154  1.00  0.00    -0.225 OA
BRANCH   4  11
HETATM   11  O4  UNL     1     -16.866  -9.657  17.171  1.00  0.00    -0.309 OA
BRANCH  11  12
HETATM   12  C4  UNL     1     -17.399 -10.896  16.936  1.00  0.00     0.268 C 
HETATM   13  O3  UNL     1     -18.624 -10.997  17.148  1.00  0.00    -0.265 OA
BRANCH  12  14
HETATM   14  C3  UNL     1     -16.574 -12.055  16.455  1.00  0.00     0.222 C 
BRANCH  14  15
HETATM   15  C2  UNL     1     -16.132 -11.839  15.051  1.00  0.00     0.267 C 
HETATM   16  O2  UNL     1     -15.002 -12.215  14.664  1.00  0.00    -0.265 OA
BRANCH  15  17
HETATM   17  O1  UNL     1     -17.008 -11.208  14.175  1.00  0.00    -0.326 OA
HETATM   18  C1  UNL     1     -17.880 -11.958  13.357  1.00  0.00     0.213 C 
ENDBRANCH  15  17
ENDBRANCH  14  15
ENDBRANCH  12  14
ENDBRANCH  11  12
ENDBRANCH   4  11
ENDBRANCH   1   3
BRANCH   1  19
HETATM   19  C8  UNL     1     -12.686  -8.615  15.202  1.00  0.00     0.171 C 
BRANCH  19  20
HETATM   20  C9  UNL     1     -11.871  -9.895  14.950  1.00  0.00     0.262 C 
BRANCH  20  21
HETATM   21  N2  UNL     1     -12.412 -10.989  15.742  1.00  0.00    -0.077 N 
ATOM     22  H23 UNL     1     -11.960 -11.062  16.653  1.00  0.00     0.274 HD
ATOM     23  H22 UNL     1     -13.361 -10.797  16.063  1.00  0.00     0.274 HD
ATOM     24  H21 UNL     1     -12.356 -11.859  15.215  1.00  0.00     0.274 HD
ENDBRANCH  20  21
ENDBRANCH  19  20
BRANCH  19  25
HETATM   25  C10 UNL     1     -11.778  -7.459  15.261  1.00  0.00     0.095 C 
HETATM   26  N3  UNL     1     -11.914  -6.575  16.165  1.00  0.00    -0.387 N 
ATOM     27  H32 UNL     1     -12.660  -6.676  16.854  1.00  0.00     0.157 HD
ATOM     28  H31 UNL     1     -11.285  -5.773  16.205  1.00  0.00     0.157 HD
BRANCH  25  29
HETATM   29  N4  UNL     1     -10.751  -7.320  14.312  1.00  0.00    -0.374 N 
ATOM     30  H4  UNL     1     -10.239  -8.147  14.006  1.00  0.00     0.161 HD
BRANCH  29  31
HETATM   31  C11 UNL     1     -10.408  -6.043  13.765  1.00  0.00     0.074 C 
HETATM   32  C12 UNL     1      -9.011  -5.626  14.151  1.00  0.00     0.031 C 
HETATM   33  C13 UNL     1     -10.468  -6.076  12.248  1.00  0.00     0.031 C 
ENDBRANCH  29  31
ENDBRANCH  25  29
ENDBRANCH  19  25
ENDBRANCH   1  19
TORSDOF 12
ENDMDL
MODEL 3
REMARK VINA RESULT: -6.762597422      1.248      1.496
REMARK  12 active torsions:
REMARK  status: ('A' for Active; 'I' for Inactive)
REMARK    1  A    between atoms: O1_2  and  C2_3 
REMARK    2  A    between atoms: C2_3  and  C3_5 
REMARK    3  A    between atoms: C3_5  and  C4_6 
REMARK    4  A    between atoms: C4_6  and  O4_8 
REMARK    5  A    between atoms: O4_8  and  C5_9 
REMARK    6  A    between atoms: C7_16  and  N1_17 
REMARK    7  A    between atoms: N1_17  and  C8_19 
REMARK    8  A    between atoms: C8_19  and  C9_20 
REMARK    9  A    between atoms: C8_19  and  C10_25 
REMARK   10  A    between atoms: C9_20  and  N2_21 
REMARK   11  A    between atoms: C10_25  and  N4_29 
REMARK   12  A    between atoms: N4_29  and  C11_31 
ROOT
HETATM    1  N1  UNL     1     -13.072  -8.892  16.033  1.00  0.00    -0.381 N 
ATOM      2  H1  UNL     1     -12.667  -8.720  16.953  1.00  0.00     0.156 HD
ENDROOT
BRANCH   1   3
HETATM    3  C7  UNL     1     -14.440  -9.338  15.858  1.00  0.00     0.271 C 
HETATM    4  C5  UNL     1     -15.162  -9.237  17.159  1.00  0.00     0.206 C 
HETATM    5  C6  UNL     1     -15.418  -7.770  17.545  1.00  0.00     0.229 C 
HETATM    6  O5  UNL     1     -16.306  -7.175  16.684  1.00  0.00    -0.251 OA
HETATM    7  S1  UNL     1     -15.578  -7.143  15.173  1.00  0.00     0.404 S 
HETATM    8  O6  UNL     1     -16.680  -6.824  14.180  1.00  0.00    -0.169 OA
HETATM    9  O7  UNL     1     -14.540  -6.071  15.117  1.00  0.00    -0.169 OA
HETATM   10  O8  UNL     1     -15.005  -8.649  14.816  1.00  0.00    -0.225 OA
BRANCH   4  11
HETATM   11  O4  UNL     1     -16.333  -9.955  17.308  1.00  0.00    -0.309 OA
BRANCH  11  12
HETATM   12  C4  UNL     1     -16.894 -10.862  16.449  1.00  0.00     0.268 C 
HETATM   13  O3  UNL     1     -17.774 -10.405  15.693  1.00  0.00    -0.265 OA
BRANCH  12  14
HETATM   14  C3  UNL     1     -16.481 -12.305  16.413  1.00  0.00     0.222 C 
BRANCH  14  15
HETATM   15  C2  UNL     1     -17.639 -13.192  16.704  1.00  0.00     0.267 C 
HETATM   16  O2  UNL     1     -18.320 -13.046  17.744  1.00  0.00    -0.265 OA
BRANCH  15  17
HETATM   17  O1  UNL     1     -17.946 -14.192  15.788  1.00  0.00    -0.326 OA
HETATM   18  C1  UNL     1     -17.485 -15.513  15.975  1.00  0.00     0.213 C 
ENDBRANCH  15  17
ENDBRANCH  14  15
ENDBRANCH  12  14
ENDBRANCH  11  12
ENDBRANCH   4  11
ENDBRANCH   1   3
BRANCH   1  19
HETATM   19  C8  UNL     1     -12.337  -8.709  14.833  1.00  0.00     0.171 C 
BRANCH  19  20
HETATM   20  C9  UNL     1     -11.433  -9.904  14.485  1.00  0.00     0.262 C 
BRANCH  20  21
HETATM   21  N2  UNL     1     -11.582 -10.944  15.491  1.00  0.00    -0.077 N 
ATOM     22  H23 UNL     1     -10.735 -11.064  16.046  1.00  0.00     0.274 HD
ATOM     23  H22 UNL     1     -12.213 -10.665  16.242  1.00  0.00     0.274 HD
ATOM     24  H21 UNL     1     -11.876 -11.815  15.048  1.00  0.00     0.274 HD
ENDBRANCH  20  21
ENDBRANCH  19  20
BRANCH  19  25
HETATM   25  C10 UNL     1     -11.514  -7.498  14.981  1.00  0.00     0.095 C 
HETATM   26  N3  UNL     1     -11.729  -6.683  15.932  1.00  0.00    -0.387 N 
ATOM     27  H32 UNL     1     -12.478  -6.876  16.597  1.00  0.00     0.157 HD
ATOM     28  H31 UNL     1     -11.159  -5.843  16.034  1.00  0.00     0.157 HD
BRANCH  25  29
HETATM   29  N4  UNL     1     -10.482  -7.231  14.064  1.00  0.00    -0.374 N 
ATOM     30  H4  UNL     1      -9.892  -7.996  13.741  1.00  0.00     0.161 HD
BRANCH  29  31
HETATM   31  C11 UNL     1     -10.243  -5.908  13.576  1.00  0.00     0.074 C 
HETATM   32  C12 UNL     1      -8.874  -5.408  13.964  1.00  0.00     0.031 C 
HETATM   33  C13 UNL     1     -10.326  -5.873  12.060  1.00  0.00     0.031 C 
ENDBRANCH  29  31
ENDBRANCH  25  29
ENDBRANCH  19  25
ENDBRANCH   1  19
TORSDOF 12
ENDMDL
MODEL 4
REMARK VINA RESULT: -6.727531711      1.274      1.411
REMARK  12 active torsions:
REMARK  status: ('A' for Active; 'I' for Inactive)
REMARK    1  A    between atoms: O1_2  and  C2_3 
REMARK    2  A    between atoms: C2_3  and  C3_5 
REMARK    3  A    between atoms: C3_5  and  C4_6 
REMARK    4  A    between atoms: C4_6  and  O4_8 
REMARK    5  A    between atoms: O4_8  and  C5_9 
REMARK    6  A    between atoms: C7_16  and  N1_17 
REMARK    7  A    between atoms: N1_17  and  C8_19 
REMARK    8  A    between atoms: C8_19  and  C9_20 
REMARK    9  A    between atoms: C8_19  and  C10_25 
REMARK   10  A    between atoms: C9_20  and  N2_21 
REMARK   11  A    between atoms: C10_25  and  N4_29 
REMARK   12  A    between atoms: N4_29  and  C11_31 
ROOT
HETATM    1  N1  UNL     1     -13.768  -8.538  15.922  1.00  0.00    -0.381 N 
ATOM      2  H1  UNL     1     -13.587  -8.402  16.917  1.00  0.00     0.156 HD
ENDROOT
BRANCH   1   3
HETATM    3  C7  UNL     1     -15.109  -8.682  15.390  1.00  0.00     0.271 C 
HETATM    4  C5  UNL     1     -16.089  -8.674  16.514  1.00  0.00     0.206 C 
HETATM    5  C6  UNL     1     -16.210  -7.274  17.141  1.00  0.00     0.229 C 
HETATM    6  O5  UNL     1     -16.780  -6.383  16.266  1.00  0.00    -0.251 OA
HETATM    7  S1  UNL     1     -15.725  -6.227  14.971  1.00  0.00     0.404 S 
HETATM    8  O6  UNL     1     -16.510  -5.538  13.869  1.00  0.00    -0.169 OA
HETATM    9  O7  UNL     1     -14.557  -5.376  15.348  1.00  0.00    -0.169 OA
HETATM   10  O8  UNL     1     -15.312  -7.728  14.425  1.00  0.00    -0.225 OA
BRANCH   4  11
HETATM   11  O4  UNL     1     -17.355  -9.173  16.273  1.00  0.00    -0.309 OA
BRANCH  11  12
HETATM   12  C4  UNL     1     -17.760 -10.479  16.211  1.00  0.00     0.268 C 
HETATM   13  O3  UNL     1     -18.274 -10.927  17.256  1.00  0.00    -0.265 OA
BRANCH  12  14
HETATM   14  C3  UNL     1     -17.603 -11.318  14.976  1.00  0.00     0.222 C 
BRANCH  14  15
HETATM   15  C2  UNL     1     -16.520 -12.322  15.154  1.00  0.00     0.267 C 
HETATM   16  O2  UNL     1     -15.368 -12.117  14.708  1.00  0.00    -0.265 OA
BRANCH  15  17
HETATM   17  O1  UNL     1     -16.821 -13.499  15.831  1.00  0.00    -0.326 OA
HETATM   18  C1  UNL     1     -18.061 -14.147  15.641  1.00  0.00     0.213 C 
ENDBRANCH  15  17
ENDBRANCH  14  15
ENDBRANCH  12  14
ENDBRANCH  11  12
ENDBRANCH   4  11
ENDBRANCH   1   3
BRANCH   1  19
HETATM   19  C8  UNL     1     -12.726  -8.599  14.962  1.00  0.00     0.171 C 
BRANCH  19  20
HETATM   20  C9  UNL     1     -11.963  -9.934  14.975  1.00  0.00     0.262 C 
BRANCH  20  21
HETATM   21  N2  UNL     1     -12.652 -10.888  15.831  1.00  0.00    -0.077 N 
ATOM     22  H23 UNL     1     -12.600 -10.626  16.816  1.00  0.00     0.274 HD
ATOM     23  H22 UNL     1     -13.665 -10.841  15.719  1.00  0.00     0.274 HD
ATOM     24  H21 UNL     1     -12.292 -11.827  15.664  1.00  0.00     0.274 HD
ENDBRANCH  20  21
ENDBRANCH  19  20
BRANCH  19  25
HETATM   25  C10 UNL     1     -11.790  -7.496  15.232  1.00  0.00     0.095 C 
HETATM   26  N3  UNL     1     -11.979  -6.715  16.216  1.00  0.00    -0.387 N 
ATOM     27  H32 UNL     1     -12.786  -6.860  16.822  1.00  0.00     0.157 HD
ATOM     28  H31 UNL     1     -11.330  -5.949  16.403  1.00  0.00     0.157 HD
BRANCH  25  29
HETATM   29  N4  UNL     1     -10.677  -7.295  14.396  1.00  0.00    -0.374 N 
ATOM     30  H4  UNL     1     -10.076  -8.086  14.169  1.00  0.00     0.161 HD
BRANCH  29  31
HETATM   31  C11 UNL     1     -10.371  -6.005  13.859  1.00  0.00     0.074 C 
HETATM   32  C12 UNL     1      -8.997  -5.541  14.272  1.00  0.00     0.031 C 
HETATM   33  C13 UNL     1     -10.403  -6.036  12.342  1.00  0.00     0.031 C 
ENDBRANCH  29  31
ENDBRANCH  25  29
ENDBRANCH  19  25
ENDBRANCH   1  19
TORSDOF 12
ENDMDL
MODEL 5
REMARK VINA RESULT: -6.723338014      3.027      6.901
REMARK  12 active torsions:
REMARK  status: ('A' for Active; 'I' for Inactive)
REMARK    1  A    between atoms: O1_2  and  C2_3 
REMARK    2  A    between atoms: C2_3  and  C3_5 
REMARK    3  A    between atoms: C3_5  and  C4_6 
REMARK    4  A    between atoms: C4_6  and  O4_8 
REMARK    5  A    between atoms: O4_8  and  C5_9 
REMARK    6  A    between atoms: C7_16  and  N1_17 
REMARK    7  A    between atoms: N1_17  and  C8_19 
REMARK    8  A    between atoms: C8_19  and  C9_20 
REMARK    9  A    between atoms: C8_19  and  C10_25 
REMARK   10  A    between atoms: C9_20  and  N2_21 
REMARK   11  A    between atoms: C10_25  and  N4_29 
REMARK   12  A    between atoms: N4_29  and  C11_31 
ROOT
HETATM    1  N1  UNL     1     -15.289  -9.458  15.892  1.00  0.00    -0.381 N 
ATOM      2  H1  UNL     1     -15.857  -8.709  15.497  1.00  0.00     0.156 HD
ENDROOT
BRANCH   1   3
HETATM    3  C7  UNL     1     -13.916  -9.251  16.313  1.00  0.00     0.271 C 
HETATM    4  C5  UNL     1     -13.103  -8.815  15.142  1.00  0.00     0.206 C 
HETATM    5  C6  UNL     1     -13.459  -7.380  14.715  1.00  0.00     0.229 C 
HETATM    6  O5  UNL     1     -13.087  -6.468  15.670  1.00  0.00    -0.251 OA
HETATM    7  S1  UNL     1     -14.003  -6.792  17.039  1.00  0.00     0.404 S 
HETATM    8  O6  UNL     1     -13.344  -6.032  18.176  1.00  0.00    -0.169 OA
HETATM    9  O7  UNL     1     -15.400  -6.295  16.861  1.00  0.00    -0.169 OA
HETATM   10  O8  UNL     1     -13.903  -8.401  17.389  1.00  0.00    -0.225 OA
BRANCH   4  11
HETATM   11  O4  UNL     1     -11.729  -8.933  15.229  1.00  0.00    -0.309 OA
BRANCH  11  12
HETATM   12  C4  UNL     1     -10.879  -9.635  14.417  1.00  0.00     0.268 C 
HETATM   13  O3  UNL     1     -10.931 -10.875  14.538  1.00  0.00    -0.265 OA
BRANCH  12  14
HETATM   14  C3  UNL     1      -9.950  -8.966  13.445  1.00  0.00     0.222 C 
BRANCH  14  15
HETATM   15  C2  UNL     1     -10.693  -8.491  12.247  1.00  0.00     0.267 C 
HETATM   16  O2  UNL     1     -10.924  -9.257  11.284  1.00  0.00    -0.265 OA
BRANCH  15  17
HETATM   17  O1  UNL     1     -11.126  -7.170  12.224  1.00  0.00    -0.326 OA
HETATM   18  C1  UNL     1     -10.346  -6.142  12.797  1.00  0.00     0.213 C 
ENDBRANCH  15  17
ENDBRANCH  14  15
ENDBRANCH  12  14
ENDBRANCH  11  12
ENDBRANCH   4  11
ENDBRANCH   1   3
BRANCH   1  19
HETATM   19  C8  UNL     1     -15.784 -10.775  16.070  1.00  0.00     0.171 C 
BRANCH  19  20
HETATM   20  C9  UNL     1     -16.464 -11.344  14.814  1.00  0.00     0.262 C 
BRANCH  20  21
HETATM   21  N2  UNL     1     -16.032 -12.717  14.598  1.00  0.00    -0.077 N 
ATOM     22  H23 UNL     1     -15.168 -12.929  15.097  1.00  0.00     0.274 HD
ATOM     23  H22 UNL     1     -16.641 -13.388  15.065  1.00  0.00     0.274 HD
ATOM     24  H21 UNL     1     -15.953 -12.902  13.599  1.00  0.00     0.274 HD
ENDBRANCH  20  21
ENDBRANCH  19  20
BRANCH  19  25
HETATM   25  C10 UNL     1     -16.747 -10.755  17.183  1.00  0.00     0.095 C 
HETATM   26  N3  UNL     1     -16.379 -10.410  18.350  1.00  0.00    -0.387 N 
ATOM     27  H32 UNL     1     -15.407 -10.144  18.509  1.00  0.00     0.157 HD
ATOM     28  H31 UNL     1     -17.046 -10.397  19.122  1.00  0.00     0.157 HD
BRANCH  25  29
HETATM   29  N4  UNL     1     -18.086 -11.122  16.964  1.00  0.00    -0.374 N 
ATOM     30  H4  UNL     1     -18.613 -10.665  16.220  1.00  0.00     0.161 HD
BRANCH  29  31
HETATM   31  C11 UNL     1     -18.725 -12.122  17.762  1.00  0.00     0.074 C 
HETATM   32  C12 UNL     1     -20.228 -12.043  17.658  1.00  0.00     0.031 C 
HETATM   33  C13 UNL     1     -18.312 -13.512  17.312  1.00  0.00     0.031 C 
ENDBRANCH  29  31
ENDBRANCH  25  29
ENDBRANCH  19  25
ENDBRANCH   1  19
TORSDOF 12
ENDMDL
