MODEL 1
REMARK VINA RESULT: -5.829096987      0.000      0.000
REMARK  3 active torsions:
REMARK  status: ('A' for Active; 'I' for Inactive)
REMARK    1  A    between atoms: C2_2  and  C3_3 
REMARK    2  A    between atoms: C2_2  and  O3_13 
REMARK    3  A    between atoms: C4_4  and  C5_5 
ROOT
HETATM    1  C5  UNL     1       5.520  18.013  38.700  1.00  0.00     0.181 C 
HETATM    2  C6  UNL     1       6.316  18.829  39.705  1.00  0.00     0.050 C 
HETATM    3  C7  UNL     1       6.051  18.039  37.334  1.00  0.00     0.254 C 
HETATM    4  O1  UNL     1       6.836  17.353  36.645  1.00  0.00    -0.271 OA
HETATM    5  N1  UNL     1       5.282  19.222  37.070  1.00  0.00    -0.294 N 
ATOM      6  H1  UNL     1       5.326  19.997  36.409  1.00  0.00     0.171 HD
HETATM    7  C8  UNL     1       4.436  18.834  38.137  1.00  0.00     0.254 C 
HETATM    8  O2  UNL     1       3.259  19.094  38.451  1.00  0.00    -0.271 OA
ENDROOT
BRANCH   1   9
HETATM    9  C4  UNL     1       5.142  16.690  39.170  1.00  0.00    -0.070 C 
HETATM   10  C3  UNL     1       4.814  15.592  39.557  1.00  0.00    -0.041 C 
BRANCH  10  11
HETATM   11  C2  UNL     1       4.404  14.296  40.011  1.00  0.00     0.112 C 
HETATM   12  C1  UNL     1       5.216  13.494  40.637  1.00  0.00     0.061 C 
BRANCH  11  13
HETATM   13  O3  UNL     1       3.102  13.918  39.760  1.00  0.00    -0.348 OA
HETATM   14  C9  UNL     1       1.981  14.610  40.307  1.00  0.00     0.211 C 
ENDBRANCH  11  13
ENDBRANCH  10  11
ENDBRANCH   1   9
TORSDOF 3
ENDMDL
MODEL 2
REMARK VINA RESULT: -5.778906316      0.903      1.499
REMARK  3 active torsions:
REMARK  status: ('A' for Active; 'I' for Inactive)
REMARK    1  A    between atoms: C2_2  and  C3_3 
REMARK    2  A    between atoms: C2_2  and  O3_13 
REMARK    3  A    between atoms: C4_4  and  C5_5 
ROOT
HETATM    1  C5  UNL     1       5.591  18.007  38.698  1.00  0.00     0.181 C 
HETATM    2  C6  UNL     1       6.355  18.812  39.736  1.00  0.00     0.050 C 
HETATM    3  C7  UNL     1       6.138  18.083  37.342  1.00  0.00     0.254 C 
HETATM    4  O1  UNL     1       6.949  17.435  36.644  1.00  0.00    -0.271 OA
HETATM    5  N1  UNL     1       5.347  19.256  37.100  1.00  0.00    -0.294 N 
ATOM      6  H1  UNL     1       5.382  20.050  36.461  1.00  0.00     0.171 HD
HETATM    7  C8  UNL     1       4.496  18.819  38.144  1.00  0.00     0.254 C 
HETATM    8  O2  UNL     1       3.309  19.044  38.448  1.00  0.00    -0.271 OA
ENDROOT
BRANCH   1   9
HETATM    9  C4  UNL     1       5.237  16.663  39.126  1.00  0.00    -0.070 C 
HETATM   10  C3  UNL     1       4.928  15.550  39.483  1.00  0.00    -0.041 C 
BRANCH  10  11
HETATM   11  C2  UNL     1       4.542  14.237  39.910  1.00  0.00     0.112 C 
HETATM   12  C1  UNL     1       3.296  13.867  39.966  1.00  0.00     0.061 C 
BRANCH  11  13
HETATM   13  O3  UNL     1       5.549  13.363  40.265  1.00  0.00    -0.348 OA
HETATM   14  C9  UNL     1       5.632  12.772  41.561  1.00  0.00     0.211 C 
ENDBRANCH  11  13
ENDBRANCH  10  11
ENDBRANCH   1   9
TORSDOF 3
ENDMDL
MODEL 3
REMARK VINA RESULT: -4.817795945      1.284      1.967
REMARK  3 active torsions:
REMARK  status: ('A' for Active; 'I' for Inactive)
REMARK    1  A    between atoms: C2_2  and  C3_3 
REMARK    2  A    between atoms: C2_2  and  O3_13 
REMARK    3  A    between atoms: C4_4  and  C5_5 
ROOT
HETATM    1  C5  UNL     1       4.728  18.268  38.413  1.00  0.00     0.181 C 
HETATM    2  C6  UNL     1       3.472  19.111  38.263  1.00  0.00     0.050 C 
HETATM    3  C7  UNL     1       5.857  18.961  39.039  1.00  0.00     0.254 C 
HETATM    4  O1  UNL     1       6.316  19.105  40.193  1.00  0.00    -0.271 OA
HETATM    5  N1  UNL     1       6.263  19.441  37.749  1.00  0.00    -0.294 N 
ATOM      6  H1  UNL     1       6.823  20.216  37.394  1.00  0.00     0.171 HD
HETATM    7  C8  UNL     1       5.540  18.361  37.189  1.00  0.00     0.254 C 
HETATM    8  O2  UNL     1       5.588  17.754  36.102  1.00  0.00    -0.271 OA
ENDROOT
BRANCH   1   9
HETATM    9  C4  UNL     1       4.490  16.927  38.923  1.00  0.00    -0.070 C 
HETATM   10  C3  UNL     1       4.284  15.818  39.357  1.00  0.00    -0.041 C 
BRANCH  10  11
HETATM   11  C2  UNL     1       4.031  14.512  39.890  1.00  0.00     0.112 C 
HETATM   12  C1  UNL     1       4.906  13.552  39.814  1.00  0.00     0.061 C 
BRANCH  11  13
HETATM   13  O3  UNL     1       2.809  14.299  40.496  1.00  0.00    -0.348 OA
HETATM   14  C9  UNL     1       1.575  14.687  39.895  1.00  0.00     0.211 C 
ENDBRANCH  11  13
ENDBRANCH  10  11
ENDBRANCH   1   9
TORSDOF 3
ENDMDL
MODEL 4
REMARK VINA RESULT: -4.798306696      1.441      2.556
REMARK  3 active torsions:
REMARK  status: ('A' for Active; 'I' for Inactive)
REMARK    1  A    between atoms: C2_2  and  C3_3 
REMARK    2  A    between atoms: C2_2  and  O3_13 
REMARK    3  A    between atoms: C4_4  and  C5_5 
ROOT
HETATM    1  C5  UNL     1       5.062  17.977  38.450  1.00  0.00     0.181 C 
HETATM    2  C6  UNL     1       3.772  18.621  37.970  1.00  0.00     0.050 C 
HETATM    3  C7  UNL     1       5.958  18.876  39.182  1.00  0.00     0.254 C 
HETATM    4  O1  UNL     1       6.160  19.195  40.374  1.00  0.00    -0.271 OA
HETATM    5  N1  UNL     1       6.552  19.278  37.939  1.00  0.00    -0.294 N 
ATOM      6  H1  UNL     1       7.078  20.083  37.600  1.00  0.00     0.171 HD
HETATM    7  C8  UNL     1       6.083  18.059  37.393  1.00  0.00     0.254 C 
HETATM    8  O2  UNL     1       6.415  17.359  36.417  1.00  0.00    -0.271 OA
ENDROOT
BRANCH   1   9
HETATM    9  C4  UNL     1       4.885  16.673  39.069  1.00  0.00    -0.070 C 
HETATM   10  C3  UNL     1       4.724  15.588  39.578  1.00  0.00    -0.041 C 
BRANCH  10  11
HETATM   11  C2  UNL     1       4.513  14.303  40.176  1.00  0.00     0.112 C 
HETATM   12  C1  UNL     1       3.321  13.814  40.360  1.00  0.00     0.061 C 
BRANCH  11  13
HETATM   13  O3  UNL     1       5.630  13.588  40.557  1.00  0.00    -0.348 OA
HETATM   14  C9  UNL     1       5.647  12.746  41.708  1.00  0.00     0.211 C 
ENDBRANCH  11  13
ENDBRANCH  10  11
ENDBRANCH   1   9
TORSDOF 3
ENDMDL
MODEL 5
REMARK VINA RESULT: -4.718831328      1.336      2.262
REMARK  3 active torsions:
REMARK  status: ('A' for Active; 'I' for Inactive)
REMARK    1  A    between atoms: C2_2  and  C3_3 
REMARK    2  A    between atoms: C2_2  and  O3_13 
REMARK    3  A    between atoms: C4_4  and  C5_5 
ROOT
HETATM    1  C5  UNL     1       5.896  17.242  38.401  1.00  0.00     0.181 C 
HETATM    2  C6  UNL     1       6.545  17.132  37.032  1.00  0.00     0.050 C 
HETATM    3  C7  UNL     1       5.016  18.401  38.569  1.00  0.00     0.254 C 
HETATM    4  O1  UNL     1       3.799  18.654  38.430  1.00  0.00    -0.271 OA
HETATM    5  N1  UNL     1       6.146  19.186  38.977  1.00  0.00    -0.294 N 
ATOM      6  H1  UNL     1       6.382  20.178  39.008  1.00  0.00     0.171 HD
HETATM    7  C8  UNL     1       6.787  17.971  39.318  1.00  0.00     0.254 C 
HETATM    8  O2  UNL     1       7.720  17.667  40.085  1.00  0.00    -0.271 OA
ENDROOT
BRANCH   1   9
HETATM    9  C4  UNL     1       5.344  15.994  38.902  1.00  0.00    -0.070 C 
HETATM   10  C3  UNL     1       4.887  14.960  39.333  1.00  0.00    -0.041 C 
BRANCH  10  11
HETATM   11  C2  UNL     1       4.351  13.742  39.863  1.00  0.00     0.112 C 
HETATM   12  C1  UNL     1       5.108  12.830  40.401  1.00  0.00     0.061 C 
BRANCH  11  13
HETATM   13  O3  UNL     1       2.985  13.561  39.786  1.00  0.00    -0.348 OA
HETATM   14  C9  UNL     1       2.059  14.388  40.488  1.00  0.00     0.211 C 
ENDBRANCH  11  13
ENDBRANCH  10  11
ENDBRANCH   1   9
TORSDOF 3
ENDMDL
