MODEL 1
REMARK VINA RESULT: -3.993443076      0.000      0.000
REMARK  3 active torsions:
REMARK  status: ('A' for Active; 'I' for Inactive)
REMARK    1  A    between atoms: O1_2  and  C2_3 
REMARK    2  A    between atoms: C2_3  and  C3_5 
REMARK    3  A    between atoms: C4_7  and  N1_8 
ROOT
HETATM    1  C3  UNL     1       2.782  15.791  39.451  1.00  0.00     0.073 C 
HETATM    2  S2  UNL     1       3.006  17.416  38.717  1.00  0.00    -0.047 SA
HETATM    3  C4  UNL     1       1.582  15.376  39.821  1.00  0.00     0.129 C 
ENDROOT
BRANCH   1   4
HETATM    4  C2  UNL     1       3.947  14.944  39.630  1.00  0.00     0.154 C 
HETATM    5  S1  UNL     1       5.438  15.592  39.801  1.00  0.00    -0.051 SA
BRANCH   4   6
HETATM    6  O1  UNL     1       3.870  13.560  39.668  1.00  0.00    -0.344 OA
HETATM    7  C1  UNL     1       5.010  12.783  40.008  1.00  0.00     0.211 C 
ENDBRANCH   4   6
ENDBRANCH   1   4
BRANCH   3   8
HETATM    8  N1  UNL     1       1.391  14.093  40.402  1.00  0.00    -0.317 N 
HETATM    9  N2  UNL     1       0.624  13.213  39.919  1.00  0.00    -0.345 N 
ATOM     10  H22 UNL     1       0.122  13.452  39.065  1.00  0.00     0.176 HD
ATOM     11  H21 UNL     1       0.487  12.293  40.337  1.00  0.00     0.176 HD
ATOM     12  H1  UNL     1       1.902  13.871  41.257  1.00  0.00     0.185 HD
ENDBRANCH   3   8
TORSDOF 3
ENDMDL
MODEL 2
REMARK VINA RESULT: -3.971364276      2.833      3.379
REMARK  3 active torsions:
REMARK  status: ('A' for Active; 'I' for Inactive)
REMARK    1  A    between atoms: O1_2  and  C2_3 
REMARK    2  A    between atoms: C2_3  and  C3_5 
REMARK    3  A    between atoms: C4_7  and  N1_8 
ROOT
HETATM    1  C3  UNL     1       3.105  14.295  39.897  1.00  0.00     0.073 C 
HETATM    2  S2  UNL     1       1.324  14.305  40.132  1.00  0.00    -0.047 SA
HETATM    3  C4  UNL     1       3.785  13.160  39.923  1.00  0.00     0.129 C 
ENDROOT
BRANCH   1   4
HETATM    4  C2  UNL     1       3.783  15.559  39.679  1.00  0.00     0.154 C 
HETATM    5  S1  UNL     1       3.027  16.798  38.925  1.00  0.00    -0.051 SA
BRANCH   4   6
HETATM    6  O1  UNL     1       5.087  15.792  40.087  1.00  0.00    -0.344 OA
HETATM    7  C1  UNL     1       5.949  16.619  39.315  1.00  0.00     0.211 C 
ENDBRANCH   4   6
ENDBRANCH   1   4
BRANCH   3   8
HETATM    8  N1  UNL     1       5.194  13.139  39.738  1.00  0.00    -0.317 N 
HETATM    9  N2  UNL     1       5.886  12.082  39.759  1.00  0.00    -0.345 N 
ATOM     10  H22 UNL     1       5.391  11.205  39.919  1.00  0.00     0.176 HD
ATOM     11  H21 UNL     1       6.897  12.067  39.627  1.00  0.00     0.176 HD
ATOM     12  H1  UNL     1       5.673  14.026  39.579  1.00  0.00     0.185 HD
ENDBRANCH   3   8
TORSDOF 3
ENDMDL
MODEL 3
REMARK VINA RESULT: -3.925556355      1.670      2.846
REMARK  3 active torsions:
REMARK  status: ('A' for Active; 'I' for Inactive)
REMARK    1  A    between atoms: O1_2  and  C2_3 
REMARK    2  A    between atoms: C2_3  and  C3_5 
REMARK    3  A    between atoms: C4_7  and  N1_8 
ROOT
HETATM    1  C3  UNL     1       3.725  13.826  40.108  1.00  0.00     0.073 C 
HETATM    2  S2  UNL     1       5.216  12.823  40.090  1.00  0.00    -0.047 SA
HETATM    3  C4  UNL     1       2.574  13.319  40.516  1.00  0.00     0.129 C 
ENDROOT
BRANCH   1   4
HETATM    4  C2  UNL     1       3.812  15.205  39.666  1.00  0.00     0.154 C 
HETATM    5  S1  UNL     1       5.233  16.012  39.705  1.00  0.00    -0.051 SA
BRANCH   4   6
HETATM    6  O1  UNL     1       2.717  15.911  39.191  1.00  0.00    -0.344 OA
HETATM    7  C1  UNL     1       2.843  17.280  38.826  1.00  0.00     0.211 C 
ENDBRANCH   4   6
ENDBRANCH   1   4
BRANCH   3   8
HETATM    8  N1  UNL     1       1.388  14.101  40.535  1.00  0.00    -0.317 N 
HETATM    9  N2  UNL     1       0.345  13.807  39.886  1.00  0.00    -0.345 N 
ATOM     10  H22 UNL     1       0.373  12.958  39.321  1.00  0.00     0.176 HD
ATOM     11  H21 UNL     1      -0.506  14.369  39.900  1.00  0.00     0.176 HD
ATOM     12  H1  UNL     1       1.378  14.947  41.106  1.00  0.00     0.185 HD
ENDBRANCH   3   8
TORSDOF 3
ENDMDL
MODEL 4
REMARK VINA RESULT: -3.852278593      3.048      3.403
REMARK  3 active torsions:
REMARK  status: ('A' for Active; 'I' for Inactive)
REMARK    1  A    between atoms: O1_2  and  C2_3 
REMARK    2  A    between atoms: C2_3  and  C3_5 
REMARK    3  A    between atoms: C4_7  and  N1_8 
ROOT
HETATM    1  C3  UNL     1       2.898  15.466  39.675  1.00  0.00     0.073 C 
HETATM    2  S2  UNL     1       1.712  14.366  40.457  1.00  0.00    -0.047 SA
HETATM    3  C4  UNL     1       2.491  16.475  38.922  1.00  0.00     0.129 C 
ENDROOT
BRANCH   1   4
HETATM    4  C2  UNL     1       4.313  15.224  39.886  1.00  0.00     0.154 C 
HETATM    5  S1  UNL     1       4.922  13.707  39.831  1.00  0.00    -0.051 SA
BRANCH   4   6
HETATM    6  O1  UNL     1       5.219  16.241  40.142  1.00  0.00    -0.344 OA
HETATM    7  C1  UNL     1       6.327  16.456  39.278  1.00  0.00     0.211 C 
ENDBRANCH   4   6
ENDBRANCH   1   4
BRANCH   3   8
HETATM    8  N1  UNL     1       3.419  17.352  38.298  1.00  0.00    -0.317 N 
HETATM    9  N2  UNL     1       3.502  18.585  38.562  1.00  0.00    -0.345 N 
ATOM     10  H22 UNL     1       2.861  18.955  39.263  1.00  0.00     0.176 HD
ATOM     11  H21 UNL     1       4.168  19.214  38.113  1.00  0.00     0.176 HD
ATOM     12  H1  UNL     1       4.053  16.965  37.599  1.00  0.00     0.185 HD
ENDBRANCH   3   8
TORSDOF 3
ENDMDL
MODEL 5
REMARK VINA RESULT: -3.421315932      3.814      4.190
REMARK  3 active torsions:
REMARK  status: ('A' for Active; 'I' for Inactive)
REMARK    1  A    between atoms: O1_2  and  C2_3 
REMARK    2  A    between atoms: C2_3  and  C3_5 
REMARK    3  A    between atoms: C4_7  and  N1_8 
ROOT
HETATM    1  C3  UNL     1       3.555  16.711  38.928  1.00  0.00     0.073 C 
HETATM    2  S2  UNL     1       2.162  15.689  39.420  1.00  0.00    -0.047 SA
HETATM    3  C4  UNL     1       3.365  17.859  38.300  1.00  0.00     0.129 C 
ENDROOT
BRANCH   1   4
HETATM    4  C2  UNL     1       4.897  16.248  39.233  1.00  0.00     0.154 C 
HETATM    5  S1  UNL     1       5.145  15.053  40.321  1.00  0.00    -0.051 SA
BRANCH   4   6
HETATM    6  O1  UNL     1       6.029  16.780  38.635  1.00  0.00    -0.344 OA
HETATM    7  C1  UNL     1       7.068  17.340  39.426  1.00  0.00     0.211 C 
ENDBRANCH   4   6
ENDBRANCH   1   4
BRANCH   3   8
HETATM    8  N1  UNL     1       4.458  18.677  37.905  1.00  0.00    -0.317 N 
HETATM    9  N2  UNL     1       4.899  18.732  36.723  1.00  0.00    -0.345 N 
ATOM     10  H22 UNL     1       4.432  18.153  36.025  1.00  0.00     0.176 HD
ATOM     11  H21 UNL     1       5.684  19.319  36.440  1.00  0.00     0.176 HD
ATOM     12  H1  UNL     1       4.913  19.249  38.617  1.00  0.00     0.185 HD
ENDBRANCH   3   8
TORSDOF 3
ENDMDL
