MODEL 1
REMARK VINA RESULT: -5.544034562      0.000      0.000
REMARK  3 active torsions:
REMARK  status: ('A' for Active; 'I' for Inactive)
REMARK    1  A    between atoms: C5_5  and  N1_6 
REMARK       I    between atoms: N1_6  and  C6_8 
REMARK    2  A    between atoms: C6_8  and  C7_10 
REMARK    3  A    between atoms: C7_10  and  S1_12 
ROOT
HETATM    1  N1  UNL     1      82.955  71.046 -11.282  1.00  0.00    -0.355 N 
ATOM      2  H1  UNL     1      82.424  71.144 -12.147  1.00  0.00     0.162 HD
HETATM    3  C6  UNL     1      82.256  70.913 -10.053  1.00  0.00     0.236 C 
HETATM    4  O1  UNL     1      82.927  70.792  -8.998  1.00  0.00    -0.272 OA
ENDROOT
BRANCH   3   5
HETATM    5  C7  UNL     1      80.789  70.923 -10.065  1.00  0.00     0.195 C 
HETATM    6  C8  UNL     1      80.203  70.873  -8.656  1.00  0.00     0.036 C 
BRANCH   5   7
HETATM    7  S1  UNL     1      80.110  69.526 -10.933  1.00  0.00     0.153 S 
HETATM    8  C9  UNL     1      79.352  68.363  -9.864  1.00  0.00     0.162 C 
HETATM    9  O2  UNL     1      81.259  68.833 -11.632  1.00  0.00    -0.227 OA
HETATM   10  O3  UNL     1      79.129  69.953 -11.979  1.00  0.00    -0.227 OA
ENDBRANCH   5   7
ENDBRANCH   3   5
BRANCH   1  11
HETATM   11  C5  UNL     1      84.416  71.045 -11.343  1.00  0.00     0.092 A 
HETATM   12  C2  UNL     1      84.934  71.344 -12.751  1.00  0.00     0.010 A 
HETATM   13  C1  UNL     1      86.109  72.297 -12.855  1.00  0.00     0.012 C 
HETATM   14  C3  UNL     1      85.133  70.006 -12.090  1.00  0.00     0.010 A 
HETATM   15  C4  UNL     1      86.557  69.701 -11.689  1.00  0.00     0.012 C 
ENDBRANCH   1  11
TORSDOF 3
ENDMDL
MODEL 2
REMARK VINA RESULT: -5.541555851      1.823      3.188
REMARK  3 active torsions:
REMARK  status: ('A' for Active; 'I' for Inactive)
REMARK    1  A    between atoms: C5_5  and  N1_6 
REMARK       I    between atoms: N1_6  and  C6_8 
REMARK    2  A    between atoms: C6_8  and  C7_10 
REMARK    3  A    between atoms: C7_10  and  S1_12 
ROOT
HETATM    1  N1  UNL     1      83.361  70.484 -10.292  1.00  0.00    -0.355 N 
ATOM      2  H1  UNL     1      83.740  70.285  -9.366  1.00  0.00     0.162 HD
HETATM    3  C6  UNL     1      81.966  70.707 -10.433  1.00  0.00     0.236 C 
HETATM    4  O1  UNL     1      81.517  70.950 -11.581  1.00  0.00    -0.272 OA
ENDROOT
BRANCH   3   5
HETATM    5  C7  UNL     1      81.111  70.643  -9.242  1.00  0.00     0.195 C 
HETATM    6  C8  UNL     1      79.797  71.394  -9.438  1.00  0.00     0.036 C 
BRANCH   5   7
HETATM    7  S1  UNL     1      81.887  71.368  -7.814  1.00  0.00     0.153 S 
HETATM    8  C9  UNL     1      80.733  72.059  -6.690  1.00  0.00     0.162 C 
HETATM    9  O2  UNL     1      82.779  72.485  -8.308  1.00  0.00    -0.227 OA
HETATM   10  O3  UNL     1      82.748  70.377  -7.095  1.00  0.00    -0.227 OA
ENDBRANCH   5   7
ENDBRANCH   3   5
BRANCH   1  11
HETATM   11  C5  UNL     1      84.271  70.531 -11.436  1.00  0.00     0.092 A 
HETATM   12  C2  UNL     1      85.737  70.556 -11.004  1.00  0.00     0.010 A 
HETATM   13  C1  UNL     1      86.692  69.674 -11.788  1.00  0.00     0.012 C 
HETATM   14  C3  UNL     1      85.085  71.723 -11.696  1.00  0.00     0.010 A 
HETATM   15  C4  UNL     1      85.552  71.966 -13.111  1.00  0.00     0.012 C 
ENDBRANCH   1  11
TORSDOF 3
ENDMDL
MODEL 3
REMARK VINA RESULT: -5.492663828      1.962      2.464
REMARK  3 active torsions:
REMARK  status: ('A' for Active; 'I' for Inactive)
REMARK    1  A    between atoms: C5_5  and  N1_6 
REMARK       I    between atoms: N1_6  and  C6_8 
REMARK    2  A    between atoms: C6_8  and  C7_10 
REMARK    3  A    between atoms: C7_10  and  S1_12 
ROOT
HETATM    1  N1  UNL     1      83.693  71.526 -10.276  1.00  0.00    -0.355 N 
ATOM      2  H1  UNL     1      82.839  71.318 -10.793  1.00  0.00     0.162 HD
HETATM    3  C6  UNL     1      83.594  72.037  -8.956  1.00  0.00     0.236 C 
HETATM    4  O1  UNL     1      84.656  72.287  -8.333  1.00  0.00    -0.272 OA
ENDROOT
BRANCH   3   5
HETATM    5  C7  UNL     1      82.264  72.253  -8.375  1.00  0.00     0.195 C 
HETATM    6  C8  UNL     1      82.317  72.401  -6.856  1.00  0.00     0.036 C 
BRANCH   5   7
HETATM    7  S1  UNL     1      81.156  70.899  -8.701  1.00  0.00     0.153 S 
HETATM    8  C9  UNL     1      80.061  71.222 -10.031  1.00  0.00     0.162 C 
HETATM    9  O2  UNL     1      80.323  70.693  -7.455  1.00  0.00    -0.227 OA
HETATM   10  O3  UNL     1      81.902  69.631  -8.969  1.00  0.00    -0.227 OA
ENDBRANCH   5   7
ENDBRANCH   3   5
BRANCH   1  11
HETATM   11  C5  UNL     1      84.986  71.288 -10.917  1.00  0.00     0.092 A 
HETATM   12  C2  UNL     1      84.878  71.267 -12.442  1.00  0.00     0.010 A 
HETATM   13  C1  UNL     1      85.963  71.996 -13.211  1.00  0.00     0.012 C 
HETATM   14  C3  UNL     1      85.242  70.042 -11.647  1.00  0.00     0.010 A 
HETATM   15  C4  UNL     1      86.675  69.590 -11.795  1.00  0.00     0.012 C 
ENDBRANCH   1  11
TORSDOF 3
ENDMDL
MODEL 4
REMARK VINA RESULT: -5.394846530      3.210      5.783
REMARK  3 active torsions:
REMARK  status: ('A' for Active; 'I' for Inactive)
REMARK    1  A    between atoms: C5_5  and  N1_6 
REMARK       I    between atoms: N1_6  and  C6_8 
REMARK    2  A    between atoms: C6_8  and  C7_10 
REMARK    3  A    between atoms: C7_10  and  S1_12 
ROOT
HETATM    1  N1  UNL     1      83.954  71.584 -10.130  1.00  0.00    -0.355 N 
ATOM      2  H1  UNL     1      84.833  71.960  -9.776  1.00  0.00     0.162 HD
HETATM    3  C6  UNL     1      83.950  70.891 -11.370  1.00  0.00     0.236 C 
HETATM    4  O1  UNL     1      82.858  70.434 -11.791  1.00  0.00    -0.272 OA
ENDROOT
BRANCH   3   5
HETATM    5  C7  UNL     1      85.211  70.738 -12.103  1.00  0.00     0.195 C 
HETATM    6  C8  UNL     1      86.024  69.546 -11.605  1.00  0.00     0.036 C 
BRANCH   5   7
HETATM    7  S1  UNL     1      86.267  72.161 -11.939  1.00  0.00     0.153 S 
HETATM    8  C9  UNL     1      86.610  72.564 -10.269  1.00  0.00     0.162 C 
HETATM    9  O2  UNL     1      85.536  73.332 -12.558  1.00  0.00    -0.227 OA
HETATM   10  O3  UNL     1      87.553  71.979 -12.681  1.00  0.00    -0.227 OA
ENDBRANCH   5   7
ENDBRANCH   3   5
BRANCH   1  11
HETATM   11  C5  UNL     1      82.734  71.774  -9.348  1.00  0.00     0.092 A 
HETATM   12  C2  UNL     1      82.980  71.606  -7.848  1.00  0.00     0.010 A 
HETATM   13  C1  UNL     1      82.313  72.616  -6.932  1.00  0.00     0.012 C 
HETATM   14  C3  UNL     1      82.122  70.650  -8.631  1.00  0.00     0.010 A 
HETATM   15  C4  UNL     1      80.644  70.725  -8.327  1.00  0.00     0.012 C 
ENDBRANCH   1  11
TORSDOF 3
ENDMDL
MODEL 5
REMARK VINA RESULT: -5.339350742      3.033      5.757
REMARK  3 active torsions:
REMARK  status: ('A' for Active; 'I' for Inactive)
REMARK    1  A    between atoms: C5_5  and  N1_6 
REMARK       I    between atoms: N1_6  and  C6_8 
REMARK    2  A    between atoms: C6_8  and  C7_10 
REMARK    3  A    between atoms: C7_10  and  S1_12 
ROOT
HETATM    1  N1  UNL     1      83.872  71.460  -9.869  1.00  0.00    -0.355 N 
ATOM      2  H1  UNL     1      84.784  71.687  -9.473  1.00  0.00     0.162 HD
HETATM    3  C6  UNL     1      83.808  70.859 -11.154  1.00  0.00     0.236 C 
HETATM    4  O1  UNL     1      82.676  70.586 -11.626  1.00  0.00    -0.272 OA
ENDROOT
BRANCH   3   5
HETATM    5  C7  UNL     1      85.056  70.585 -11.874  1.00  0.00     0.195 C 
HETATM    6  C8  UNL     1      85.927  69.565 -11.145  1.00  0.00     0.036 C 
BRANCH   5   7
HETATM    7  S1  UNL     1      86.058  72.043 -12.070  1.00  0.00     0.153 S 
HETATM    8  C9  UNL     1      85.520  73.067 -13.386  1.00  0.00     0.162 C 
HETATM    9  O2  UNL     1      87.463  71.580 -12.387  1.00  0.00    -0.227 OA
HETATM   10  O3  UNL     1      86.114  72.844 -10.808  1.00  0.00    -0.227 OA
ENDBRANCH   5   7
ENDBRANCH   3   5
BRANCH   1  11
HETATM   11  C5  UNL     1      82.667  71.761  -9.096  1.00  0.00     0.092 A 
HETATM   12  C2  UNL     1      82.923  71.714  -7.589  1.00  0.00     0.010 A 
HETATM   13  C1  UNL     1      82.302  72.822  -6.760  1.00  0.00     0.012 C 
HETATM   14  C3  UNL     1      82.023  70.726  -8.281  1.00  0.00     0.010 A 
HETATM   15  C4  UNL     1      80.552  70.881  -7.973  1.00  0.00     0.012 C 
ENDBRANCH   1  11
TORSDOF 3
ENDMDL
