MODEL 1
REMARK VINA RESULT: -6.390392280      0.000      0.000
REMARK  7 active torsions:
REMARK  status: ('A' for Active; 'I' for Inactive)
REMARK    1  A    between atoms: S1_2  and  N1_4 
REMARK    2  A    between atoms: N1_4  and  C2_5 
REMARK    3  A    between atoms: C2_5  and  O2_6 
REMARK    4  A    between atoms: C2_5  and  C3_8 
REMARK    5  A    between atoms: C6_11  and  C7_12 
REMARK    6  A    between atoms: C8_13  and  C9_14 
REMARK    7  A    between atoms: C9_14  and  C10_15 
ROOT
HETATM    1  C3  UNL     1      81.467  69.474 -10.767  1.00  0.00     0.097 A 
HETATM    2  C4  UNL     1      81.868  70.324  -9.649  1.00  0.00     0.012 A 
HETATM    3  C5  UNL     1      80.963  71.255  -8.909  1.00  0.00     0.012 C 
HETATM    4  C6  UNL     1      82.102  70.743 -11.116  1.00  0.00     0.083 A 
ENDROOT
BRANCH   1   5
HETATM    5  C2  UNL     1      79.975  69.278 -11.080  1.00  0.00     0.207 C 
BRANCH   5   6
HETATM    6  N1  UNL     1      79.341  68.235 -10.789  1.00  0.00    -0.323 NA
BRANCH   6   7
HETATM    7  S1  UNL     1      78.499  66.852 -10.405  1.00  0.00     0.184 S 
HETATM    8  C1  UNL     1      78.059  66.208  -9.421  1.00  0.00     0.168 C 
HETATM    9  O1  UNL     1      78.579  66.819 -12.029  1.00  0.00    -0.222 OA
ENDBRANCH   6   7
ENDBRANCH   5   6
BRANCH   5  10
HETATM   10  O2  UNL     1      79.502  70.345 -11.678  1.00  0.00    -0.338 OA
ATOM     11  H2  UNL     1      79.141  71.119 -11.261  1.00  0.00     0.220 HD
ENDBRANCH   5  10
ENDBRANCH   1   5
BRANCH   4  12
HETATM   12  C7  UNL     1      83.497  70.841 -11.520  1.00  0.00    -0.101 C 
HETATM   13  C8  UNL     1      84.633  70.903 -11.870  1.00  0.00    -0.106 C 
BRANCH  13  14
HETATM   14  C9  UNL     1      86.018  70.953 -12.304  1.00  0.00     0.093 C 
BRANCH  14  15
HETATM   15  C10 UNL     1      86.713  72.217 -11.850  1.00  0.00     0.007 C 
HETATM   16  C11 UNL     1      86.514  72.495 -10.382  1.00  0.00     0.006 C 
ENDBRANCH  14  15
ENDBRANCH  13  14
ENDBRANCH   4  12
TORSDOF 7
ENDMDL
MODEL 2
REMARK VINA RESULT: -6.213210766      1.601      1.897
REMARK  7 active torsions:
REMARK  status: ('A' for Active; 'I' for Inactive)
REMARK    1  A    between atoms: S1_2  and  N1_4 
REMARK    2  A    between atoms: N1_4  and  C2_5 
REMARK    3  A    between atoms: C2_5  and  O2_6 
REMARK    4  A    between atoms: C2_5  and  C3_8 
REMARK    5  A    between atoms: C6_11  and  C7_12 
REMARK    6  A    between atoms: C8_13  and  C9_14 
REMARK    7  A    between atoms: C9_14  and  C10_15 
ROOT
HETATM    1  C3  UNL     1      81.781  70.237  -9.831  1.00  0.00     0.097 A 
HETATM    2  C4  UNL     1      81.904  70.552  -8.411  1.00  0.00     0.012 A 
HETATM    3  C5  UNL     1      80.813  71.111  -7.555  1.00  0.00     0.012 C 
HETATM    4  C6  UNL     1      82.378  71.530  -9.506  1.00  0.00     0.083 A 
ENDROOT
BRANCH   1   5
HETATM    5  C2  UNL     1      80.391  70.203 -10.487  1.00  0.00     0.207 C 
BRANCH   5   6
HETATM    6  N1  UNL     1      79.913  69.182 -11.038  1.00  0.00    -0.323 NA
BRANCH   6   7
HETATM    7  S1  UNL     1      79.280  67.828 -11.769  1.00  0.00     0.184 S 
HETATM    8  C1  UNL     1      79.335  66.574 -11.735  1.00  0.00     0.168 C 
HETATM    9  O1  UNL     1      78.557  69.061 -12.545  1.00  0.00    -0.222 OA
ENDBRANCH   6   7
ENDBRANCH   5   6
BRANCH   5  10
HETATM   10  O2  UNL     1      79.818  71.378 -10.375  1.00  0.00    -0.338 OA
ATOM     11  H2  UNL     1      80.190  72.218 -10.617  1.00  0.00     0.220 HD
ENDBRANCH   5  10
ENDBRANCH   1   5
BRANCH   4  12
HETATM   12  C7  UNL     1      83.814  71.768  -9.550  1.00  0.00    -0.101 C 
HETATM   13  C8  UNL     1      84.987  71.960  -9.611  1.00  0.00    -0.106 C 
BRANCH  13  14
HETATM   14  C9  UNL     1      86.419  72.180  -9.709  1.00  0.00     0.093 C 
BRANCH  14  15
HETATM   15  C10 UNL     1      86.809  72.825 -11.021  1.00  0.00     0.007 C 
HETATM   16  C11 UNL     1      86.582  71.920 -12.204  1.00  0.00     0.006 C 
ENDBRANCH  14  15
ENDBRANCH  13  14
ENDBRANCH   4  12
TORSDOF 7
ENDMDL
MODEL 3
REMARK VINA RESULT: -6.173936400      1.297      1.297
REMARK  7 active torsions:
REMARK  status: ('A' for Active; 'I' for Inactive)
REMARK    1  A    between atoms: S1_2  and  N1_4 
REMARK    2  A    between atoms: N1_4  and  C2_5 
REMARK    3  A    between atoms: C2_5  and  O2_6 
REMARK    4  A    between atoms: C2_5  and  C3_8 
REMARK    5  A    between atoms: C6_11  and  C7_12 
REMARK    6  A    between atoms: C8_13  and  C9_14 
REMARK    7  A    between atoms: C9_14  and  C10_15 
ROOT
HETATM    1  C3  UNL     1      81.676  69.776 -10.647  1.00  0.00     0.097 A 
HETATM    2  C4  UNL     1      82.194  70.422  -9.444  1.00  0.00     0.012 A 
HETATM    3  C5  UNL     1      81.448  71.413  -8.610  1.00  0.00     0.012 C 
HETATM    4  C6  UNL     1      82.525  70.946 -10.857  1.00  0.00     0.083 A 
ENDROOT
BRANCH   1   5
HETATM    5  C2  UNL     1      80.179  69.874 -10.981  1.00  0.00     0.207 C 
BRANCH   5   6
HETATM    6  N1  UNL     1      79.535  68.955 -11.542  1.00  0.00    -0.323 NA
BRANCH   6   7
HETATM    7  S1  UNL     1      78.683  67.735 -12.288  1.00  0.00     0.184 S 
HETATM    8  C1  UNL     1      78.494  66.495 -12.240  1.00  0.00     0.168 C 
HETATM    9  O1  UNL     1      78.244  69.071 -13.105  1.00  0.00    -0.222 OA
ENDBRANCH   6   7
ENDBRANCH   5   6
BRANCH   5  10
HETATM   10  O2  UNL     1      79.712  71.037 -10.593  1.00  0.00    -0.338 OA
ATOM     11  H2  UNL     1      79.260  71.677 -11.130  1.00  0.00     0.220 HD
ENDBRANCH   5  10
ENDBRANCH   1   5
BRANCH   4  12
HETATM   12  C7  UNL     1      83.925  70.843 -11.247  1.00  0.00    -0.101 C 
HETATM   13  C8  UNL     1      85.066  70.733 -11.565  1.00  0.00    -0.106 C 
BRANCH  13  14
HETATM   14  C9  UNL     1      86.460  70.574 -11.941  1.00  0.00     0.093 C 
BRANCH  14  15
HETATM   15  C10 UNL     1      87.149  71.905 -12.150  1.00  0.00     0.007 C 
HETATM   16  C11 UNL     1      86.859  72.889 -11.046  1.00  0.00     0.006 C 
ENDBRANCH  14  15
ENDBRANCH  13  14
ENDBRANCH   4  12
TORSDOF 7
ENDMDL
MODEL 4
REMARK VINA RESULT: -5.532202770      2.323      3.052
REMARK  7 active torsions:
REMARK  status: ('A' for Active; 'I' for Inactive)
REMARK    1  A    between atoms: S1_2  and  N1_4 
REMARK    2  A    between atoms: N1_4  and  C2_5 
REMARK    3  A    between atoms: C2_5  and  O2_6 
REMARK    4  A    between atoms: C2_5  and  C3_8 
REMARK    5  A    between atoms: C6_11  and  C7_12 
REMARK    6  A    between atoms: C8_13  and  C9_14 
REMARK    7  A    between atoms: C9_14  and  C10_15 
ROOT
HETATM    1  C3  UNL     1      82.412  70.856  -8.249  1.00  0.00     0.097 A 
HETATM    2  C4  UNL     1      82.807  71.867  -7.271  1.00  0.00     0.012 A 
HETATM    3  C5  UNL     1      81.886  72.861  -6.642  1.00  0.00     0.012 C 
HETATM    4  C6  UNL     1      82.991  72.085  -8.788  1.00  0.00     0.083 A 
ENDROOT
BRANCH   1   5
HETATM    5  C2  UNL     1      80.922  70.568  -8.490  1.00  0.00     0.207 C 
BRANCH   5   6
HETATM    6  N1  UNL     1      80.469  70.140  -9.578  1.00  0.00    -0.323 NA
BRANCH   6   7
HETATM    7  S1  UNL     1      79.868  69.570 -11.022  1.00  0.00     0.184 S 
HETATM    8  C1  UNL     1      79.130  68.671 -11.495  1.00  0.00     0.168 C 
HETATM    9  O1  UNL     1      80.787  70.839 -11.458  1.00  0.00    -0.222 OA
ENDBRANCH   6   7
ENDBRANCH   5   6
BRANCH   5  10
HETATM   10  O2  UNL     1      80.236  70.838  -7.404  1.00  0.00    -0.338 OA
ATOM     11  H2  UNL     1      80.545  71.305  -6.637  1.00  0.00     0.220 HD
ENDBRANCH   5  10
ENDBRANCH   1   5
BRANCH   4  12
HETATM   12  C7  UNL     1      84.372  72.172  -9.241  1.00  0.00    -0.101 C 
HETATM   13  C8  UNL     1      85.493  72.241  -9.636  1.00  0.00    -0.106 C 
BRANCH  13  14
HETATM   14  C9  UNL     1      86.853  72.312 -10.140  1.00  0.00     0.093 C 
BRANCH  14  15
HETATM   15  C10 UNL     1      86.897  72.529 -11.636  1.00  0.00     0.007 C 
HETATM   16  C11 UNL     1      86.137  71.474 -12.399  1.00  0.00     0.006 C 
ENDBRANCH  14  15
ENDBRANCH  13  14
ENDBRANCH   4  12
TORSDOF 7
ENDMDL
MODEL 5
REMARK VINA RESULT: -5.331514923      1.731      2.110
REMARK  7 active torsions:
REMARK  status: ('A' for Active; 'I' for Inactive)
REMARK    1  A    between atoms: S1_2  and  N1_4 
REMARK    2  A    between atoms: N1_4  and  C2_5 
REMARK    3  A    between atoms: C2_5  and  O2_6 
REMARK    4  A    between atoms: C2_5  and  C3_8 
REMARK    5  A    between atoms: C6_11  and  C7_12 
REMARK    6  A    between atoms: C8_13  and  C9_14 
REMARK    7  A    between atoms: C9_14  and  C10_15 
ROOT
HETATM    1  C3  UNL     1      81.212  69.168 -10.567  1.00  0.00     0.097 A 
HETATM    2  C4  UNL     1      81.345  70.344  -9.712  1.00  0.00     0.012 A 
HETATM    3  C5  UNL     1      80.214  71.211  -9.260  1.00  0.00     0.012 C 
HETATM    4  C6  UNL     1      81.591  70.412 -11.233  1.00  0.00     0.083 A 
ENDROOT
BRANCH   1   5
HETATM    5  C2  UNL     1      79.821  68.573 -10.837  1.00  0.00     0.207 C 
BRANCH   5   6
HETATM    6  N1  UNL     1      79.280  68.570 -11.969  1.00  0.00    -0.323 NA
BRANCH   6   7
HETATM    7  S1  UNL     1      78.562  68.568 -13.470  1.00  0.00     0.184 S 
HETATM    8  C1  UNL     1      78.231  67.793 -14.402  1.00  0.00     0.168 C 
HETATM    9  O1  UNL     1      78.540  70.134 -13.034  1.00  0.00    -0.222 OA
ENDBRANCH   6   7
ENDBRANCH   5   6
BRANCH   5  10
HETATM   10  O2  UNL     1      79.321  68.090  -9.725  1.00  0.00    -0.338 OA
ATOM     11  H2  UNL     1      78.648  67.424  -9.645  1.00  0.00     0.220 HD
ENDBRANCH   5  10
ENDBRANCH   1   5
BRANCH   4  12
HETATM   12  C7  UNL     1      82.961  70.708 -11.630  1.00  0.00    -0.101 C 
HETATM   13  C8  UNL     1      84.073  70.950 -11.978  1.00  0.00    -0.106 C 
BRANCH  13  14
HETATM   14  C9  UNL     1      85.424  71.235 -12.427  1.00  0.00     0.093 C 
BRANCH  14  15
HETATM   15  C10 UNL     1      86.417  71.237 -11.286  1.00  0.00     0.007 C 
HETATM   16  C11 UNL     1      86.453  72.551 -10.548  1.00  0.00     0.006 C 
ENDBRANCH  14  15
ENDBRANCH  13  14
ENDBRANCH   4  12
TORSDOF 7
ENDMDL
