MODEL 1
REMARK VINA RESULT: -5.473577613      0.000      0.000
REMARK  5 active torsions:
REMARK  status: ('A' for Active; 'I' for Inactive)
REMARK       I    between atoms: C2_2  and  N1_4 
REMARK    1  A    between atoms: N1_4  and  C3_6 
REMARK    2  A    between atoms: C4_8  and  C6_10 
REMARK    3  A    between atoms: C6_10  and  O2_11 
REMARK    4  A    between atoms: C6_10  and  N2_13 
REMARK    5  A    between atoms: N2_13  and  C8_15 
ROOT
HETATM    1  C3  UNL     1      80.815  69.494 -10.062  1.00  0.00     0.174 A 
HETATM    2  S1  UNL     1      80.248  71.153  -9.816  1.00  0.00    -0.120 SA
HETATM    3  C4  UNL     1      81.952  70.477  -9.816  1.00  0.00     0.100 A 
HETATM    4  C5  UNL     1      82.508  70.340  -8.404  1.00  0.00     0.039 C 
ENDROOT
BRANCH   3   5
HETATM    5  C6  UNL     1      82.768  70.978 -10.920  1.00  0.00     0.135 C 
BRANCH   5   6
HETATM    6  O2  UNL     1      82.102  71.583 -11.892  1.00  0.00    -0.348 OA
ATOM      7  H2  UNL     1      82.613  71.807 -12.660  1.00  0.00     0.219 HD
ENDBRANCH   5   6
BRANCH   5   8
HETATM    8  N2  UNL     1      84.133  70.948 -11.163  1.00  0.00    -0.364 N 
HETATM    9  C7  UNL     1      85.043  71.559 -10.141  1.00  0.00     0.152 C 
BRANCH   8  10
HETATM   10  C8  UNL     1      84.837  70.419 -12.280  1.00  0.00     0.077 C 
HETATM   11  C9  UNL     1      85.464  71.574 -13.083  1.00  0.00     0.032 C 
HETATM   12  C10 UNL     1      86.072  69.681 -11.694  1.00  0.00     0.032 C 
ENDBRANCH   8  10
ENDBRANCH   5   8
ENDBRANCH   3   5
BRANCH   1  13
HETATM   13  N1  UNL     1      80.615  68.854 -11.322  1.00  0.00    -0.346 N 
HETATM   14  C2  UNL     1      79.682  67.790 -11.445  1.00  0.00     0.214 C 
HETATM   15  C1  UNL     1      79.454  67.100 -12.756  1.00  0.00     0.117 C 
HETATM   16  O1  UNL     1      79.044  67.423 -10.449  1.00  0.00    -0.274 OA
ATOM     17  H1  UNL     1      81.145  69.162 -12.137  1.00  0.00     0.163 HD
ENDBRANCH   1  13
TORSDOF 5
ENDMDL
MODEL 2
REMARK VINA RESULT: -5.211278159      2.890      3.863
REMARK  5 active torsions:
REMARK  status: ('A' for Active; 'I' for Inactive)
REMARK       I    between atoms: C2_2  and  N1_4 
REMARK    1  A    between atoms: N1_4  and  C3_6 
REMARK    2  A    between atoms: C4_8  and  C6_10 
REMARK    3  A    between atoms: C6_10  and  O2_11 
REMARK    4  A    between atoms: C6_10  and  N2_13 
REMARK    5  A    between atoms: N2_13  and  C8_15 
ROOT
HETATM    1  C3  UNL     1      81.634  70.863  -8.893  1.00  0.00     0.174 A 
HETATM    2  S1  UNL     1      82.397  69.349  -9.407  1.00  0.00    -0.120 SA
HETATM    3  C4  UNL     1      82.543  71.039 -10.102  1.00  0.00     0.100 A 
HETATM    4  C5  UNL     1      81.736  71.197 -11.385  1.00  0.00     0.039 C 
ENDROOT
BRANCH   3   5
HETATM    5  C6  UNL     1      83.884  71.603  -9.962  1.00  0.00     0.135 C 
BRANCH   5   6
HETATM    6  O2  UNL     1      84.049  72.434  -8.944  1.00  0.00    -0.348 OA
ATOM      7  H2  UNL     1      84.258  72.026  -8.113  1.00  0.00     0.219 HD
ENDBRANCH   5   6
BRANCH   5   8
HETATM    8  N2  UNL     1      85.048  71.441 -10.698  1.00  0.00    -0.364 N 
HETATM    9  C7  UNL     1      86.303  72.071 -10.176  1.00  0.00     0.152 C 
BRANCH   8  10
HETATM   10  C8  UNL     1      85.248  70.754 -11.927  1.00  0.00     0.077 C 
HETATM   11  C9  UNL     1      85.685  71.758 -13.010  1.00  0.00     0.032 C 
HETATM   12  C10 UNL     1      86.514  69.877 -11.723  1.00  0.00     0.032 C 
ENDBRANCH   8  10
ENDBRANCH   5   8
ENDBRANCH   3   5
BRANCH   1  13
HETATM   13  N1  UNL     1      81.944  71.416  -7.616  1.00  0.00    -0.346 N 
HETATM   14  C2  UNL     1      80.926  72.020  -6.830  1.00  0.00     0.214 C 
HETATM   15  C1  UNL     1      81.224  72.610  -5.485  1.00  0.00     0.117 C 
HETATM   16  O1  UNL     1      79.767  72.061  -7.264  1.00  0.00    -0.274 OA
ATOM     17  H1  UNL     1      82.901  71.379  -7.264  1.00  0.00     0.163 HD
ENDBRANCH   1  13
TORSDOF 5
ENDMDL
MODEL 3
REMARK VINA RESULT: -5.138999234      3.724      7.387
REMARK  5 active torsions:
REMARK  status: ('A' for Active; 'I' for Inactive)
REMARK       I    between atoms: C2_2  and  N1_4 
REMARK    1  A    between atoms: N1_4  and  C3_6 
REMARK    2  A    between atoms: C4_8  and  C6_10 
REMARK    3  A    between atoms: C6_10  and  O2_11 
REMARK    4  A    between atoms: C6_10  and  N2_13 
REMARK    5  A    between atoms: N2_13  and  C8_15 
ROOT
HETATM    1  C3  UNL     1      79.948  67.228 -11.578  1.00  0.00     0.174 A 
HETATM    2  S1  UNL     1      78.939  66.689 -12.929  1.00  0.00    -0.120 SA
HETATM    3  C4  UNL     1      79.326  65.859 -11.342  1.00  0.00     0.100 A 
HETATM    4  C5  UNL     1      80.351  64.745 -11.519  1.00  0.00     0.039 C 
ENDROOT
BRANCH   3   5
HETATM    5  C6  UNL     1      78.158  65.699 -10.478  1.00  0.00     0.135 C 
BRANCH   5   6
HETATM    6  O2  UNL     1      77.297  66.706 -10.492  1.00  0.00    -0.348 OA
ATOM      7  H2  UNL     1      77.004  67.005  -9.640  1.00  0.00     0.219 HD
ENDBRANCH   5   6
BRANCH   5   8
HETATM    8  N2  UNL     1      77.757  64.682  -9.625  1.00  0.00    -0.364 N 
HETATM    9  C7  UNL     1      77.049  63.503 -10.220  1.00  0.00     0.152 C 
BRANCH   8  10
HETATM   10  C8  UNL     1      77.906  64.579  -8.214  1.00  0.00     0.077 C 
HETATM   11  C9  UNL     1      77.034  63.423  -7.690  1.00  0.00     0.032 C 
HETATM   12  C10 UNL     1      79.354  64.071  -7.974  1.00  0.00     0.032 C 
ENDBRANCH   8  10
ENDBRANCH   5   8
ENDBRANCH   3   5
BRANCH   1  13
HETATM   13  N1  UNL     1      79.571  68.380 -10.825  1.00  0.00    -0.346 N 
HETATM   14  C2  UNL     1      80.413  69.524 -10.795  1.00  0.00     0.214 C 
HETATM   15  C1  UNL     1      80.041  70.747 -10.012  1.00  0.00     0.117 C 
HETATM   16  O1  UNL     1      81.476  69.512 -11.429  1.00  0.00    -0.274 OA
ATOM     17  H1  UNL     1      78.693  68.382 -10.305  1.00  0.00     0.163 HD
ENDBRANCH   1  13
TORSDOF 5
ENDMDL
MODEL 4
REMARK VINA RESULT: -5.074091289      1.782      5.303
REMARK  5 active torsions:
REMARK  status: ('A' for Active; 'I' for Inactive)
REMARK       I    between atoms: C2_2  and  N1_4 
REMARK    1  A    between atoms: N1_4  and  C3_6 
REMARK    2  A    between atoms: C4_8  and  C6_10 
REMARK    3  A    between atoms: C6_10  and  O2_11 
REMARK    4  A    between atoms: C6_10  and  N2_13 
REMARK    5  A    between atoms: N2_13  and  C8_15 
ROOT
HETATM    1  C3  UNL     1      82.517  70.932 -10.092  1.00  0.00     0.174 A 
HETATM    2  S1  UNL     1      82.447  69.284  -9.448  1.00  0.00    -0.120 SA
HETATM    3  C4  UNL     1      81.092  70.441  -9.878  1.00  0.00     0.100 A 
HETATM    4  C5  UNL     1      80.467  71.070  -8.639  1.00  0.00     0.039 C 
ENDROOT
BRANCH   3   5
HETATM    5  C6  UNL     1      80.277  69.978 -11.000  1.00  0.00     0.135 C 
BRANCH   5   6
HETATM    6  O2  UNL     1      80.098  70.857 -11.975  1.00  0.00    -0.348 OA
ATOM      7  H2  UNL     1      79.350  71.431 -11.875  1.00  0.00     0.219 HD
ENDBRANCH   5   6
BRANCH   5   8
HETATM    8  N2  UNL     1      79.636  68.775 -11.257  1.00  0.00    -0.364 N 
HETATM    9  C7  UNL     1      78.639  68.734 -12.375  1.00  0.00     0.152 C 
BRANCH   8  10
HETATM   10  C8  UNL     1      79.770  67.524 -10.594  1.00  0.00     0.077 C 
HETATM   11  C9  UNL     1      78.419  67.130  -9.968  1.00  0.00     0.032 C 
HETATM   12  C10 UNL     1      79.965  66.467 -11.715  1.00  0.00     0.032 C 
ENDBRANCH   8  10
ENDBRANCH   5   8
ENDBRANCH   3   5
BRANCH   1  13
HETATM   13  N1  UNL     1      83.059  71.165 -11.391  1.00  0.00    -0.346 N 
HETATM   14  C2  UNL     1      84.466  71.246 -11.576  1.00  0.00     0.214 C 
HETATM   15  C1  UNL     1      85.062  71.490 -12.929  1.00  0.00     0.117 C 
HETATM   16  O1  UNL     1      85.216  71.112 -10.600  1.00  0.00    -0.274 OA
ATOM     17  H1  UNL     1      82.435  71.274 -12.190  1.00  0.00     0.163 HD
ENDBRANCH   1  13
TORSDOF 5
ENDMDL
MODEL 5
REMARK VINA RESULT: -5.071636008      5.525      7.169
REMARK  5 active torsions:
REMARK  status: ('A' for Active; 'I' for Inactive)
REMARK       I    between atoms: C2_2  and  N1_4 
REMARK    1  A    between atoms: N1_4  and  C3_6 
REMARK    2  A    between atoms: C4_8  and  C6_10 
REMARK    3  A    between atoms: C6_10  and  O2_11 
REMARK    4  A    between atoms: C6_10  and  N2_13 
REMARK    5  A    between atoms: N2_13  and  C8_15 
ROOT
HETATM    1  C3  UNL     1      79.226  63.935  -9.611  1.00  0.00     0.174 A 
HETATM    2  S1  UNL     1      80.705  64.595 -10.327  1.00  0.00    -0.120 SA
HETATM    3  C4  UNL     1      79.055  64.317 -11.075  1.00  0.00     0.100 A 
HETATM    4  C5  UNL     1      79.038  63.085 -11.971  1.00  0.00     0.039 C 
ENDROOT
BRANCH   3   5
HETATM    5  C6  UNL     1      78.383  65.556 -11.458  1.00  0.00     0.135 C 
BRANCH   5   6
HETATM    6  O2  UNL     1      77.224  65.785 -10.857  1.00  0.00    -0.348 OA
ATOM      7  H2  UNL     1      76.647  65.035 -10.784  1.00  0.00     0.219 HD
ENDBRANCH   5   6
BRANCH   5   8
HETATM    8  N2  UNL     1      78.719  66.567 -12.345  1.00  0.00    -0.364 N 
HETATM    9  C7  UNL     1      78.952  67.940 -11.791  1.00  0.00     0.152 C 
BRANCH   8  10
HETATM   10  C8  UNL     1      78.873  66.511 -13.758  1.00  0.00     0.077 C 
HETATM   11  C9  UNL     1      77.883  65.486 -14.341  1.00  0.00     0.032 C 
HETATM   12  C10 UNL     1      78.341  67.867 -14.298  1.00  0.00     0.032 C 
ENDBRANCH   8  10
ENDBRANCH   5   8
ENDBRANCH   3   5
BRANCH   1  13
HETATM   13  N1  UNL     1      78.573  64.639  -8.555  1.00  0.00    -0.346 N 
HETATM   14  C2  UNL     1      77.485  64.042  -7.861  1.00  0.00     0.214 C 
HETATM   15  C1  UNL     1      76.781  64.759  -6.750  1.00  0.00     0.117 C 
HETATM   16  O1  UNL     1      77.111  62.906  -8.182  1.00  0.00    -0.274 OA
ATOM     17  H1  UNL     1      78.887  65.574  -8.297  1.00  0.00     0.163 HD
ENDBRANCH   1  13
TORSDOF 5
ENDMDL
