MODEL 1
REMARK VINA RESULT: -3.930698331      0.000      0.000
REMARK  3 active torsions:
REMARK  status: ('A' for Active; 'I' for Inactive)
REMARK    1  A    between atoms: C2_2  and  S1_3 
REMARK    2  A    between atoms: S1_3  and  N1_6 
REMARK    3  A    between atoms: C5_10  and  C6_11 
ROOT
HETATM    1  N1  UNL     1      82.252  69.682 -10.015  1.00  0.00    -0.182 NA
HETATM    2  C3  UNL     1      82.652  69.949  -8.640  1.00  0.00     0.182 C 
HETATM    3  S2  UNL     1      81.684  71.493  -8.351  1.00  0.00    -0.151 SA
HETATM    4  C4  UNL     1      80.430  71.173  -9.657  1.00  0.00     0.107 C 
HETATM    5  C5  UNL     1      80.843  69.766 -10.035  1.00  0.00     0.185 C 
ENDROOT
BRANCH   1   6
HETATM    6  S1  UNL     1      83.136  70.735 -11.002  1.00  0.00     0.234 S 
HETATM    7  O1  UNL     1      83.943  71.669 -10.102  1.00  0.00    -0.207 OA
HETATM    8  O2  UNL     1      82.248  71.665 -11.796  1.00  0.00    -0.207 OA
BRANCH   6   9
HETATM    9  C2  UNL     1      84.297  69.937 -12.013  1.00  0.00     0.116 C 
HETATM   10  C1  UNL     1      85.145  70.644 -12.724  1.00  0.00     0.024 C 
ENDBRANCH   6   9
ENDBRANCH   1   6
BRANCH   5  11
HETATM   11  C6  UNL     1      80.145  69.248 -11.191  1.00  0.00     0.193 C 
HETATM   12  O3  UNL     1      80.325  68.058 -11.556  1.00  0.00    -0.647 OA
HETATM   13  O4  UNL     1      79.265  69.992 -11.954  1.00  0.00    -0.647 OA
ENDBRANCH   5  11
TORSDOF 3
ENDMDL
MODEL 2
REMARK VINA RESULT: -3.849378905      7.248      8.522
REMARK  3 active torsions:
REMARK  status: ('A' for Active; 'I' for Inactive)
REMARK    1  A    between atoms: C2_2  and  S1_3 
REMARK    2  A    between atoms: S1_3  and  N1_6 
REMARK    3  A    between atoms: C5_10  and  C6_11 
ROOT
HETATM    1  N1  UNL     1      79.153  64.251  -8.519  1.00  0.00    -0.182 NA
HETATM    2  C3  UNL     1      80.570  63.949  -8.371  1.00  0.00     0.182 C 
HETATM    3  S2  UNL     1      80.602  62.297  -9.194  1.00  0.00    -0.151 SA
HETATM    4  C4  UNL     1      79.082  62.560 -10.193  1.00  0.00     0.107 C 
HETATM    5  C5  UNL     1      78.845  64.021  -9.877  1.00  0.00     0.185 C 
ENDROOT
BRANCH   1   6
HETATM    6  S1  UNL     1      78.329  63.355  -7.344  1.00  0.00     0.234 S 
HETATM    7  O1  UNL     1      79.329  62.948  -6.263  1.00  0.00    -0.207 OA
HETATM    8  O2  UNL     1      77.808  62.041  -7.878  1.00  0.00    -0.207 OA
BRANCH   6   9
HETATM    9  C2  UNL     1      77.090  64.250  -6.523  1.00  0.00     0.116 C 
HETATM   10  C1  UNL     1      76.640  65.371  -7.037  1.00  0.00     0.024 C 
ENDBRANCH   6   9
ENDBRANCH   1   6
BRANCH   5  11
HETATM   11  C6  UNL     1      77.591  64.529 -10.388  1.00  0.00     0.193 C 
HETATM   12  O3  UNL     1      76.685  63.731 -10.742  1.00  0.00    -0.647 OA
HETATM   13  O4  UNL     1      77.305  65.874 -10.522  1.00  0.00    -0.647 OA
ENDBRANCH   5  11
TORSDOF 3
ENDMDL
MODEL 3
REMARK VINA RESULT: -3.813050404      6.812      8.268
REMARK  3 active torsions:
REMARK  status: ('A' for Active; 'I' for Inactive)
REMARK    1  A    between atoms: C2_2  and  S1_3 
REMARK    2  A    between atoms: S1_3  and  N1_6 
REMARK    3  A    between atoms: C5_10  and  C6_11 
ROOT
HETATM    1  N1  UNL     1      77.239  63.940  -9.090  1.00  0.00    -0.182 NA
HETATM    2  C3  UNL     1      76.901  62.903 -10.054  1.00  0.00     0.182 C 
HETATM    3  S2  UNL     1      78.257  61.707  -9.680  1.00  0.00    -0.151 SA
HETATM    4  C4  UNL     1      78.572  62.314  -7.973  1.00  0.00     0.107 C 
HETATM    5  C5  UNL     1      77.415  63.282  -7.853  1.00  0.00     0.185 C 
ENDROOT
BRANCH   1   6
HETATM    6  S1  UNL     1      78.542  64.810  -9.731  1.00  0.00     0.234 S 
HETATM    7  O1  UNL     1      78.769  64.340 -11.167  1.00  0.00    -0.207 OA
HETATM    8  O2  UNL     1      79.844  64.500  -9.031  1.00  0.00    -0.207 OA
BRANCH   6   9
HETATM    9  C2  UNL     1      78.260  66.518  -9.835  1.00  0.00     0.116 C 
HETATM   10  C1  UNL     1      78.954  67.248 -10.678  1.00  0.00     0.024 C 
ENDBRANCH   6   9
ENDBRANCH   1   6
BRANCH   5  11
HETATM   11  C6  UNL     1      77.454  64.086  -6.652  1.00  0.00     0.193 C 
HETATM   12  O3  UNL     1      76.702  65.089  -6.539  1.00  0.00    -0.647 OA
HETATM   13  O4  UNL     1      78.288  63.826  -5.581  1.00  0.00    -0.647 OA
ENDBRANCH   5  11
TORSDOF 3
ENDMDL
MODEL 4
REMARK VINA RESULT: -3.771122596      5.678      7.396
REMARK  3 active torsions:
REMARK  status: ('A' for Active; 'I' for Inactive)
REMARK    1  A    between atoms: C2_2  and  S1_3 
REMARK    2  A    between atoms: S1_3  and  N1_6 
REMARK    3  A    between atoms: C5_10  and  C6_11 
ROOT
HETATM    1  N1  UNL     1      79.438  65.292 -10.171  1.00  0.00    -0.182 NA
HETATM    2  C3  UNL     1      80.230  64.225  -9.576  1.00  0.00     0.182 C 
HETATM    3  S2  UNL     1      79.559  62.797 -10.533  1.00  0.00    -0.151 SA
HETATM    4  C4  UNL     1      78.967  63.794 -11.960  1.00  0.00     0.107 C 
HETATM    5  C5  UNL     1      79.555  65.132 -11.569  1.00  0.00     0.185 C 
ENDROOT
BRANCH   1   6
HETATM    6  S1  UNL     1      77.896  65.212  -9.478  1.00  0.00     0.234 S 
HETATM    7  O1  UNL     1      76.940  64.614 -10.509  1.00  0.00    -0.207 OA
HETATM    8  O2  UNL     1      77.320  66.578  -9.189  1.00  0.00    -0.207 OA
BRANCH   6   9
HETATM    9  C2  UNL     1      77.804  64.171  -8.094  1.00  0.00     0.116 C 
HETATM   10  C1  UNL     1      77.060  64.508  -7.066  1.00  0.00     0.024 C 
ENDBRANCH   6   9
ENDBRANCH   1   6
BRANCH   5  11
HETATM   11  C6  UNL     1      79.130  66.223 -12.418  1.00  0.00     0.193 C 
HETATM   12  O3  UNL     1      78.120  66.091 -13.157  1.00  0.00    -0.647 OA
HETATM   13  O4  UNL     1      79.777  67.443 -12.483  1.00  0.00    -0.647 OA
ENDBRANCH   5  11
TORSDOF 3
ENDMDL
MODEL 5
REMARK VINA RESULT: -3.760466568      5.684      7.119
REMARK  3 active torsions:
REMARK  status: ('A' for Active; 'I' for Inactive)
REMARK    1  A    between atoms: C2_2  and  S1_3 
REMARK    2  A    between atoms: S1_3  and  N1_6 
REMARK    3  A    between atoms: C5_10  and  C6_11 
ROOT
HETATM    1  N1  UNL     1      79.696  65.445 -10.978  1.00  0.00    -0.182 NA
HETATM    2  C3  UNL     1      80.500  64.279 -10.639  1.00  0.00     0.182 C 
HETATM    3  S2  UNL     1      79.400  62.962 -11.318  1.00  0.00    -0.151 SA
HETATM    4  C4  UNL     1      78.520  64.052 -12.509  1.00  0.00     0.107 C 
HETATM    5  C5  UNL     1      79.356  65.302 -12.340  1.00  0.00     0.185 C 
ENDROOT
BRANCH   1   6
HETATM    6  S1  UNL     1      78.445  65.534  -9.841  1.00  0.00     0.234 S 
HETATM    7  O1  UNL     1      77.137  65.168 -10.540  1.00  0.00    -0.207 OA
HETATM    8  O2  UNL     1      78.216  66.942  -9.343  1.00  0.00    -0.207 OA
BRANCH   6   9
HETATM    9  C2  UNL     1      78.609  64.409  -8.532  1.00  0.00     0.116 C 
HETATM   10  C1  UNL     1      77.658  64.305  -7.632  1.00  0.00     0.024 C 
ENDBRANCH   6   9
ENDBRANCH   1   6
BRANCH   5  11
HETATM   11  C6  UNL     1      78.823  66.453 -13.035  1.00  0.00     0.193 C 
HETATM   12  O3  UNL     1      79.276  67.602 -12.793  1.00  0.00    -0.647 OA
HETATM   13  O4  UNL     1      77.815  66.382 -13.978  1.00  0.00    -0.647 OA
ENDBRANCH   5  11
TORSDOF 3
ENDMDL
