MODEL 1
REMARK VINA RESULT: -6.460110676      0.000      0.000
REMARK  3 active torsions:
REMARK  status: ('A' for Active; 'I' for Inactive)
REMARK       I    between atoms: C2_2  and  N1_4 
REMARK       I    between atoms: N1_4  and  C3_5 
REMARK    1  A    between atoms: N1_4  and  C8_13 
REMARK    2  A    between atoms: C3_5  and  C4_7 
REMARK    3  A    between atoms: C6_9  and  C7_10 
ROOT
HETATM    1  C1  UNL     1      85.313  71.983  -8.529  1.00  0.00     0.117 C 
HETATM    2  C2  UNL     1      85.636  71.953  -9.952  1.00  0.00     0.223 C 
HETATM    3  O1  UNL     1      86.724  72.569 -10.260  1.00  0.00    -0.273 OA
HETATM    4  N1  UNL     1      84.899  71.323 -11.023  1.00  0.00    -0.280 N 
HETATM    5  C3  UNL     1      83.713  70.613 -10.834  1.00  0.00     0.232 C 
HETATM    6  O2  UNL     1      83.290  69.940 -11.855  1.00  0.00    -0.272 OA
ENDROOT
BRANCH   4   7
HETATM    7  C8  UNL     1      85.596  71.466 -12.306  1.00  0.00     0.032 C 
HETATM    8  C9  UNL     1      85.129  72.598 -13.136  1.00  0.00     0.038 C 
HETATM    9  C10 UNL     1      87.101  71.623 -12.055  1.00  0.00     0.038 C 
HETATM   10  C11 UNL     1      85.410  70.155 -13.053  1.00  0.00     0.038 C 
ENDBRANCH   4   7
BRANCH   5  11
HETATM   11  C4  UNL     1      82.865  70.513  -9.650  1.00  0.00     0.093 A 
HETATM   12  C5  UNL     1      81.858  71.652  -9.406  1.00  0.00     0.031 A 
HETATM   13  C6  UNL     1      81.403  70.241  -9.674  1.00  0.00     0.100 A 
BRANCH  13  14
HETATM   14  C7  UNL     1      80.620  69.885 -10.846  1.00  0.00     0.177 C 
HETATM   15  O3  UNL     1      80.077  70.700 -11.589  1.00  0.00    -0.648 OA
HETATM   16  O4  UNL     1      80.452  68.534 -11.183  1.00  0.00    -0.648 OA
ENDBRANCH  13  14
ENDBRANCH   5  11
TORSDOF 3
ENDMDL
MODEL 2
REMARK VINA RESULT: -6.198799740      1.256      1.628
REMARK  3 active torsions:
REMARK  status: ('A' for Active; 'I' for Inactive)
REMARK       I    between atoms: C2_2  and  N1_4 
REMARK       I    between atoms: N1_4  and  C3_5 
REMARK    1  A    between atoms: N1_4  and  C8_13 
REMARK    2  A    between atoms: C3_5  and  C4_7 
REMARK    3  A    between atoms: C6_9  and  C7_10 
ROOT
HETATM    1  C1  UNL     1      83.476  71.867  -7.787  1.00  0.00     0.117 C 
HETATM    2  C2  UNL     1      84.259  71.768  -9.015  1.00  0.00     0.223 C 
HETATM    3  O1  UNL     1      85.395  72.373  -8.968  1.00  0.00    -0.273 OA
HETATM    4  N1  UNL     1      83.916  71.084 -10.241  1.00  0.00    -0.280 N 
HETATM    5  C3  UNL     1      82.727  70.380 -10.428  1.00  0.00     0.232 C 
HETATM    6  O2  UNL     1      82.663  69.656 -11.500  1.00  0.00    -0.272 OA
ENDROOT
BRANCH   4   7
HETATM    7  C8  UNL     1      85.006  71.167 -11.220  1.00  0.00     0.032 C 
HETATM    8  C9  UNL     1      84.578  71.546 -12.585  1.00  0.00     0.038 C 
HETATM    9  C10 UNL     1      86.056  72.173 -10.732  1.00  0.00     0.038 C 
HETATM   10  C11 UNL     1      85.680  69.804 -11.240  1.00  0.00     0.038 C 
ENDBRANCH   4   7
BRANCH   5  11
HETATM   11  C4  UNL     1      81.529  70.335  -9.595  1.00  0.00     0.093 A 
HETATM   12  C5  UNL     1      80.417  71.356  -9.901  1.00  0.00     0.031 A 
HETATM   13  C6  UNL     1      80.192  69.874 -10.056  1.00  0.00     0.100 A 
BRANCH  13  14
HETATM   14  C7  UNL     1      79.896  69.261 -11.340  1.00  0.00     0.177 C 
HETATM   15  O3  UNL     1      80.213  68.114 -11.650  1.00  0.00    -0.648 OA
HETATM   16  O4  UNL     1      79.205  69.995 -12.315  1.00  0.00    -0.648 OA
ENDBRANCH  13  14
ENDBRANCH   5  11
TORSDOF 3
ENDMDL
MODEL 3
REMARK VINA RESULT: -6.142485114      1.161      1.630
REMARK  3 active torsions:
REMARK  status: ('A' for Active; 'I' for Inactive)
REMARK       I    between atoms: C2_2  and  N1_4 
REMARK       I    between atoms: N1_4  and  C3_5 
REMARK    1  A    between atoms: N1_4  and  C8_13 
REMARK    2  A    between atoms: C3_5  and  C4_7 
REMARK    3  A    between atoms: C6_9  and  C7_10 
ROOT
HETATM    1  C1  UNL     1      83.699  71.942  -7.834  1.00  0.00     0.117 C 
HETATM    2  C2  UNL     1      84.449  71.817  -9.080  1.00  0.00     0.223 C 
HETATM    3  O1  UNL     1      85.585  72.425  -9.075  1.00  0.00    -0.273 OA
HETATM    4  N1  UNL     1      84.076  71.105 -10.280  1.00  0.00    -0.280 N 
HETATM    5  C3  UNL     1      82.884  70.394 -10.421  1.00  0.00     0.232 C 
HETATM    6  O2  UNL     1      82.795  69.647 -11.474  1.00  0.00    -0.272 OA
ENDROOT
BRANCH   4   7
HETATM    7  C8  UNL     1      85.141  71.168 -11.289  1.00  0.00     0.032 C 
HETATM    8  C9  UNL     1      86.189  72.174 -11.012  1.00  0.00     0.038 C 
HETATM    9  C10 UNL     1      85.798  69.789 -11.425  1.00  0.00     0.038 C 
HETATM   10  C11 UNL     1      84.465  71.465 -12.618  1.00  0.00     0.038 C 
ENDBRANCH   4   7
BRANCH   5  11
HETATM   11  C4  UNL     1      81.709  70.366  -9.556  1.00  0.00     0.093 A 
HETATM   12  C5  UNL     1      80.611  71.413  -9.822  1.00  0.00     0.031 A 
HETATM   13  C6  UNL     1      80.350  69.938  -9.984  1.00  0.00     0.100 A 
BRANCH  13  14
HETATM   14  C7  UNL     1      80.007  69.345 -11.266  1.00  0.00     0.177 C 
HETATM   15  O3  UNL     1      80.281  68.190 -11.591  1.00  0.00    -0.648 OA
HETATM   16  O4  UNL     1      79.318  70.107 -12.220  1.00  0.00    -0.648 OA
ENDBRANCH  13  14
ENDBRANCH   5  11
TORSDOF 3
ENDMDL
MODEL 4
REMARK VINA RESULT: -6.054814628      1.256      1.979
REMARK  3 active torsions:
REMARK  status: ('A' for Active; 'I' for Inactive)
REMARK       I    between atoms: C2_2  and  N1_4 
REMARK       I    between atoms: N1_4  and  C3_5 
REMARK    1  A    between atoms: N1_4  and  C8_13 
REMARK    2  A    between atoms: C3_5  and  C4_7 
REMARK    3  A    between atoms: C6_9  and  C7_10 
ROOT
HETATM    1  C1  UNL     1      83.456  71.891  -7.798  1.00  0.00     0.117 C 
HETATM    2  C2  UNL     1      84.251  71.757  -9.015  1.00  0.00     0.223 C 
HETATM    3  O1  UNL     1      85.394  72.349  -8.968  1.00  0.00    -0.273 OA
HETATM    4  N1  UNL     1      83.913  71.052 -10.230  1.00  0.00    -0.280 N 
HETATM    5  C3  UNL     1      82.717  70.359 -10.416  1.00  0.00     0.232 C 
HETATM    6  O2  UNL     1      82.655  69.614 -11.473  1.00  0.00    -0.272 OA
ENDROOT
BRANCH   4   7
HETATM    7  C8  UNL     1      85.014  71.102 -11.199  1.00  0.00     0.032 C 
HETATM    8  C9  UNL     1      85.722  69.817 -11.389  1.00  0.00     0.038 C 
HETATM    9  C10 UNL     1      84.481  71.581 -12.555  1.00  0.00     0.038 C 
HETATM   10  C11 UNL     1      85.981  72.166 -10.705  1.00  0.00     0.038 C 
ENDBRANCH   4   7
BRANCH   5  11
HETATM   11  C4  UNL     1      81.510  70.346  -9.595  1.00  0.00     0.093 A 
HETATM   12  C5  UNL     1      80.415  71.375  -9.934  1.00  0.00     0.031 A 
HETATM   13  C6  UNL     1      80.171  69.893 -10.061  1.00  0.00     0.100 A 
BRANCH  13  14
HETATM   14  C7  UNL     1      79.881  69.259 -11.336  1.00  0.00     0.177 C 
HETATM   15  O3  UNL     1      80.201  68.107 -11.625  1.00  0.00    -0.648 OA
HETATM   16  O4  UNL     1      79.194  69.976 -12.326  1.00  0.00    -0.648 OA
ENDBRANCH  13  14
ENDBRANCH   5  11
TORSDOF 3
ENDMDL
MODEL 5
REMARK VINA RESULT: -5.983286397      1.626      4.638
REMARK  3 active torsions:
REMARK  status: ('A' for Active; 'I' for Inactive)
REMARK       I    between atoms: C2_2  and  N1_4 
REMARK       I    between atoms: N1_4  and  C3_5 
REMARK    1  A    between atoms: N1_4  and  C8_13 
REMARK    2  A    between atoms: C3_5  and  C4_7 
REMARK    3  A    between atoms: C6_9  and  C7_10 
ROOT
HETATM    1  C1  UNL     1      86.163  71.838  -9.000  1.00  0.00     0.117 C 
HETATM    2  C2  UNL     1      84.714  71.758  -8.838  1.00  0.00     0.223 C 
HETATM    3  O1  UNL     1      84.273  72.301  -7.757  1.00  0.00    -0.273 OA
HETATM    4  N1  UNL     1      83.746  71.162  -9.730  1.00  0.00    -0.280 N 
HETATM    5  C3  UNL     1      84.081  70.551 -10.939  1.00  0.00     0.232 C 
HETATM    6  O2  UNL     1      83.087  70.252 -11.713  1.00  0.00    -0.272 OA
ENDROOT
BRANCH   4   7
HETATM    7  C8  UNL     1      82.378  71.350  -9.234  1.00  0.00     0.032 C 
HETATM    8  C9  UNL     1      82.178  72.580  -8.437  1.00  0.00     0.038 C 
HETATM    9  C10 UNL     1      81.402  71.359 -10.417  1.00  0.00     0.038 C 
HETATM   10  C11 UNL     1      82.045  70.123  -8.398  1.00  0.00     0.038 C 
ENDBRANCH   4   7
BRANCH   5  11
HETATM   11  C4  UNL     1      85.391  70.190 -11.470  1.00  0.00     0.093 A 
HETATM   12  C5  UNL     1      85.506  69.990 -12.992  1.00  0.00     0.031 A 
HETATM   13  C6  UNL     1      86.255  71.088 -12.282  1.00  0.00     0.100 A 
BRANCH  13  14
HETATM   14  C7  UNL     1      86.010  72.495 -12.549  1.00  0.00     0.177 C 
HETATM   15  O3  UNL     1      85.381  72.917 -13.519  1.00  0.00    -0.648 OA
HETATM   16  O4  UNL     1      86.506  73.465 -11.666  1.00  0.00    -0.648 OA
ENDBRANCH  13  14
ENDBRANCH   5  11
TORSDOF 3
ENDMDL
