MODEL 1
REMARK VINA RESULT: -5.841194279      0.000      0.000
REMARK  4 active torsions:
REMARK  status: ('A' for Active; 'I' for Inactive)
REMARK    1  A    between atoms: C5_5  and  C7_7 
REMARK    2  A    between atoms: C8_10  and  C9_11 
REMARK    3  A    between atoms: C9_11  and  O2_12 
REMARK    4  A    between atoms: C9_11  and  N2_14 
ROOT
HETATM    1  C1  UNL     1      -6.078  26.634  35.615  1.00  0.00     0.011 C 
HETATM    2  C2  UNL     1      -7.074  26.716  34.556  1.00  0.00     0.005 C 
HETATM    3  C3  UNL     1      -6.963  28.005  33.713  1.00  0.00     0.001 C 
HETATM    4  C4  UNL     1      -5.652  27.860  32.998  1.00  0.00     0.025 C 
HETATM    5  C5  UNL     1      -5.719  26.360  32.641  1.00  0.00     0.051 C 
HETATM    6  C6  UNL     1      -5.541  26.112  31.178  1.00  0.00     0.026 C 
HETATM    7  C8  UNL     1      -7.034  26.054  33.234  1.00  0.00     0.051 C 
HETATM    8  C12 UNL     1      -7.924  27.267  32.817  1.00  0.00    -0.027 C 
HETATM    9  C13 UNL     1      -8.008  27.670  31.425  1.00  0.00     0.016 C 
HETATM   10  C14 UNL     1      -9.305  27.265  33.427  1.00  0.00     0.016 C 
ENDROOT
BRANCH   7  11
HETATM   11  C9  UNL     1      -7.699  24.785  32.986  1.00  0.00     0.124 C 
BRANCH  11  12
HETATM   12  O2  UNL     1      -8.578  24.487  33.897  1.00  0.00    -0.349 OA
ATOM     13  H2  UNL     1      -8.211  23.987  34.617  1.00  0.00     0.219 HD
ENDBRANCH  11  12
BRANCH  11  14
HETATM   14  N2  UNL     1      -7.601  23.822  31.983  1.00  0.00    -0.373 N 
HETATM   15  C10 UNL     1      -8.061  23.978  30.636  1.00  0.00     0.150 C 
HETATM   16  C11 UNL     1      -6.987  22.534  32.285  1.00  0.00     0.150 C 
ENDBRANCH  11  14
ENDBRANCH   7  11
BRANCH   5  17
HETATM   17  C7  UNL     1      -4.522  25.744  33.227  1.00  0.00     0.240 C 
HETATM   18  N1  UNL     1      -3.493  26.544  33.754  1.00  0.00    -0.061 NA
HETATM   19  O1  UNL     1      -4.401  24.514  33.272  1.00  0.00    -0.276 OA
ENDBRANCH   5  17
TORSDOF 4
ENDMDL
MODEL 2
REMARK VINA RESULT: -5.822226288      2.038      3.701
REMARK  4 active torsions:
REMARK  status: ('A' for Active; 'I' for Inactive)
REMARK    1  A    between atoms: C5_5  and  C7_7 
REMARK    2  A    between atoms: C8_10  and  C9_11 
REMARK    3  A    between atoms: C9_11  and  O2_12 
REMARK    4  A    between atoms: C9_11  and  N2_14 
ROOT
HETATM    1  C1  UNL     1      -6.660  28.137  30.600  1.00  0.00     0.011 C 
HETATM    2  C2  UNL     1      -6.227  27.054  31.472  1.00  0.00     0.005 C 
HETATM    3  C3  UNL     1      -5.719  27.542  32.846  1.00  0.00     0.001 C 
HETATM    4  C4  UNL     1      -6.943  28.103  33.508  1.00  0.00     0.025 C 
HETATM    5  C5  UNL     1      -7.977  27.044  33.073  1.00  0.00     0.051 C 
HETATM    6  C6  UNL     1      -8.701  26.441  34.234  1.00  0.00     0.026 C 
HETATM    7  C8  UNL     1      -7.080  26.170  32.295  1.00  0.00     0.051 C 
HETATM    8  C12 UNL     1      -5.794  26.074  33.175  1.00  0.00    -0.027 C 
HETATM    9  C13 UNL     1      -5.891  25.691  34.573  1.00  0.00     0.016 C 
HETATM   10  C14 UNL     1      -4.649  25.337  32.527  1.00  0.00     0.016 C 
ENDROOT
BRANCH   7  11
HETATM   11  C9  UNL     1      -7.514  24.863  31.828  1.00  0.00     0.124 C 
BRANCH  11  12
HETATM   12  O2  UNL     1      -7.983  24.887  30.615  1.00  0.00    -0.349 OA
ATOM     13  H2  UNL     1      -7.693  24.150  30.091  1.00  0.00     0.219 HD
ENDBRANCH  11  12
BRANCH  11  14
HETATM   14  N2  UNL     1      -7.532  23.591  32.398  1.00  0.00    -0.373 N 
HETATM   15  C10 UNL     1      -8.517  23.110  33.319  1.00  0.00     0.150 C 
HETATM   16  C11 UNL     1      -6.482  22.637  32.057  1.00  0.00     0.150 C 
ENDBRANCH  11  14
ENDBRANCH   7  11
BRANCH   5  17
HETATM   17  C7  UNL     1      -9.039  27.771  32.366  1.00  0.00     0.240 C 
HETATM   18  N1  UNL     1      -9.417  29.060  32.778  1.00  0.00    -0.061 NA
HETATM   19  O1  UNL     1      -9.614  27.264  31.395  1.00  0.00    -0.276 OA
ENDBRANCH   5  17
TORSDOF 4
ENDMDL
MODEL 3
REMARK VINA RESULT: -5.724177154      1.666      2.693
REMARK  4 active torsions:
REMARK  status: ('A' for Active; 'I' for Inactive)
REMARK    1  A    between atoms: C5_5  and  C7_7 
REMARK    2  A    between atoms: C8_10  and  C9_11 
REMARK    3  A    between atoms: C9_11  and  O2_12 
REMARK    4  A    between atoms: C9_11  and  N2_14 
ROOT
HETATM    1  C1  UNL     1      -4.890  27.118  34.107  1.00  0.00     0.011 C 
HETATM    2  C2  UNL     1      -6.270  27.346  33.703  1.00  0.00     0.005 C 
HETATM    3  C3  UNL     1      -6.400  27.955  32.291  1.00  0.00     0.001 C 
HETATM    4  C4  UNL     1      -5.907  26.870  31.380  1.00  0.00     0.025 C 
HETATM    5  C5  UNL     1      -6.545  25.646  32.072  1.00  0.00     0.051 C 
HETATM    6  C6  UNL     1      -7.385  24.835  31.139  1.00  0.00     0.026 C 
HETATM    7  C8  UNL     1      -7.226  26.349  33.173  1.00  0.00     0.051 C 
HETATM    8  C12 UNL     1      -7.852  27.604  32.487  1.00  0.00    -0.027 C 
HETATM    9  C13 UNL     1      -8.684  27.453  31.306  1.00  0.00     0.016 C 
HETATM   10  C14 UNL     1      -8.498  28.579  33.440  1.00  0.00     0.016 C 
ENDROOT
BRANCH   7  11
HETATM   11  C9  UNL     1      -8.184  25.668  34.030  1.00  0.00     0.124 C 
BRANCH  11  12
HETATM   12  O2  UNL     1      -8.535  24.502  33.571  1.00  0.00    -0.349 OA
ATOM     13  H2  UNL     1      -7.851  24.083  33.061  1.00  0.00     0.219 HD
ENDBRANCH  11  12
BRANCH  11  14
HETATM   14  N2  UNL     1      -8.805  25.992  35.235  1.00  0.00    -0.373 N 
HETATM   15  C10 UNL     1      -8.128  26.342  36.447  1.00  0.00     0.150 C 
HETATM   16  C11 UNL     1     -10.261  25.988  35.315  1.00  0.00     0.150 C 
ENDBRANCH  11  14
ENDBRANCH   7  11
BRANCH   5  17
HETATM   17  C7  UNL     1      -5.439  24.734  32.395  1.00  0.00     0.240 C 
HETATM   18  N1  UNL     1      -5.696  23.478  32.968  1.00  0.00    -0.061 NA
HETATM   19  O1  UNL     1      -4.267  25.056  32.165  1.00  0.00    -0.276 OA
ENDBRANCH   5  17
TORSDOF 4
ENDMDL
MODEL 4
REMARK VINA RESULT: -5.713910564      1.790      3.557
REMARK  4 active torsions:
REMARK  status: ('A' for Active; 'I' for Inactive)
REMARK    1  A    between atoms: C5_5  and  C7_7 
REMARK    2  A    between atoms: C8_10  and  C9_11 
REMARK    3  A    between atoms: C9_11  and  O2_12 
REMARK    4  A    between atoms: C9_11  and  N2_14 
ROOT
HETATM    1  C1  UNL     1      -6.537  27.844  30.761  1.00  0.00     0.011 C 
HETATM    2  C2  UNL     1      -6.229  27.049  31.941  1.00  0.00     0.005 C 
HETATM    3  C3  UNL     1      -5.967  27.901  33.201  1.00  0.00     0.001 C 
HETATM    4  C4  UNL     1      -7.297  28.529  33.497  1.00  0.00     0.025 C 
HETATM    5  C5  UNL     1      -8.220  27.329  33.200  1.00  0.00     0.051 C 
HETATM    6  C6  UNL     1      -9.111  26.993  34.352  1.00  0.00     0.026 C 
HETATM    7  C8  UNL     1      -7.186  26.348  32.824  1.00  0.00     0.051 C 
HETATM    8  C12 UNL     1      -6.061  26.563  33.886  1.00  0.00    -0.027 C 
HETATM    9  C13 UNL     1      -6.379  26.541  35.303  1.00  0.00     0.016 C 
HETATM   10  C14 UNL     1      -4.807  25.762  33.636  1.00  0.00     0.016 C 
ENDROOT
BRANCH   7  11
HETATM   11  C9  UNL     1      -7.504  24.939  32.653  1.00  0.00     0.124 C 
BRANCH  11  12
HETATM   12  O2  UNL     1      -8.325  24.491  33.557  1.00  0.00    -0.349 OA
ATOM     13  H2  UNL     1      -8.811  25.182  33.991  1.00  0.00     0.219 HD
ENDBRANCH  11  12
BRANCH  11  14
HETATM   14  N2  UNL     1      -7.122  23.967  31.730  1.00  0.00    -0.373 N 
HETATM   15  C10 UNL     1      -7.474  23.959  30.341  1.00  0.00     0.150 C 
HETATM   16  C11 UNL     1      -6.296  22.848  32.168  1.00  0.00     0.150 C 
ENDBRANCH  11  14
ENDBRANCH   7  11
BRANCH   5  17
HETATM   17  C7  UNL     1      -9.167  27.782  32.173  1.00  0.00     0.240 C 
HETATM   18  N1  UNL     1      -9.648  29.102  32.179  1.00  0.00    -0.061 NA
HETATM   19  O1  UNL     1      -9.553  27.012  31.285  1.00  0.00    -0.276 OA
ENDBRANCH   5  17
TORSDOF 4
ENDMDL
MODEL 5
REMARK VINA RESULT: -5.643025216      2.642      5.678
REMARK  4 active torsions:
REMARK  status: ('A' for Active; 'I' for Inactive)
REMARK    1  A    between atoms: C5_5  and  C7_7 
REMARK    2  A    between atoms: C8_10  and  C9_11 
REMARK    3  A    between atoms: C9_11  and  O2_12 
REMARK    4  A    between atoms: C9_11  and  N2_14 
ROOT
HETATM    1  C1  UNL     1      -5.560  21.321  32.974  1.00  0.00     0.011 C 
HETATM    2  C2  UNL     1      -5.814  21.796  31.621  1.00  0.00     0.005 C 
HETATM    3  C3  UNL     1      -6.341  20.695  30.677  1.00  0.00     0.001 C 
HETATM    4  C4  UNL     1      -7.695  20.359  31.228  1.00  0.00     0.025 C 
HETATM    5  C5  UNL     1      -8.186  21.779  31.582  1.00  0.00     0.051 C 
HETATM    6  C6  UNL     1      -9.498  22.105  30.944  1.00  0.00     0.026 C 
HETATM    7  C8  UNL     1      -7.001  22.535  31.140  1.00  0.00     0.051 C 
HETATM    8  C12 UNL     1      -6.620  21.872  29.779  1.00  0.00    -0.027 C 
HETATM    9  C13 UNL     1      -7.617  21.715  28.735  1.00  0.00     0.016 C 
HETATM   10  C14 UNL     1      -5.333  22.381  29.176  1.00  0.00     0.016 C 
ENDROOT
BRANCH   7  11
HETATM   11  C9  UNL     1      -7.021  23.987  31.046  1.00  0.00     0.124 C 
BRANCH  11  12
HETATM   12  O2  UNL     1      -8.012  24.436  30.334  1.00  0.00    -0.349 OA
ATOM     13  H2  UNL     1      -8.148  23.941  29.534  1.00  0.00     0.219 HD
ENDBRANCH  11  12
BRANCH  11  14
HETATM   14  N2  UNL     1      -6.209  24.999  31.555  1.00  0.00    -0.373 N 
HETATM   15  C10 UNL     1      -5.148  24.814  32.499  1.00  0.00     0.150 C 
HETATM   16  C11 UNL     1      -6.422  26.375  31.121  1.00  0.00     0.150 C 
ENDBRANCH  11  14
ENDBRANCH   7  11
BRANCH   5  17
HETATM   17  C7  UNL     1      -8.513  21.756  33.014  1.00  0.00     0.240 C 
HETATM   18  N1  UNL     1      -8.702  20.535  33.683  1.00  0.00    -0.061 NA
HETATM   19  O1  UNL     1      -8.623  22.809  33.654  1.00  0.00    -0.276 OA
ENDBRANCH   5  17
TORSDOF 4
ENDMDL
