MODEL 1
REMARK VINA RESULT: -6.220213328      0.000      0.000
REMARK  2 active torsions:
REMARK  status: ('A' for Active; 'I' for Inactive)
REMARK       I    between atoms: N1_2  and  C2_4 
REMARK    1  A    between atoms: C2_4  and  C3_6 
REMARK    2  A    between atoms: C9_12  and  S1_13 
ROOT
HETATM    1  C3  UNL     1      -8.174  23.186  32.002  1.00  0.00     0.086 C 
HETATM    2  C4  UNL     1      -7.208  24.003  32.808  1.00  0.00     0.001 C 
HETATM    3  C5  UNL     1      -6.164  24.378  31.745  1.00  0.00     0.011 C 
HETATM    4  C6  UNL     1      -7.193  24.896  30.729  1.00  0.00     0.009 C 
HETATM    5  C7  UNL     1      -8.057  23.642  30.620  1.00  0.00     0.000 C 
HETATM    6  C8  UNL     1      -7.438  22.748  29.616  1.00  0.00     0.011 C 
HETATM    7  C9  UNL     1      -7.946  25.874  31.555  1.00  0.00     0.113 C 
HETATM    8  C11 UNL     1      -7.860  25.368  32.990  1.00  0.00     0.026 C 
ENDROOT
BRANCH   1   9
HETATM    9  C2  UNL     1      -7.984  21.775  32.284  1.00  0.00     0.222 C 
HETATM   10  N1  UNL     1      -9.108  20.910  32.174  1.00  0.00    -0.365 N 
HETATM   11  C1  UNL     1      -9.010  19.473  32.440  1.00  0.00     0.149 C 
ATOM     12  H1  UNL     1     -10.009  21.302  31.902  1.00  0.00     0.161 HD
HETATM   13  O1  UNL     1      -6.898  21.245  32.622  1.00  0.00    -0.273 OA
ENDBRANCH   1   9
BRANCH   7  14
HETATM   14  S1  UNL     1      -7.331  27.517  31.513  1.00  0.00     0.145 S 
HETATM   15  C10 UNL     1      -7.945  28.381  32.966  1.00  0.00     0.161 C 
HETATM   16  O2  UNL     1      -7.787  28.285  30.326  1.00  0.00    -0.228 OA
HETATM   17  O3  UNL     1      -5.835  27.527  31.634  1.00  0.00    -0.228 OA
ENDBRANCH   7  14
TORSDOF 2
ENDMDL
MODEL 2
REMARK VINA RESULT: -5.968557409      2.301      3.051
REMARK  2 active torsions:
REMARK  status: ('A' for Active; 'I' for Inactive)
REMARK       I    between atoms: N1_2  and  C2_4 
REMARK    1  A    between atoms: C2_4  and  C3_6 
REMARK    2  A    between atoms: C9_12  and  S1_13 
ROOT
HETATM    1  C3  UNL     1      -6.710  23.989  31.157  1.00  0.00     0.086 C 
HETATM    2  C4  UNL     1      -7.243  24.990  32.139  1.00  0.00     0.001 C 
HETATM    3  C5  UNL     1      -6.577  24.524  33.442  1.00  0.00     0.011 C 
HETATM    4  C6  UNL     1      -5.159  24.470  32.852  1.00  0.00     0.009 C 
HETATM    5  C7  UNL     1      -5.434  23.520  31.689  1.00  0.00     0.000 C 
HETATM    6  C8  UNL     1      -5.331  22.134  32.199  1.00  0.00     0.011 C 
HETATM    7  C9  UNL     1      -5.034  25.835  32.280  1.00  0.00     0.113 C 
HETATM    8  C11 UNL     1      -6.448  26.269  31.911  1.00  0.00     0.026 C 
ENDROOT
BRANCH   1   9
HETATM    9  C2  UNL     1      -7.734  23.008  30.847  1.00  0.00     0.222 C 
HETATM   10  N1  UNL     1      -8.498  22.473  31.920  1.00  0.00    -0.365 N 
HETATM   11  C1  UNL     1      -9.552  21.478  31.703  1.00  0.00     0.149 C 
ATOM     12  H1  UNL     1      -8.307  22.790  32.870  1.00  0.00     0.161 HD
HETATM   13  O1  UNL     1      -8.006  22.585  29.697  1.00  0.00    -0.273 OA
ENDBRANCH   1   9
BRANCH   7  14
HETATM   14  S1  UNL     1      -4.353  27.038  33.360  1.00  0.00     0.145 S 
HETATM   15  C10 UNL     1      -2.627  26.622  33.644  1.00  0.00     0.161 C 
HETATM   16  O2  UNL     1      -5.015  27.076  34.690  1.00  0.00    -0.228 OA
HETATM   17  O3  UNL     1      -4.346  28.392  32.710  1.00  0.00    -0.228 OA
ENDBRANCH   7  14
TORSDOF 2
ENDMDL
MODEL 3
REMARK VINA RESULT: -5.937727898      3.284      5.431
REMARK  2 active torsions:
REMARK  status: ('A' for Active; 'I' for Inactive)
REMARK       I    between atoms: N1_2  and  C2_4 
REMARK    1  A    between atoms: C2_4  and  C3_6 
REMARK    2  A    between atoms: C9_12  and  S1_13 
ROOT
HETATM    1  C3  UNL     1      -5.610  25.311  32.091  1.00  0.00     0.086 C 
HETATM    2  C4  UNL     1      -6.167  24.063  32.711  1.00  0.00     0.001 C 
HETATM    3  C5  UNL     1      -7.677  24.282  32.536  1.00  0.00     0.011 C 
HETATM    4  C6  UNL     1      -7.588  24.611  31.038  1.00  0.00     0.009 C 
HETATM    5  C7  UNL     1      -6.598  25.770  31.119  1.00  0.00     0.000 C 
HETATM    6  C8  UNL     1      -7.364  27.006  31.399  1.00  0.00     0.011 C 
HETATM    7  C9  UNL     1      -6.841  23.433  30.529  1.00  0.00     0.113 C 
HETATM    8  C11 UNL     1      -5.968  22.956  31.684  1.00  0.00     0.026 C 
ENDROOT
BRANCH   1   9
HETATM    9  C2  UNL     1      -5.181  26.229  33.129  1.00  0.00     0.222 C 
HETATM   10  N1  UNL     1      -4.020  27.016  32.891  1.00  0.00    -0.365 N 
HETATM   11  C1  UNL     1      -3.512  27.970  33.881  1.00  0.00     0.149 C 
ATOM     12  H1  UNL     1      -3.526  26.914  32.005  1.00  0.00     0.161 HD
HETATM   13  O1  UNL     1      -5.752  26.390  34.234  1.00  0.00    -0.273 OA
ENDBRANCH   1   9
BRANCH   7  14
HETATM   14  S1  UNL     1      -7.836  22.089  29.999  1.00  0.00     0.145 S 
HETATM   15  C10 UNL     1      -7.626  20.741  31.171  1.00  0.00     0.161 C 
HETATM   16  O2  UNL     1      -7.455  21.565  28.662  1.00  0.00    -0.228 OA
HETATM   17  O3  UNL     1      -9.292  22.453  30.052  1.00  0.00    -0.228 OA
ENDBRANCH   7  14
TORSDOF 2
ENDMDL
MODEL 4
REMARK VINA RESULT: -5.895610473      2.962      5.143
REMARK  2 active torsions:
REMARK  status: ('A' for Active; 'I' for Inactive)
REMARK       I    between atoms: N1_2  and  C2_4 
REMARK    1  A    between atoms: C2_4  and  C3_6 
REMARK    2  A    between atoms: C9_12  and  S1_13 
ROOT
HETATM    1  C3  UNL     1      -5.830  25.219  32.364  1.00  0.00     0.086 C 
HETATM    2  C4  UNL     1      -6.390  23.896  32.793  1.00  0.00     0.001 C 
HETATM    3  C5  UNL     1      -7.859  24.030  32.362  1.00  0.00     0.011 C 
HETATM    4  C6  UNL     1      -7.533  24.478  30.929  1.00  0.00     0.009 C 
HETATM    5  C7  UNL     1      -6.664  25.688  31.261  1.00  0.00     0.000 C 
HETATM    6  C8  UNL     1      -7.559  26.847  31.476  1.00  0.00     0.011 C 
HETATM    7  C9  UNL     1      -6.620  23.392  30.489  1.00  0.00     0.113 C 
HETATM    8  C11 UNL     1      -5.930  22.885  31.750  1.00  0.00     0.026 C 
ENDROOT
BRANCH   1   9
HETATM    9  C2  UNL     1      -5.661  26.081  33.519  1.00  0.00     0.222 C 
HETATM   10  N1  UNL     1      -6.618  25.995  34.568  1.00  0.00    -0.365 N 
HETATM   11  C1  UNL     1      -6.529  26.825  35.772  1.00  0.00     0.149 C 
ATOM     12  H1  UNL     1      -7.390  25.334  34.480  1.00  0.00     0.161 HD
HETATM   13  O1  UNL     1      -4.731  26.909  33.674  1.00  0.00    -0.273 OA
ENDBRANCH   1   9
BRANCH   7  14
HETATM   14  S1  UNL     1      -7.401  22.032  29.704  1.00  0.00     0.145 S 
HETATM   15  C10 UNL     1      -7.047  20.553  30.663  1.00  0.00     0.161 C 
HETATM   16  O2  UNL     1      -6.905  21.784  28.325  1.00  0.00    -0.228 OA
HETATM   17  O3  UNL     1      -8.894  22.189  29.731  1.00  0.00    -0.228 OA
ENDBRANCH   7  14
TORSDOF 2
ENDMDL
MODEL 5
REMARK VINA RESULT: -5.869485365      3.350      4.492
REMARK  2 active torsions:
REMARK  status: ('A' for Active; 'I' for Inactive)
REMARK       I    between atoms: N1_2  and  C2_4 
REMARK    1  A    between atoms: C2_4  and  C3_6 
REMARK    2  A    between atoms: C9_12  and  S1_13 
ROOT
HETATM    1  C3  UNL     1      -6.291  26.863  32.701  1.00  0.00     0.086 C 
HETATM    2  C4  UNL     1      -7.548  26.475  31.982  1.00  0.00     0.001 C 
HETATM    3  C5  UNL     1      -8.511  26.236  33.155  1.00  0.00     0.011 C 
HETATM    4  C6  UNL     1      -8.213  27.577  33.843  1.00  0.00     0.009 C 
HETATM    5  C7  UNL     1      -6.700  27.429  33.982  1.00  0.00     0.000 C 
HETATM    6  C8  UNL     1      -6.428  26.672  35.225  1.00  0.00     0.011 C 
HETATM    7  C9  UNL     1      -8.458  28.531  32.731  1.00  0.00     0.113 C 
HETATM    8  C11 UNL     1      -8.146  27.771  31.447  1.00  0.00     0.026 C 
ENDROOT
BRANCH   1   9
HETATM    9  C2  UNL     1      -5.359  25.750  32.701  1.00  0.00     0.222 C 
HETATM   10  N1  UNL     1      -5.878  24.439  32.517  1.00  0.00    -0.365 N 
HETATM   11  C1  UNL     1      -5.014  23.256  32.504  1.00  0.00     0.149 C 
ATOM     12  H1  UNL     1      -6.884  24.318  32.391  1.00  0.00     0.161 HD
HETATM   13  O1  UNL     1      -4.117  25.846  32.853  1.00  0.00    -0.273 OA
ENDBRANCH   1   9
BRANCH   7  14
HETATM   14  S1  UNL     1     -10.097  29.147  32.622  1.00  0.00     0.145 S 
HETATM   15  C10 UNL     1     -10.702  28.836  30.957  1.00  0.00     0.161 C 
HETATM   16  O2  UNL     1     -10.192  30.611  32.852  1.00  0.00    -0.228 OA
HETATM   17  O3  UNL     1     -11.011  28.385  33.538  1.00  0.00    -0.228 OA
ENDBRANCH   7  14
TORSDOF 2
ENDMDL
