MODEL 1
REMARK VINA RESULT: -7.346622801      0.000      0.000
REMARK  5 active torsions:
REMARK  status: ('A' for Active; 'I' for Inactive)
REMARK    1  A    between atoms: C2_2  and  C3_3 
REMARK    2  A    between atoms: C5_8  and  C6_9 
REMARK    3  A    between atoms: C6_9  and  C7_10 
REMARK    4  A    between atoms: C8_11  and  C9_12 
REMARK    5  A    between atoms: N2_18  and  O2_19 
ROOT
HETATM    1  C3  UNL     1      -6.242  23.403  31.645  1.00  0.00     0.107 A 
HETATM    2  C4  UNL     1      -7.170  23.967  30.797  1.00  0.00     0.271 A 
HETATM    3  O1  UNL     1      -7.945  23.185  30.186  1.00  0.00    -0.266 OA
HETATM    4  N1  UNL     1      -7.206  25.305  30.663  1.00  0.00    -0.323 N 
ATOM      5  H1  UNL     1      -7.896  25.715  30.034  1.00  0.00     0.169 HD
HETATM    6  C5  UNL     1      -6.372  26.121  31.322  1.00  0.00     0.048 A 
HETATM    7  C13 UNL     1      -5.444  25.565  32.168  1.00  0.00     0.060 A 
HETATM    8  C14 UNL     1      -4.487  26.411  32.933  1.00  0.00     0.073 C 
HETATM    9  N2  UNL     1      -5.391  24.228  32.317  1.00  0.00    -0.226 N 
ENDROOT
BRANCH   6  10
HETATM   10  C6  UNL     1      -6.484  27.581  31.113  1.00  0.00     0.153 C 
BRANCH  10  11
HETATM   11  C7  UNL     1      -7.822  27.974  31.548  1.00  0.00    -0.100 C 
HETATM   12  C8  UNL     1      -8.920  28.319  31.912  1.00  0.00    -0.097 C 
BRANCH  12  13
HETATM   13  C9  UNL     1     -10.266  28.766  32.349  1.00  0.00     0.013 C 
HETATM   14  C10 UNL     1     -10.221  30.243  32.740  1.00  0.00     0.028 C 
HETATM   15  C11 UNL     1     -10.673  27.989  33.559  1.00  0.00     0.028 C 
HETATM   16  C12 UNL     1     -11.221  28.538  31.212  1.00  0.00     0.028 C 
ENDBRANCH  12  13
ENDBRANCH  10  11
ENDBRANCH   6  10
BRANCH   9  17
HETATM   17  O2  UNL     1      -4.471  23.622  33.161  1.00  0.00    -0.282 OA
ATOM     18  H2  UNL     1      -3.731  23.194  32.748  1.00  0.00     0.245 HD
ENDBRANCH   9  17
BRANCH   1  19
HETATM   19  C2  UNL     1      -6.190  21.932  31.808  1.00  0.00     0.061 C 
HETATM   20  C1  UNL     1      -5.317  21.238  30.815  1.00  0.00     0.011 C 
ENDBRANCH   1  19
TORSDOF 5
ENDMDL
MODEL 2
REMARK VINA RESULT: -7.336963091      0.037      1.009
REMARK  5 active torsions:
REMARK  status: ('A' for Active; 'I' for Inactive)
REMARK    1  A    between atoms: C2_2  and  C3_3 
REMARK    2  A    between atoms: C5_8  and  C6_9 
REMARK    3  A    between atoms: C6_9  and  C7_10 
REMARK    4  A    between atoms: C8_11  and  C9_12 
REMARK    5  A    between atoms: N2_18  and  O2_19 
ROOT
HETATM    1  C3  UNL     1      -6.231  23.403  31.642  1.00  0.00     0.107 A 
HETATM    2  C4  UNL     1      -7.162  23.962  30.795  1.00  0.00     0.271 A 
HETATM    3  O1  UNL     1      -7.934  23.177  30.185  1.00  0.00    -0.266 OA
HETATM    4  N1  UNL     1      -7.204  25.300  30.660  1.00  0.00    -0.323 N 
ATOM      5  H1  UNL     1      -7.896  25.707  30.032  1.00  0.00     0.169 HD
HETATM    6  C5  UNL     1      -6.373  26.120  31.319  1.00  0.00     0.048 A 
HETATM    7  C13 UNL     1      -5.442  25.568  32.164  1.00  0.00     0.060 A 
HETATM    8  C14 UNL     1      -4.488  26.420  32.928  1.00  0.00     0.073 C 
HETATM    9  N2  UNL     1      -5.382  24.232  32.314  1.00  0.00    -0.226 N 
ENDROOT
BRANCH   6  10
HETATM   10  C6  UNL     1      -6.492  27.580  31.108  1.00  0.00     0.153 C 
BRANCH  10  11
HETATM   11  C7  UNL     1      -7.824  27.970  31.564  1.00  0.00    -0.100 C 
HETATM   12  C8  UNL     1      -8.916  28.313  31.946  1.00  0.00    -0.097 C 
BRANCH  12  13
HETATM   13  C9  UNL     1     -10.256  28.757  32.406  1.00  0.00     0.013 C 
HETATM   14  C10 UNL     1     -11.276  28.576  31.283  1.00  0.00     0.028 C 
HETATM   15  C11 UNL     1     -10.202  30.213  32.739  1.00  0.00     0.028 C 
HETATM   16  C12 UNL     1     -10.627  27.939  33.610  1.00  0.00     0.028 C 
ENDBRANCH  12  13
ENDBRANCH  10  11
ENDBRANCH   6  10
BRANCH   9  17
HETATM   17  O2  UNL     1      -4.460  23.631  33.157  1.00  0.00    -0.282 OA
ATOM     18  H2  UNL     1      -3.657  23.319  32.758  1.00  0.00     0.245 HD
ENDBRANCH   9  17
BRANCH   1  19
HETATM   19  C2  UNL     1      -6.172  21.932  31.807  1.00  0.00     0.061 C 
HETATM   20  C1  UNL     1      -5.304  21.241  30.807  1.00  0.00     0.011 C 
ENDBRANCH   1  19
TORSDOF 5
ENDMDL
MODEL 3
REMARK VINA RESULT: -6.909942863      1.669      2.084
REMARK  5 active torsions:
REMARK  status: ('A' for Active; 'I' for Inactive)
REMARK    1  A    between atoms: C2_2  and  C3_3 
REMARK    2  A    between atoms: C5_8  and  C6_9 
REMARK    3  A    between atoms: C6_9  and  C7_10 
REMARK    4  A    between atoms: C8_11  and  C9_12 
REMARK    5  A    between atoms: N2_18  and  O2_19 
ROOT
HETATM    1  C3  UNL     1      -6.395  23.678  32.179  1.00  0.00     0.107 A 
HETATM    2  C4  UNL     1      -7.703  23.668  32.613  1.00  0.00     0.271 A 
HETATM    3  O1  UNL     1      -8.428  22.709  32.241  1.00  0.00    -0.266 OA
HETATM    4  N1  UNL     1      -8.137  24.667  33.402  1.00  0.00    -0.323 N 
ATOM      5  H1  UNL     1      -9.106  24.653  33.720  1.00  0.00     0.169 HD
HETATM    6  C5  UNL     1      -7.349  25.680  33.787  1.00  0.00     0.048 A 
HETATM    7  C13 UNL     1      -6.045  25.695  33.357  1.00  0.00     0.060 A 
HETATM    8  C14 UNL     1      -5.113  26.790  33.746  1.00  0.00     0.073 C 
HETATM    9  N2  UNL     1      -5.589  24.706  32.566  1.00  0.00    -0.226 N 
ENDROOT
BRANCH   6  10
HETATM   10  C6  UNL     1      -7.913  26.736  34.656  1.00  0.00     0.153 C 
BRANCH  10  11
HETATM   11  C7  UNL     1      -8.793  27.552  33.823  1.00  0.00    -0.100 C 
HETATM   12  C8  UNL     1      -9.503  28.242  33.134  1.00  0.00    -0.097 C 
BRANCH  12  13
HETATM   13  C9  UNL     1     -10.357  29.096  32.271  1.00  0.00     0.013 C 
HETATM   14  C10 UNL     1     -11.773  28.524  32.213  1.00  0.00     0.028 C 
HETATM   15  C11 UNL     1      -9.810  29.092  30.880  1.00  0.00     0.028 C 
HETATM   16  C12 UNL     1     -10.359  30.483  32.849  1.00  0.00     0.028 C 
ENDBRANCH  12  13
ENDBRANCH  10  11
ENDBRANCH   6  10
BRANCH   9  17
HETATM   17  O2  UNL     1      -4.280  24.679  32.108  1.00  0.00    -0.282 OA
ATOM     18  H2  UNL     1      -4.110  25.105  31.277  1.00  0.00     0.245 HD
ENDBRANCH   9  17
BRANCH   1  19
HETATM   19  C2  UNL     1      -5.897  22.584  31.313  1.00  0.00     0.061 C 
HETATM   20  C1  UNL     1      -5.398  21.391  32.062  1.00  0.00     0.011 C 
ENDBRANCH   1  19
TORSDOF 5
ENDMDL
MODEL 4
REMARK VINA RESULT: -6.905829704      1.674      1.850
REMARK  5 active torsions:
REMARK  status: ('A' for Active; 'I' for Inactive)
REMARK    1  A    between atoms: C2_2  and  C3_3 
REMARK    2  A    between atoms: C5_8  and  C6_9 
REMARK    3  A    between atoms: C6_9  and  C7_10 
REMARK    4  A    between atoms: C8_11  and  C9_12 
REMARK    5  A    between atoms: N2_18  and  O2_19 
ROOT
HETATM    1  C3  UNL     1      -6.382  23.676  32.174  1.00  0.00     0.107 A 
HETATM    2  C4  UNL     1      -7.686  23.667  32.620  1.00  0.00     0.271 A 
HETATM    3  O1  UNL     1      -8.415  22.708  32.256  1.00  0.00    -0.266 OA
HETATM    4  N1  UNL     1      -8.113  24.668  33.411  1.00  0.00    -0.323 N 
ATOM      5  H1  UNL     1      -9.079  24.655  33.737  1.00  0.00     0.169 HD
HETATM    6  C5  UNL     1      -7.322  25.682  33.787  1.00  0.00     0.048 A 
HETATM    7  C13 UNL     1      -6.021  25.696  33.345  1.00  0.00     0.060 A 
HETATM    8  C14 UNL     1      -5.086  26.792  33.725  1.00  0.00     0.073 C 
HETATM    9  N2  UNL     1      -5.573  24.705  32.553  1.00  0.00    -0.226 N 
ENDROOT
BRANCH   6  10
HETATM   10  C6  UNL     1      -7.878  26.740  34.659  1.00  0.00     0.153 C 
BRANCH  10  11
HETATM   11  C7  UNL     1      -8.771  27.550  33.833  1.00  0.00    -0.100 C 
HETATM   12  C8  UNL     1      -9.492  28.234  33.149  1.00  0.00    -0.097 C 
BRANCH  12  13
HETATM   13  C9  UNL     1     -10.359  29.081  32.292  1.00  0.00     0.013 C 
HETATM   14  C10 UNL     1     -10.401  30.505  32.845  1.00  0.00     0.028 C 
HETATM   15  C11 UNL     1     -11.752  28.542  32.320  1.00  0.00     0.028 C 
HETATM   16  C12 UNL     1      -9.796  29.060  30.900  1.00  0.00     0.028 C 
ENDBRANCH  12  13
ENDBRANCH  10  11
ENDBRANCH   6  10
BRANCH   9  17
HETATM   17  O2  UNL     1      -4.268  24.678  32.084  1.00  0.00    -0.282 OA
ATOM     18  H2  UNL     1      -3.650  25.263  32.505  1.00  0.00     0.245 HD
ENDBRANCH   9  17
BRANCH   1  19
HETATM   19  C2  UNL     1      -5.892  22.581  31.306  1.00  0.00     0.061 C 
HETATM   20  C1  UNL     1      -5.399  21.384  32.053  1.00  0.00     0.011 C 
ENDBRANCH   1  19
TORSDOF 5
ENDMDL
MODEL 5
REMARK VINA RESULT: -6.644151627      2.823      6.232
REMARK  5 active torsions:
REMARK  status: ('A' for Active; 'I' for Inactive)
REMARK    1  A    between atoms: C2_2  and  C3_3 
REMARK    2  A    between atoms: C5_8  and  C6_9 
REMARK    3  A    between atoms: C6_9  and  C7_10 
REMARK    4  A    between atoms: C8_11  and  C9_12 
REMARK    5  A    between atoms: N2_18  and  O2_19 
ROOT
HETATM    1  C3  UNL     1      -9.698  28.575  31.938  1.00  0.00     0.107 A 
HETATM    2  C4  UNL     1      -8.941  28.577  30.787  1.00  0.00     0.271 A 
HETATM    3  O1  UNL     1      -9.290  29.362  29.867  1.00  0.00    -0.266 OA
HETATM    4  N1  UNL     1      -7.880  27.754  30.701  1.00  0.00    -0.323 N 
ATOM      5  H1  UNL     1      -7.324  27.761  29.846  1.00  0.00     0.169 HD
HETATM    6  C5  UNL     1      -7.525  26.925  31.692  1.00  0.00     0.048 A 
HETATM    7  C13 UNL     1      -8.277  26.919  32.841  1.00  0.00     0.060 A 
HETATM    8  C14 UNL     1      -7.939  26.024  33.983  1.00  0.00     0.073 C 
HETATM    9  N2  UNL     1      -9.342  27.734  32.949  1.00  0.00    -0.226 N 
ENDROOT
BRANCH   6  10
HETATM   10  C6  UNL     1      -6.343  26.055  31.509  1.00  0.00     0.153 C 
BRANCH  10  11
HETATM   11  C7  UNL     1      -6.834  24.752  31.066  1.00  0.00    -0.100 C 
HETATM   12  C8  UNL     1      -7.243  23.671  30.721  1.00  0.00    -0.097 C 
BRANCH  12  13
HETATM   13  C9  UNL     1      -7.765  22.342  30.315  1.00  0.00     0.013 C 
HETATM   14  C10 UNL     1      -9.293  22.363  30.315  1.00  0.00     0.028 C 
HETATM   15  C11 UNL     1      -7.327  21.317  31.311  1.00  0.00     0.028 C 
HETATM   16  C12 UNL     1      -7.230  22.032  28.946  1.00  0.00     0.028 C 
ENDBRANCH  12  13
ENDBRANCH  10  11
ENDBRANCH   6  10
BRANCH   9  17
HETATM   17  O2  UNL     1     -10.130  27.762  34.090  1.00  0.00    -0.282 OA
ATOM     18  H2  UNL     1     -11.040  27.512  33.987  1.00  0.00     0.245 HD
ENDBRANCH   9  17
BRANCH   1  19
HETATM   19  C2  UNL     1     -10.867  29.477  32.053  1.00  0.00     0.061 C 
HETATM   20  C1  UNL     1     -10.599  30.727  32.826  1.00  0.00     0.011 C 
ENDBRANCH   1  19
TORSDOF 5
ENDMDL
