MODEL 1
REMARK VINA RESULT: -6.827218739      0.000      0.000
REMARK  2 active torsions:
REMARK  status: ('A' for Active; 'I' for Inactive)
REMARK       I    between atoms: N1_5  and  C5_7 
REMARK    1  A    between atoms: C5_7  and  C6_9 
REMARK    2  A    between atoms: C6_9  and  N2_10 
REMARK       I    between atoms: N2_10  and  C7_12 
ROOT
HETATM    1  C1  UNL     1      -6.367  22.732  28.603  1.00  0.00     0.036 C 
HETATM    2  C2  UNL     1      -6.989  21.686  29.437  1.00  0.00    -0.022 C 
HETATM    3  C3  UNL     1      -6.996  21.731  30.760  1.00  0.00    -0.034 C 
HETATM    4  C4  UNL     1      -6.402  22.799  31.575  1.00  0.00     0.019 C 
HETATM    5  N1  UNL     1      -5.343  23.508  31.267  1.00  0.00    -0.329 N 
ATOM      6  H1  UNL     1      -4.831  23.363  30.397  1.00  0.00     0.168 HD
HETATM    7  C5  UNL     1      -4.951  24.490  32.216  1.00  0.00     0.239 C 
HETATM    8  O1  UNL     1      -4.440  24.216  33.322  1.00  0.00    -0.271 OA
HETATM    9  C9  UNL     1      -7.254  22.884  32.790  1.00  0.00     0.064 C 
HETATM   10  C10 UNL     1      -7.733  21.489  32.984  1.00  0.00     0.009 A 
HETATM   11  C11 UNL     1      -7.581  20.748  31.711  1.00  0.00     0.033 A 
HETATM   12  C12 UNL     1      -8.925  20.954  32.296  1.00  0.00    -0.035 A 
HETATM   13  C13 UNL     1      -9.542  19.713  32.926  1.00  0.00     0.016 C 
HETATM   14  C14 UNL     1      -9.859  21.827  31.513  1.00  0.00     0.016 C 
ENDROOT
BRANCH   7  15
HETATM   15  C6  UNL     1      -5.167  25.909  31.856  1.00  0.00     0.225 C 
BRANCH  15  16
HETATM   16  N2  UNL     1      -6.214  26.532  32.606  1.00  0.00    -0.353 N 
HETATM   17  C7  UNL     1      -7.552  26.599  32.202  1.00  0.00     0.213 C 
HETATM   18  C8  UNL     1      -8.596  27.273  33.040  1.00  0.00     0.117 C 
HETATM   19  O2  UNL     1      -7.960  26.105  31.125  1.00  0.00    -0.274 OA
ATOM     20  H2  UNL     1      -5.967  26.956  33.500  1.00  0.00     0.162 HD
ENDBRANCH  15  16
ENDBRANCH   7  15
TORSDOF 2
ENDMDL
MODEL 2
REMARK VINA RESULT: -6.751056503      1.969      3.154
REMARK  2 active torsions:
REMARK  status: ('A' for Active; 'I' for Inactive)
REMARK       I    between atoms: N1_5  and  C5_7 
REMARK    1  A    between atoms: C5_7  and  C6_9 
REMARK    2  A    between atoms: C6_9  and  N2_10 
REMARK       I    between atoms: N2_10  and  C7_12 
ROOT
HETATM    1  C1  UNL     1      -4.561  25.201  32.729  1.00  0.00     0.036 C 
HETATM    2  C2  UNL     1      -4.911  23.808  32.388  1.00  0.00    -0.022 C 
HETATM    3  C3  UNL     1      -6.131  23.316  32.539  1.00  0.00    -0.034 C 
HETATM    4  C4  UNL     1      -7.288  24.059  33.056  1.00  0.00     0.019 C 
HETATM    5  N1  UNL     1      -7.253  25.024  33.943  1.00  0.00    -0.329 N 
ATOM      6  H1  UNL     1      -6.378  25.343  34.359  1.00  0.00     0.168 HD
HETATM    7  C5  UNL     1      -8.505  25.598  34.292  1.00  0.00     0.239 C 
HETATM    8  O1  UNL     1      -9.369  25.007  34.973  1.00  0.00    -0.271 OA
HETATM    9  C9  UNL     1      -8.467  23.482  32.359  1.00  0.00     0.064 C 
HETATM   10  C10 UNL     1      -8.083  22.063  32.133  1.00  0.00     0.009 A 
HETATM   11  C11 UNL     1      -6.612  21.941  32.239  1.00  0.00     0.033 A 
HETATM   12  C12 UNL     1      -7.293  21.628  30.963  1.00  0.00    -0.035 A 
HETATM   13  C13 UNL     1      -7.376  20.145  30.631  1.00  0.00     0.016 C 
HETATM   14  C14 UNL     1      -6.993  22.543  29.813  1.00  0.00     0.016 C 
ENDROOT
BRANCH   7  15
HETATM   15  C6  UNL     1      -8.782  26.970  33.813  1.00  0.00     0.225 C 
BRANCH  15  16
HETATM   16  N2  UNL     1      -7.700  27.540  33.068  1.00  0.00    -0.353 N 
HETATM   17  C7  UNL     1      -7.520  27.394  31.689  1.00  0.00     0.213 C 
HETATM   18  C8  UNL     1      -6.358  28.017  30.975  1.00  0.00     0.117 C 
HETATM   19  O2  UNL     1      -8.309  26.742  30.967  1.00  0.00    -0.274 OA
ATOM     20  H2  UNL     1      -7.012  28.091  33.581  1.00  0.00     0.162 HD
ENDBRANCH  15  16
ENDBRANCH   7  15
TORSDOF 2
ENDMDL
MODEL 3
REMARK VINA RESULT: -6.721867562      2.083      5.642
REMARK  2 active torsions:
REMARK  status: ('A' for Active; 'I' for Inactive)
REMARK       I    between atoms: N1_5  and  C5_7 
REMARK    1  A    between atoms: C5_7  and  C6_9 
REMARK    2  A    between atoms: C6_9  and  N2_10 
REMARK       I    between atoms: N2_10  and  C7_12 
ROOT
HETATM    1  C1  UNL     1      -3.822  25.927  33.262  1.00  0.00     0.036 C 
HETATM    2  C2  UNL     1      -4.857  26.960  33.057  1.00  0.00    -0.022 C 
HETATM    3  C3  UNL     1      -6.026  26.703  32.491  1.00  0.00    -0.034 C 
HETATM    4  C4  UNL     1      -6.458  25.389  31.995  1.00  0.00     0.019 C 
HETATM    5  N1  UNL     1      -5.683  24.460  31.492  1.00  0.00    -0.329 N 
ATOM      6  H1  UNL     1      -4.675  24.587  31.404  1.00  0.00     0.168 HD
HETATM    7  C5  UNL     1      -6.329  23.265  31.076  1.00  0.00     0.239 C 
HETATM    8  O1  UNL     1      -7.064  23.192  30.069  1.00  0.00    -0.271 OA
HETATM    9  C9  UNL     1      -7.931  25.362  32.193  1.00  0.00     0.064 C 
HETATM   10  C10 UNL     1      -8.335  26.785  32.036  1.00  0.00     0.009 A 
HETATM   11  C11 UNL     1      -7.145  27.645  32.224  1.00  0.00     0.033 A 
HETATM   12  C12 UNL     1      -8.294  27.753  33.150  1.00  0.00    -0.035 A 
HETATM   13  C13 UNL     1      -9.147  29.000  32.966  1.00  0.00     0.016 C 
HETATM   14  C14 UNL     1      -8.041  27.333  34.568  1.00  0.00     0.016 C 
ENDROOT
BRANCH   7  15
HETATM   15  C6  UNL     1      -6.107  22.051  31.893  1.00  0.00     0.225 C 
BRANCH  15  16
HETATM   16  N2  UNL     1      -7.298  21.560  32.514  1.00  0.00    -0.353 N 
HETATM   17  C7  UNL     1      -8.117  20.557  31.985  1.00  0.00     0.213 C 
HETATM   18  C8  UNL     1      -9.356  20.094  32.691  1.00  0.00     0.117 C 
HETATM   19  O2  UNL     1      -7.869  19.984  30.898  1.00  0.00    -0.274 OA
ATOM     20  H2  UNL     1      -7.570  21.971  33.407  1.00  0.00     0.162 HD
ENDBRANCH  15  16
ENDBRANCH   7  15
TORSDOF 2
ENDMDL
MODEL 4
REMARK VINA RESULT: -6.652733909      2.093      3.381
REMARK  2 active torsions:
REMARK  status: ('A' for Active; 'I' for Inactive)
REMARK       I    between atoms: N1_5  and  C5_7 
REMARK    1  A    between atoms: C5_7  and  C6_9 
REMARK    2  A    between atoms: C6_9  and  N2_10 
REMARK       I    between atoms: N2_10  and  C7_12 
ROOT
HETATM    1  C1  UNL     1      -4.269  25.239  32.697  1.00  0.00     0.036 C 
HETATM    2  C2  UNL     1      -4.804  23.882  32.471  1.00  0.00    -0.022 C 
HETATM    3  C3  UNL     1      -6.087  23.585  32.599  1.00  0.00    -0.034 C 
HETATM    4  C4  UNL     1      -7.144  24.533  32.976  1.00  0.00     0.019 C 
HETATM    5  N1  UNL     1      -7.007  25.569  33.768  1.00  0.00    -0.329 N 
ATOM      6  H1  UNL     1      -6.113  25.803  34.200  1.00  0.00     0.168 HD
HETATM    7  C5  UNL     1      -8.175  26.346  33.988  1.00  0.00     0.239 C 
HETATM    8  O1  UNL     1      -9.144  25.957  34.673  1.00  0.00    -0.271 OA
HETATM    9  C9  UNL     1      -8.365  24.060  32.272  1.00  0.00     0.064 C 
HETATM   10  C10 UNL     1      -8.183  22.585  32.203  1.00  0.00     0.009 A 
HETATM   11  C11 UNL     1      -6.751  22.268  32.404  1.00  0.00     0.033 A 
HETATM   12  C12 UNL     1      -7.416  21.925  31.128  1.00  0.00    -0.035 A 
HETATM   13  C13 UNL     1      -7.701  20.443  30.934  1.00  0.00     0.016 C 
HETATM   14  C14 UNL     1      -6.937  22.666  29.914  1.00  0.00     0.016 C 
ENDROOT
BRANCH   7  15
HETATM   15  C6  UNL     1      -8.228  27.688  33.365  1.00  0.00     0.225 C 
BRANCH  15  16
HETATM   16  N2  UNL     1      -9.528  28.038  32.881  1.00  0.00    -0.353 N 
HETATM   17  C7  UNL     1      -9.812  28.421  31.566  1.00  0.00     0.213 C 
HETATM   18  C8  UNL     1     -11.201  28.779  31.130  1.00  0.00     0.117 C 
HETATM   19  O2  UNL     1      -8.933  28.487  30.676  1.00  0.00    -0.274 OA
ATOM     20  H2  UNL     1     -10.303  28.006  33.543  1.00  0.00     0.162 HD
ENDBRANCH  15  16
ENDBRANCH   7  15
TORSDOF 2
ENDMDL
MODEL 5
REMARK VINA RESULT: -6.577344849      2.601      6.497
REMARK  2 active torsions:
REMARK  status: ('A' for Active; 'I' for Inactive)
REMARK       I    between atoms: N1_5  and  C5_7 
REMARK    1  A    between atoms: C5_7  and  C6_9 
REMARK    2  A    between atoms: C6_9  and  N2_10 
REMARK       I    between atoms: N2_10  and  C7_12 
ROOT
HETATM    1  C1  UNL     1      -8.034  25.768  35.042  1.00  0.00     0.036 C 
HETATM    2  C2  UNL     1      -8.519  27.147  34.835  1.00  0.00    -0.022 C 
HETATM    3  C3  UNL     1      -8.631  27.697  33.637  1.00  0.00    -0.034 C 
HETATM    4  C4  UNL     1      -8.298  27.039  32.366  1.00  0.00     0.019 C 
HETATM    5  N1  UNL     1      -7.364  26.137  32.185  1.00  0.00    -0.329 N 
ATOM      6  H1  UNL     1      -6.772  25.812  32.949  1.00  0.00     0.168 HD
HETATM    7  C5  UNL     1      -7.224  25.640  30.861  1.00  0.00     0.239 C 
HETATM    8  O1  UNL     1      -6.755  26.311  29.918  1.00  0.00    -0.271 OA
HETATM    9  C9  UNL     1      -9.239  27.613  31.369  1.00  0.00     0.064 C 
HETATM   10  C10 UNL     1      -9.475  28.997  31.862  1.00  0.00     0.009 A 
HETATM   11  C11 UNL     1      -9.099  29.067  33.293  1.00  0.00     0.033 A 
HETATM   12  C12 UNL     1     -10.497  29.317  32.878  1.00  0.00    -0.035 A 
HETATM   13  C13 UNL     1     -10.928  30.776  32.936  1.00  0.00     0.016 C 
HETATM   14  C14 UNL     1     -11.513  28.314  33.338  1.00  0.00     0.016 C 
ENDROOT
BRANCH   7  15
HETATM   15  C6  UNL     1      -7.663  24.250  30.607  1.00  0.00     0.225 C 
BRANCH  15  16
HETATM   16  N2  UNL     1      -6.669  23.272  30.929  1.00  0.00    -0.353 N 
HETATM   17  C7  UNL     1      -6.350  22.169  30.131  1.00  0.00     0.213 C 
HETATM   18  C8  UNL     1      -5.297  21.181  30.535  1.00  0.00     0.117 C 
HETATM   19  O2  UNL     1      -6.916  21.936  29.038  1.00  0.00    -0.274 OA
ATOM     20  H2  UNL     1      -6.156  23.390  31.802  1.00  0.00     0.162 HD
ENDBRANCH  15  16
ENDBRANCH   7  15
TORSDOF 2
ENDMDL
