MODEL 1
REMARK VINA RESULT: -4.750612005      0.000      0.000
REMARK  3 active torsions:
REMARK  status: ('A' for Active; 'I' for Inactive)
REMARK    1  A    between atoms: C2_2  and  N1_4 
REMARK    2  A    between atoms: C8_10  and  C10_12 
REMARK       I    between atoms: C10_12  and  N2_14 
REMARK    3  A    between atoms: N2_14  and  S1_16 
ROOT
HETATM    1  N1  UNL     1      61.497  29.180 106.218  1.00  0.00    -0.379 N 
HETATM    2  C3  UNL     1      61.330  29.220 104.783  1.00  0.00     0.124 C 
HETATM    3  C4  UNL     1      61.300  27.880 104.115  1.00  0.00     0.008 A 
HETATM    4  C5  UNL     1      59.981  27.541 103.464  1.00  0.00     0.011 A 
HETATM    5  C6  UNL     1      60.375  26.916 104.759  1.00  0.00    -0.006 A 
HETATM    6  C7  UNL     1      59.839  27.522 106.006  1.00  0.00     0.045 C 
HETATM    7  C8  UNL     1      60.997  28.072 106.902  1.00  0.00     0.108 C 
HETATM    8  C9  UNL     1      61.889  26.917 107.164  1.00  0.00     0.049 C 
ENDROOT
BRANCH   7   9
HETATM    9  C10 UNL     1      60.208  28.528 108.098  1.00  0.00     0.258 C 
HETATM   10  O1  UNL     1      60.555  28.138 109.222  1.00  0.00    -0.270 OA
HETATM   11  N2  UNL     1      59.113  29.365 107.890  1.00  0.00    -0.253 N 
ATOM     12  H2  UNL     1      58.897  29.646 106.933  1.00  0.00     0.181 HD
BRANCH  11  13
HETATM   13  S1  UNL     1      58.100  29.953 109.161  1.00  0.00     0.229 S 
HETATM   14  C11 UNL     1      56.849  31.050 108.481  1.00  0.00     0.186 C 
HETATM   15  O2  UNL     1      57.448  28.794 109.800  1.00  0.00    -0.206 OA
HETATM   16  O3  UNL     1      58.926  30.789 110.114  1.00  0.00    -0.206 OA
ENDBRANCH  11  13
ENDBRANCH   7   9
BRANCH   1  17
HETATM   17  C2  UNL     1      62.795  29.655 106.515  1.00  0.00     0.173 C 
HETATM   18  C1  UNL     1      63.023  30.464 107.720  1.00  0.00     0.049 C 
HETATM   19 CL1  UNL     1      63.303  30.669 105.111  1.00  0.00    -0.103 Cl
ENDBRANCH   1  17
TORSDOF 3
ENDMDL
MODEL 2
REMARK VINA RESULT: -4.735747264      0.907      1.054
REMARK  3 active torsions:
REMARK  status: ('A' for Active; 'I' for Inactive)
REMARK    1  A    between atoms: C2_2  and  N1_4 
REMARK    2  A    between atoms: C8_10  and  C10_12 
REMARK       I    between atoms: C10_12  and  N2_14 
REMARK    3  A    between atoms: N2_14  and  S1_16 
ROOT
HETATM    1  N1  UNL     1      61.372  29.224 106.233  1.00  0.00    -0.379 N 
HETATM    2  C3  UNL     1      61.271  29.223 104.791  1.00  0.00     0.124 C 
HETATM    3  C4  UNL     1      61.288  27.865 104.160  1.00  0.00     0.008 A 
HETATM    4  C5  UNL     1      60.004  27.493 103.458  1.00  0.00     0.011 A 
HETATM    5  C6  UNL     1      60.345  26.907 104.787  1.00  0.00    -0.006 A 
HETATM    6  C7  UNL     1      59.745  27.539 105.990  1.00  0.00     0.045 C 
HETATM    7  C8  UNL     1      60.854  28.128 106.923  1.00  0.00     0.108 C 
HETATM    8  C9  UNL     1      61.746  26.992 107.257  1.00  0.00     0.049 C 
ENDROOT
BRANCH   7   9
HETATM    9  C10 UNL     1      60.005  28.606 108.068  1.00  0.00     0.258 C 
HETATM   10  O1  UNL     1      60.279  28.218 109.214  1.00  0.00    -0.270 OA
HETATM   11  N2  UNL     1      58.938  29.459 107.792  1.00  0.00    -0.253 N 
ATOM     12  H2  UNL     1      58.782  29.737 106.823  1.00  0.00     0.181 HD
BRANCH  11  13
HETATM   13  S1  UNL     1      57.863  30.073 108.999  1.00  0.00     0.229 S 
HETATM   14  C11 UNL     1      56.906  28.724 109.702  1.00  0.00     0.186 C 
HETATM   15  O2  UNL     1      58.675  30.707 110.055  1.00  0.00    -0.206 OA
HETATM   16  O3  UNL     1      56.866  31.010 108.353  1.00  0.00    -0.206 OA
ENDBRANCH  11  13
ENDBRANCH   7   9
BRANCH   1  17
HETATM   17  C2  UNL     1      62.649  29.724 106.577  1.00  0.00     0.173 C 
HETATM   18  C1  UNL     1      62.813  30.555 107.776  1.00  0.00     0.049 C 
HETATM   19 CL1  UNL     1      63.201  30.722 105.178  1.00  0.00    -0.103 Cl
ENDBRANCH   1  17
TORSDOF 3
ENDMDL
MODEL 3
REMARK VINA RESULT: -4.591342914      4.829      6.012
REMARK  3 active torsions:
REMARK  status: ('A' for Active; 'I' for Inactive)
REMARK    1  A    between atoms: C2_2  and  N1_4 
REMARK    2  A    between atoms: C8_10  and  C10_12 
REMARK       I    between atoms: C10_12  and  N2_14 
REMARK    3  A    between atoms: N2_14  and  S1_16 
ROOT
HETATM    1  N1  UNL     1      60.523  29.172 104.060  1.00  0.00    -0.379 N 
HETATM    2  C3  UNL     1      61.626  28.967 104.971  1.00  0.00     0.124 C 
HETATM    3  C4  UNL     1      61.278  28.224 106.224  1.00  0.00     0.008 A 
HETATM    4  C5  UNL     1      61.955  26.881 106.356  1.00  0.00     0.011 A 
HETATM    5  C6  UNL     1      60.515  26.976 105.981  1.00  0.00    -0.006 A 
HETATM    6  C7  UNL     1      60.174  26.892 104.537  1.00  0.00     0.045 C 
HETATM    7  C8  UNL     1      59.505  28.218 104.044  1.00  0.00     0.108 C 
HETATM    8  C9  UNL     1      58.313  28.414 104.904  1.00  0.00     0.049 C 
ENDROOT
BRANCH   7   9
HETATM    9  C10 UNL     1      59.189  27.838 102.624  1.00  0.00     0.258 C 
HETATM   10  O1  UNL     1      58.643  26.746 102.409  1.00  0.00    -0.270 OA
HETATM   11  N2  UNL     1      59.532  28.728 101.607  1.00  0.00    -0.253 N 
ATOM     12  H2  UNL     1      59.973  29.610 101.868  1.00  0.00     0.181 HD
BRANCH  11  13
HETATM   13  S1  UNL     1      59.251  28.421  99.929  1.00  0.00     0.229 S 
HETATM   14  C11 UNL     1      60.399  29.384  98.937  1.00  0.00     0.186 C 
HETATM   15  O2  UNL     1      59.470  26.983  99.684  1.00  0.00    -0.206 OA
HETATM   16  O3  UNL     1      57.864  28.898  99.557  1.00  0.00    -0.206 OA
ENDBRANCH  11  13
ENDBRANCH   7   9
BRANCH   1  17
HETATM   17  C2  UNL     1      60.191  30.546 104.085  1.00  0.00     0.173 C 
HETATM   18  C1  UNL     1      60.912  31.491 103.223  1.00  0.00     0.049 C 
HETATM   19 CL1  UNL     1      60.442  31.102 105.783  1.00  0.00    -0.103 Cl
ENDBRANCH   1  17
TORSDOF 3
ENDMDL
MODEL 4
REMARK VINA RESULT: -4.568742009      1.982      3.508
REMARK  3 active torsions:
REMARK  status: ('A' for Active; 'I' for Inactive)
REMARK    1  A    between atoms: C2_2  and  N1_4 
REMARK    2  A    between atoms: C8_10  and  C10_12 
REMARK       I    between atoms: C10_12  and  N2_14 
REMARK    3  A    between atoms: N2_14  and  S1_16 
ROOT
HETATM    1  N1  UNL     1      60.430  28.689 106.198  1.00  0.00    -0.379 N 
HETATM    2  C3  UNL     1      61.873  28.737 106.267  1.00  0.00     0.124 C 
HETATM    3  C4  UNL     1      62.444  30.078 106.610  1.00  0.00     0.008 A 
HETATM    4  C5  UNL     1      63.171  30.122 107.932  1.00  0.00     0.011 A 
HETATM    5  C6  UNL     1      61.807  30.710 107.791  1.00  0.00    -0.006 A 
HETATM    6  C7  UNL     1      60.653  29.878 108.219  1.00  0.00     0.045 C 
HETATM    7  C8  UNL     1      59.710  29.566 107.010  1.00  0.00     0.108 C 
HETATM    8  C9  UNL     1      59.297  30.883 106.470  1.00  0.00     0.049 C 
ENDROOT
BRANCH   7   9
HETATM    9  C10 UNL     1      58.616  28.817 107.719  1.00  0.00     0.258 C 
HETATM   10  O1  UNL     1      58.825  27.644 108.061  1.00  0.00    -0.270 OA
HETATM   11  N2  UNL     1      57.408  29.472 107.954  1.00  0.00    -0.253 N 
ATOM     12  H2  UNL     1      57.318  30.441 107.647  1.00  0.00     0.181 HD
BRANCH  11  13
HETATM   13  S1  UNL     1      56.054  28.736 108.737  1.00  0.00     0.229 S 
HETATM   14  C11 UNL     1      54.760  29.958 108.988  1.00  0.00     0.186 C 
HETATM   15  O2  UNL     1      55.553  27.656 107.865  1.00  0.00    -0.206 OA
HETATM   16  O3  UNL     1      56.466  28.264 110.114  1.00  0.00    -0.206 OA
ENDBRANCH  11  13
ENDBRANCH   7   9
BRANCH   1  17
HETATM   17  C2  UNL     1      60.066  28.539 104.841  1.00  0.00     0.173 C 
HETATM   18  C1  UNL     1      58.753  27.984 104.490  1.00  0.00     0.049 C 
HETATM   19 CL1  UNL     1      61.300  27.452 104.097  1.00  0.00    -0.103 Cl
ENDBRANCH   1  17
TORSDOF 3
ENDMDL
MODEL 5
REMARK VINA RESULT: -4.459912861      4.434      5.584
REMARK  3 active torsions:
REMARK  status: ('A' for Active; 'I' for Inactive)
REMARK    1  A    between atoms: C2_2  and  N1_4 
REMARK    2  A    between atoms: C8_10  and  C10_12 
REMARK       I    between atoms: C10_12  and  N2_14 
REMARK    3  A    between atoms: N2_14  and  S1_16 
ROOT
HETATM    1  N1  UNL     1      60.877  29.161 105.386  1.00  0.00    -0.379 N 
HETATM    2  C3  UNL     1      60.877  28.606 106.720  1.00  0.00     0.124 C 
HETATM    3  C4  UNL     1      59.611  28.818 107.491  1.00  0.00     0.008 A 
HETATM    4  C5  UNL     1      58.864  27.547 107.818  1.00  0.00     0.011 A 
HETATM    5  C6  UNL     1      58.387  28.456 106.736  1.00  0.00    -0.006 A 
HETATM    6  C7  UNL     1      58.766  28.118 105.339  1.00  0.00     0.045 C 
HETATM    7  C8  UNL     1      59.656  29.242 104.715  1.00  0.00     0.108 C 
HETATM    8  C9  UNL     1      58.858  30.488 104.806  1.00  0.00     0.049 C 
ENDROOT
BRANCH   7   9
HETATM    9  C10 UNL     1      59.811  28.707 103.318  1.00  0.00     0.258 C 
HETATM   10  O1  UNL     1      60.643  27.812 103.114  1.00  0.00    -0.270 OA
HETATM   11  N2  UNL     1      59.016  29.248 102.308  1.00  0.00    -0.253 N 
ATOM     12  H2  UNL     1      58.350  29.979 102.560  1.00  0.00     0.181 HD
BRANCH  11  13
HETATM   13  S1  UNL     1      59.096  28.751 100.654  1.00  0.00     0.229 S 
HETATM   14  C11 UNL     1      59.332  26.972 100.567  1.00  0.00     0.186 C 
HETATM   15  O2  UNL     1      57.822  29.114 100.005  1.00  0.00    -0.206 OA
HETATM   16  O3  UNL     1      60.311  29.373 100.002  1.00  0.00    -0.206 OA
ENDBRANCH  11  13
ENDBRANCH   7   9
BRANCH   1  17
HETATM   17  C2  UNL     1      61.750  30.273 105.381  1.00  0.00     0.173 C 
HETATM   18  C1  UNL     1      62.567  30.558 104.194  1.00  0.00     0.049 C 
HETATM   19 CL1  UNL     1      62.899  30.028 106.750  1.00  0.00    -0.103 Cl
ENDBRANCH   1  17
TORSDOF 3
ENDMDL
