MODEL 1
REMARK VINA RESULT: -5.163996008      0.000      0.000
REMARK  6 active torsions:
REMARK  status: ('A' for Active; 'I' for Inactive)
REMARK    1  A    between atoms: C4_4  and  C5_5 
REMARK    2  A    between atoms: C4_4  and  N1_8 
REMARK    3  A    between atoms: C12_15  and  C13_16 
REMARK    4  A    between atoms: C13_16  and  N2_17 
REMARK    5  A    between atoms: C13_16  and  O3_21 
REMARK    6  A    between atoms: N2_17  and  N3_18 
ROOT
HETATM    1  C1  UNL     1      58.430  26.469 101.701  1.00  0.00     0.017 C 
HETATM    2  C2  UNL     1      59.036  26.558 102.741  1.00  0.00    -0.087 C 
HETATM    3  C3  UNL     1      59.743  26.627 103.959  1.00  0.00     0.100 C 
HETATM    4  C4  UNL     1      60.208  27.702 104.567  1.00  0.00     0.116 C 
ENDROOT
BRANCH   4   5
HETATM    5  C5  UNL     1      59.989  28.991 103.943  1.00  0.00     0.227 C 
HETATM    6  O1  UNL     1      60.908  29.590 103.375  1.00  0.00    -0.643 OA
HETATM    7  O2  UNL     1      58.735  29.574 103.976  1.00  0.00    -0.643 OA
ENDBRANCH   4   5
BRANCH   4   8
HETATM    8  N1  UNL     1      60.913  27.593 105.813  1.00  0.00    -0.364 N 
HETATM    9  C6  UNL     1      61.539  26.490 106.485  1.00  0.00     0.087 C 
HETATM   10  C7  UNL     1      62.674  25.829 105.718  1.00  0.00     0.033 C 
HETATM   11  C8  UNL     1      62.148  27.412 107.535  1.00  0.00     0.036 C 
HETATM   12  C9  UNL     1      61.578  27.094 108.866  1.00  0.00    -0.001 A 
HETATM   13  C15 UNL     1      61.286  28.454 106.863  1.00  0.00     0.105 C 
HETATM   14  C10 UNL     1      61.494  28.037 109.981  1.00  0.00     0.011 A 
HETATM   15  C11 UNL     1      60.370  27.891 109.028  1.00  0.00     0.005 A 
HETATM   16  C12 UNL     1      60.324  28.884 107.890  1.00  0.00     0.105 C 
BRANCH  16  17
HETATM   17  C13 UNL     1      58.956  29.158 107.457  1.00  0.00     0.222 C 
BRANCH  17  18
HETATM   18  N2  UNL     1      58.545  30.315 107.127  1.00  0.00    -0.311 NA
BRANCH  18  19
HETATM   19  N3  UNL     1      58.000  31.238 106.488  1.00  0.00    -0.278 N 
ATOM     20  H32 UNL     1      57.236  31.384 107.147  1.00  0.00     0.191 HD
ATOM     21  H31 UNL     1      57.809  31.932 105.765  1.00  0.00     0.191 HD
ENDBRANCH  18  19
ENDBRANCH  17  18
BRANCH  17  22
HETATM   22  O3  UNL     1      58.007  28.149 107.377  1.00  0.00    -0.332 OA
HETATM   23  C14 UNL     1      56.814  28.171 108.169  1.00  0.00     0.212 C 
ENDBRANCH  17  22
ENDBRANCH  16  17
ENDBRANCH   4   8
TORSDOF 6
ENDMDL
MODEL 2
REMARK VINA RESULT: -5.140082470      1.177      1.357
REMARK  6 active torsions:
REMARK  status: ('A' for Active; 'I' for Inactive)
REMARK    1  A    between atoms: C4_4  and  C5_5 
REMARK    2  A    between atoms: C4_4  and  N1_8 
REMARK    3  A    between atoms: C12_15  and  C13_16 
REMARK    4  A    between atoms: C13_16  and  N2_17 
REMARK    5  A    between atoms: C13_16  and  O3_21 
REMARK    6  A    between atoms: N2_17  and  N3_18 
ROOT
HETATM    1  C1  UNL     1      58.676  26.879 101.716  1.00  0.00     0.017 C 
HETATM    2  C2  UNL     1      59.244  26.916 102.780  1.00  0.00    -0.087 C 
HETATM    3  C3  UNL     1      59.902  26.925 104.026  1.00  0.00     0.100 C 
HETATM    4  C4  UNL     1      60.404  27.962 104.671  1.00  0.00     0.116 C 
ENDROOT
BRANCH   4   5
HETATM    5  C5  UNL     1      60.286  29.271 104.061  1.00  0.00     0.227 C 
HETATM    6  O1  UNL     1      61.268  29.836 103.568  1.00  0.00    -0.643 OA
HETATM    7  O2  UNL     1      59.060  29.911 104.023  1.00  0.00    -0.643 OA
ENDBRANCH   4   5
BRANCH   4   8
HETATM    8  N1  UNL     1      61.049  27.794 105.943  1.00  0.00    -0.364 N 
HETATM    9  C6  UNL     1      61.490  26.634 106.666  1.00  0.00     0.087 C 
HETATM   10  C7  UNL     1      62.538  25.792 105.956  1.00  0.00     0.033 C 
HETATM   11  C8  UNL     1      62.195  27.492 107.709  1.00  0.00     0.036 C 
HETATM   12  C9  UNL     1      61.548  27.304 109.028  1.00  0.00    -0.001 A 
HETATM   13  C15 UNL     1      61.513  28.626 106.980  1.00  0.00     0.105 C 
HETATM   14  C10 UNL     1      61.569  28.285 110.114  1.00  0.00     0.011 A 
HETATM   15  C11 UNL     1      60.463  28.271 109.128  1.00  0.00     0.005 A 
HETATM   16  C12 UNL     1      60.595  29.223 107.962  1.00  0.00     0.105 C 
BRANCH  16  17
HETATM   17  C13 UNL     1      59.294  29.676 107.476  1.00  0.00     0.222 C 
BRANCH  17  18
HETATM   18  N2  UNL     1      58.280  28.915 107.376  1.00  0.00    -0.311 NA
BRANCH  18  19
HETATM   19  N3  UNL     1      57.466  28.083 106.927  1.00  0.00    -0.278 N 
ATOM     20  H32 UNL     1      58.126  27.306 106.882  1.00  0.00     0.191 HD
ATOM     21  H31 UNL     1      56.603  27.665 106.582  1.00  0.00     0.191 HD
ENDBRANCH  18  19
ENDBRANCH  17  18
BRANCH  17  22
HETATM   22  O3  UNL     1      59.085  30.992 107.089  1.00  0.00    -0.332 OA
HETATM   23  C14 UNL     1      57.926  31.725 107.503  1.00  0.00     0.212 C 
ENDBRANCH  17  22
ENDBRANCH  16  17
ENDBRANCH   4   8
TORSDOF 6
ENDMDL
MODEL 3
REMARK VINA RESULT: -4.908344123      1.734      5.073
REMARK  6 active torsions:
REMARK  status: ('A' for Active; 'I' for Inactive)
REMARK    1  A    between atoms: C4_4  and  C5_5 
REMARK    2  A    between atoms: C4_4  and  N1_8 
REMARK    3  A    between atoms: C12_15  and  C13_16 
REMARK    4  A    between atoms: C13_16  and  N2_17 
REMARK    5  A    between atoms: C13_16  and  O3_21 
REMARK    6  A    between atoms: N2_17  and  N3_18 
ROOT
HETATM    1  C1  UNL     1      63.500  30.843 108.433  1.00  0.00     0.017 C 
HETATM    2  C2  UNL     1      62.926  30.190 107.597  1.00  0.00    -0.087 C 
HETATM    3  C3  UNL     1      62.280  29.435 106.597  1.00  0.00     0.100 C 
HETATM    4  C4  UNL     1      61.151  28.757 106.695  1.00  0.00     0.116 C 
ENDROOT
BRANCH   4   5
HETATM    5  C5  UNL     1      60.457  28.762 107.966  1.00  0.00     0.227 C 
HETATM    6  O1  UNL     1      60.606  27.843 108.778  1.00  0.00    -0.643 OA
HETATM    7  O2  UNL     1      59.609  29.805 108.290  1.00  0.00    -0.643 OA
ENDBRANCH   4   5
BRANCH   4   8
HETATM    8  N1  UNL     1      60.629  28.034 105.569  1.00  0.00    -0.364 N 
HETATM    9  C6  UNL     1      61.207  27.067 104.679  1.00  0.00     0.087 C 
HETATM   10  C7  UNL     1      61.698  25.791 105.345  1.00  0.00     0.033 C 
HETATM   11  C8  UNL     1      59.856  26.779 104.036  1.00  0.00     0.036 C 
HETATM   12  C9  UNL     1      59.885  27.189 102.612  1.00  0.00    -0.001 A 
HETATM   13  C15 UNL     1      59.405  27.949 104.879  1.00  0.00     0.105 C 
HETATM   14  C10 UNL     1      58.707  27.561 101.828  1.00  0.00     0.011 A 
HETATM   15  C11 UNL     1      59.492  28.590 102.550  1.00  0.00     0.005 A 
HETATM   16  C12 UNL     1      58.984  28.981 103.918  1.00  0.00     0.105 C 
BRANCH  16  17
HETATM   17  C13 UNL     1      59.300  30.369 104.243  1.00  0.00     0.222 C 
BRANCH  17  18
HETATM   18  N2  UNL     1      58.754  31.006 105.200  1.00  0.00    -0.311 NA
BRANCH  18  19
HETATM   19  N3  UNL     1      58.060  31.264 106.204  1.00  0.00    -0.278 N 
ATOM     20  H32 UNL     1      58.192  30.361 106.658  1.00  0.00     0.191 HD
ATOM     21  H31 UNL     1      57.460  31.761 106.862  1.00  0.00     0.191 HD
ENDBRANCH  18  19
ENDBRANCH  17  18
BRANCH  17  22
HETATM   22  O3  UNL     1      60.234  31.089 103.513  1.00  0.00    -0.332 OA
HETATM   23  C14 UNL     1      61.309  31.791 104.147  1.00  0.00     0.212 C 
ENDBRANCH  17  22
ENDBRANCH  16  17
ENDBRANCH   4   8
TORSDOF 6
ENDMDL
MODEL 4
REMARK VINA RESULT: -4.708331291      2.230      3.085
REMARK  6 active torsions:
REMARK  status: ('A' for Active; 'I' for Inactive)
REMARK    1  A    between atoms: C4_4  and  C5_5 
REMARK    2  A    between atoms: C4_4  and  N1_8 
REMARK    3  A    between atoms: C12_15  and  C13_16 
REMARK    4  A    between atoms: C13_16  and  N2_17 
REMARK    5  A    between atoms: C13_16  and  O3_21 
REMARK    6  A    between atoms: N2_17  and  N3_18 
ROOT
HETATM    1  C1  UNL     1      59.605  26.547 103.360  1.00  0.00     0.017 C 
HETATM    2  C2  UNL     1      60.198  27.262 104.130  1.00  0.00    -0.087 C 
HETATM    3  C3  UNL     1      60.904  28.071 105.044  1.00  0.00     0.100 C 
HETATM    4  C4  UNL     1      60.903  29.388 105.131  1.00  0.00     0.116 C 
ENDROOT
BRANCH   4   5
HETATM    5  C5  UNL     1      60.092  30.136 104.192  1.00  0.00     0.227 C 
HETATM    6  O1  UNL     1      58.935  30.469 104.471  1.00  0.00    -0.643 OA
HETATM    7  O2  UNL     1      60.608  30.492 102.959  1.00  0.00    -0.643 OA
ENDBRANCH   4   5
BRANCH   4   8
HETATM    8  N1  UNL     1      61.688  30.058 106.130  1.00  0.00    -0.364 N 
HETATM    9  C6  UNL     1      63.098  30.289 106.267  1.00  0.00     0.087 C 
HETATM   10  C7  UNL     1      63.731  31.097 105.144  1.00  0.00     0.033 C 
HETATM   11  C8  UNL     1      62.879  31.218 107.456  1.00  0.00     0.036 C 
HETATM   12  C9  UNL     1      63.487  30.624 108.669  1.00  0.00    -0.001 A 
HETATM   13  C15 UNL     1      61.450  30.745 107.336  1.00  0.00     0.105 C 
HETATM   14  C10 UNL     1      63.063  30.912 110.039  1.00  0.00     0.011 A 
HETATM   15  C11 UNL     1      62.484  29.772 109.292  1.00  0.00     0.005 A 
HETATM   16  C12 UNL     1      61.170  30.029 108.591  1.00  0.00     0.105 C 
BRANCH  16  17
HETATM   17  C13 UNL     1      60.348  28.825 108.509  1.00  0.00     0.222 C 
BRANCH  17  18
HETATM   18  N2  UNL     1      60.815  27.649 108.632  1.00  0.00    -0.311 NA
BRANCH  18  19
HETATM   19  N3  UNL     1      61.547  26.647 108.496  1.00  0.00    -0.278 N 
ATOM     20  H32 UNL     1      62.237  26.927 109.193  1.00  0.00     0.191 HD
ATOM     21  H31 UNL     1      61.912  25.755 108.163  1.00  0.00     0.191 HD
ENDBRANCH  18  19
ENDBRANCH  17  18
BRANCH  17  22
HETATM   22  O3  UNL     1      58.980  28.897 108.290  1.00  0.00    -0.332 OA
HETATM   23  C14 UNL     1      58.262  27.834 107.653  1.00  0.00     0.212 C 
ENDBRANCH  17  22
ENDBRANCH  16  17
ENDBRANCH   4   8
TORSDOF 6
ENDMDL
MODEL 5
REMARK VINA RESULT: -4.688280872      2.560      4.387
REMARK  6 active torsions:
REMARK  status: ('A' for Active; 'I' for Inactive)
REMARK    1  A    between atoms: C4_4  and  C5_5 
REMARK    2  A    between atoms: C4_4  and  N1_8 
REMARK    3  A    between atoms: C12_15  and  C13_16 
REMARK    4  A    between atoms: C13_16  and  N2_17 
REMARK    5  A    between atoms: C13_16  and  O3_21 
REMARK    6  A    between atoms: N2_17  and  N3_18 
ROOT
HETATM    1  C1  UNL     1      56.814  27.690 107.861  1.00  0.00     0.017 C 
HETATM    2  C2  UNL     1      57.779  28.352 107.566  1.00  0.00    -0.087 C 
HETATM    3  C3  UNL     1      58.901  29.145 107.249  1.00  0.00     0.100 C 
HETATM    4  C4  UNL     1      59.698  29.041 106.203  1.00  0.00     0.116 C 
ENDROOT
BRANCH   4   5
HETATM    5  C5  UNL     1      59.426  27.998 105.234  1.00  0.00     0.227 C 
HETATM    6  O1  UNL     1      60.072  26.945 105.232  1.00  0.00    -0.643 OA
HETATM    7  O2  UNL     1      58.429  28.171 104.291  1.00  0.00    -0.643 OA
ENDBRANCH   4   5
BRANCH   4   8
HETATM    8  N1  UNL     1      60.807  29.938 106.032  1.00  0.00    -0.364 N 
HETATM    9  C6  UNL     1      61.544  30.367 104.877  1.00  0.00     0.087 C 
HETATM   10  C7  UNL     1      60.722  31.089 103.820  1.00  0.00     0.033 C 
HETATM   11  C8  UNL     1      62.300  31.413 105.688  1.00  0.00     0.036 C 
HETATM   12  C9  UNL     1      63.742  31.074 105.715  1.00  0.00    -0.001 A 
HETATM   13  C15 UNL     1      61.613  30.746 106.857  1.00  0.00     0.105 C 
HETATM   14  C10 UNL     1      64.676  31.490 106.762  1.00  0.00     0.011 A 
HETATM   15  C11 UNL     1      63.966  30.193 106.851  1.00  0.00     0.005 A 
HETATM   16  C12 UNL     1      62.698  30.179 107.673  1.00  0.00     0.105 C 
BRANCH  16  17
HETATM   17  C13 UNL     1      62.462  28.878 108.294  1.00  0.00     0.222 C 
BRANCH  17  18
HETATM   18  N2  UNL     1      62.502  27.779 107.654  1.00  0.00    -0.311 NA
BRANCH  18  19
HETATM   19  N3  UNL     1      62.257  26.609 107.299  1.00  0.00    -0.278 N 
ATOM     20  H32 UNL     1      61.518  26.444 107.982  1.00  0.00     0.191 HD
ATOM     21  H31 UNL     1      62.299  25.723 106.795  1.00  0.00     0.191 HD
ENDBRANCH  18  19
ENDBRANCH  17  18
BRANCH  17  22
HETATM   22  O3  UNL     1      62.176  28.763 109.646  1.00  0.00    -0.332 OA
HETATM   23  C14 UNL     1      60.869  28.412 110.114  1.00  0.00     0.212 C 
ENDBRANCH  17  22
ENDBRANCH  16  17
ENDBRANCH   4   8
TORSDOF 6
ENDMDL
