MODEL 1
REMARK VINA RESULT: -3.716147051      0.000      0.000
REMARK  5 active torsions:
REMARK  status: ('A' for Active; 'I' for Inactive)
REMARK    1  A    between atoms: N1_2  and  C2_4 
REMARK    2  A    between atoms: C2_4  and  N2_6 
REMARK    3  A    between atoms: N2_6  and  C4_8 
REMARK    4  A    between atoms: C7_12  and  C8_13 
REMARK    5  A    between atoms: C8_13  and  S3_14 
ROOT
HETATM    1  C4  UNL     1      60.873  29.002 107.083  1.00  0.00     0.101 C 
HETATM    2  C5  UNL     1      62.190  28.503 107.650  1.00  0.00     0.099 C 
HETATM    3  S2  UNL     1      62.116  26.740 107.135  1.00  0.00    -0.167 SA
HETATM    4  C6  UNL     1      60.915  26.921 105.791  1.00  0.00     0.081 C 
HETATM    5  C7  UNL     1      60.573  28.392 105.808  1.00  0.00     0.032 C 
ENDROOT
BRANCH   1   6
HETATM    6  N2  UNL     1      59.822  29.054 108.102  1.00  0.00    -0.357 N 
HETATM    7  C3  UNL     1      60.098  28.955 109.490  1.00  0.00     0.152 C 
BRANCH   6   8
HETATM    8  C2  UNL     1      58.518  29.239 107.616  1.00  0.00     0.169 C 
HETATM    9  S1  UNL     1      57.419  27.969 107.882  1.00  0.00    -0.041 SA
BRANCH   8  10
HETATM   10  N1  UNL     1      58.044  30.368 106.957  1.00  0.00    -0.371 N 
HETATM   11  C1  UNL     1      58.315  31.739 107.113  1.00  0.00     0.148 C 
ATOM     12  H1  UNL     1      57.371  30.162 106.219  1.00  0.00     0.161 HD
ENDBRANCH   8  10
ENDBRANCH   6   8
ENDBRANCH   1   6
BRANCH   5  13
HETATM   13  C8  UNL     1      61.179  29.024 104.590  1.00  0.00     0.147 C 
BRANCH  13  14
HETATM   14  S3  UNL     1      60.132  29.979 103.586  1.00  0.00     0.141 S 
HETATM   15  C9  UNL     1      60.450  31.725 103.857  1.00  0.00     0.161 C 
HETATM   16  O1  UNL     1      58.694  29.762 104.100  1.00  0.00    -0.228 OA
HETATM   17  O2  UNL     1      60.161  29.728 102.138  1.00  0.00    -0.228 OA
ENDBRANCH  13  14
ENDBRANCH   5  13
TORSDOF 5
ENDMDL
MODEL 2
REMARK VINA RESULT: -3.643761858      1.917      3.509
REMARK  5 active torsions:
REMARK  status: ('A' for Active; 'I' for Inactive)
REMARK    1  A    between atoms: N1_2  and  C2_4 
REMARK    2  A    between atoms: C2_4  and  N2_6 
REMARK    3  A    between atoms: N2_6  and  C4_8 
REMARK    4  A    between atoms: C7_12  and  C8_13 
REMARK    5  A    between atoms: C8_13  and  S3_14 
ROOT
HETATM    1  C4  UNL     1      59.422  28.734 107.200  1.00  0.00     0.101 C 
HETATM    2  C5  UNL     1      58.183  29.297 107.874  1.00  0.00     0.099 C 
HETATM    3  S2  UNL     1      58.326  31.064 107.390  1.00  0.00    -0.167 SA
HETATM    4  C6  UNL     1      59.414  30.845 105.957  1.00  0.00     0.081 C 
HETATM    5  C7  UNL     1      59.665  29.357 105.919  1.00  0.00     0.032 C 
ENDROOT
BRANCH   1   6
HETATM    6  N2  UNL     1      60.540  28.595 108.138  1.00  0.00    -0.357 N 
HETATM    7  C3  UNL     1      60.377  28.705 109.543  1.00  0.00     0.152 C 
BRANCH   6   8
HETATM    8  C2  UNL     1      61.786  28.315 107.555  1.00  0.00     0.169 C 
HETATM    9  S1  UNL     1      62.087  26.693 107.144  1.00  0.00    -0.041 SA
BRANCH   8  10
HETATM   10  N1  UNL     1      62.782  29.242 107.269  1.00  0.00    -0.371 N 
HETATM   11  C1  UNL     1      62.879  30.627 107.497  1.00  0.00     0.148 C 
ATOM     12  H1  UNL     1      63.597  28.842 106.806  1.00  0.00     0.161 HD
ENDBRANCH   8  10
ENDBRANCH   6   8
ENDBRANCH   1   6
BRANCH   5  13
HETATM   13  C8  UNL     1      58.935  28.792 104.737  1.00  0.00     0.147 C 
BRANCH  13  14
HETATM   14  S3  UNL     1      59.869  28.455 103.312  1.00  0.00     0.141 S 
HETATM   15  C9  UNL     1      59.181  27.038 102.452  1.00  0.00     0.161 C 
HETATM   16  O1  UNL     1      61.259  27.984 103.786  1.00  0.00    -0.228 OA
HETATM   17  O2  UNL     1      60.043  29.541 102.338  1.00  0.00    -0.228 OA
ENDBRANCH  13  14
ENDBRANCH   5  13
TORSDOF 5
ENDMDL
MODEL 3
REMARK VINA RESULT: -3.582418539      1.134      1.447
REMARK  5 active torsions:
REMARK  status: ('A' for Active; 'I' for Inactive)
REMARK    1  A    between atoms: N1_2  and  C2_4 
REMARK    2  A    between atoms: C2_4  and  N2_6 
REMARK    3  A    between atoms: N2_6  and  C4_8 
REMARK    4  A    between atoms: C7_12  and  C8_13 
REMARK    5  A    between atoms: C8_13  and  S3_14 
ROOT
HETATM    1  C4  UNL     1      60.867  29.009 107.123  1.00  0.00     0.101 C 
HETATM    2  C5  UNL     1      62.183  28.503 107.687  1.00  0.00     0.099 C 
HETATM    3  S2  UNL     1      62.123  26.752 107.128  1.00  0.00    -0.167 SA
HETATM    4  C6  UNL     1      60.929  26.960 105.781  1.00  0.00     0.081 C 
HETATM    5  C7  UNL     1      60.580  28.427 105.831  1.00  0.00     0.032 C 
ENDROOT
BRANCH   1   6
HETATM    6  N2  UNL     1      59.809  29.030 108.136  1.00  0.00    -0.357 N 
HETATM    7  C3  UNL     1      60.053  28.734 109.502  1.00  0.00     0.152 C 
BRANCH   6   8
HETATM    8  C2  UNL     1      58.535  29.393 107.671  1.00  0.00     0.169 C 
HETATM    9  S1  UNL     1      58.257  31.053 107.430  1.00  0.00    -0.041 SA
BRANCH   8  10
HETATM   10  N1  UNL     1      57.493  28.521 107.376  1.00  0.00    -0.371 N 
HETATM   11  C1  UNL     1      56.514  27.911 108.180  1.00  0.00     0.148 C 
ATOM     12  H1  UNL     1      57.427  28.277 106.388  1.00  0.00     0.161 HD
ENDBRANCH   8  10
ENDBRANCH   6   8
ENDBRANCH   1   6
BRANCH   5  13
HETATM   13  C8  UNL     1      61.190  29.093 104.634  1.00  0.00     0.147 C 
BRANCH  13  14
HETATM   14  S3  UNL     1      60.137  30.040 103.628  1.00  0.00     0.141 S 
HETATM   15  C9  UNL     1      60.351  31.784 103.991  1.00  0.00     0.161 C 
HETATM   16  O1  UNL     1      58.693  29.726 104.067  1.00  0.00    -0.228 OA
HETATM   17  O2  UNL     1      60.240  29.859 102.173  1.00  0.00    -0.228 OA
ENDBRANCH  13  14
ENDBRANCH   5  13
TORSDOF 5
ENDMDL
MODEL 4
REMARK VINA RESULT: -3.579399644      1.932      3.755
REMARK  5 active torsions:
REMARK  status: ('A' for Active; 'I' for Inactive)
REMARK    1  A    between atoms: N1_2  and  C2_4 
REMARK    2  A    between atoms: C2_4  and  N2_6 
REMARK    3  A    between atoms: N2_6  and  C4_8 
REMARK    4  A    between atoms: C7_12  and  C8_13 
REMARK    5  A    between atoms: C8_13  and  S3_14 
ROOT
HETATM    1  C4  UNL     1      59.987  28.503 106.473  1.00  0.00     0.101 C 
HETATM    2  C5  UNL     1      58.871  28.080 107.410  1.00  0.00     0.099 C 
HETATM    3  S2  UNL     1      58.192  29.725 107.869  1.00  0.00    -0.167 SA
HETATM    4  C6  UNL     1      58.832  30.663 106.457  1.00  0.00     0.081 C 
HETATM    5  C7  UNL     1      59.606  29.639 105.664  1.00  0.00     0.032 C 
ENDROOT
BRANCH   1   6
HETATM    6  N2  UNL     1      61.289  28.525 107.145  1.00  0.00    -0.357 N 
HETATM    7  C3  UNL     1      62.006  29.725 107.384  1.00  0.00     0.152 C 
BRANCH   6   8
HETATM    8  C2  UNL     1      61.770  27.276 107.568  1.00  0.00     0.169 C 
HETATM    9  S1  UNL     1      62.198  26.172 106.348  1.00  0.00    -0.041 SA
BRANCH   8  10
HETATM   10  N1  UNL     1      61.944  26.870 108.887  1.00  0.00    -0.371 N 
HETATM   11  C1  UNL     1      61.725  27.522 110.114  1.00  0.00     0.148 C 
ATOM     12  H1  UNL     1      62.298  25.918 108.983  1.00  0.00     0.161 HD
ENDBRANCH   8  10
ENDBRANCH   6   8
ENDBRANCH   1   6
BRANCH   5  13
HETATM   13  C8  UNL     1      58.844  29.352 104.404  1.00  0.00     0.147 C 
BRANCH  13  14
HETATM   14  S3  UNL     1      59.716  28.607 103.100  1.00  0.00     0.141 S 
HETATM   15  C9  UNL     1      59.121  26.932 102.846  1.00  0.00     0.161 C 
HETATM   16  O1  UNL     1      61.173  28.434 103.573  1.00  0.00    -0.228 OA
HETATM   17  O2  UNL     1      59.718  29.294 101.801  1.00  0.00    -0.228 OA
ENDBRANCH  13  14
ENDBRANCH   5  13
TORSDOF 5
ENDMDL
MODEL 5
REMARK VINA RESULT: -3.572607362      2.245      3.921
REMARK  5 active torsions:
REMARK  status: ('A' for Active; 'I' for Inactive)
REMARK    1  A    between atoms: N1_2  and  C2_4 
REMARK    2  A    between atoms: C2_4  and  N2_6 
REMARK    3  A    between atoms: N2_6  and  C4_8 
REMARK    4  A    between atoms: C7_12  and  C8_13 
REMARK    5  A    between atoms: C8_13  and  S3_14 
ROOT
HETATM    1  C4  UNL     1      59.459  29.519 106.923  1.00  0.00     0.101 C 
HETATM    2  C5  UNL     1      58.221  30.096 107.587  1.00  0.00     0.099 C 
HETATM    3  S2  UNL     1      58.233  31.791 106.877  1.00  0.00    -0.167 SA
HETATM    4  C6  UNL     1      59.262  31.449 105.426  1.00  0.00     0.081 C 
HETATM    5  C7  UNL     1      59.601  29.984 105.562  1.00  0.00     0.032 C 
ENDROOT
BRANCH   1   6
HETATM    6  N2  UNL     1      60.626  29.563 107.807  1.00  0.00    -0.357 N 
HETATM    7  C3  UNL     1      60.541  29.964 109.165  1.00  0.00     0.152 C 
BRANCH   6   8
HETATM    8  C2  UNL     1      61.838  29.153 107.229  1.00  0.00     0.169 C 
HETATM    9  S1  UNL     1      63.079  30.313 107.157  1.00  0.00    -0.041 SA
BRANCH   8  10
HETATM   10  N1  UNL     1      62.117  27.886 106.728  1.00  0.00    -0.371 N 
HETATM   11  C1  UNL     1      62.140  26.615 107.330  1.00  0.00     0.148 C 
ATOM     12  H1  UNL     1      62.349  27.876 105.735  1.00  0.00     0.161 HD
ENDBRANCH   8  10
ENDBRANCH   6   8
ENDBRANCH   1   6
BRANCH   5  13
HETATM   13  C8  UNL     1      58.851  29.232 104.503  1.00  0.00     0.147 C 
BRANCH  13  14
HETATM   14  S3  UNL     1      59.782  28.539 103.210  1.00  0.00     0.141 S 
HETATM   15  C9  UNL     1      59.122  26.927 102.778  1.00  0.00     0.161 C 
HETATM   16  O1  UNL     1      61.187  28.245 103.773  1.00  0.00    -0.228 OA
HETATM   17  O2  UNL     1      59.921  29.323 101.974  1.00  0.00    -0.228 OA
ENDBRANCH  13  14
ENDBRANCH   5  13
TORSDOF 5
ENDMDL
