MODEL 1
REMARK VINA RESULT: -4.602185804      0.000      0.000
REMARK  4 active torsions:
REMARK  status: ('A' for Active; 'I' for Inactive)
REMARK    1  A    between atoms: C2_2  and  C3_3 
REMARK    2  A    between atoms: C3_3  and  C4_4 
REMARK    3  A    between atoms: C9_9  and  C11_11 
REMARK    4  A    between atoms: C11_11  and  O1_13 
ROOT
HETATM    1  C4  UNL     1      35.639  -0.767  37.219  1.00  0.00    -0.003 C 
HETATM    2  C5  UNL     1      35.626   0.589  37.885  1.00  0.00     0.005 C 
HETATM    3  C6  UNL     1      35.739   1.587  36.709  1.00  0.00     0.000 C 
HETATM    4  C7  UNL     1      34.402   1.484  36.007  1.00  0.00     0.001 C 
HETATM    5  C8  UNL     1      34.060   0.104  35.590  1.00  0.00     0.013 C 
HETATM    6  C9  UNL     1      34.290  -0.978  36.613  1.00  0.00     0.001 C 
HETATM    7  C10 UNL     1      33.186  -0.880  37.654  1.00  0.00     0.019 C 
ENDROOT
BRANCH   6   8
HETATM    8  C11 UNL     1      34.100  -2.298  35.908  1.00  0.00     0.120 C 
HETATM    9  C12 UNL     1      32.731  -2.250  35.215  1.00  0.00     0.059 C 
HETATM   10  S1  UNL     1      35.338  -2.658  34.668  1.00  0.00    -0.056 SA
BRANCH   8  11
HETATM   11  O1  UNL     1      33.957  -3.305  36.871  1.00  0.00    -0.378 OA
ATOM     12  H1  UNL     1      34.321  -2.994  37.692  1.00  0.00     0.211 HD
ENDBRANCH   8  11
ENDBRANCH   6   8
BRANCH   1  13
HETATM   13  C3  UNL     1      36.170  -1.791  38.128  1.00  0.00     0.005 C 
BRANCH  13  14
HETATM   14  C2  UNL     1      37.358  -1.249  38.891  1.00  0.00    -0.004 C 
HETATM   15  C1  UNL     1      38.333  -2.371  39.240  1.00  0.00     0.005 C 
ENDBRANCH  13  14
ENDBRANCH   1  13
TORSDOF 4
ENDMDL
MODEL 2
REMARK VINA RESULT: -4.597096290      2.204      4.383
REMARK  4 active torsions:
REMARK  status: ('A' for Active; 'I' for Inactive)
REMARK    1  A    between atoms: C2_2  and  C3_3 
REMARK    2  A    between atoms: C3_3  and  C4_4 
REMARK    3  A    between atoms: C9_9  and  C11_11 
REMARK    4  A    between atoms: C11_11  and  O1_13 
ROOT
HETATM    1  C4  UNL     1      33.738  -1.321  36.915  1.00  0.00    -0.003 C 
HETATM    2  C5  UNL     1      34.169  -2.690  37.385  1.00  0.00     0.005 C 
HETATM    3  C6  UNL     1      34.760  -3.354  36.120  1.00  0.00     0.000 C 
HETATM    4  C7  UNL     1      36.051  -2.601  35.875  1.00  0.00     0.001 C 
HETATM    5  C8  UNL     1      35.864  -1.137  35.750  1.00  0.00     0.013 C 
HETATM    6  C9  UNL     1      34.971  -0.489  36.778  1.00  0.00     0.001 C 
HETATM    7  C10 UNL     1      35.743  -0.410  38.085  1.00  0.00     0.019 C 
ENDROOT
BRANCH   6   8
HETATM    8  C11 UNL     1      34.742   0.933  36.327  1.00  0.00     0.120 C 
HETATM    9  C12 UNL     1      36.120   1.600  36.212  1.00  0.00     0.059 C 
HETATM   10  S1  UNL     1      33.918   1.084  34.746  1.00  0.00    -0.056 SA
BRANCH   8  11
HETATM   11  O1  UNL     1      34.111   1.635  37.362  1.00  0.00    -0.378 OA
ATOM     12  H1  UNL     1      33.195   1.383  37.385  1.00  0.00     0.211 HD
ENDBRANCH   8  11
ENDBRANCH   6   8
BRANCH   1  13
HETATM   13  C3  UNL     1      32.633  -0.810  37.734  1.00  0.00     0.005 C 
BRANCH  13  14
HETATM   14  C2  UNL     1      31.404  -0.593  36.879  1.00  0.00    -0.004 C 
HETATM   15  C1  UNL     1      31.355  -1.604  35.737  1.00  0.00     0.005 C 
ENDBRANCH  13  14
ENDBRANCH   1  13
TORSDOF 4
ENDMDL
MODEL 3
REMARK VINA RESULT: -4.517157408      2.268      5.035
REMARK  4 active torsions:
REMARK  status: ('A' for Active; 'I' for Inactive)
REMARK    1  A    between atoms: C2_2  and  C3_3 
REMARK    2  A    between atoms: C3_3  and  C4_4 
REMARK    3  A    between atoms: C9_9  and  C11_11 
REMARK    4  A    between atoms: C11_11  and  O1_13 
ROOT
HETATM    1  C4  UNL     1      33.240  -1.032  35.358  1.00  0.00    -0.003 C 
HETATM    2  C5  UNL     1      32.424  -2.300  35.449  1.00  0.00     0.005 C 
HETATM    3  C6  UNL     1      33.482  -3.427  35.480  1.00  0.00     0.000 C 
HETATM    4  C7  UNL     1      34.135  -3.285  36.839  1.00  0.00     0.001 C 
HETATM    5  C8  UNL     1      34.692  -1.934  37.086  1.00  0.00     0.013 C 
HETATM    6  C9  UNL     1      33.808  -0.771  36.715  1.00  0.00     0.001 C 
HETATM    7  C10 UNL     1      32.718  -0.656  37.767  1.00  0.00     0.019 C 
ENDROOT
BRANCH   6   8
HETATM    8  C11 UNL     1      34.651   0.475  36.830  1.00  0.00     0.120 C 
HETATM    9  C12 UNL     1      35.646   0.246  37.978  1.00  0.00     0.059 C 
HETATM   10  S1  UNL     1      35.585   0.876  35.358  1.00  0.00    -0.056 SA
BRANCH   8  11
HETATM   11  O1  UNL     1      33.841   1.523  37.288  1.00  0.00    -0.378 OA
ATOM     12  H1  UNL     1      34.225   1.879  38.081  1.00  0.00     0.211 HD
ENDBRANCH   8  11
ENDBRANCH   6   8
BRANCH   1  13
HETATM   13  C3  UNL     1      32.477   0.035  34.698  1.00  0.00     0.005 C 
BRANCH  13  14
HETATM   14  C2  UNL     1      31.210  -0.526  34.091  1.00  0.00    -0.004 C 
HETATM   15  C1  UNL     1      30.031   0.412  34.339  1.00  0.00     0.005 C 
ENDBRANCH  13  14
ENDBRANCH   1  13
TORSDOF 4
ENDMDL
MODEL 4
REMARK VINA RESULT: -4.513414153      2.153      4.007
REMARK  4 active torsions:
REMARK  status: ('A' for Active; 'I' for Inactive)
REMARK    1  A    between atoms: C2_2  and  C3_3 
REMARK    2  A    between atoms: C3_3  and  C4_4 
REMARK    3  A    between atoms: C9_9  and  C11_11 
REMARK    4  A    between atoms: C11_11  and  O1_13 
ROOT
HETATM    1  C4  UNL     1      34.681  -0.415  36.869  1.00  0.00    -0.003 C 
HETATM    2  C5  UNL     1      35.695  -0.616  37.971  1.00  0.00     0.005 C 
HETATM    3  C6  UNL     1      36.569  -1.789  37.468  1.00  0.00     0.000 C 
HETATM    4  C7  UNL     1      37.356  -1.197  36.317  1.00  0.00     0.001 C 
HETATM    5  C8  UNL     1      36.501  -0.595  35.268  1.00  0.00     0.013 C 
HETATM    6  C9  UNL     1      35.376   0.286  35.748  1.00  0.00     0.001 C 
HETATM    7  C10 UNL     1      35.976   1.607  36.199  1.00  0.00     0.019 C 
ENDROOT
BRANCH   6   8
HETATM    8  C11 UNL     1      34.514   0.592  34.548  1.00  0.00     0.120 C 
HETATM    9  C12 UNL     1      35.429   1.202  33.476  1.00  0.00     0.059 C 
HETATM   10  S1  UNL     1      33.701  -0.834  33.838  1.00  0.00    -0.056 SA
BRANCH   8  11
HETATM   11  O1  UNL     1      33.639   1.635  34.878  1.00  0.00    -0.378 OA
ATOM     12  H1  UNL     1      34.022   2.456  34.593  1.00  0.00     0.211 HD
ENDBRANCH   8  11
ENDBRANCH   6   8
BRANCH   1  13
HETATM   13  C3  UNL     1      33.440   0.164  37.399  1.00  0.00     0.005 C 
BRANCH  13  14
HETATM   14  C2  UNL     1      32.383  -0.908  37.545  1.00  0.00    -0.004 C 
HETATM   15  C1  UNL     1      31.174  -0.598  36.665  1.00  0.00     0.005 C 
ENDBRANCH  13  14
ENDBRANCH   1  13
TORSDOF 4
ENDMDL
MODEL 5
REMARK VINA RESULT: -4.404377521      2.156      3.778
REMARK  4 active torsions:
REMARK  status: ('A' for Active; 'I' for Inactive)
REMARK    1  A    between atoms: C2_2  and  C3_3 
REMARK    2  A    between atoms: C3_3  and  C4_4 
REMARK    3  A    between atoms: C9_9  and  C11_11 
REMARK    4  A    between atoms: C11_11  and  O1_13 
ROOT
HETATM    1  C4  UNL     1      34.122  -0.552  36.351  1.00  0.00    -0.003 C 
HETATM    2  C5  UNL     1      34.054   0.460  37.471  1.00  0.00     0.005 C 
HETATM    3  C6  UNL     1      35.532   0.681  37.869  1.00  0.00     0.000 C 
HETATM    4  C7  UNL     1      36.122   1.436  36.697  1.00  0.00     0.001 C 
HETATM    5  C8  UNL     1      35.949   0.740  35.401  1.00  0.00     0.013 C 
HETATM    6  C9  UNL     1      34.580   0.171  35.127  1.00  0.00     0.001 C 
HETATM    7  C10 UNL     1      33.654   1.326  34.778  1.00  0.00     0.019 C 
ENDROOT
BRANCH   6   8
HETATM    8  C11 UNL     1      34.697  -0.677  33.884  1.00  0.00     0.120 C 
HETATM    9  C12 UNL     1      35.395   0.177  32.816  1.00  0.00     0.059 C 
HETATM   10  S1  UNL     1      35.643  -2.179  34.101  1.00  0.00    -0.056 SA
BRANCH   8  11
HETATM   11  O1  UNL     1      33.413  -0.888  33.364  1.00  0.00    -0.378 OA
ATOM     12  H1  UNL     1      33.491  -1.097  32.440  1.00  0.00     0.211 HD
ENDBRANCH   8  11
ENDBRANCH   6   8
BRANCH   1  13
HETATM   13  C3  UNL     1      32.885  -1.339  36.282  1.00  0.00     0.005 C 
BRANCH  13  14
HETATM   14  C2  UNL     1      31.782  -0.652  37.056  1.00  0.00    -0.004 C 
HETATM   15  C1  UNL     1      30.457  -0.741  36.303  1.00  0.00     0.005 C 
ENDBRANCH  13  14
ENDBRANCH   1  13
TORSDOF 4
ENDMDL
