MODEL 1
REMARK VINA RESULT: -4.792577485      0.000      0.000
REMARK  7 active torsions:
REMARK  status: ('A' for Active; 'I' for Inactive)
REMARK    1  A    between atoms: C2_2  and  C3_3 
REMARK    2  A    between atoms: C3_3  and  C4_4 
REMARK    3  A    between atoms: C8_8  and  O1_9 
REMARK    4  A    between atoms: O1_9  and  C9_10 
REMARK    5  A    between atoms: C9_10  and  C10_11 
REMARK    6  A    between atoms: C9_10  and  S1_13 
REMARK    7  A    between atoms: S1_13  and  C11_14 
ROOT
HETATM    1  C4  UNL     1      34.272   0.549  36.923  1.00  0.00     0.015 C 
HETATM    2  C5  UNL     1      35.221   1.297  36.057  1.00  0.00     0.007 C 
HETATM    3  C6  UNL     1      34.239   2.012  35.101  1.00  0.00     0.003 C 
HETATM    4  C7  UNL     1      33.375   0.840  34.700  1.00  0.00     0.032 C 
HETATM    5  C8  UNL     1      33.261  -0.030  35.927  1.00  0.00     0.127 C 
ENDROOT
BRANCH   5   6
HETATM    6  O1  UNL     1      31.999   0.086  36.440  1.00  0.00    -0.367 OA
BRANCH   6   7
HETATM    7  C9  UNL     1      31.222  -1.034  36.391  1.00  0.00     0.211 C 
BRANCH   7   8
HETATM    8  C10 UNL     1      31.858  -2.180  35.637  1.00  0.00     0.264 C 
HETATM    9  F1  UNL     1      31.017  -3.241  35.469  1.00  0.00    -0.252 F 
ENDBRANCH   7   8
BRANCH   7  10
HETATM   10  S1  UNL     1      29.586  -0.762  35.690  1.00  0.00    -0.135 SA
BRANCH  10  11
HETATM   11  C11 UNL     1      29.672   0.367  34.279  1.00  0.00     0.072 C 
HETATM   12  C12 UNL     1      28.618  -0.015  33.236  1.00  0.00     0.016 C 
ENDBRANCH  10  11
ENDBRANCH   7  10
ENDBRANCH   6   7
ENDBRANCH   5   6
BRANCH   1  13
HETATM   13  C3  UNL     1      34.802  -0.498  37.818  1.00  0.00     0.007 C 
BRANCH  13  14
HETATM   14  C2  UNL     1      36.204  -0.292  38.248  1.00  0.00    -0.004 C 
HETATM   15  C1  UNL     1      36.936  -1.507  38.686  1.00  0.00     0.005 C 
ENDBRANCH  13  14
ENDBRANCH   1  13
TORSDOF 7
ENDMDL
MODEL 2
REMARK VINA RESULT: -4.624304429      1.534      1.803
REMARK  7 active torsions:
REMARK  status: ('A' for Active; 'I' for Inactive)
REMARK    1  A    between atoms: C2_2  and  C3_3 
REMARK    2  A    between atoms: C3_3  and  C4_4 
REMARK    3  A    between atoms: C8_8  and  O1_9 
REMARK    4  A    between atoms: O1_9  and  C9_10 
REMARK    5  A    between atoms: C9_10  and  C10_11 
REMARK    6  A    between atoms: C9_10  and  S1_13 
REMARK    7  A    between atoms: S1_13  and  C11_14 
ROOT
HETATM    1  C4  UNL     1      34.425   1.198  35.540  1.00  0.00     0.015 C 
HETATM    2  C5  UNL     1      35.708   0.946  34.832  1.00  0.00     0.007 C 
HETATM    3  C6  UNL     1      35.203   0.735  33.386  1.00  0.00     0.003 C 
HETATM    4  C7  UNL     1      34.098  -0.261  33.644  1.00  0.00     0.032 C 
HETATM    5  C8  UNL     1      33.484   0.134  34.964  1.00  0.00     0.127 C 
ENDROOT
BRANCH   5   6
HETATM    6  O1  UNL     1      32.255   0.687  34.738  1.00  0.00    -0.367 OA
BRANCH   6   7
HETATM    7  C9  UNL     1      31.178  -0.053  35.128  1.00  0.00     0.211 C 
BRANCH   7   8
HETATM    8  C10 UNL     1      31.511  -1.112  36.156  1.00  0.00     0.264 C 
HETATM    9  F1  UNL     1      31.461  -0.646  37.437  1.00  0.00    -0.252 F 
ENDBRANCH   7   8
BRANCH   7  10
HETATM   10  S1  UNL     1      30.311  -0.862  33.773  1.00  0.00    -0.135 SA
BRANCH  10  11
HETATM   11  C11 UNL     1      28.765   0.000  33.396  1.00  0.00     0.072 C 
HETATM   12  C12 UNL     1      27.628  -0.563  34.253  1.00  0.00     0.016 C 
ENDBRANCH  10  11
ENDBRANCH   7  10
ENDBRANCH   6   7
ENDBRANCH   5   6
BRANCH   1  13
HETATM   13  C3  UNL     1      34.414   1.181  37.016  1.00  0.00     0.007 C 
BRANCH  13  14
HETATM   14  C2  UNL     1      34.734  -0.132  37.621  1.00  0.00    -0.004 C 
HETATM   15  C1  UNL     1      36.087  -0.262  38.218  1.00  0.00     0.005 C 
ENDBRANCH  13  14
ENDBRANCH   1  13
TORSDOF 7
ENDMDL
MODEL 3
REMARK VINA RESULT: -4.623534846      1.640      1.727
REMARK  7 active torsions:
REMARK  status: ('A' for Active; 'I' for Inactive)
REMARK    1  A    between atoms: C2_2  and  C3_3 
REMARK    2  A    between atoms: C3_3  and  C4_4 
REMARK    3  A    between atoms: C8_8  and  O1_9 
REMARK    4  A    between atoms: O1_9  and  C9_10 
REMARK    5  A    between atoms: C9_10  and  C10_11 
REMARK    6  A    between atoms: C9_10  and  S1_13 
REMARK    7  A    between atoms: S1_13  and  C11_14 
ROOT
HETATM    1  C4  UNL     1      35.462   1.045  36.295  1.00  0.00     0.015 C 
HETATM    2  C5  UNL     1      36.668   0.938  35.433  1.00  0.00     0.007 C 
HETATM    3  C6  UNL     1      36.038   1.103  34.031  1.00  0.00     0.003 C 
HETATM    4  C7  UNL     1      34.909   0.106  34.139  1.00  0.00     0.032 C 
HETATM    5  C8  UNL     1      34.425   0.182  35.566  1.00  0.00     0.127 C 
ENDROOT
BRANCH   5   6
HETATM    6  O1  UNL     1      33.211   0.810  35.593  1.00  0.00    -0.367 OA
BRANCH   6   7
HETATM    7  C9  UNL     1      32.135   0.031  35.902  1.00  0.00     0.211 C 
BRANCH   7   8
HETATM    8  C10 UNL     1      32.486  -1.187  36.727  1.00  0.00     0.264 C 
HETATM    9  F1  UNL     1      32.579  -0.920  38.061  1.00  0.00    -0.252 F 
ENDBRANCH   7   8
BRANCH   7  10
HETATM   10  S1  UNL     1      31.198  -0.531  34.471  1.00  0.00    -0.135 SA
BRANCH  10  11
HETATM   11  C11 UNL     1      29.723   0.490  34.229  1.00  0.00     0.072 C 
HETATM   12  C12 UNL     1      28.466  -0.380  34.304  1.00  0.00     0.016 C 
ENDBRANCH  10  11
ENDBRANCH   7  10
ENDBRANCH   6   7
ENDBRANCH   5   6
BRANCH   1  13
HETATM   13  C3  UNL     1      35.569   0.667  37.717  1.00  0.00     0.007 C 
BRANCH  13  14
HETATM   14  C2  UNL     1      35.889  -0.760  37.954  1.00  0.00    -0.004 C 
HETATM   15  C1  UNL     1      37.108  -1.030  38.757  1.00  0.00     0.005 C 
ENDBRANCH  13  14
ENDBRANCH   1  13
TORSDOF 7
ENDMDL
MODEL 4
REMARK VINA RESULT: -4.570454225      1.651      1.874
REMARK  7 active torsions:
REMARK  status: ('A' for Active; 'I' for Inactive)
REMARK    1  A    between atoms: C2_2  and  C3_3 
REMARK    2  A    between atoms: C3_3  and  C4_4 
REMARK    3  A    between atoms: C8_8  and  O1_9 
REMARK    4  A    between atoms: O1_9  and  C9_10 
REMARK    5  A    between atoms: C9_10  and  C10_11 
REMARK    6  A    between atoms: C9_10  and  S1_13 
REMARK    7  A    between atoms: S1_13  and  C11_14 
ROOT
HETATM    1  C4  UNL     1      33.454   0.227  37.065  1.00  0.00     0.015 C 
HETATM    2  C5  UNL     1      34.800   0.805  37.318  1.00  0.00     0.007 C 
HETATM    3  C6  UNL     1      34.808   1.974  36.306  1.00  0.00     0.003 C 
HETATM    4  C7  UNL     1      34.353   1.242  35.066  1.00  0.00     0.032 C 
HETATM    5  C8  UNL     1      33.352   0.215  35.535  1.00  0.00     0.127 C 
ENDROOT
BRANCH   5   6
HETATM    6  O1  UNL     1      32.098   0.609  35.159  1.00  0.00    -0.367 OA
BRANCH   6   7
HETATM    7  C9  UNL     1      31.257  -0.376  34.734  1.00  0.00     0.211 C 
BRANCH   7   8
HETATM    8  C10 UNL     1      31.809  -1.189  33.584  1.00  0.00     0.264 C 
HETATM    9  F1  UNL     1      32.154  -2.459  33.945  1.00  0.00    -0.252 F 
ENDBRANCH   7   8
BRANCH   7  10
HETATM   10  S1  UNL     1      29.623   0.208  34.254  1.00  0.00    -0.135 SA
BRANCH  10  11
HETATM   11  C11 UNL     1      28.364  -1.040  34.616  1.00  0.00     0.072 C 
HETATM   12  C12 UNL     1      26.988  -0.545  34.161  1.00  0.00     0.016 C 
ENDBRANCH  10  11
ENDBRANCH   7  10
ENDBRANCH   6   7
ENDBRANCH   5   6
BRANCH   1  13
HETATM   13  C3  UNL     1      33.131  -1.095  37.634  1.00  0.00     0.007 C 
BRANCH  13  14
HETATM   14  C2  UNL     1      33.794  -2.236  36.962  1.00  0.00    -0.004 C 
HETATM   15  C1  UNL     1      34.881  -2.900  37.726  1.00  0.00     0.005 C 
ENDBRANCH  13  14
ENDBRANCH   1  13
TORSDOF 7
ENDMDL
MODEL 5
REMARK VINA RESULT: -4.499393370      1.878      2.598
REMARK  7 active torsions:
REMARK  status: ('A' for Active; 'I' for Inactive)
REMARK    1  A    between atoms: C2_2  and  C3_3 
REMARK    2  A    between atoms: C3_3  and  C4_4 
REMARK    3  A    between atoms: C8_8  and  O1_9 
REMARK    4  A    between atoms: O1_9  and  C9_10 
REMARK    5  A    between atoms: C9_10  and  C10_11 
REMARK    6  A    between atoms: C9_10  and  S1_13 
REMARK    7  A    between atoms: S1_13  and  C11_14 
ROOT
HETATM    1  C4  UNL     1      33.406   0.236  36.953  1.00  0.00     0.015 C 
HETATM    2  C5  UNL     1      34.774   0.774  37.176  1.00  0.00     0.007 C 
HETATM    3  C6  UNL     1      34.795   1.938  36.159  1.00  0.00     0.003 C 
HETATM    4  C7  UNL     1      34.294   1.215  34.932  1.00  0.00     0.032 C 
HETATM    5  C8  UNL     1      33.273   0.220  35.426  1.00  0.00     0.127 C 
ENDROOT
BRANCH   5   6
HETATM    6  O1  UNL     1      32.024   0.649  35.073  1.00  0.00    -0.367 OA
BRANCH   6   7
HETATM    7  C9  UNL     1      31.269  -0.222  34.344  1.00  0.00     0.211 C 
BRANCH   7   8
HETATM    8  C10 UNL     1      29.943  -0.560  34.989  1.00  0.00     0.264 C 
HETATM    9  F1  UNL     1      30.032  -0.714  36.341  1.00  0.00    -0.252 F 
ENDBRANCH   7   8
BRANCH   7  10
HETATM   10  S1  UNL     1      32.101  -1.772  33.961  1.00  0.00    -0.135 SA
BRANCH  10  11
HETATM   11  C11 UNL     1      30.926  -3.149  33.971  1.00  0.00     0.072 C 
HETATM   12  C12 UNL     1      31.188  -4.052  35.180  1.00  0.00     0.016 C 
ENDBRANCH  10  11
ENDBRANCH   7  10
ENDBRANCH   6   7
ENDBRANCH   5   6
BRANCH   1  13
HETATM   13  C3  UNL     1      33.056  -1.075  37.534  1.00  0.00     0.007 C 
BRANCH  13  14
HETATM   14  C2  UNL     1      34.209  -1.975  37.770  1.00  0.00    -0.004 C 
HETATM   15  C1  UNL     1      34.404  -3.058  36.773  1.00  0.00     0.005 C 
ENDBRANCH  13  14
ENDBRANCH   1  13
TORSDOF 7
ENDMDL
