MODEL 1
REMARK VINA RESULT: -4.654656683      0.000      0.000
REMARK  8 active torsions:
REMARK  status: ('A' for Active; 'I' for Inactive)
REMARK    1  A    between atoms: C2_2  and  C3_3 
REMARK    2  A    between atoms: C3_3  and  C4_4 
REMARK    3  A    between atoms: C4_4  and  C5_5 
REMARK    4  A    between atoms: C5_5  and  C7_7 
REMARK    5  A    between atoms: C7_7  and  O1_10 
REMARK    6  A    between atoms: O1_10  and  C9_11 
REMARK    7  A    between atoms: C9_11  and  C10_13 
REMARK    8  A    between atoms: C10_13  and  C11_14 
ROOT
HETATM    1  C7  UNL     1      32.362  -0.584  35.804  1.00  0.00     0.210 C 
HETATM    2  C8  UNL     1      31.989  -0.455  37.273  1.00  0.00     0.085 C 
HETATM    3  F1  UNL     1      33.447  -1.418  35.650  1.00  0.00    -0.211 F 
ENDROOT
BRANCH   1   4
HETATM    4  C5  UNL     1      31.227  -1.133  35.001  1.00  0.00     0.049 C 
HETATM    5  C6  UNL     1      31.140  -2.618  35.274  1.00  0.00     0.016 C 
BRANCH   4   6
HETATM    6  C4  UNL     1      29.907  -0.469  35.333  1.00  0.00     0.010 C 
BRANCH   6   7
HETATM    7  C3  UNL     1      29.541   0.450  34.183  1.00  0.00     0.000 C 
BRANCH   7   8
HETATM    8  C2  UNL     1      28.446  -0.161  33.334  1.00  0.00    -0.005 C 
HETATM    9  C1  UNL     1      27.361  -0.615  34.286  1.00  0.00     0.005 C 
ENDBRANCH   7   8
ENDBRANCH   6   7
ENDBRANCH   4   6
ENDBRANCH   1   4
BRANCH   1  10
HETATM   10  O1  UNL     1      32.729   0.707  35.354  1.00  0.00    -0.302 OA
BRANCH  10  11
HETATM   11  C9  UNL     1      34.055   1.099  35.231  1.00  0.00     0.116 C 
HETATM   12  S1  UNL     1      34.817   0.847  33.820  1.00  0.00    -0.058 SA
BRANCH  11  13
HETATM   13  C10 UNL     1      34.685   1.730  36.412  1.00  0.00     0.077 C 
BRANCH  13  14
HETATM   14  C11 UNL     1      35.975   1.056  36.801  1.00  0.00     0.003 C 
HETATM   15  C12 UNL     1      35.637   0.102  37.948  1.00  0.00     0.005 C 
ENDBRANCH  13  14
ENDBRANCH  11  13
ENDBRANCH  10  11
ENDBRANCH   1  10
TORSDOF 8
ENDMDL
MODEL 2
REMARK VINA RESULT: -4.541019851      1.591      2.493
REMARK  8 active torsions:
REMARK  status: ('A' for Active; 'I' for Inactive)
REMARK    1  A    between atoms: C2_2  and  C3_3 
REMARK    2  A    between atoms: C3_3  and  C4_4 
REMARK    3  A    between atoms: C4_4  and  C5_5 
REMARK    4  A    between atoms: C5_5  and  C7_7 
REMARK    5  A    between atoms: C7_7  and  O1_10 
REMARK    6  A    between atoms: O1_10  and  C9_11 
REMARK    7  A    between atoms: C9_11  and  C10_13 
REMARK    8  A    between atoms: C10_13  and  C11_14 
ROOT
HETATM    1  C7  UNL     1      33.588  -0.527  35.350  1.00  0.00     0.210 C 
HETATM    2  C8  UNL     1      33.275  -0.775  33.882  1.00  0.00     0.085 C 
HETATM    3  F1  UNL     1      33.434   0.807  35.660  1.00  0.00    -0.211 F 
ENDROOT
BRANCH   1   4
HETATM    4  C5  UNL     1      32.690  -1.324  36.240  1.00  0.00     0.049 C 
HETATM    5  C6  UNL     1      32.342  -0.467  37.438  1.00  0.00     0.016 C 
BRANCH   4   6
HETATM    6  C4  UNL     1      31.423  -1.766  35.538  1.00  0.00     0.010 C 
BRANCH   6   7
HETATM    7  C3  UNL     1      30.268  -0.956  36.096  1.00  0.00     0.000 C 
BRANCH   7   8
HETATM    8  C2  UNL     1      29.233  -0.684  35.024  1.00  0.00    -0.005 C 
HETATM    9  C1  UNL     1      29.763   0.464  34.192  1.00  0.00     0.005 C 
ENDBRANCH   7   8
ENDBRANCH   6   7
ENDBRANCH   4   6
ENDBRANCH   1   4
BRANCH   1  10
HETATM   10  O1  UNL     1      34.945  -0.874  35.550  1.00  0.00    -0.302 OA
BRANCH  10  11
HETATM   11  C9  UNL     1      35.860   0.008  36.109  1.00  0.00     0.116 C 
HETATM   12  S1  UNL     1      36.753   0.938  35.123  1.00  0.00    -0.058 SA
BRANCH  11  13
HETATM   13  C10 UNL     1      35.955   0.036  37.585  1.00  0.00     0.077 C 
BRANCH  13  14
HETATM   14  C11 UNL     1      36.088  -1.343  38.177  1.00  0.00     0.003 C 
HETATM   15  C12 UNL     1      37.448  -1.385  38.876  1.00  0.00     0.005 C 
ENDBRANCH  13  14
ENDBRANCH  11  13
ENDBRANCH  10  11
ENDBRANCH   1  10
TORSDOF 8
ENDMDL
MODEL 3
REMARK VINA RESULT: -4.492074183      1.184      1.449
REMARK  8 active torsions:
REMARK  status: ('A' for Active; 'I' for Inactive)
REMARK    1  A    between atoms: C2_2  and  C3_3 
REMARK    2  A    between atoms: C3_3  and  C4_4 
REMARK    3  A    between atoms: C4_4  and  C5_5 
REMARK    4  A    between atoms: C5_5  and  C7_7 
REMARK    5  A    between atoms: C7_7  and  O1_10 
REMARK    6  A    between atoms: O1_10  and  C9_11 
REMARK    7  A    between atoms: C9_11  and  C10_13 
REMARK    8  A    between atoms: C10_13  and  C11_14 
ROOT
HETATM    1  C7  UNL     1      31.630  -0.521  35.491  1.00  0.00     0.210 C 
HETATM    2  C8  UNL     1      30.560  -0.695  36.558  1.00  0.00     0.085 C 
HETATM    3  F1  UNL     1      32.322  -1.697  35.301  1.00  0.00    -0.211 F 
ENDROOT
BRANCH   1   4
HETATM    4  C5  UNL     1      31.034  -0.110  34.183  1.00  0.00     0.049 C 
HETATM    5  C6  UNL     1      31.002  -1.326  33.284  1.00  0.00     0.016 C 
BRANCH   4   6
HETATM    6  C4  UNL     1      29.636   0.454  34.336  1.00  0.00     0.010 C 
BRANCH   6   7
HETATM    7  C3  UNL     1      28.733  -0.251  33.341  1.00  0.00     0.000 C 
BRANCH   7   8
HETATM    8  C2  UNL     1      27.347  -0.447  33.919  1.00  0.00    -0.005 C 
HETATM    9  C1  UNL     1      27.425  -1.648  34.836  1.00  0.00     0.005 C 
ENDBRANCH   7   8
ENDBRANCH   6   7
ENDBRANCH   4   6
ENDBRANCH   1   4
BRANCH   1  10
HETATM   10  O1  UNL     1      32.538   0.454  35.968  1.00  0.00    -0.302 OA
BRANCH  10  11
HETATM   11  C9  UNL     1      33.887   0.184  36.151  1.00  0.00     0.116 C 
HETATM   12  S1  UNL     1      34.902   0.392  34.901  1.00  0.00    -0.058 SA
BRANCH  11  13
HETATM   13  C10 UNL     1      34.307  -0.279  37.492  1.00  0.00     0.077 C 
BRANCH  13  14
HETATM   14  C11 UNL     1      35.603   0.348  37.934  1.00  0.00     0.003 C 
HETATM   15  C12 UNL     1      36.517  -0.802  38.363  1.00  0.00     0.005 C 
ENDBRANCH  13  14
ENDBRANCH  11  13
ENDBRANCH  10  11
ENDBRANCH   1  10
TORSDOF 8
ENDMDL
MODEL 4
REMARK VINA RESULT: -4.474290351      1.974      5.393
REMARK  8 active torsions:
REMARK  status: ('A' for Active; 'I' for Inactive)
REMARK    1  A    between atoms: C2_2  and  C3_3 
REMARK    2  A    between atoms: C3_3  and  C4_4 
REMARK    3  A    between atoms: C4_4  and  C5_5 
REMARK    4  A    between atoms: C5_5  and  C7_7 
REMARK    5  A    between atoms: C7_7  and  O1_10 
REMARK    6  A    between atoms: O1_10  and  C9_11 
REMARK    7  A    between atoms: C9_11  and  C10_13 
REMARK    8  A    between atoms: C10_13  and  C11_14 
ROOT
HETATM    1  C7  UNL     1      33.586  -0.697  37.251  1.00  0.00     0.210 C 
HETATM    2  C8  UNL     1      34.525  -1.893  37.193  1.00  0.00     0.085 C 
HETATM    3  F1  UNL     1      32.680  -0.841  38.278  1.00  0.00    -0.211 F 
ENDROOT
BRANCH   1   4
HETATM    4  C5  UNL     1      34.339   0.577  37.462  1.00  0.00     0.049 C 
HETATM    5  C6  UNL     1      35.668   0.232  38.098  1.00  0.00     0.016 C 
BRANCH   4   6
HETATM    6  C4  UNL     1      34.567   1.335  36.170  1.00  0.00     0.010 C 
BRANCH   6   7
HETATM    7  C3  UNL     1      36.061   1.366  35.901  1.00  0.00     0.000 C 
BRANCH   7   8
HETATM    8  C2  UNL     1      36.357   0.980  34.467  1.00  0.00    -0.005 C 
HETATM    9  C1  UNL     1      35.027   0.942  33.745  1.00  0.00     0.005 C 
ENDBRANCH   7   8
ENDBRANCH   6   7
ENDBRANCH   4   6
ENDBRANCH   1   4
BRANCH   1  10
HETATM   10  O1  UNL     1      32.870  -0.672  36.030  1.00  0.00    -0.302 OA
BRANCH  10  11
HETATM   11  C9  UNL     1      31.672  -1.352  35.860  1.00  0.00     0.116 C 
HETATM   12  S1  UNL     1      31.700  -2.828  35.185  1.00  0.00    -0.058 SA
BRANCH  11  13
HETATM   13  C10 UNL     1      30.440  -0.672  36.315  1.00  0.00     0.077 C 
BRANCH  13  14
HETATM   14  C11 UNL     1      29.341  -0.727  35.286  1.00  0.00     0.003 C 
HETATM   15  C12 UNL     1      29.620   0.402  34.293  1.00  0.00     0.005 C 
ENDBRANCH  13  14
ENDBRANCH  11  13
ENDBRANCH  10  11
ENDBRANCH   1  10
TORSDOF 8
ENDMDL
MODEL 5
REMARK VINA RESULT: -4.469350683      1.698      5.969
REMARK  8 active torsions:
REMARK  status: ('A' for Active; 'I' for Inactive)
REMARK    1  A    between atoms: C2_2  and  C3_3 
REMARK    2  A    between atoms: C3_3  and  C4_4 
REMARK    3  A    between atoms: C4_4  and  C5_5 
REMARK    4  A    between atoms: C5_5  and  C7_7 
REMARK    5  A    between atoms: C7_7  and  O1_10 
REMARK    6  A    between atoms: O1_10  and  C9_11 
REMARK    7  A    between atoms: C9_11  and  C10_13 
REMARK    8  A    between atoms: C10_13  and  C11_14 
ROOT
HETATM    1  C7  UNL     1      32.721  -0.353  36.169  1.00  0.00     0.210 C 
HETATM    2  C8  UNL     1      32.837  -1.855  35.957  1.00  0.00     0.085 C 
HETATM    3  F1  UNL     1      32.128  -0.079  37.381  1.00  0.00    -0.211 F 
ENDROOT
BRANCH   1   4
HETATM    4  C5  UNL     1      34.063   0.306  36.142  1.00  0.00     0.049 C 
HETATM    5  C6  UNL     1      34.046   1.353  35.052  1.00  0.00     0.016 C 
BRANCH   4   6
HETATM    6  C4  UNL     1      34.419   0.947  37.468  1.00  0.00     0.010 C 
BRANCH   6   7
HETATM    7  C3  UNL     1      35.818   0.497  37.847  1.00  0.00     0.000 C 
BRANCH   7   8
HETATM    8  C2  UNL     1      35.869  -1.006  38.027  1.00  0.00    -0.005 C 
HETATM    9  C1  UNL     1      37.164  -1.313  38.746  1.00  0.00     0.005 C 
ENDBRANCH   7   8
ENDBRANCH   6   7
ENDBRANCH   4   6
ENDBRANCH   1   4
BRANCH   1  10
HETATM   10  O1  UNL     1      31.885   0.148  35.143  1.00  0.00    -0.302 OA
BRANCH  10  11
HETATM   11  C9  UNL     1      30.806  -0.572  34.649  1.00  0.00     0.116 C 
HETATM   12  S1  UNL     1      30.945  -1.295  33.203  1.00  0.00    -0.058 SA
BRANCH  11  13
HETATM   13  C10 UNL     1      29.591  -0.629  35.492  1.00  0.00     0.077 C 
BRANCH  13  14
HETATM   14  C11 UNL     1      28.535  -1.535  34.913  1.00  0.00     0.003 C 
HETATM   15  C12 UNL     1      27.405  -0.627  34.425  1.00  0.00     0.005 C 
ENDBRANCH  13  14
ENDBRANCH  11  13
ENDBRANCH  10  11
ENDBRANCH   1  10
TORSDOF 8
ENDMDL
