MODEL 1
REMARK VINA RESULT: -5.867496958      0.000      0.000
REMARK  4 active torsions:
REMARK  status: ('A' for Active; 'I' for Inactive)
REMARK    1  A    between atoms: C4_8  and  C5_9 
REMARK    2  A    between atoms: C5_9  and  C6_10 
REMARK    3  A    between atoms: C6_10  and  C7_11 
REMARK    4  A    between atoms: C7_11  and  C8_12 
ROOT
HETATM    1  F1  UNL     1      26.610  -3.542  35.162  1.00  0.00    -0.170 F 
HETATM    2  C1  UNL     1      26.110  -2.234  35.218  1.00  0.00     0.391 C 
HETATM    3  F2  UNL     1      26.055  -1.824  36.537  1.00  0.00    -0.170 F 
HETATM    4  O1  UNL     1      24.820  -2.163  34.733  1.00  0.00    -0.311 OA
HETATM    5  C2  UNL     1      24.802  -2.516  33.387  1.00  0.00     0.254 C 
HETATM    6  S1  UNL     1      26.225  -1.491  32.796  1.00  0.00    -0.100 SA
HETATM    7  C3  UNL     1      26.985  -1.378  34.403  1.00  0.00     0.077 C 
HETATM    8  C4  UNL     1      28.036  -0.714  34.758  1.00  0.00    -0.004 C 
ENDROOT
BRANCH   8   9
HETATM    9  C5  UNL     1      28.852   0.125  33.841  1.00  0.00     0.028 C 
BRANCH   9  10
HETATM   10  C6  UNL     1      30.242   0.277  34.392  1.00  0.00     0.004 C 
BRANCH  10  11
HETATM   11  C7  UNL     1      30.447  -0.688  35.507  1.00  0.00     0.005 C 
BRANCH  11  12
HETATM   12  C8  UNL     1      31.904  -0.821  35.904  1.00  0.00    -0.014 C 
HETATM   13  C9  UNL     1      32.827   0.052  35.120  1.00  0.00     0.004 C 
HETATM   14  C10 UNL     1      34.114  -0.052  35.912  1.00  0.00     0.000 C 
HETATM   15  C11 UNL     1      33.666  -0.118  37.345  1.00  0.00     0.000 C 
HETATM   16  C12 UNL     1      32.180  -0.464  37.323  1.00  0.00     0.004 C 
ENDBRANCH  11  12
ENDBRANCH  10  11
ENDBRANCH   9  10
ENDBRANCH   8   9
TORSDOF 4
ENDMDL
MODEL 2
REMARK VINA RESULT: -5.819598073      2.668      3.496
REMARK  4 active torsions:
REMARK  status: ('A' for Active; 'I' for Inactive)
REMARK    1  A    between atoms: C4_8  and  C5_9 
REMARK    2  A    between atoms: C5_9  and  C6_10 
REMARK    3  A    between atoms: C6_10  and  C7_11 
REMARK    4  A    between atoms: C7_11  and  C8_12 
ROOT
HETATM    1  F1  UNL     1      27.689   0.057  34.312  1.00  0.00    -0.170 F 
HETATM    2  C1  UNL     1      28.918   0.111  33.641  1.00  0.00     0.391 C 
HETATM    3  F2  UNL     1      29.551   1.302  33.944  1.00  0.00    -0.170 F 
HETATM    4  O1  UNL     1      28.748   0.097  32.271  1.00  0.00    -0.311 OA
HETATM    5  C2  UNL     1      28.158  -1.102  31.882  1.00  0.00     0.254 C 
HETATM    6  S1  UNL     1      29.219  -2.277  32.840  1.00  0.00    -0.100 SA
HETATM    7  C3  UNL     1      29.709  -1.061  34.046  1.00  0.00     0.077 C 
HETATM    8  C4  UNL     1      30.545  -1.181  35.025  1.00  0.00    -0.004 C 
ENDROOT
BRANCH   8   9
HETATM    9  C5  UNL     1      31.294  -2.423  35.345  1.00  0.00     0.028 C 
BRANCH   9  10
HETATM   10  C6  UNL     1      32.577  -2.078  36.047  1.00  0.00     0.004 C 
BRANCH  10  11
HETATM   11  C7  UNL     1      32.382  -0.855  36.873  1.00  0.00     0.005 C 
BRANCH  11  12
HETATM   12  C8  UNL     1      33.632  -0.459  37.633  1.00  0.00    -0.014 C 
HETATM   13  C9  UNL     1      34.785  -1.384  37.428  1.00  0.00     0.004 C 
HETATM   14  C10 UNL     1      35.934  -0.600  38.028  1.00  0.00     0.000 C 
HETATM   15  C11 UNL     1      35.636   0.830  37.674  1.00  0.00     0.000 C 
HETATM   16  C12 UNL     1      34.168   0.881  37.262  1.00  0.00     0.004 C 
ENDBRANCH  11  12
ENDBRANCH  10  11
ENDBRANCH   9  10
ENDBRANCH   8   9
TORSDOF 4
ENDMDL
MODEL 3
REMARK VINA RESULT: -5.644151232      1.758      2.708
REMARK  4 active torsions:
REMARK  status: ('A' for Active; 'I' for Inactive)
REMARK    1  A    between atoms: C4_8  and  C5_9 
REMARK    2  A    between atoms: C5_9  and  C6_10 
REMARK    3  A    between atoms: C6_10  and  C7_11 
REMARK    4  A    between atoms: C7_11  and  C8_12 
ROOT
HETATM    1  F1  UNL     1      27.351  -2.838  34.581  1.00  0.00    -0.170 F 
HETATM    2  C1  UNL     1      27.379  -1.509  35.023  1.00  0.00     0.391 C 
HETATM    3  F2  UNL     1      26.858  -1.443  36.301  1.00  0.00    -0.170 F 
HETATM    4  O1  UNL     1      26.588  -0.696  34.236  1.00  0.00    -0.311 OA
HETATM    5  C2  UNL     1      27.084  -0.672  32.936  1.00  0.00     0.254 C 
HETATM    6  S1  UNL     1      28.873  -0.385  33.309  1.00  0.00    -0.100 SA
HETATM    7  C3  UNL     1      28.772  -1.039  34.962  1.00  0.00     0.077 C 
HETATM    8  C4  UNL     1      29.689  -1.088  35.873  1.00  0.00    -0.004 C 
ENDROOT
BRANCH   8   9
HETATM    9  C5  UNL     1      31.074  -0.580  35.700  1.00  0.00     0.028 C 
BRANCH   9  10
HETATM   10  C6  UNL     1      31.822  -0.688  36.999  1.00  0.00     0.004 C 
BRANCH  10  11
HETATM   11  C7  UNL     1      33.108   0.055  36.899  1.00  0.00     0.005 C 
BRANCH  11  12
HETATM   12  C8  UNL     1      34.196  -0.543  37.769  1.00  0.00    -0.014 C 
HETATM   13  C9  UNL     1      34.704  -1.860  37.285  1.00  0.00     0.004 C 
HETATM   14  C10 UNL     1      35.945  -2.055  38.133  1.00  0.00     0.000 C 
HETATM   15  C11 UNL     1      36.522  -0.675  38.273  1.00  0.00     0.000 C 
HETATM   16  C12 UNL     1      35.419   0.302  37.878  1.00  0.00     0.004 C 
ENDBRANCH  11  12
ENDBRANCH  10  11
ENDBRANCH   9  10
ENDBRANCH   8   9
TORSDOF 4
ENDMDL
MODEL 4
REMARK VINA RESULT: -5.632072093      1.441      2.208
REMARK  4 active torsions:
REMARK  status: ('A' for Active; 'I' for Inactive)
REMARK    1  A    between atoms: C4_8  and  C5_9 
REMARK    2  A    between atoms: C5_9  and  C6_10 
REMARK    3  A    between atoms: C6_10  and  C7_11 
REMARK    4  A    between atoms: C7_11  and  C8_12 
ROOT
HETATM    1  F1  UNL     1      26.810  -2.884  34.149  1.00  0.00    -0.170 F 
HETATM    2  C1  UNL     1      26.804  -1.535  34.526  1.00  0.00     0.391 C 
HETATM    3  F2  UNL     1      26.205  -1.411  35.766  1.00  0.00    -0.170 F 
HETATM    4  O1  UNL     1      26.058  -0.767  33.654  1.00  0.00    -0.311 OA
HETATM    5  C2  UNL     1      26.631  -0.802  32.387  1.00  0.00     0.254 C 
HETATM    6  S1  UNL     1      28.393  -0.483  32.853  1.00  0.00    -0.100 SA
HETATM    7  C3  UNL     1      28.195  -1.057  34.527  1.00  0.00     0.077 C 
HETATM    8  C4  UNL     1      29.055  -1.054  35.493  1.00  0.00    -0.004 C 
ENDROOT
BRANCH   8   9
HETATM    9  C5  UNL     1      30.446  -0.543  35.380  1.00  0.00     0.028 C 
BRANCH   9  10
HETATM   10  C6  UNL     1      31.135  -0.645  36.712  1.00  0.00     0.004 C 
BRANCH  10  11
HETATM   11  C7  UNL     1      32.564  -1.008  36.508  1.00  0.00     0.005 C 
BRANCH  11  12
HETATM   12  C8  UNL     1      33.516   0.018  37.092  1.00  0.00    -0.014 C 
HETATM   13  C9  UNL     1      34.721  -0.576  37.742  1.00  0.00     0.004 C 
HETATM   14  C10 UNL     1      35.605   0.638  37.944  1.00  0.00     0.000 C 
HETATM   15  C11 UNL     1      35.356   1.488  36.730  1.00  0.00     0.000 C 
HETATM   16  C12 UNL     1      34.072   0.968  36.089  1.00  0.00     0.004 C 
ENDBRANCH  11  12
ENDBRANCH  10  11
ENDBRANCH   9  10
ENDBRANCH   8   9
TORSDOF 4
ENDMDL
MODEL 5
REMARK VINA RESULT: -5.580447167      0.888      1.190
REMARK  4 active torsions:
REMARK  status: ('A' for Active; 'I' for Inactive)
REMARK    1  A    between atoms: C4_8  and  C5_9 
REMARK    2  A    between atoms: C5_9  and  C6_10 
REMARK    3  A    between atoms: C6_10  and  C7_11 
REMARK    4  A    between atoms: C7_11  and  C8_12 
ROOT
HETATM    1  F1  UNL     1      26.606  -3.632  35.398  1.00  0.00    -0.170 F 
HETATM    2  C1  UNL     1      26.339  -2.257  35.426  1.00  0.00     0.391 C 
HETATM    3  F2  UNL     1      26.119  -1.862  36.732  1.00  0.00    -0.170 F 
HETATM    4  O1  UNL     1      25.190  -1.949  34.726  1.00  0.00    -0.311 OA
HETATM    5  C2  UNL     1      25.355  -2.274  33.383  1.00  0.00     0.254 C 
HETATM    6  S1  UNL     1      27.017  -1.512  33.098  1.00  0.00    -0.100 SA
HETATM    7  C3  UNL     1      27.482  -1.559  34.816  1.00  0.00     0.077 C 
HETATM    8  C4  UNL     1      28.551  -1.099  35.380  1.00  0.00    -0.004 C 
ENDROOT
BRANCH   8   9
HETATM    9  C5  UNL     1      29.651  -0.407  34.660  1.00  0.00     0.028 C 
BRANCH   9  10
HETATM   10  C6  UNL     1      30.952  -0.637  35.376  1.00  0.00     0.004 C 
BRANCH  10  11
HETATM   11  C7  UNL     1      32.070  -0.065  34.577  1.00  0.00     0.005 C 
BRANCH  11  12
HETATM   12  C8  UNL     1      33.343   0.094  35.385  1.00  0.00    -0.014 C 
HETATM   13  C9  UNL     1      34.026   1.406  35.189  1.00  0.00     0.004 C 
HETATM   14  C10 UNL     1      35.047   1.405  36.308  1.00  0.00     0.000 C 
HETATM   15  C11 UNL     1      34.348   0.727  37.451  1.00  0.00     0.000 C 
HETATM   16  C12 UNL     1      33.142   0.004  36.858  1.00  0.00     0.004 C 
ENDBRANCH  11  12
ENDBRANCH  10  11
ENDBRANCH   9  10
ENDBRANCH   8   9
TORSDOF 4
ENDMDL
