MODEL 1
REMARK VINA RESULT: -6.542760975      0.000      0.000
REMARK  6 active torsions:
REMARK  status: ('A' for Active; 'I' for Inactive)
REMARK    1  A    between atoms: N1_1  and  C1_5 
REMARK    2  A    between atoms: C1_5  and  C2_6 
REMARK    3  A    between atoms: C2_6  and  N2_7 
REMARK    4  A    between atoms: N2_7  and  C3_9 
REMARK    5  A    between atoms: C6_12  and  C7_13 
REMARK    6  A    between atoms: C7_13  and  N3_14 
ROOT
HETATM    1  C3  UNL     1      45.988  35.206  18.623  1.00  0.00     0.100 A 
HETATM    2  C4  UNL     1      47.078  35.624  17.883  1.00  0.00     0.049 A 
HETATM    3  C5  UNL     1      48.220  36.057  18.534  1.00  0.00     0.014 A 
HETATM    4  C6  UNL     1      48.288  36.078  19.912  1.00  0.00    -0.024 A 
HETATM    5  C11 UNL     1      47.188  35.656  20.627  1.00  0.00     0.098 A 
HETATM    6  N5  UNL     1      46.093  35.241  19.963  1.00  0.00    -0.352 N 
ATOM      7  H5  UNL     1      45.291  34.933  20.513  1.00  0.00     0.166 HD
ENDROOT
BRANCH   1   8
HETATM    8  N2  UNL     1      44.898  34.792  18.035  1.00  0.00    -0.375 N 
ATOM      9  H2  UNL     1      44.804  34.801  17.019  1.00  0.00     0.161 HD
BRANCH   8  10
HETATM   10  C2  UNL     1      43.826  34.321  18.889  1.00  0.00     0.148 C 
BRANCH  10  11
HETATM   11  C1  UNL     1      42.756  35.421  18.865  1.00  0.00     0.249 C 
BRANCH  11  12
HETATM   12  N1  UNL     1      42.671  36.014  17.547  1.00  0.00    -0.078 N 
ATOM     13  H13 UNL     1      43.175  36.900  17.496  1.00  0.00     0.274 HD
ATOM     14  H12 UNL     1      43.214  35.491  16.859  1.00  0.00     0.274 HD
ATOM     15  H11 UNL     1      41.696  36.114  17.264  1.00  0.00     0.274 HD
ENDBRANCH  11  12
ENDBRANCH  10  11
ENDBRANCH   8  10
ENDBRANCH   1   8
BRANCH   4  16
HETATM   16  C7  UNL     1      49.469  36.526  20.690  1.00  0.00     0.169 C 
BRANCH  16  17
HETATM   17  N3  UNL     1      49.348  37.920  21.103  1.00  0.00    -0.347 N 
HETATM   18  C8  UNL     1      49.889  38.938  20.437  1.00  0.00     0.109 A 
HETATM   19  C9  UNL     1      49.573  40.093  21.109  1.00  0.00     0.106 A 
HETATM   20  N4  UNL     1      48.846  39.722  22.165  1.00  0.00    -0.361 N 
HETATM   21  C10 UNL     1      48.708  38.392  22.160  1.00  0.00     0.182 A 
ATOM     22  H4  UNL     1      48.456  40.353  22.866  1.00  0.00     0.166 HD
ENDBRANCH  16  17
ENDBRANCH   4  16
TORSDOF 6
ENDMDL
MODEL 2
REMARK VINA RESULT: -6.492489393      0.650      1.179
REMARK  6 active torsions:
REMARK  status: ('A' for Active; 'I' for Inactive)
REMARK    1  A    between atoms: N1_1  and  C1_5 
REMARK    2  A    between atoms: C1_5  and  C2_6 
REMARK    3  A    between atoms: C2_6  and  N2_7 
REMARK    4  A    between atoms: N2_7  and  C3_9 
REMARK    5  A    between atoms: C6_12  and  C7_13 
REMARK    6  A    between atoms: C7_13  and  N3_14 
ROOT
HETATM    1  C3  UNL     1      45.968  35.161  18.708  1.00  0.00     0.100 A 
HETATM    2  C4  UNL     1      46.037  35.167  20.089  1.00  0.00     0.049 A 
HETATM    3  C5  UNL     1      47.184  35.627  20.713  1.00  0.00     0.014 A 
HETATM    4  C6  UNL     1      48.260  36.080  19.978  1.00  0.00    -0.024 A 
HETATM    5  C11 UNL     1      48.166  36.063  18.603  1.00  0.00     0.098 A 
HETATM    6  N5  UNL     1      47.037  35.610  18.027  1.00  0.00    -0.352 N 
ATOM      7  H5  UNL     1      46.990  35.607  17.009  1.00  0.00     0.166 HD
ENDROOT
BRANCH   1   8
HETATM    8  N2  UNL     1      44.898  34.733  18.093  1.00  0.00    -0.375 N 
ATOM      9  H2  UNL     1      44.849  34.694  17.075  1.00  0.00     0.161 HD
BRANCH   8  10
HETATM   10  C2  UNL     1      43.784  34.317  18.921  1.00  0.00     0.148 C 
BRANCH  10  11
HETATM   11  C1  UNL     1      42.759  35.457  18.849  1.00  0.00     0.249 C 
BRANCH  11  12
HETATM   12  N1  UNL     1      42.707  36.005  17.510  1.00  0.00    -0.078 N 
ATOM     13  H13 UNL     1      43.006  35.326  16.810  1.00  0.00     0.274 HD
ATOM     14  H12 UNL     1      41.748  36.139  17.191  1.00  0.00     0.274 HD
ATOM     15  H11 UNL     1      43.249  36.868  17.458  1.00  0.00     0.274 HD
ENDBRANCH  11  12
ENDBRANCH  10  11
ENDBRANCH   8  10
ENDBRANCH   1   8
BRANCH   4  16
HETATM   16  C7  UNL     1      49.525  36.588  20.564  1.00  0.00     0.169 C 
BRANCH  16  17
HETATM   17  N3  UNL     1      49.388  37.961  21.038  1.00  0.00    -0.347 N 
HETATM   18  C8  UNL     1      49.937  39.011  20.430  1.00  0.00     0.109 A 
HETATM   19  C9  UNL     1      49.601  40.133  21.149  1.00  0.00     0.106 A 
HETATM   20  N4  UNL     1      48.855  39.710  22.172  1.00  0.00    -0.361 N 
HETATM   21  C10 UNL     1      48.724  38.381  22.103  1.00  0.00     0.182 A 
ATOM     22  H4  UNL     1      48.448  40.306  22.893  1.00  0.00     0.166 HD
ENDBRANCH  16  17
ENDBRANCH   4  16
TORSDOF 6
ENDMDL
MODEL 3
REMARK VINA RESULT: -6.462900234      1.402      6.137
REMARK  6 active torsions:
REMARK  status: ('A' for Active; 'I' for Inactive)
REMARK    1  A    between atoms: N1_1  and  C1_5 
REMARK    2  A    between atoms: C1_5  and  C2_6 
REMARK    3  A    between atoms: C2_6  and  N2_7 
REMARK    4  A    between atoms: N2_7  and  C3_9 
REMARK    5  A    between atoms: C6_12  and  C7_13 
REMARK    6  A    between atoms: C7_13  and  N3_14 
ROOT
HETATM    1  C3  UNL     1      49.110  36.741  19.777  1.00  0.00     0.100 A 
HETATM    2  C4  UNL     1      48.474  35.975  20.736  1.00  0.00     0.049 A 
HETATM    3  C5  UNL     1      47.483  35.088  20.354  1.00  0.00     0.014 A 
HETATM    4  C6  UNL     1      47.118  34.956  19.031  1.00  0.00    -0.024 A 
HETATM    5  C11 UNL     1      47.767  35.731  18.093  1.00  0.00     0.098 A 
HETATM    6  N5  UNL     1      48.726  36.584  18.497  1.00  0.00    -0.352 N 
ATOM      7  H5  UNL     1      49.193  37.148  17.787  1.00  0.00     0.166 HD
ENDROOT
BRANCH   1   8
HETATM    8  N2  UNL     1      50.048  37.586  20.109  1.00  0.00    -0.375 N 
ATOM      9  H2  UNL     1      51.007  37.475  19.777  1.00  0.00     0.161 HD
BRANCH   8  10
HETATM   10  C2  UNL     1      49.669  38.689  20.969  1.00  0.00     0.148 C 
BRANCH  10  11
HETATM   11  C1  UNL     1      50.260  39.949  20.322  1.00  0.00     0.249 C 
BRANCH  11  12
HETATM   12  N1  UNL     1      49.860  40.039  18.933  1.00  0.00    -0.078 N 
ATOM     13  H13 UNL     1      49.313  40.879  18.750  1.00  0.00     0.274 HD
ATOM     14  H12 UNL     1      50.652  40.237  18.322  1.00  0.00     0.274 HD
ATOM     15  H11 UNL     1      49.364  39.193  18.651  1.00  0.00     0.274 HD
ENDBRANCH  11  12
ENDBRANCH  10  11
ENDBRANCH   8  10
ENDBRANCH   1   8
BRANCH   4  16
HETATM   16  C7  UNL     1      46.068  34.032  18.534  1.00  0.00     0.169 C 
BRANCH  16  17
HETATM   17  N3  UNL     1      44.765  34.684  18.461  1.00  0.00    -0.347 N 
HETATM   18  C8  UNL     1      43.880  34.681  19.456  1.00  0.00     0.109 A 
HETATM   19  C9  UNL     1      42.778  35.384  19.037  1.00  0.00     0.106 A 
HETATM   20  N4  UNL     1      43.045  35.789  17.793  1.00  0.00    -0.361 N 
HETATM   21  C10 UNL     1      44.261  35.360  17.442  1.00  0.00     0.182 A 
ATOM     22  H4  UNL     1      42.419  36.338  17.203  1.00  0.00     0.166 HD
ENDBRANCH  16  17
ENDBRANCH   4  16
TORSDOF 6
ENDMDL
MODEL 4
REMARK VINA RESULT: -6.231724389      2.372      6.311
REMARK  6 active torsions:
REMARK  status: ('A' for Active; 'I' for Inactive)
REMARK    1  A    between atoms: N1_1  and  C1_5 
REMARK    2  A    between atoms: C1_5  and  C2_6 
REMARK    3  A    between atoms: C2_6  and  N2_7 
REMARK    4  A    between atoms: N2_7  and  C3_9 
REMARK    5  A    between atoms: C6_12  and  C7_13 
REMARK    6  A    between atoms: C7_13  and  N3_14 
ROOT
HETATM    1  C3  UNL     1      49.073  37.101  19.853  1.00  0.00     0.100 A 
HETATM    2  C4  UNL     1      48.297  36.498  20.826  1.00  0.00     0.049 A 
HETATM    3  C5  UNL     1      47.342  35.567  20.458  1.00  0.00     0.014 A 
HETATM    4  C6  UNL     1      47.151  35.229  19.134  1.00  0.00    -0.024 A 
HETATM    5  C11 UNL     1      47.937  35.844  18.183  1.00  0.00     0.098 A 
HETATM    6  N5  UNL     1      48.857  36.745  18.574  1.00  0.00    -0.352 N 
ATOM      7  H5  UNL     1      49.427  37.187  17.853  1.00  0.00     0.166 HD
ENDROOT
BRANCH   1   8
HETATM    8  N2  UNL     1      49.981  37.983  20.171  1.00  0.00    -0.375 N 
ATOM      9  H2  UNL     1      50.919  37.950  19.771  1.00  0.00     0.161 HD
BRANCH   8  10
HETATM   10  C2  UNL     1      49.599  39.009  21.120  1.00  0.00     0.148 C 
BRANCH  10  11
HETATM   11  C1  UNL     1      49.803  40.347  20.395  1.00  0.00     0.249 C 
BRANCH  11  12
HETATM   12  N1  UNL     1      49.801  40.150  18.961  1.00  0.00    -0.078 N 
ATOM     13  H13 UNL     1      50.646  40.520  18.526  1.00  0.00     0.274 HD
ATOM     14  H12 UNL     1      49.921  39.168  18.713  1.00  0.00     0.274 HD
ATOM     15  H11 UNL     1      48.956  40.546  18.549  1.00  0.00     0.274 HD
ENDBRANCH  11  12
ENDBRANCH  10  11
ENDBRANCH   8  10
ENDBRANCH   1   8
BRANCH   4  16
HETATM   16  C7  UNL     1      46.152  34.244  18.652  1.00  0.00     0.169 C 
BRANCH  16  17
HETATM   17  N3  UNL     1      46.403  32.912  19.191  1.00  0.00    -0.347 N 
HETATM   18  C8  UNL     1      47.487  32.191  18.906  1.00  0.00     0.109 A 
HETATM   19  C9  UNL     1      47.389  31.001  19.584  1.00  0.00     0.106 A 
HETATM   20  N4  UNL     1      46.238  31.052  20.259  1.00  0.00    -0.361 N 
HETATM   21  C10 UNL     1      45.636  32.221  20.018  1.00  0.00     0.182 A 
ATOM     22  H4  UNL     1      45.874  30.314  20.863  1.00  0.00     0.166 HD
ENDBRANCH  16  17
ENDBRANCH   4  16
TORSDOF 6
ENDMDL
MODEL 5
REMARK VINA RESULT: -5.976731714      1.302      6.047
REMARK  6 active torsions:
REMARK  status: ('A' for Active; 'I' for Inactive)
REMARK    1  A    between atoms: N1_1  and  C1_5 
REMARK    2  A    between atoms: C1_5  and  C2_6 
REMARK    3  A    between atoms: C2_6  and  N2_7 
REMARK    4  A    between atoms: N2_7  and  C3_9 
REMARK    5  A    between atoms: C6_12  and  C7_13 
REMARK    6  A    between atoms: C7_13  and  N3_14 
ROOT
HETATM    1  C3  UNL     1      49.051  36.543  19.902  1.00  0.00     0.100 A 
HETATM    2  C4  UNL     1      48.694  36.484  18.568  1.00  0.00     0.049 A 
HETATM    3  C5  UNL     1      47.670  35.642  18.171  1.00  0.00     0.014 A 
HETATM    4  C6  UNL     1      46.999  34.858  19.086  1.00  0.00    -0.024 A 
HETATM    5  C11 UNL     1      47.373  34.935  20.411  1.00  0.00     0.098 A 
HETATM    6  N5  UNL     1      48.373  35.764  20.764  1.00  0.00    -0.352 N 
ATOM      7  H5  UNL     1      48.633  35.805  21.749  1.00  0.00     0.166 HD
ENDROOT
BRANCH   1   8
HETATM    8  N2  UNL     1      50.013  37.329  20.304  1.00  0.00    -0.375 N 
ATOM      9  H2  UNL     1      50.993  37.078  20.178  1.00  0.00     0.161 HD
BRANCH   8  10
HETATM   10  C2  UNL     1      49.625  38.573  20.938  1.00  0.00     0.148 C 
BRANCH  10  11
HETATM   11  C1  UNL     1      50.450  39.670  20.249  1.00  0.00     0.249 C 
BRANCH  11  12
HETATM   12  N1  UNL     1      49.920  39.946  18.930  1.00  0.00    -0.078 N 
ATOM     13  H13 UNL     1      49.074  40.513  18.972  1.00  0.00     0.274 HD
ATOM     14  H12 UNL     1      50.512  40.594  18.412  1.00  0.00     0.274 HD
ATOM     15  H11 UNL     1      49.770  39.076  18.419  1.00  0.00     0.274 HD
ENDBRANCH  11  12
ENDBRANCH  10  11
ENDBRANCH   8  10
ENDBRANCH   1   8
BRANCH   4  16
HETATM   16  C7  UNL     1      45.892  33.929  18.749  1.00  0.00     0.169 C 
BRANCH  16  17
HETATM   17  N3  UNL     1      44.631  34.637  18.561  1.00  0.00    -0.347 N 
HETATM   18  C8  UNL     1      43.714  34.781  19.517  1.00  0.00     0.109 A 
HETATM   19  C9  UNL     1      42.667  35.496  18.988  1.00  0.00     0.106 A 
HETATM   20  N4  UNL     1      42.997  35.757  17.721  1.00  0.00    -0.361 N 
HETATM   21  C10 UNL     1      44.199  35.232  17.461  1.00  0.00     0.182 A 
ATOM     22  H4  UNL     1      42.423  36.276  17.055  1.00  0.00     0.166 HD
ENDBRANCH  16  17
ENDBRANCH   4  16
TORSDOF 6
ENDMDL
