MODEL 1
REMARK VINA RESULT: -6.561463675      0.000      0.000
REMARK  6 active torsions:
REMARK  status: ('A' for Active; 'I' for Inactive)
REMARK    1  A    between atoms: O1_1  and  C1_3 
REMARK    2  A    between atoms: N2_8  and  C4_9 
REMARK    3  A    between atoms: C4_9  and  C5_10 
REMARK    4  A    between atoms: C7_14  and  C8_15 
REMARK    5  A    between atoms: C8_15  and  C9_16 
REMARK    6  A    between atoms: C9_16  and  O2_17 
ROOT
HETATM    1  C5  UNL     1      47.073  35.199  19.097  1.00  0.00    -0.023 A 
HETATM    2  C6  UNL     1      47.928  35.790  18.193  1.00  0.00     0.097 A 
HETATM    3  N3  UNL     1      48.740  36.611  18.867  1.00  0.00    -0.368 N 
ATOM      4  H3  UNL     1      49.474  37.179  18.444  1.00  0.00     0.165 HD
HETATM    5  C7  UNL     1      48.453  36.584  20.188  1.00  0.00     0.011 A 
HETATM    6  C10 UNL     1      47.399  35.697  20.364  1.00  0.00     0.035 A 
ENDROOT
BRANCH   1   7
HETATM    7  C4  UNL     1      46.013  34.217  18.748  1.00  0.00     0.172 C 
BRANCH   7   8
HETATM    8  N2  UNL     1      46.387  32.896  19.250  1.00  0.00    -0.318 N 
HETATM    9  C1  UNL     1      45.619  32.090  19.999  1.00  0.00     0.223 A 
HETATM   10  N1  UNL     1      46.264  30.946  20.290  1.00  0.00    -0.331 N 
HETATM   11  C2  UNL     1      47.459  31.051  19.705  1.00  0.00     0.109 A 
ATOM     12  H1  UNL     1      45.913  30.163  20.842  1.00  0.00     0.168 HD
HETATM   13  C3  UNL     1      47.550  32.253  19.057  1.00  0.00     0.112 A 
BRANCH   9  14
HETATM   14  O1  UNL     1      44.310  32.401  20.424  1.00  0.00    -0.332 OA
ATOM     15  H1  UNL     1      43.523  32.217  19.923  1.00  0.00     0.221 HD
ENDBRANCH   9  14
ENDBRANCH   7   8
ENDBRANCH   1   7
BRANCH   5  16
HETATM   16  C8  UNL     1      49.104  37.338  21.292  1.00  0.00     0.083 C 
BRANCH  16  17
HETATM   17  C9  UNL     1      50.207  38.187  20.662  1.00  0.00     0.170 C 
BRANCH  17  18
HETATM   18  O2  UNL     1      51.253  37.370  20.232  1.00  0.00    -0.400 OA
ATOM     19  H2  UNL     1      51.949  37.900  19.863  1.00  0.00     0.209 HD
ENDBRANCH  17  18
ENDBRANCH  16  17
ENDBRANCH   5  16
TORSDOF 6
ENDMDL
MODEL 2
REMARK VINA RESULT: -6.494602127      1.671      2.620
REMARK  6 active torsions:
REMARK  status: ('A' for Active; 'I' for Inactive)
REMARK    1  A    between atoms: O1_1  and  C1_3 
REMARK    2  A    between atoms: N2_8  and  C4_9 
REMARK    3  A    between atoms: C4_9  and  C5_10 
REMARK    4  A    between atoms: C7_14  and  C8_15 
REMARK    5  A    between atoms: C8_15  and  C9_16 
REMARK    6  A    between atoms: C9_16  and  O2_17 
ROOT
HETATM    1  C5  UNL     1      47.281  34.974  19.122  1.00  0.00    -0.023 A 
HETATM    2  C6  UNL     1      48.054  35.656  18.208  1.00  0.00     0.097 A 
HETATM    3  N3  UNL     1      48.787  36.554  18.874  1.00  0.00    -0.368 N 
ATOM      4  H3  UNL     1      49.450  37.198  18.442  1.00  0.00     0.165 HD
HETATM    5  C7  UNL     1      48.529  36.490  20.200  1.00  0.00     0.011 A 
HETATM    6  C10 UNL     1      47.577  35.496  20.387  1.00  0.00     0.035 A 
ENDROOT
BRANCH   1   7
HETATM    7  C4  UNL     1      46.323  33.889  18.785  1.00  0.00     0.172 C 
BRANCH   7   8
HETATM    8  N2  UNL     1      44.976  34.444  18.671  1.00  0.00    -0.318 N 
HETATM    9  C1  UNL     1      43.858  33.917  19.195  1.00  0.00     0.223 A 
HETATM   10  N1  UNL     1      42.787  34.677  18.906  1.00  0.00    -0.331 N 
HETATM   11  C2  UNL     1      43.258  35.698  18.184  1.00  0.00     0.109 A 
ATOM     12  H1  UNL     1      41.819  34.509  19.179  1.00  0.00     0.168 HD
HETATM   13  C3  UNL     1      44.612  35.567  18.031  1.00  0.00     0.112 A 
BRANCH   9  14
HETATM   14  O1  UNL     1      43.813  32.726  19.950  1.00  0.00    -0.332 OA
ATOM     15  H1  UNL     1      43.198  32.558  20.655  1.00  0.00     0.221 HD
ENDBRANCH   9  14
ENDBRANCH   7   8
ENDBRANCH   1   7
BRANCH   5  16
HETATM   16  C8  UNL     1      49.117  37.301  21.298  1.00  0.00     0.083 C 
BRANCH  16  17
HETATM   17  C9  UNL     1      50.198  38.181  20.671  1.00  0.00     0.170 C 
BRANCH  17  18
HETATM   18  O2  UNL     1      51.263  37.393  20.237  1.00  0.00    -0.400 OA
ATOM     19  H2  UNL     1      52.066  37.901  20.239  1.00  0.00     0.209 HD
ENDBRANCH  17  18
ENDBRANCH  16  17
ENDBRANCH   5  16
TORSDOF 6
ENDMDL
MODEL 3
REMARK VINA RESULT: -6.452114053      2.178      3.120
REMARK  6 active torsions:
REMARK  status: ('A' for Active; 'I' for Inactive)
REMARK    1  A    between atoms: O1_1  and  C1_3 
REMARK    2  A    between atoms: N2_8  and  C4_9 
REMARK    3  A    between atoms: C4_9  and  C5_10 
REMARK    4  A    between atoms: C7_14  and  C8_15 
REMARK    5  A    between atoms: C8_15  and  C9_16 
REMARK    6  A    between atoms: C9_16  and  O2_17 
ROOT
HETATM    1  C5  UNL     1      47.170  35.093  19.370  1.00  0.00    -0.023 A 
HETATM    2  C6  UNL     1      48.001  35.632  18.411  1.00  0.00     0.097 A 
HETATM    3  N3  UNL     1      48.777  36.545  19.002  1.00  0.00    -0.368 N 
ATOM      4  H3  UNL     1      49.488  37.100  18.525  1.00  0.00     0.165 HD
HETATM    5  C7  UNL     1      48.492  36.630  20.321  1.00  0.00     0.011 A 
HETATM    6  C10 UNL     1      47.476  35.721  20.584  1.00  0.00     0.035 A 
ENDROOT
BRANCH   1   7
HETATM    7  C4  UNL     1      46.152  34.040  19.119  1.00  0.00     0.172 C 
BRANCH   7   8
HETATM    8  N2  UNL     1      44.871  34.666  18.798  1.00  0.00    -0.318 N 
HETATM    9  C1  UNL     1      44.458  35.037  17.576  1.00  0.00     0.223 A 
HETATM   10  N1  UNL     1      43.230  35.582  17.629  1.00  0.00    -0.331 N 
HETATM   11  C2  UNL     1      42.877  35.546  18.916  1.00  0.00     0.109 A 
ATOM     12  H1  UNL     1      42.682  35.947  16.849  1.00  0.00     0.168 HD
HETATM   13  C3  UNL     1      43.884  34.982  19.653  1.00  0.00     0.112 A 
BRANCH   9  14
HETATM   14  O1  UNL     1      45.211  34.875  16.394  1.00  0.00    -0.332 OA
ATOM     15  H1  UNL     1      44.839  34.818  15.522  1.00  0.00     0.221 HD
ENDBRANCH   9  14
ENDBRANCH   7   8
ENDBRANCH   1   7
BRANCH   5  16
HETATM   16  C8  UNL     1      49.111  37.510  21.347  1.00  0.00     0.083 C 
BRANCH  16  17
HETATM   17  C9  UNL     1      50.247  38.267  20.658  1.00  0.00     0.170 C 
BRANCH  17  18
HETATM   18  O2  UNL     1      51.236  37.374  20.247  1.00  0.00    -0.400 OA
ATOM     19  H2  UNL     1      51.247  37.315  19.299  1.00  0.00     0.209 HD
ENDBRANCH  17  18
ENDBRANCH  16  17
ENDBRANCH   5  16
TORSDOF 6
ENDMDL
MODEL 4
REMARK VINA RESULT: -6.293775853      3.053      3.526
REMARK  6 active torsions:
REMARK  status: ('A' for Active; 'I' for Inactive)
REMARK    1  A    between atoms: O1_1  and  C1_3 
REMARK    2  A    between atoms: N2_8  and  C4_9 
REMARK    3  A    between atoms: C4_9  and  C5_10 
REMARK    4  A    between atoms: C7_14  and  C8_15 
REMARK    5  A    between atoms: C8_15  and  C9_16 
REMARK    6  A    between atoms: C9_16  and  O2_17 
ROOT
HETATM    1  C5  UNL     1      45.596  34.515  19.453  1.00  0.00    -0.023 A 
HETATM    2  C6  UNL     1      44.644  34.606  18.460  1.00  0.00     0.097 A 
HETATM    3  N3  UNL     1      45.231  35.105  17.368  1.00  0.00    -0.368 N 
ATOM      4  H3  UNL     1      44.757  35.278  16.481  1.00  0.00     0.165 HD
HETATM    5  C7  UNL     1      46.541  35.347  17.600  1.00  0.00     0.011 A 
HETATM    6  C10 UNL     1      46.801  34.983  18.915  1.00  0.00     0.035 A 
ENDROOT
BRANCH   1   7
HETATM    7  C4  UNL     1      45.347  34.007  20.827  1.00  0.00     0.172 C 
BRANCH   7   8
HETATM    8  N2  UNL     1      45.998  32.709  20.993  1.00  0.00    -0.318 N 
HETATM    9  C1  UNL     1      45.762  31.829  21.978  1.00  0.00     0.223 A 
HETATM   10  N1  UNL     1      46.530  30.733  21.837  1.00  0.00    -0.331 N 
HETATM   11  C2  UNL     1      47.257  30.945  20.738  1.00  0.00     0.109 A 
ATOM     12  H1  UNL     1      46.552  29.913  22.443  1.00  0.00     0.168 HD
HETATM   13  C3  UNL     1      46.939  32.165  20.204  1.00  0.00     0.112 A 
BRANCH   9  14
HETATM   14  O1  UNL     1      44.833  32.025  23.021  1.00  0.00    -0.332 OA
ATOM     15  H1  UNL     1      44.056  32.569  22.955  1.00  0.00     0.221 HD
ENDBRANCH   9  14
ENDBRANCH   7   8
ENDBRANCH   1   7
BRANCH   5  16
HETATM   16  C8  UNL     1      47.560  35.899  16.668  1.00  0.00     0.083 C 
BRANCH  16  17
HETATM   17  C9  UNL     1      48.183  34.711  15.936  1.00  0.00     0.170 C 
BRANCH  17  18
HETATM   18  O2  UNL     1      47.193  33.791  15.589  1.00  0.00    -0.400 OA
ATOM     19  H2  UNL     1      46.999  33.228  16.329  1.00  0.00     0.209 HD
ENDBRANCH  17  18
ENDBRANCH  16  17
ENDBRANCH   5  16
TORSDOF 6
ENDMDL
MODEL 5
REMARK VINA RESULT: -6.276550833      2.412      3.307
REMARK  6 active torsions:
REMARK  status: ('A' for Active; 'I' for Inactive)
REMARK    1  A    between atoms: O1_1  and  C1_3 
REMARK    2  A    between atoms: N2_8  and  C4_9 
REMARK    3  A    between atoms: C4_9  and  C5_10 
REMARK    4  A    between atoms: C7_14  and  C8_15 
REMARK    5  A    between atoms: C8_15  and  C9_16 
REMARK    6  A    between atoms: C9_16  and  O2_17 
ROOT
HETATM    1  C5  UNL     1      47.311  35.107  19.292  1.00  0.00    -0.023 A 
HETATM    2  C6  UNL     1      48.014  35.746  18.294  1.00  0.00     0.097 A 
HETATM    3  N3  UNL     1      48.838  36.628  18.868  1.00  0.00    -0.368 N 
ATOM      4  H3  UNL     1      49.478  37.241  18.361  1.00  0.00     0.165 HD
HETATM    5  C7  UNL     1      48.707  36.596  20.213  1.00  0.00     0.011 A 
HETATM    6  C10 UNL     1      47.745  35.640  20.512  1.00  0.00     0.035 A 
ENDROOT
BRANCH   1   7
HETATM    7  C4  UNL     1      46.289  34.051  19.071  1.00  0.00     0.172 C 
BRANCH   7   8
HETATM    8  N2  UNL     1      44.992  34.673  18.808  1.00  0.00    -0.318 N 
HETATM    9  C1  UNL     1      44.521  35.038  17.606  1.00  0.00     0.223 A 
HETATM   10  N1  UNL     1      43.296  35.581  17.715  1.00  0.00    -0.331 N 
HETATM   11  C2  UNL     1      43.005  35.550  19.018  1.00  0.00     0.109 A 
ATOM     12  H1  UNL     1      42.711  35.941  16.960  1.00  0.00     0.168 HD
HETATM   13  C3  UNL     1      44.047  34.991  19.708  1.00  0.00     0.112 A 
BRANCH   9  14
HETATM   14  O1  UNL     1      45.218  34.873  16.390  1.00  0.00    -0.332 OA
ATOM     15  H1  UNL     1      45.193  35.490  15.668  1.00  0.00     0.221 HD
ENDBRANCH   9  14
ENDBRANCH   7   8
ENDBRANCH   1   7
BRANCH   5  16
HETATM   16  C8  UNL     1      49.427  37.404  21.233  1.00  0.00     0.083 C 
BRANCH  16  17
HETATM   17  C9  UNL     1      48.386  38.298  21.907  1.00  0.00     0.170 C 
BRANCH  17  18
HETATM   18  O2  UNL     1      48.737  38.518  23.239  1.00  0.00    -0.400 OA
ATOM     19  H2  UNL     1      48.471  39.390  23.506  1.00  0.00     0.209 HD
ENDBRANCH  17  18
ENDBRANCH  16  17
ENDBRANCH   5  16
TORSDOF 6
ENDMDL
