MODEL 1
REMARK VINA RESULT: -6.299102447      0.000      0.000
REMARK  5 active torsions:
REMARK  status: ('A' for Active; 'I' for Inactive)
REMARK    1  A    between atoms: O1_3  and  C3_4 
REMARK    2  A    between atoms: C3_4  and  C4_5 
REMARK    3  A    between atoms: N2_10  and  C7_11 
REMARK    4  A    between atoms: C7_11  and  N3_12 
REMARK    5  A    between atoms: N3_12  and  C8_14 
ROOT
HETATM    1  C1  UNL     1      45.301  32.276  22.200  1.00  0.00     0.044 C 
HETATM    2  C2  UNL     1      45.652  32.300  21.047  1.00  0.00     0.043 C 
HETATM    3  O1  UNL     1      46.071  32.320  19.741  1.00  0.00    -0.298 OA
ENDROOT
BRANCH   3   4
HETATM    4  C3  UNL     1      47.145  33.191  19.439  1.00  0.00     0.246 C 
BRANCH   4   5
HETATM    5  C4  UNL     1      47.324  33.439  18.018  1.00  0.00     0.054 A 
HETATM    6  C5  UNL     1      47.964  32.627  17.120  1.00  0.00     0.116 A 
HETATM    7  N1  UNL     1      47.936  33.174  15.899  1.00  0.00    -0.360 N 
HETATM    8  C6  UNL     1      47.276  34.334  16.028  1.00  0.00     0.184 A 
ATOM      9  H1  UNL     1      48.335  32.787  15.044  1.00  0.00     0.166 HD
HETATM   10  N2  UNL     1      46.896  34.503  17.330  1.00  0.00    -0.326 N 
BRANCH  10  11
HETATM   11  C7  UNL     1      46.170  35.661  17.758  1.00  0.00     0.254 C 
BRANCH  11  12
HETATM   12  N3  UNL     1      44.767  35.544  17.332  1.00  0.00    -0.353 N 
ATOM     13  H3  UNL     1      44.555  35.412  16.343  1.00  0.00     0.163 HD
BRANCH  12  14
HETATM   14  C8  UNL     1      43.710  35.611  18.262  1.00  0.00     0.182 C 
HETATM   15  N4  UNL     1      42.375  35.874  17.849  1.00  0.00    -0.070 NA
HETATM   16  S1  UNL     1      44.028  35.384  19.844  1.00  0.00    -0.044 SA
ENDBRANCH  12  14
ENDBRANCH  11  12
ENDBRANCH  10  11
ENDBRANCH   4   5
ENDBRANCH   3   4
TORSDOF 5
ENDMDL
MODEL 2
REMARK VINA RESULT: -6.114123787      1.282      1.895
REMARK  5 active torsions:
REMARK  status: ('A' for Active; 'I' for Inactive)
REMARK    1  A    between atoms: O1_3  and  C3_4 
REMARK    2  A    between atoms: C3_4  and  C4_5 
REMARK    3  A    between atoms: N2_10  and  C7_11 
REMARK    4  A    between atoms: C7_11  and  N3_12 
REMARK    5  A    between atoms: N3_12  and  C8_14 
ROOT
HETATM    1  C1  UNL     1      48.372  36.240  20.040  1.00  0.00     0.044 C 
HETATM    2  C2  UNL     1      48.031  35.087  20.132  1.00  0.00     0.043 C 
HETATM    3  O1  UNL     1      47.652  33.771  20.215  1.00  0.00    -0.298 OA
ENDROOT
BRANCH   3   4
HETATM    4  C3  UNL     1      46.680  33.337  19.282  1.00  0.00     0.246 C 
BRANCH   4   5
HETATM    5  C4  UNL     1      47.060  33.540  17.894  1.00  0.00     0.054 A 
HETATM    6  C5  UNL     1      47.899  32.752  17.151  1.00  0.00     0.116 A 
HETATM    7  N1  UNL     1      48.018  33.242  15.912  1.00  0.00    -0.360 N 
HETATM    8  C6  UNL     1      47.253  34.342  15.873  1.00  0.00     0.184 A 
ATOM      9  H1  UNL     1      48.578  32.857  15.152  1.00  0.00     0.166 HD
HETATM   10  N2  UNL     1      46.659  34.530  17.090  1.00  0.00    -0.326 N 
BRANCH  10  11
HETATM   11  C7  UNL     1      45.782  35.635  17.337  1.00  0.00     0.254 C 
BRANCH  11  12
HETATM   12  N3  UNL     1      44.386  35.187  17.220  1.00  0.00    -0.353 N 
ATOM     13  H3  UNL     1      44.112  34.612  16.423  1.00  0.00     0.163 HD
BRANCH  12  14
HETATM   14  C8  UNL     1      43.421  35.535  18.186  1.00  0.00     0.182 C 
HETATM   15  N4  UNL     1      42.129  35.998  17.810  1.00  0.00    -0.070 NA
HETATM   16  S1  UNL     1      43.795  35.405  19.767  1.00  0.00    -0.044 SA
ENDBRANCH  12  14
ENDBRANCH  11  12
ENDBRANCH  10  11
ENDBRANCH   4   5
ENDBRANCH   3   4
TORSDOF 5
ENDMDL
MODEL 3
REMARK VINA RESULT: -6.113953216      2.716      3.504
REMARK  5 active torsions:
REMARK  status: ('A' for Active; 'I' for Inactive)
REMARK    1  A    between atoms: O1_3  and  C3_4 
REMARK    2  A    between atoms: C3_4  and  C4_5 
REMARK    3  A    between atoms: N2_10  and  C7_11 
REMARK    4  A    between atoms: C7_11  and  N3_12 
REMARK    5  A    between atoms: N3_12  and  C8_14 
ROOT
HETATM    1  C1  UNL     1      49.105  36.733  21.115  1.00  0.00     0.044 C 
HETATM    2  C2  UNL     1      48.935  36.544  19.936  1.00  0.00     0.043 C 
HETATM    3  O1  UNL     1      48.723  36.346  18.596  1.00  0.00    -0.298 OA
ENDROOT
BRANCH   3   4
HETATM    4  C3  UNL     1      47.494  35.741  18.237  1.00  0.00     0.246 C 
BRANCH   4   5
HETATM    5  C4  UNL     1      47.602  34.330  17.909  1.00  0.00     0.054 A 
HETATM    6  C5  UNL     1      47.864  33.793  16.676  1.00  0.00     0.116 A 
HETATM    7  N1  UNL     1      47.891  32.458  16.748  1.00  0.00    -0.360 N 
HETATM    8  C6  UNL     1      47.646  32.151  18.030  1.00  0.00     0.184 A 
ATOM      9  H1  UNL     1      48.063  31.806  15.983  1.00  0.00     0.166 HD
HETATM   10  N2  UNL     1      47.468  33.299  18.750  1.00  0.00    -0.326 N 
BRANCH  10  11
HETATM   11  C7  UNL     1      47.191  33.271  20.154  1.00  0.00     0.254 C 
BRANCH  11  12
HETATM   12  N3  UNL     1      45.959  34.029  20.425  1.00  0.00    -0.353 N 
ATOM     13  H3  UNL     1      46.013  34.893  20.965  1.00  0.00     0.163 HD
BRANCH  12  14
HETATM   14  C8  UNL     1      44.707  33.586  19.954  1.00  0.00     0.182 C 
HETATM   15  N4  UNL     1      44.172  32.327  20.341  1.00  0.00    -0.070 NA
HETATM   16  S1  UNL     1      43.856  34.540  18.942  1.00  0.00    -0.044 SA
ENDBRANCH  12  14
ENDBRANCH  11  12
ENDBRANCH  10  11
ENDBRANCH   4   5
ENDBRANCH   3   4
TORSDOF 5
ENDMDL
MODEL 4
REMARK VINA RESULT: -6.067933986      2.609      4.938
REMARK  5 active torsions:
REMARK  status: ('A' for Active; 'I' for Inactive)
REMARK    1  A    between atoms: O1_3  and  C3_4 
REMARK    2  A    between atoms: C3_4  and  C4_5 
REMARK    3  A    between atoms: N2_10  and  C7_11 
REMARK    4  A    between atoms: C7_11  and  N3_12 
REMARK    5  A    between atoms: N3_12  and  C8_14 
ROOT
HETATM    1  C1  UNL     1      48.028  34.417  15.123  1.00  0.00     0.044 C 
HETATM    2  C2  UNL     1      48.086  34.724  16.287  1.00  0.00     0.043 C 
HETATM    3  O1  UNL     1      48.132  35.061  17.616  1.00  0.00    -0.298 OA
ENDROOT
BRANCH   3   4
HETATM    4  C3  UNL     1      47.087  35.891  18.090  1.00  0.00     0.246 C 
BRANCH   4   5
HETATM    5  C4  UNL     1      45.859  35.178  18.399  1.00  0.00     0.054 A 
HETATM    6  C5  UNL     1      44.683  35.234  17.700  1.00  0.00     0.116 A 
HETATM    7  N1  UNL     1      43.766  34.446  18.273  1.00  0.00    -0.360 N 
HETATM    8  C6  UNL     1      44.365  33.892  19.336  1.00  0.00     0.184 A 
ATOM      9  H1  UNL     1      42.805  34.297  17.964  1.00  0.00     0.166 HD
HETATM   10  N2  UNL     1      45.655  34.338  19.419  1.00  0.00    -0.326 N 
BRANCH  10  11
HETATM   11  C7  UNL     1      46.535  33.907  20.463  1.00  0.00     0.254 C 
BRANCH  11  12
HETATM   12  N3  UNL     1      47.711  33.251  19.872  1.00  0.00    -0.353 N 
ATOM     13  H3  UNL     1      48.562  33.793  19.724  1.00  0.00     0.163 HD
BRANCH  12  14
HETATM   14  C8  UNL     1      47.686  31.890  19.508  1.00  0.00     0.182 C 
HETATM   15  N4  UNL     1      48.069  31.464  18.206  1.00  0.00    -0.070 NA
HETATM   16  S1  UNL     1      47.205  30.782  20.602  1.00  0.00    -0.044 SA
ENDBRANCH  12  14
ENDBRANCH  11  12
ENDBRANCH  10  11
ENDBRANCH   4   5
ENDBRANCH   3   4
TORSDOF 5
ENDMDL
MODEL 5
REMARK VINA RESULT: -6.052678065      2.497      4.175
REMARK  5 active torsions:
REMARK  status: ('A' for Active; 'I' for Inactive)
REMARK    1  A    between atoms: O1_3  and  C3_4 
REMARK    2  A    between atoms: C3_4  and  C4_5 
REMARK    3  A    between atoms: N2_10  and  C7_11 
REMARK    4  A    between atoms: C7_11  and  N3_12 
REMARK    5  A    between atoms: N3_12  and  C8_14 
ROOT
HETATM    1  C1  UNL     1      43.776  35.095  18.692  1.00  0.00     0.044 C 
HETATM    2  C2  UNL     1      43.939  34.112  19.371  1.00  0.00     0.043 C 
HETATM    3  O1  UNL     1      44.119  33.006  20.163  1.00  0.00    -0.298 OA
ENDROOT
BRANCH   3   4
HETATM    4  C3  UNL     1      45.179  33.070  21.100  1.00  0.00     0.246 C 
BRANCH   4   5
HETATM    5  C4  UNL     1      46.319  32.236  20.761  1.00  0.00     0.054 A 
HETATM    6  C5  UNL     1      46.634  31.018  21.303  1.00  0.00     0.116 A 
HETATM    7  N1  UNL     1      47.754  30.540  20.750  1.00  0.00    -0.360 N 
HETATM    8  C6  UNL     1      48.148  31.459  19.857  1.00  0.00     0.184 A 
ATOM      9  H1  UNL     1      48.215  29.656  20.965  1.00  0.00     0.166 HD
HETATM   10  N2  UNL     1      47.269  32.506  19.858  1.00  0.00    -0.326 N 
BRANCH  10  11
HETATM   11  C7  UNL     1      47.443  33.636  18.996  1.00  0.00     0.254 C 
BRANCH  11  12
HETATM   12  N3  UNL     1      47.330  33.204  17.594  1.00  0.00    -0.353 N 
ATOM     13  H3  UNL     1      47.034  32.250  17.388  1.00  0.00     0.163 HD
BRANCH  12  14
HETATM   14  C8  UNL     1      47.622  34.082  16.531  1.00  0.00     0.182 C 
HETATM   15  N4  UNL     1      47.825  33.602  15.207  1.00  0.00    -0.070 NA
HETATM   16  S1  UNL     1      47.730  35.681  16.827  1.00  0.00    -0.044 SA
ENDBRANCH  12  14
ENDBRANCH  11  12
ENDBRANCH  10  11
ENDBRANCH   4   5
ENDBRANCH   3   4
TORSDOF 5
ENDMDL
