MODEL 1
REMARK VINA RESULT: -7.508975682      0.000      0.000
REMARK  5 active torsions:
REMARK  status: ('A' for Active; 'I' for Inactive)
REMARK    1  A    between atoms: C4_4  and  C5_5 
REMARK    2  A    between atoms: C5_5  and  C6_6 
REMARK    3  A    between atoms: C6_6  and  N1_7 
REMARK    4  A    between atoms: C8_11  and  N3_12 
REMARK    5  A    between atoms: N5_19  and  O1_20 
ROOT
HETATM    1  C6  UNL     1      48.906  36.249  20.772  1.00  0.00     0.155 C 
ENDROOT
BRANCH   1   2
HETATM    2  C5  UNL     1      48.264  35.935  19.428  1.00  0.00     0.060 C 
BRANCH   2   3
HETATM    3  C4  UNL     1      47.128  34.991  19.588  1.00  0.00    -0.053 A 
HETATM    4  C3  UNL     1      45.821  35.395  19.330  1.00  0.00     0.034 A 
HETATM    5  C2  UNL     1      44.771  34.520  19.477  1.00  0.00     0.036 A 
HETATM    6  C1  UNL     1      43.406  35.027  19.183  1.00  0.00     0.071 C 
HETATM    7  N5  UNL     1      44.975  33.251  19.875  1.00  0.00    -0.241 N 
HETATM    8  C10 UNL     1      46.222  32.818  20.136  1.00  0.00     0.123 A 
HETATM    9  C9  UNL     1      47.295  33.683  19.992  1.00  0.00     0.027 A 
BRANCH   7  10
HETATM   10  O1  UNL     1      43.877  32.437  20.000  1.00  0.00    -0.283 OA
ATOM     11  H1  UNL     1      43.750  31.764  19.342  1.00  0.00     0.245 HD
ENDBRANCH   7  10
ENDBRANCH   2   3
ENDBRANCH   1   2
BRANCH   1  12
HETATM   12  N1  UNL     1      49.183  37.659  20.906  1.00  0.00    -0.273 N 
HETATM   13  C7  UNL     1      48.740  38.427  21.934  1.00  0.00     0.218 A 
HETATM   14  N2  UNL     1      49.194  39.691  21.725  1.00  0.00    -0.185 N 
HETATM   15  C8  UNL     1      49.903  39.698  20.585  1.00  0.00     0.691 A 
ATOM     16  H2  UNL     1      49.025  40.495  22.328  1.00  0.00     0.185 HD
HETATM   17  N4  UNL     1      49.883  38.459  20.108  1.00  0.00    -0.129 N 
ATOM     18  H4  UNL     1      50.341  38.162  19.246  1.00  0.00     0.206 HD
BRANCH  15  19
HETATM   19  N3  UNL     1      50.490  40.720  20.063  1.00  0.00    -0.233 N 
ATOM     20  H32 UNL     1      50.043  41.523  19.622  1.00  0.00     0.174 HD
ATOM     21  H31 UNL     1      51.497  40.875  20.013  1.00  0.00     0.174 HD
ENDBRANCH  15  19
ENDBRANCH   1  12
TORSDOF 5
ENDMDL
MODEL 2
REMARK VINA RESULT: -7.489825537      0.441      1.709
REMARK  5 active torsions:
REMARK  status: ('A' for Active; 'I' for Inactive)
REMARK    1  A    between atoms: C4_4  and  C5_5 
REMARK    2  A    between atoms: C5_5  and  C6_6 
REMARK    3  A    between atoms: C6_6  and  N1_7 
REMARK    4  A    between atoms: C8_11  and  N3_12 
REMARK    5  A    between atoms: N5_19  and  O1_20 
ROOT
HETATM    1  C6  UNL     1      48.875  36.279  20.823  1.00  0.00     0.155 C 
ENDROOT
BRANCH   1   2
HETATM    2  C5  UNL     1      48.205  35.980  19.490  1.00  0.00     0.060 C 
BRANCH   2   3
HETATM    3  C4  UNL     1      47.088  35.015  19.660  1.00  0.00    -0.053 A 
HETATM    4  C3  UNL     1      47.333  33.650  19.775  1.00  0.00     0.034 A 
HETATM    5  C2  UNL     1      46.298  32.758  19.933  1.00  0.00     0.036 A 
HETATM    6  C1  UNL     1      46.643  31.318  20.048  1.00  0.00     0.071 C 
HETATM    7  N5  UNL     1      45.021  33.179  19.980  1.00  0.00    -0.241 N 
HETATM    8  C10 UNL     1      44.738  34.490  19.874  1.00  0.00     0.123 A 
HETATM    9  C9  UNL     1      45.766  35.405  19.715  1.00  0.00     0.027 A 
BRANCH   7  10
HETATM   10  O1  UNL     1      44.042  32.230  20.140  1.00  0.00    -0.283 OA
ATOM     11  H1  UNL     1      43.495  32.287  20.914  1.00  0.00     0.245 HD
ENDBRANCH   7  10
ENDBRANCH   2   3
ENDBRANCH   1   2
BRANCH   1  12
HETATM   12  N1  UNL     1      49.192  37.681  20.950  1.00  0.00    -0.273 N 
HETATM   13  C7  UNL     1      48.787  38.463  21.984  1.00  0.00     0.218 A 
HETATM   14  N2  UNL     1      49.271  39.713  21.764  1.00  0.00    -0.185 N 
HETATM   15  C8  UNL     1      49.962  39.700  20.614  1.00  0.00     0.691 A 
ATOM     16  H2  UNL     1      49.133  40.522  22.369  1.00  0.00     0.185 HD
HETATM   17  N4  UNL     1      49.900  38.461  20.139  1.00  0.00    -0.129 N 
ATOM     18  H4  UNL     1      50.337  38.151  19.270  1.00  0.00     0.206 HD
BRANCH  15  19
HETATM   19  N3  UNL     1      50.567  40.704  20.080  1.00  0.00    -0.233 N 
ATOM     20  H32 UNL     1      51.559  40.772  19.852  1.00  0.00     0.174 HD
ATOM     21  H31 UNL     1      50.138  41.588  19.804  1.00  0.00     0.174 HD
ENDBRANCH  15  19
ENDBRANCH   1  12
TORSDOF 5
ENDMDL
MODEL 3
REMARK VINA RESULT: -7.353026305      1.722      2.347
REMARK  5 active torsions:
REMARK  status: ('A' for Active; 'I' for Inactive)
REMARK    1  A    between atoms: C4_4  and  C5_5 
REMARK    2  A    between atoms: C5_5  and  C6_6 
REMARK    3  A    between atoms: C6_6  and  N1_7 
REMARK    4  A    between atoms: C8_11  and  N3_12 
REMARK    5  A    between atoms: N5_19  and  O1_20 
ROOT
HETATM    1  C6  UNL     1      49.486  37.012  20.077  1.00  0.00     0.155 C 
ENDROOT
BRANCH   1   2
HETATM    2  C5  UNL     1      48.679  35.777  20.453  1.00  0.00     0.060 C 
BRANCH   2   3
HETATM    3  C4  UNL     1      47.544  35.578  19.515  1.00  0.00    -0.053 A 
HETATM    4  C3  UNL     1      46.237  35.479  19.985  1.00  0.00     0.034 A 
HETATM    5  C2  UNL     1      45.187  35.295  19.116  1.00  0.00     0.036 A 
HETATM    6  C1  UNL     1      43.823  35.200  19.695  1.00  0.00     0.071 C 
HETATM    7  N5  UNL     1      45.393  35.205  17.789  1.00  0.00    -0.241 N 
HETATM    8  C10 UNL     1      46.639  35.294  17.292  1.00  0.00     0.123 A 
HETATM    9  C9  UNL     1      47.711  35.481  18.150  1.00  0.00     0.027 A 
BRANCH   7  10
HETATM   10  O1  UNL     1      44.295  35.021  16.985  1.00  0.00    -0.283 OA
ATOM     11  H1  UNL     1      43.992  34.130  16.851  1.00  0.00     0.245 HD
ENDBRANCH   7  10
ENDBRANCH   2   3
ENDBRANCH   1   2
BRANCH   1  12
HETATM   12  N1  UNL     1      49.312  38.069  21.044  1.00  0.00    -0.273 N 
HETATM   13  C7  UNL     1      49.817  39.321  20.901  1.00  0.00     0.218 A 
HETATM   14  N2  UNL     1      49.453  40.036  21.999  1.00  0.00    -0.185 N 
HETATM   15  C8  UNL     1      48.736  39.234  22.802  1.00  0.00     0.691 A 
ATOM     16  H2  UNL     1      49.685  41.012  22.181  1.00  0.00     0.185 HD
HETATM   17  N4  UNL     1      48.664  38.050  22.204  1.00  0.00    -0.129 N 
ATOM     18  H4  UNL     1      48.178  37.238  22.585  1.00  0.00     0.206 HD
BRANCH  15  19
HETATM   19  N3  UNL     1      48.219  39.562  23.936  1.00  0.00    -0.233 N 
ATOM     20  H32 UNL     1      48.034  40.506  24.275  1.00  0.00     0.174 HD
ATOM     21  H31 UNL     1      47.918  38.919  24.668  1.00  0.00     0.174 HD
ENDBRANCH  15  19
ENDBRANCH   1  12
TORSDOF 5
ENDMDL
MODEL 4
REMARK VINA RESULT: -7.319522170      0.888      2.220
REMARK  5 active torsions:
REMARK  status: ('A' for Active; 'I' for Inactive)
REMARK    1  A    between atoms: C4_4  and  C5_5 
REMARK    2  A    between atoms: C5_5  and  C6_6 
REMARK    3  A    between atoms: C6_6  and  N1_7 
REMARK    4  A    between atoms: C8_11  and  N3_12 
REMARK    5  A    between atoms: N5_19  and  O1_20 
ROOT
HETATM    1  C6  UNL     1      48.936  36.102  20.455  1.00  0.00     0.155 C 
ENDROOT
BRANCH   1   2
HETATM    2  C5  UNL     1      47.932  36.151  19.312  1.00  0.00     0.060 C 
BRANCH   2   3
HETATM    3  C4  UNL     1      46.854  35.148  19.507  1.00  0.00    -0.053 A 
HETATM    4  C3  UNL     1      47.132  33.896  20.048  1.00  0.00     0.034 A 
HETATM    5  C2  UNL     1      46.133  32.968  20.229  1.00  0.00     0.036 A 
HETATM    6  C1  UNL     1      46.511  31.655  20.812  1.00  0.00     0.071 C 
HETATM    7  N5  UNL     1      44.861  33.243  19.887  1.00  0.00    -0.241 N 
HETATM    8  C10 UNL     1      44.548  34.440  19.361  1.00  0.00     0.123 A 
HETATM    9  C9  UNL     1      45.538  35.390  19.171  1.00  0.00     0.027 A 
BRANCH   7  10
HETATM   10  O1  UNL     1      43.920  32.266  20.097  1.00  0.00    -0.283 OA
ATOM     11  H1  UNL     1      43.041  32.543  20.328  1.00  0.00     0.245 HD
ENDBRANCH   7  10
ENDBRANCH   2   3
ENDBRANCH   1   2
BRANCH   1  12
HETATM   12  N1  UNL     1      49.041  37.379  21.118  1.00  0.00    -0.273 N 
HETATM   13  C7  UNL     1      49.757  38.429  20.639  1.00  0.00     0.218 A 
HETATM   14  N2  UNL     1      49.624  39.452  21.524  1.00  0.00    -0.185 N 
HETATM   15  C8  UNL     1      48.839  39.036  22.530  1.00  0.00     0.691 A 
ATOM     16  H2  UNL     1      50.047  40.375  21.438  1.00  0.00     0.185 HD
HETATM   17  N4  UNL     1      48.499  37.780  22.264  1.00  0.00    -0.129 N 
ATOM     18  H4  UNL     1      47.904  37.202  22.858  1.00  0.00     0.206 HD
BRANCH  15  19
HETATM   19  N3  UNL     1      48.488  39.732  23.556  1.00  0.00    -0.233 N 
ATOM     20  H32 UNL     1      48.446  40.749  23.621  1.00  0.00     0.174 HD
ATOM     21  H31 UNL     1      48.199  39.364  24.462  1.00  0.00     0.174 HD
ENDBRANCH  15  19
ENDBRANCH   1  12
TORSDOF 5
ENDMDL
MODEL 5
REMARK VINA RESULT: -7.266589499      1.933      2.202
REMARK  5 active torsions:
REMARK  status: ('A' for Active; 'I' for Inactive)
REMARK    1  A    between atoms: C4_4  and  C5_5 
REMARK    2  A    between atoms: C5_5  and  C6_6 
REMARK    3  A    between atoms: C6_6  and  N1_7 
REMARK    4  A    between atoms: C8_11  and  N3_12 
REMARK    5  A    between atoms: N5_19  and  O1_20 
ROOT
HETATM    1  C6  UNL     1      49.604  36.812  20.554  1.00  0.00     0.155 C 
ENDROOT
BRANCH   1   2
HETATM    2  C5  UNL     1      48.231  36.197  20.784  1.00  0.00     0.060 C 
BRANCH   2   3
HETATM    3  C4  UNL     1      47.578  35.855  19.494  1.00  0.00    -0.053 A 
HETATM    4  C3  UNL     1      46.235  35.491  19.447  1.00  0.00     0.034 A 
HETATM    5  C2  UNL     1      45.632  35.176  18.252  1.00  0.00     0.036 A 
HETATM    6  C1  UNL     1      44.196  34.797  18.285  1.00  0.00     0.071 C 
HETATM    7  N5  UNL     1      46.321  35.210  17.096  1.00  0.00    -0.241 N 
HETATM    8  C10 UNL     1      47.621  35.556  17.096  1.00  0.00     0.123 A 
HETATM    9  C9  UNL     1      48.248  35.879  18.288  1.00  0.00     0.027 A 
BRANCH   7  10
HETATM   10  O1  UNL     1      45.650  34.882  15.945  1.00  0.00    -0.283 OA
ATOM     11  H1  UNL     1      44.710  35.018  15.928  1.00  0.00     0.245 HD
ENDBRANCH   7  10
ENDBRANCH   2   3
ENDBRANCH   1   2
BRANCH   1  12
HETATM   12  N1  UNL     1      49.565  38.249  20.685  1.00  0.00    -0.273 N 
HETATM   13  C7  UNL     1      49.031  38.903  21.749  1.00  0.00     0.218 A 
HETATM   14  N2  UNL     1      49.174  40.235  21.523  1.00  0.00    -0.185 N 
HETATM   15  C8  UNL     1      49.784  40.397  20.339  1.00  0.00     0.691 A 
ATOM     16  H2  UNL     1      48.869  40.983  22.145  1.00  0.00     0.185 HD
HETATM   17  N4  UNL     1      50.011  39.183  19.850  1.00  0.00    -0.129 N 
ATOM     18  H4  UNL     1      50.465  38.993  18.957  1.00  0.00     0.206 HD
BRANCH  15  19
HETATM   19  N3  UNL     1      50.089  41.522  19.789  1.00  0.00    -0.233 N 
ATOM     20  H32 UNL     1      50.562  41.659  18.896  1.00  0.00     0.174 HD
ATOM     21  H31 UNL     1      49.900  42.448  20.172  1.00  0.00     0.174 HD
ENDBRANCH  15  19
ENDBRANCH   1  12
TORSDOF 5
ENDMDL
