MODEL 1
REMARK VINA RESULT: -8.126707540      0.000      0.000
REMARK  6 active torsions:
REMARK  status: ('A' for Active; 'I' for Inactive)
REMARK    1  A    between atoms: N1_1  and  C1_5 
REMARK    2  A    between atoms: C1_5  and  C2_6 
REMARK    3  A    between atoms: C2_6  and  C3_7 
REMARK    4  A    between atoms: C3_7  and  C4_8 
REMARK    5  A    between atoms: C6_15  and  C7_16 
REMARK    6  A    between atoms: C7_16  and  C8_17 
ROOT
HETATM    1  C4  UNL     1      45.384  35.545  18.083  1.00  0.00     0.059 A 
HETATM    2  N2  UNL     1      44.177  35.807  17.530  1.00  0.00    -0.307 N 
ATOM      3  H2  UNL     1      44.043  36.142  16.577  1.00  0.00     0.170 HD
HETATM    4  C5  UNL     1      43.183  35.568  18.395  1.00  0.00     0.325 A 
HETATM    5  O1  UNL     1      41.947  35.706  18.208  1.00  0.00    -0.247 OA
HETATM    6  N3  UNL     1      43.778  35.136  19.547  1.00  0.00    -0.306 N 
ATOM      7  H3  UNL     1      43.292  34.870  20.403  1.00  0.00     0.170 HD
HETATM    8  C6  UNL     1      45.109  35.120  19.366  1.00  0.00     0.063 A 
ENDROOT
BRANCH   1   9
HETATM    9  C3  UNL     1      46.560  35.678  17.496  1.00  0.00     0.007 C 
BRANCH   9  10
HETATM   10  C2  UNL     1      46.786  35.056  16.175  1.00  0.00     0.056 C 
BRANCH  10  11
HETATM   11  C1  UNL     1      48.079  34.287  16.113  1.00  0.00     0.233 C 
BRANCH  11  12
HETATM   12  N1  UNL     1      47.736  32.882  15.943  1.00  0.00    -0.079 N 
ATOM     13  H13 UNL     1      48.463  32.251  16.280  1.00  0.00     0.274 HD
ATOM     14  H12 UNL     1      46.994  32.574  16.570  1.00  0.00     0.274 HD
ATOM     15  H11 UNL     1      47.511  32.743  14.959  1.00  0.00     0.274 HD
ENDBRANCH  11  12
ENDBRANCH  10  11
ENDBRANCH   9  10
ENDBRANCH   1   9
BRANCH   8  16
HETATM   16  C7  UNL     1      45.974  34.750  20.290  1.00  0.00     0.043 C 
BRANCH  16  17
HETATM   17  C8  UNL     1      46.444  33.368  20.410  1.00  0.00    -0.034 A 
HETATM   18  C9  UNL     1      45.901  32.565  21.390  1.00  0.00     0.011 A 
HETATM   19  C10 UNL     1      46.360  31.267  21.482  1.00  0.00     0.001 A 
HETATM   20  C11 UNL     1      47.328  30.747  20.646  1.00  0.00     0.000 A 
HETATM   21  C12 UNL     1      47.860  31.566  19.671  1.00  0.00     0.001 A 
HETATM   22  C13 UNL     1      47.415  32.863  19.562  1.00  0.00     0.011 A 
ENDBRANCH  16  17
ENDBRANCH   8  16
TORSDOF 6
ENDMDL
MODEL 2
REMARK VINA RESULT: -7.391270187      2.311      3.804
REMARK  6 active torsions:
REMARK  status: ('A' for Active; 'I' for Inactive)
REMARK    1  A    between atoms: N1_1  and  C1_5 
REMARK    2  A    between atoms: C1_5  and  C2_6 
REMARK    3  A    between atoms: C2_6  and  C3_7 
REMARK    4  A    between atoms: C3_7  and  C4_8 
REMARK    5  A    between atoms: C6_15  and  C7_16 
REMARK    6  A    between atoms: C7_16  and  C8_17 
ROOT
HETATM    1  C4  UNL     1      45.541  35.384  18.493  1.00  0.00     0.059 A 
HETATM    2  N2  UNL     1      44.478  35.533  17.668  1.00  0.00    -0.307 N 
ATOM      3  H2  UNL     1      44.539  35.555  16.651  1.00  0.00     0.170 HD
HETATM    4  C5  UNL     1      43.337  35.647  18.360  1.00  0.00     0.325 A 
HETATM    5  O1  UNL     1      42.173  35.797  17.910  1.00  0.00    -0.247 OA
HETATM    6  N3  UNL     1      43.684  35.568  19.679  1.00  0.00    -0.306 N 
ATOM      7  H3  UNL     1      43.040  35.621  20.467  1.00  0.00     0.170 HD
HETATM    8  C6  UNL     1      45.015  35.409  19.767  1.00  0.00     0.063 A 
ENDROOT
BRANCH   1   9
HETATM    9  C3  UNL     1      46.802  35.246  18.126  1.00  0.00     0.007 C 
BRANCH   9  10
HETATM   10  C2  UNL     1      47.233  35.745  16.805  1.00  0.00     0.056 C 
BRANCH  10  11
HETATM   11  C1  UNL     1      48.203  34.816  16.124  1.00  0.00     0.233 C 
BRANCH  11  12
HETATM   12  N1  UNL     1      47.511  33.555  15.906  1.00  0.00    -0.079 N 
ATOM     13  H13 UNL     1      47.267  33.397  14.928  1.00  0.00     0.274 HD
ATOM     14  H12 UNL     1      48.115  32.742  16.024  1.00  0.00     0.274 HD
ATOM     15  H11 UNL     1      46.701  33.543  16.526  1.00  0.00     0.274 HD
ENDBRANCH  11  12
ENDBRANCH  10  11
ENDBRANCH   9  10
ENDBRANCH   1   9
BRANCH   8  16
HETATM   16  C7  UNL     1      45.671  35.298  20.906  1.00  0.00     0.043 C 
BRANCH  16  17
HETATM   17  C8  UNL     1      46.166  36.467  21.638  1.00  0.00    -0.034 A 
HETATM   18  C9  UNL     1      47.465  36.879  21.430  1.00  0.00     0.011 A 
HETATM   19  C10 UNL     1      47.907  37.981  22.131  1.00  0.00     0.001 A 
HETATM   20  C11 UNL     1      47.114  38.679  23.021  1.00  0.00     0.000 A 
HETATM   21  C12 UNL     1      45.816  38.251  23.216  1.00  0.00     0.001 A 
HETATM   22  C13 UNL     1      45.356  37.154  22.526  1.00  0.00     0.011 A 
ENDBRANCH  16  17
ENDBRANCH   8  16
TORSDOF 6
ENDMDL
MODEL 3
REMARK VINA RESULT: -7.389843363      2.004      3.082
REMARK  6 active torsions:
REMARK  status: ('A' for Active; 'I' for Inactive)
REMARK    1  A    between atoms: N1_1  and  C1_5 
REMARK    2  A    between atoms: C1_5  and  C2_6 
REMARK    3  A    between atoms: C2_6  and  C3_7 
REMARK    4  A    between atoms: C3_7  and  C4_8 
REMARK    5  A    between atoms: C6_15  and  C7_16 
REMARK    6  A    between atoms: C7_16  and  C8_17 
ROOT
HETATM    1  C4  UNL     1      45.482  34.885  18.073  1.00  0.00     0.059 A 
HETATM    2  N2  UNL     1      44.346  35.193  17.405  1.00  0.00    -0.307 N 
ATOM      3  H2  UNL     1      44.251  35.165  16.390  1.00  0.00     0.170 HD
HETATM    4  C5  UNL     1      43.364  35.538  18.247  1.00  0.00     0.325 A 
HETATM    5  O1  UNL     1      42.187  35.880  17.963  1.00  0.00    -0.247 OA
HETATM    6  N3  UNL     1      43.893  35.448  19.504  1.00  0.00    -0.306 N 
ATOM      7  H3  UNL     1      43.397  35.647  20.373  1.00  0.00     0.170 HD
HETATM    8  C6  UNL     1      45.173  35.054  19.406  1.00  0.00     0.063 A 
ENDROOT
BRANCH   1   9
HETATM    9  C3  UNL     1      46.628  34.508  17.536  1.00  0.00     0.007 C 
BRANCH   9  10
HETATM   10  C2  UNL     1      47.375  35.451  16.681  1.00  0.00     0.056 C 
BRANCH  10  11
HETATM   11  C1  UNL     1      48.075  34.765  15.538  1.00  0.00     0.233 C 
BRANCH  11  12
HETATM   12  N1  UNL     1      47.698  33.360  15.582  1.00  0.00    -0.079 N 
ATOM     13  H13 UNL     1      47.937  32.910  16.465  1.00  0.00     0.274 HD
ATOM     14  H12 UNL     1      46.689  33.219  15.632  1.00  0.00     0.274 HD
ATOM     15  H11 UNL     1      48.124  32.907  14.774  1.00  0.00     0.274 HD
ENDBRANCH  11  12
ENDBRANCH  10  11
ENDBRANCH   9  10
ENDBRANCH   1   9
BRANCH   8  16
HETATM   16  C7  UNL     1      45.969  34.870  20.442  1.00  0.00     0.043 C 
BRANCH  16  17
HETATM   17  C8  UNL     1      47.039  35.811  20.780  1.00  0.00    -0.034 A 
HETATM   18  C9  UNL     1      46.760  36.856  21.635  1.00  0.00     0.011 A 
HETATM   19  C10 UNL     1      47.785  37.728  21.937  1.00  0.00     0.001 A 
HETATM   20  C11 UNL     1      49.061  37.601  21.424  1.00  0.00     0.000 A 
HETATM   21  C12 UNL     1      49.321  36.549  20.570  1.00  0.00     0.001 A 
HETATM   22  C13 UNL     1      48.313  35.667  20.257  1.00  0.00     0.011 A 
ENDBRANCH  16  17
ENDBRANCH   8  16
TORSDOF 6
ENDMDL
MODEL 4
REMARK VINA RESULT: -7.361902404      1.979      3.217
REMARK  6 active torsions:
REMARK  status: ('A' for Active; 'I' for Inactive)
REMARK    1  A    between atoms: N1_1  and  C1_5 
REMARK    2  A    between atoms: C1_5  and  C2_6 
REMARK    3  A    between atoms: C2_6  and  C3_7 
REMARK    4  A    between atoms: C3_7  and  C4_8 
REMARK    5  A    between atoms: C6_15  and  C7_16 
REMARK    6  A    between atoms: C7_16  and  C8_17 
ROOT
HETATM    1  C4  UNL     1      45.345  34.894  18.104  1.00  0.00     0.059 A 
HETATM    2  N2  UNL     1      44.183  35.217  17.490  1.00  0.00    -0.307 N 
ATOM      3  H2  UNL     1      44.045  35.209  16.480  1.00  0.00     0.170 HD
HETATM    4  C5  UNL     1      43.238  35.550  18.379  1.00  0.00     0.325 A 
HETATM    5  O1  UNL     1      42.052  35.901  18.151  1.00  0.00    -0.247 OA
HETATM    6  N3  UNL     1      43.819  35.435  19.610  1.00  0.00    -0.306 N 
ATOM      7  H3  UNL     1      43.362  35.619  20.503  1.00  0.00     0.170 HD
HETATM    8  C6  UNL     1      45.093  35.039  19.452  1.00  0.00     0.063 A 
ENDROOT
BRANCH   1   9
HETATM    9  C3  UNL     1      46.465  34.522  17.512  1.00  0.00     0.007 C 
BRANCH   9  10
HETATM   10  C2  UNL     1      47.200  35.491  16.674  1.00  0.00     0.056 C 
BRANCH  10  11
HETATM   11  C1  UNL     1      48.068  34.821  15.642  1.00  0.00     0.233 C 
BRANCH  11  12
HETATM   12  N1  UNL     1      47.696  33.415  15.613  1.00  0.00    -0.079 N 
ATOM     13  H13 UNL     1      46.818  33.223  16.095  1.00  0.00     0.274 HD
ATOM     14  H12 UNL     1      47.409  33.096  14.687  1.00  0.00     0.274 HD
ATOM     15  H11 UNL     1      48.482  32.886  15.990  1.00  0.00     0.274 HD
ENDBRANCH  11  12
ENDBRANCH  10  11
ENDBRANCH   9  10
ENDBRANCH   1   9
BRANCH   8  16
HETATM   16  C7  UNL     1      45.931  34.832  20.449  1.00  0.00     0.043 C 
BRANCH  16  17
HETATM   17  C8  UNL     1      47.003  35.776  20.775  1.00  0.00    -0.034 A 
HETATM   18  C9  UNL     1      48.254  35.573  20.232  1.00  0.00     0.011 A 
HETATM   19  C10 UNL     1      49.246  36.476  20.554  1.00  0.00     0.001 A 
HETATM   20  C11 UNL     1      49.042  37.557  21.388  1.00  0.00     0.000 A 
HETATM   21  C12 UNL     1      47.783  37.743  21.922  1.00  0.00     0.001 A 
HETATM   22  C13 UNL     1      46.779  36.855  21.613  1.00  0.00     0.011 A 
ENDBRANCH  16  17
ENDBRANCH   8  16
TORSDOF 6
ENDMDL
MODEL 5
REMARK VINA RESULT: -7.299351484      2.080      3.790
REMARK  6 active torsions:
REMARK  status: ('A' for Active; 'I' for Inactive)
REMARK    1  A    between atoms: N1_1  and  C1_5 
REMARK    2  A    between atoms: C1_5  and  C2_6 
REMARK    3  A    between atoms: C2_6  and  C3_7 
REMARK    4  A    between atoms: C3_7  and  C4_8 
REMARK    5  A    between atoms: C6_15  and  C7_16 
REMARK    6  A    between atoms: C7_16  and  C8_17 
ROOT
HETATM    1  C4  UNL     1      46.128  35.041  17.267  1.00  0.00     0.059 A 
HETATM    2  N2  UNL     1      46.284  34.917  15.929  1.00  0.00    -0.307 N 
ATOM      3  H2  UNL     1      45.600  35.228  15.239  1.00  0.00     0.170 HD
HETATM    4  C5  UNL     1      47.452  34.335  15.626  1.00  0.00     0.325 A 
HETATM    5  O1  UNL     1      47.910  34.071  14.485  1.00  0.00    -0.247 OA
HETATM    6  N3  UNL     1      48.066  34.076  16.819  1.00  0.00    -0.306 N 
ATOM      7  H3  UNL     1      48.978  33.634  16.934  1.00  0.00     0.170 HD
HETATM    8  C6  UNL     1      47.272  34.500  17.815  1.00  0.00     0.063 A 
ENDROOT
BRANCH   1   9
HETATM    9  C3  UNL     1      45.090  35.571  17.888  1.00  0.00     0.007 C 
BRANCH   9  10
HETATM   10  C2  UNL     1      44.055  34.685  18.459  1.00  0.00     0.056 C 
BRANCH  10  11
HETATM   11  C1  UNL     1      42.784  35.421  18.791  1.00  0.00     0.233 C 
BRANCH  11  12
HETATM   12  N1  UNL     1      42.422  36.207  17.621  1.00  0.00    -0.079 N 
ATOM     13  H13 UNL     1      41.901  37.053  17.853  1.00  0.00     0.274 HD
ATOM     14  H12 UNL     1      43.222  36.662  17.182  1.00  0.00     0.274 HD
ATOM     15  H11 UNL     1      41.917  35.589  16.987  1.00  0.00     0.274 HD
ENDBRANCH  11  12
ENDBRANCH  10  11
ENDBRANCH   9  10
ENDBRANCH   1   9
BRANCH   8  16
HETATM   16  C7  UNL     1      47.575  34.397  19.095  1.00  0.00     0.043 C 
BRANCH  16  17
HETATM   17  C8  UNL     1      47.250  33.203  19.879  1.00  0.00    -0.034 A 
HETATM   18  C9  UNL     1      47.996  32.059  19.687  1.00  0.00     0.011 A 
HETATM   19  C10 UNL     1      47.671  30.949  20.438  1.00  0.00     0.001 A 
HETATM   20  C11 UNL     1      46.642  30.935  21.359  1.00  0.00     0.000 A 
HETATM   21  C12 UNL     1      45.906  32.089  21.537  1.00  0.00     0.001 A 
HETATM   22  C13 UNL     1      46.215  33.208  20.799  1.00  0.00     0.011 A 
ENDBRANCH  16  17
ENDBRANCH   8  16
TORSDOF 6
ENDMDL
