MODEL 1
REMARK VINA RESULT: -6.031532654      0.000      0.000
REMARK  5 active torsions:
REMARK  status: ('A' for Active; 'I' for Inactive)
REMARK    1  A    between atoms: C1_2  and  N2_4 
REMARK    2  A    between atoms: N2_4  and  C2_6 
REMARK    3  A    between atoms: C2_6  and  C3_7 
REMARK    4  A    between atoms: C3_7  and  C4_8 
REMARK    5  A    between atoms: C4_8  and  N3_9 
ROOT
HETATM    1  N3  UNL     1      45.668  35.328  16.577  1.00  0.00    -0.226 N 
ATOM      2  H3  UNL     1      45.273  35.301  15.637  1.00  0.00     0.177 HD
HETATM    3  C5  UNL     1      44.886  35.412  17.599  1.00  0.00     0.677 A 
HETATM    4  N4  UNL     1      45.415  35.451  18.908  1.00  0.00    -0.202 N 
ATOM      5  H4  UNL     1      46.425  35.413  19.040  1.00  0.00     0.183 HD
HETATM    6  C6  UNL     1      44.633  35.535  19.956  1.00  0.00     0.107 A 
HETATM    7  C7  UNL     1      43.188  35.588  19.763  1.00  0.00     0.035 A 
HETATM    8  C8  UNL     1      42.617  35.555  18.560  1.00  0.00     0.107 A 
HETATM    9  N5  UNL     1      43.484  35.464  17.426  1.00  0.00    -0.202 N 
ATOM     10  H5  UNL     1      43.088  35.437  16.487  1.00  0.00     0.183 HD
ENDROOT
BRANCH   1  11
HETATM   11  C4  UNL     1      47.113  35.274  16.759  1.00  0.00     0.139 C 
BRANCH  11  12
HETATM   12  C3  UNL     1      47.718  34.123  15.998  1.00  0.00     0.040 C 
BRANCH  12  13
HETATM   13  C2  UNL     1      48.229  33.056  16.930  1.00  0.00     0.123 C 
BRANCH  13  14
HETATM   14  N2  UNL     1      47.229  32.570  17.855  1.00  0.00    -0.369 N 
ATOM     15  H2  UNL     1      46.345  32.232  17.471  1.00  0.00     0.161 HD
BRANCH  14  16
HETATM   16  C1  UNL     1      47.401  32.534  19.255  1.00  0.00     0.180 C 
HETATM   17  N1  UNL     1      47.659  33.716  19.992  1.00  0.00    -0.070 NA
HETATM   18  S1  UNL     1      47.316  31.145  20.122  1.00  0.00    -0.044 SA
ENDBRANCH  14  16
ENDBRANCH  13  14
ENDBRANCH  12  13
ENDBRANCH  11  12
ENDBRANCH   1  11
TORSDOF 5
ENDMDL
MODEL 2
REMARK VINA RESULT: -5.898222213      2.346      4.533
REMARK  5 active torsions:
REMARK  status: ('A' for Active; 'I' for Inactive)
REMARK    1  A    between atoms: C1_2  and  N2_4 
REMARK    2  A    between atoms: N2_4  and  C2_6 
REMARK    3  A    between atoms: C2_6  and  C3_7 
REMARK    4  A    between atoms: C3_7  and  C4_8 
REMARK    5  A    between atoms: C4_8  and  N3_9 
ROOT
HETATM    1  N3  UNL     1      47.563  32.114  18.268  1.00  0.00    -0.226 N 
ATOM      2  H3  UNL     1      47.590  31.240  17.744  1.00  0.00     0.177 HD
HETATM    3  C5  UNL     1      47.633  33.239  17.641  1.00  0.00     0.677 A 
HETATM    4  N4  UNL     1      47.597  34.461  18.349  1.00  0.00    -0.202 N 
ATOM      5  H4  UNL     1      47.516  34.447  19.365  1.00  0.00     0.183 HD
HETATM    6  C6  UNL     1      47.667  35.611  17.726  1.00  0.00     0.107 A 
HETATM    7  C7  UNL     1      47.783  35.627  16.272  1.00  0.00     0.035 A 
HETATM    8  C8  UNL     1      47.822  34.517  15.537  1.00  0.00     0.107 A 
HETATM    9  N5  UNL     1      47.746  33.268  16.232  1.00  0.00    -0.202 N 
ATOM     10  H5  UNL     1      47.773  32.394  15.708  1.00  0.00     0.183 HD
ENDROOT
BRANCH   1  11
HETATM   11  C4  UNL     1      47.446  32.088  19.721  1.00  0.00     0.139 C 
BRANCH  11  12
HETATM   12  C3  UNL     1      46.119  31.522  20.152  1.00  0.00     0.040 C 
BRANCH  12  13
HETATM   13  C2  UNL     1      45.219  32.594  20.709  1.00  0.00     0.123 C 
BRANCH  13  14
HETATM   14  N2  UNL     1      44.405  33.243  19.705  1.00  0.00    -0.369 N 
ATOM     15  H2  UNL     1      43.928  32.656  19.022  1.00  0.00     0.161 HD
BRANCH  14  16
HETATM   16  C1  UNL     1      44.233  34.641  19.614  1.00  0.00     0.180 C 
HETATM   17  N1  UNL     1      45.145  35.533  20.229  1.00  0.00    -0.070 NA
HETATM   18  S1  UNL     1      42.986  35.328  18.802  1.00  0.00    -0.044 SA
ENDBRANCH  14  16
ENDBRANCH  13  14
ENDBRANCH  12  13
ENDBRANCH  11  12
ENDBRANCH   1  11
TORSDOF 5
ENDMDL
MODEL 3
REMARK VINA RESULT: -5.845078922      2.618      4.386
REMARK  5 active torsions:
REMARK  status: ('A' for Active; 'I' for Inactive)
REMARK    1  A    between atoms: C1_2  and  N2_4 
REMARK    2  A    between atoms: N2_4  and  C2_6 
REMARK    3  A    between atoms: C2_6  and  C3_7 
REMARK    4  A    between atoms: C3_7  and  C4_8 
REMARK    5  A    between atoms: C4_8  and  N3_9 
ROOT
HETATM    1  N3  UNL     1      47.986  31.833  17.922  1.00  0.00    -0.226 N 
ATOM      2  H3  UNL     1      47.969  31.052  17.267  1.00  0.00     0.177 HD
HETATM    3  C5  UNL     1      47.830  33.037  17.488  1.00  0.00     0.677 A 
HETATM    4  N4  UNL     1      47.851  34.132  18.380  1.00  0.00    -0.202 N 
ATOM      5  H4  UNL     1      47.991  33.963  19.376  1.00  0.00     0.183 HD
HETATM    6  C6  UNL     1      47.693  35.361  17.953  1.00  0.00     0.107 A 
HETATM    7  C7  UNL     1      47.491  35.599  16.529  1.00  0.00     0.035 A 
HETATM    8  C8  UNL     1      47.459  34.618  15.629  1.00  0.00     0.107 A 
HETATM    9  N5  UNL     1      47.634  33.282  16.110  1.00  0.00    -0.202 N 
ATOM     10  H5  UNL     1      47.617  32.501  15.454  1.00  0.00     0.183 HD
ENDROOT
BRANCH   1  11
HETATM   11  C4  UNL     1      48.188  31.585  19.345  1.00  0.00     0.139 C 
BRANCH  11  12
HETATM   12  C3  UNL     1      46.997  30.891  19.952  1.00  0.00     0.040 C 
BRANCH  12  13
HETATM   13  C2  UNL     1      46.485  31.634  21.159  1.00  0.00     0.123 C 
BRANCH  13  14
HETATM   14  N2  UNL     1      46.073  32.989  20.869  1.00  0.00    -0.369 N 
ATOM     15  H2  UNL     1      46.725  33.745  21.083  1.00  0.00     0.161 HD
BRANCH  14  16
HETATM   16  C1  UNL     1      44.823  33.330  20.309  1.00  0.00     0.180 C 
HETATM   17  N1  UNL     1      43.798  32.364  20.163  1.00  0.00    -0.070 NA
HETATM   18  S1  UNL     1      44.467  34.845  19.795  1.00  0.00    -0.044 SA
ENDBRANCH  14  16
ENDBRANCH  13  14
ENDBRANCH  12  13
ENDBRANCH  11  12
ENDBRANCH   1  11
TORSDOF 5
ENDMDL
MODEL 4
REMARK VINA RESULT: -5.816411741      3.131      4.332
REMARK  5 active torsions:
REMARK  status: ('A' for Active; 'I' for Inactive)
REMARK    1  A    between atoms: C1_2  and  N2_4 
REMARK    2  A    between atoms: N2_4  and  C2_6 
REMARK    3  A    between atoms: C2_6  and  C3_7 
REMARK    4  A    between atoms: C3_7  and  C4_8 
REMARK    5  A    between atoms: C4_8  and  N3_9 
ROOT
HETATM    1  N3  UNL     1      48.319  32.581  17.189  1.00  0.00    -0.226 N 
ATOM      2  H3  UNL     1      49.240  32.229  16.928  1.00  0.00     0.177 HD
HETATM    3  C5  UNL     1      47.795  32.236  18.315  1.00  0.00     0.677 A 
HETATM    4  N4  UNL     1      46.522  32.713  18.693  1.00  0.00    -0.202 N 
ATOM      5  H4  UNL     1      46.015  33.338  18.065  1.00  0.00     0.183 HD
HETATM    6  C6  UNL     1      45.977  32.371  19.835  1.00  0.00     0.107 A 
HETATM    7  C7  UNL     1      46.704  31.479  20.730  1.00  0.00     0.035 A 
HETATM    8  C8  UNL     1      47.908  30.989  20.442  1.00  0.00     0.107 A 
HETATM    9  N5  UNL     1      48.489  31.371  19.192  1.00  0.00    -0.202 N 
ATOM     10  H5  UNL     1      49.410  31.018  18.932  1.00  0.00     0.183 HD
ENDROOT
BRANCH   1  11
HETATM   11  C4  UNL     1      47.601  33.474  16.287  1.00  0.00     0.139 C 
BRANCH  11  12
HETATM   12  C3  UNL     1      48.273  34.819  16.199  1.00  0.00     0.040 C 
BRANCH  12  13
HETATM   13  C2  UNL     1      47.613  35.823  17.109  1.00  0.00     0.123 C 
BRANCH  13  14
HETATM   14  N2  UNL     1      48.490  36.330  18.140  1.00  0.00    -0.369 N 
ATOM     15  H2  UNL     1      49.327  36.838  17.851  1.00  0.00     0.161 HD
BRANCH  14  16
HETATM   16  C1  UNL     1      48.259  36.166  19.522  1.00  0.00     0.180 C 
HETATM   17  N1  UNL     1      47.053  35.597  20.001  1.00  0.00    -0.070 NA
HETATM   18  S1  UNL     1      49.351  36.609  20.662  1.00  0.00    -0.044 SA
ENDBRANCH  14  16
ENDBRANCH  13  14
ENDBRANCH  12  13
ENDBRANCH  11  12
ENDBRANCH   1  11
TORSDOF 5
ENDMDL
MODEL 5
REMARK VINA RESULT: -5.792660224      1.846      3.648
REMARK  5 active torsions:
REMARK  status: ('A' for Active; 'I' for Inactive)
REMARK    1  A    between atoms: C1_2  and  N2_4 
REMARK    2  A    between atoms: N2_4  and  C2_6 
REMARK    3  A    between atoms: C2_6  and  C3_7 
REMARK    4  A    between atoms: C3_7  and  C4_8 
REMARK    5  A    between atoms: C4_8  and  N3_9 
ROOT
HETATM    1  N3  UNL     1      44.455  34.396  18.233  1.00  0.00    -0.226 N 
ATOM      2  H3  UNL     1      43.833  34.097  17.482  1.00  0.00     0.177 HD
HETATM    3  C5  UNL     1      45.613  34.887  17.949  1.00  0.00     0.677 A 
HETATM    4  N4  UNL     1      46.488  35.306  18.975  1.00  0.00    -0.202 N 
ATOM      5  H4  UNL     1      46.196  35.218  19.948  1.00  0.00     0.183 HD
HETATM    6  C6  UNL     1      47.668  35.807  18.702  1.00  0.00     0.107 A 
HETATM    7  C7  UNL     1      48.082  35.932  17.309  1.00  0.00     0.035 A 
HETATM    8  C8  UNL     1      47.311  35.559  16.289  1.00  0.00     0.107 A 
HETATM    9  N5  UNL     1      46.027  35.014  16.603  1.00  0.00    -0.202 N 
ATOM     10  H5  UNL     1      45.405  34.715  15.852  1.00  0.00     0.183 HD
ENDROOT
BRANCH   1  11
HETATM   11  C4  UNL     1      44.032  34.267  19.622  1.00  0.00     0.139 C 
BRANCH  11  12
HETATM   12  C3  UNL     1      44.153  32.844  20.102  1.00  0.00     0.040 C 
BRANCH  12  13
HETATM   13  C2  UNL     1      45.197  32.716  21.181  1.00  0.00     0.123 C 
BRANCH  13  14
HETATM   14  N2  UNL     1      46.547  32.628  20.671  1.00  0.00    -0.369 N 
ATOM     15  H2  UNL     1      47.214  33.347  20.953  1.00  0.00     0.161 HD
BRANCH  14  16
HETATM   16  C1  UNL     1      46.997  31.609  19.805  1.00  0.00     0.180 C 
HETATM   17  N1  UNL     1      46.682  30.250  20.048  1.00  0.00    -0.070 NA
HETATM   18  S1  UNL     1      47.902  31.914  18.473  1.00  0.00    -0.044 SA
ENDBRANCH  14  16
ENDBRANCH  13  14
ENDBRANCH  12  13
ENDBRANCH  11  12
ENDBRANCH   1  11
TORSDOF 5
ENDMDL
