MODEL 1
REMARK VINA RESULT: -5.730958889      0.000      0.000
REMARK  8 active torsions:
REMARK  status: ('A' for Active; 'I' for Inactive)
REMARK    1  A    between atoms: C2_2  and  C3_3 
REMARK    2  A    between atoms: C3_3  and  C4_4 
REMARK    3  A    between atoms: C4_4  and  C5_5 
REMARK    4  A    between atoms: C5_5  and  C6_6 
REMARK    5  A    between atoms: C6_6  and  O1_8 
REMARK    6  A    between atoms: C6_6  and  C8_10 
REMARK    7  A    between atoms: C8_10  and  C9_11 
REMARK    8  A    between atoms: C9_11  and  C10_12 
ROOT
HETATM    1  C6  UNL     1       3.671   2.077  22.277  1.00  0.00     0.054 C 
HETATM    2  C7  UNL     1       3.271   1.977  23.715  1.00  0.00     0.045 C 
ENDROOT
BRANCH   1   3
HETATM    3  C5  UNL     1       2.529   1.507  21.446  1.00  0.00     0.038 C 
BRANCH   3   4
HETATM    4  C4  UNL     1       1.606   0.781  22.363  1.00  0.00     0.007 C 
BRANCH   4   5
HETATM    5  C3  UNL     1       1.455  -0.676  22.047  1.00  0.00     0.026 C 
BRANCH   5   6
HETATM    6  C2  UNL     1       1.744  -1.575  23.160  1.00  0.00    -0.037 C 
HETATM    7  C1  UNL     1       0.939  -1.590  24.213  1.00  0.00     0.007 C 
ENDBRANCH   5   6
ENDBRANCH   4   5
ENDBRANCH   3   4
ENDBRANCH   1   3
BRANCH   1   8
HETATM    8  O1  UNL     1       4.829   1.331  22.080  1.00  0.00    -0.390 OA
ATOM      9  H1  UNL     1       5.192   1.510  21.220  1.00  0.00     0.210 HD
ENDBRANCH   1   8
BRANCH   1  10
HETATM   10  C8  UNL     1       3.899   3.487  21.808  1.00  0.00     0.041 C 
BRANCH  10  11
HETATM   11  C9  UNL     1       2.900   3.984  20.833  1.00  0.00     0.029 C 
BRANCH  11  12
HETATM   12  C10 UNL     1       2.154   5.121  21.421  1.00  0.00    -0.037 C 
HETATM   13  C11 UNL     1       2.170   5.299  22.727  1.00  0.00     0.007 C 
ENDBRANCH  11  12
ENDBRANCH  10  11
ENDBRANCH   1  10
TORSDOF 8
ENDMDL
MODEL 2
REMARK VINA RESULT: -5.552711287      1.053      4.715
REMARK  8 active torsions:
REMARK  status: ('A' for Active; 'I' for Inactive)
REMARK    1  A    between atoms: C2_2  and  C3_3 
REMARK    2  A    between atoms: C3_3  and  C4_4 
REMARK    3  A    between atoms: C4_4  and  C5_5 
REMARK    4  A    between atoms: C5_5  and  C6_6 
REMARK    5  A    between atoms: C6_6  and  O1_8 
REMARK    6  A    between atoms: C6_6  and  C8_10 
REMARK    7  A    between atoms: C8_10  and  C9_11 
REMARK    8  A    between atoms: C9_11  and  C10_12 
ROOT
HETATM    1  C6  UNL     1       3.794   1.408  21.834  1.00  0.00     0.054 C 
HETATM    2  C7  UNL     1       4.328   0.107  21.325  1.00  0.00     0.045 C 
ENDROOT
BRANCH   1   3
HETATM    3  C5  UNL     1       3.256   2.180  20.637  1.00  0.00     0.038 C 
BRANCH   3   4
HETATM    4  C4  UNL     1       3.910   3.519  20.617  1.00  0.00     0.007 C 
BRANCH   4   5
HETATM    5  C3  UNL     1       2.950   4.664  20.499  1.00  0.00     0.026 C 
BRANCH   5   6
HETATM    6  C2  UNL     1       1.972   4.756  21.578  1.00  0.00    -0.037 C 
HETATM    7  C1  UNL     1       2.360   5.166  22.778  1.00  0.00     0.007 C 
ENDBRANCH   5   6
ENDBRANCH   4   5
ENDBRANCH   3   4
ENDBRANCH   1   3
BRANCH   1   8
HETATM    8  O1  UNL     1       4.831   2.115  22.435  1.00  0.00    -0.390 OA
ATOM      9  H1  UNL     1       4.820   1.978  23.376  1.00  0.00     0.210 HD
ENDBRANCH   1   8
BRANCH   1  10
HETATM   10  C8  UNL     1       2.660   1.258  22.811  1.00  0.00     0.041 C 
BRANCH  10  11
HETATM   11  C9  UNL     1       1.504   0.484  22.301  1.00  0.00     0.029 C 
BRANCH  11  12
HETATM   12  C10 UNL     1       1.189  -0.616  23.243  1.00  0.00    -0.037 C 
HETATM   13  C11 UNL     1       1.688  -1.817  23.025  1.00  0.00     0.007 C 
ENDBRANCH  11  12
ENDBRANCH  10  11
ENDBRANCH   1  10
TORSDOF 8
ENDMDL
MODEL 3
REMARK VINA RESULT: -5.499392716      1.247      1.734
REMARK  8 active torsions:
REMARK  status: ('A' for Active; 'I' for Inactive)
REMARK    1  A    between atoms: C2_2  and  C3_3 
REMARK    2  A    between atoms: C3_3  and  C4_4 
REMARK    3  A    between atoms: C4_4  and  C5_5 
REMARK    4  A    between atoms: C5_5  and  C6_6 
REMARK    5  A    between atoms: C6_6  and  O1_8 
REMARK    6  A    between atoms: C6_6  and  C8_10 
REMARK    7  A    between atoms: C8_10  and  C9_11 
REMARK    8  A    between atoms: C9_11  and  C10_12 
ROOT
HETATM    1  C6  UNL     1       3.307   1.241  21.538  1.00  0.00     0.054 C 
HETATM    2  C7  UNL     1       4.134   0.003  21.394  1.00  0.00     0.045 C 
ENDROOT
BRANCH   1   3
HETATM    3  C5  UNL     1       1.931   0.816  22.030  1.00  0.00     0.038 C 
BRANCH   3   4
HETATM    4  C4  UNL     1       2.110   0.026  23.281  1.00  0.00     0.007 C 
BRANCH   4   5
HETATM    5  C3  UNL     1       1.065  -1.028  23.491  1.00  0.00     0.026 C 
BRANCH   5   6
HETATM    6  C2  UNL     1       1.162  -1.740  24.761  1.00  0.00    -0.037 C 
HETATM    7  C1  UNL     1       0.060  -2.203  25.336  1.00  0.00     0.007 C 
ENDBRANCH   5   6
ENDBRANCH   4   5
ENDBRANCH   3   4
ENDBRANCH   1   3
BRANCH   1   8
HETATM    8  O1  UNL     1       3.204   1.860  20.296  1.00  0.00    -0.390 OA
ATOM      9  H1  UNL     1       3.277   2.803  20.391  1.00  0.00     0.210 HD
ENDBRANCH   1   8
BRANCH   1  10
HETATM   10  C8  UNL     1       3.852   2.222  22.540  1.00  0.00     0.041 C 
BRANCH  10  11
HETATM   11  C9  UNL     1       3.925   3.621  22.059  1.00  0.00     0.029 C 
BRANCH  11  12
HETATM   12  C10 UNL     1       2.757   4.382  22.562  1.00  0.00    -0.037 C 
HETATM   13  C11 UNL     1       2.094   5.168  21.738  1.00  0.00     0.007 C 
ENDBRANCH  11  12
ENDBRANCH  10  11
ENDBRANCH   1  10
TORSDOF 8
ENDMDL
MODEL 4
REMARK VINA RESULT: -5.447117558      1.519      4.656
REMARK  8 active torsions:
REMARK  status: ('A' for Active; 'I' for Inactive)
REMARK    1  A    between atoms: C2_2  and  C3_3 
REMARK    2  A    between atoms: C3_3  and  C4_4 
REMARK    3  A    between atoms: C4_4  and  C5_5 
REMARK    4  A    between atoms: C5_5  and  C6_6 
REMARK    5  A    between atoms: C6_6  and  O1_8 
REMARK    6  A    between atoms: C6_6  and  C8_10 
REMARK    7  A    between atoms: C8_10  and  C9_11 
REMARK    8  A    between atoms: C9_11  and  C10_12 
ROOT
HETATM    1  C6  UNL     1       4.184   0.075  20.972  1.00  0.00     0.054 C 
HETATM    2  C7  UNL     1       4.171  -0.351  19.539  1.00  0.00     0.045 C 
ENDROOT
BRANCH   1   3
HETATM    3  C5  UNL     1       3.600   1.479  21.036  1.00  0.00     0.038 C 
BRANCH   3   4
HETATM    4  C4  UNL     1       4.037   2.105  22.316  1.00  0.00     0.007 C 
BRANCH   4   5
HETATM    5  C3  UNL     1       2.971   2.912  22.995  1.00  0.00     0.026 C 
BRANCH   5   6
HETATM    6  C2  UNL     1       2.225   3.804  22.113  1.00  0.00    -0.037 C 
HETATM    7  C1  UNL     1       2.237   5.110  22.343  1.00  0.00     0.007 C 
ENDBRANCH   5   6
ENDBRANCH   4   5
ENDBRANCH   3   4
ENDBRANCH   1   3
BRANCH   1   8
HETATM    8  O1  UNL     1       5.499   0.079  21.428  1.00  0.00    -0.390 OA
ATOM      9  H1  UNL     1       5.675  -0.708  21.930  1.00  0.00     0.210 HD
ENDBRANCH   1   8
BRANCH   1  10
HETATM   10  C8  UNL     1       3.347  -0.794  21.871  1.00  0.00     0.041 C 
BRANCH  10  11
HETATM   11  C9  UNL     1       1.889  -0.721  21.618  1.00  0.00     0.029 C 
BRANCH  11  12
HETATM   12  C10 UNL     1       1.174  -0.484  22.895  1.00  0.00    -0.037 C 
HETATM   13  C11 UNL     1       1.362  -1.312  23.904  1.00  0.00     0.007 C 
ENDBRANCH  11  12
ENDBRANCH  10  11
ENDBRANCH   1  10
TORSDOF 8
ENDMDL
MODEL 5
REMARK VINA RESULT: -5.437607118      1.189      5.403
REMARK  8 active torsions:
REMARK  status: ('A' for Active; 'I' for Inactive)
REMARK    1  A    between atoms: C2_2  and  C3_3 
REMARK    2  A    between atoms: C3_3  and  C4_4 
REMARK    3  A    between atoms: C4_4  and  C5_5 
REMARK    4  A    between atoms: C5_5  and  C6_6 
REMARK    5  A    between atoms: C6_6  and  O1_8 
REMARK    6  A    between atoms: C6_6  and  C8_10 
REMARK    7  A    between atoms: C8_10  and  C9_11 
REMARK    8  A    between atoms: C9_11  and  C10_12 
ROOT
HETATM    1  C6  UNL     1       2.317   0.450  22.905  1.00  0.00     0.054 C 
HETATM    2  C7  UNL     1       1.052   0.853  22.215  1.00  0.00     0.045 C 
ENDROOT
BRANCH   1   3
HETATM    3  C5  UNL     1       2.961   1.717  23.451  1.00  0.00     0.038 C 
BRANCH   3   4
HETATM    4  C4  UNL     1       4.011   2.155  22.489  1.00  0.00     0.007 C 
BRANCH   4   5
HETATM    5  C3  UNL     1       3.904   3.593  22.082  1.00  0.00     0.026 C 
BRANCH   5   6
HETATM    6  C2  UNL     1       2.657   4.246  22.469  1.00  0.00    -0.037 C 
HETATM    7  C1  UNL     1       2.097   5.123  21.648  1.00  0.00     0.007 C 
ENDBRANCH   5   6
ENDBRANCH   4   5
ENDBRANCH   3   4
ENDBRANCH   1   3
BRANCH   1   8
HETATM    8  O1  UNL     1       3.160  -0.158  21.979  1.00  0.00    -0.390 OA
ATOM      9  H1  UNL     1       3.974   0.327  21.908  1.00  0.00     0.210 HD
ENDBRANCH   1   8
BRANCH   1  10
HETATM   10  C8  UNL     1       2.104  -0.477  24.070  1.00  0.00     0.041 C 
BRANCH  10  11
HETATM   11  C9  UNL     1       0.903  -1.338  23.963  1.00  0.00     0.029 C 
BRANCH  11  12
HETATM   12  C10 UNL     1       0.754  -2.139  25.201  1.00  0.00    -0.037 C 
HETATM   13  C11 UNL     1      -0.424  -2.207  25.789  1.00  0.00     0.007 C 
ENDBRANCH  11  12
ENDBRANCH  10  11
ENDBRANCH   1  10
TORSDOF 8
ENDMDL
