MODEL 1
REMARK VINA RESULT: -6.024656826      0.000      0.000
REMARK  7 active torsions:
REMARK  status: ('A' for Active; 'I' for Inactive)
REMARK    1  A    between atoms: C2_2  and  C3_3 
REMARK    2  A    between atoms: C3_3  and  C4_4 
REMARK    3  A    between atoms: C4_4  and  C5_5 
REMARK    4  A    between atoms: C5_5  and  C6_6 
REMARK    5  A    between atoms: C6_6  and  C7_7 
REMARK    6  A    between atoms: C7_7  and  N1_8 
REMARK    7  A    between atoms: N1_8  and  C8_11 
ROOT
HETATM    1  C7  UNL     1       1.860  -0.760  23.618  1.00  0.00     0.232 C 
ENDROOT
BRANCH   1   2
HETATM    2  C6  UNL     1       1.128  -0.017  22.551  1.00  0.00     0.027 C 
BRANCH   2   3
HETATM    3  C5  UNL     1       1.886   1.223  22.124  1.00  0.00     0.002 C 
BRANCH   3   4
HETATM    4  C4  UNL     1       2.827   1.623  23.235  1.00  0.00     0.004 C 
BRANCH   4   5
HETATM    5  C3  UNL     1       3.457   2.978  22.922  1.00  0.00     0.026 C 
BRANCH   5   6
HETATM    6  C2  UNL     1       2.472   3.826  22.199  1.00  0.00    -0.037 C 
HETATM    7  C1  UNL     1       2.292   5.099  22.507  1.00  0.00     0.007 C 
ENDBRANCH   5   6
ENDBRANCH   4   5
ENDBRANCH   3   4
ENDBRANCH   2   3
ENDBRANCH   1   2
BRANCH   1   8
HETATM    8  N1  UNL     1       1.210  -1.987  23.945  1.00  0.00    -0.071 N 
ATOM      9  H12 UNL     1       0.340  -2.112  23.426  1.00  0.00     0.277 HD
ATOM     10  H11 UNL     1       1.713  -2.798  23.582  1.00  0.00     0.277 HD
BRANCH   8  11
HETATM   11  C8  UNL     1       1.010  -2.063  25.366  1.00  0.00     0.185 C 
HETATM   12  C9  UNL     1      -0.441  -2.034  25.803  1.00  0.00     0.033 C 
HETATM   13  C10 UNL     1      -0.015  -3.000  26.920  1.00  0.00     0.004 C 
HETATM   14  C11 UNL     1       1.041  -3.494  25.921  1.00  0.00     0.033 C 
ENDBRANCH   8  11
ENDBRANCH   1   8
TORSDOF 7
ENDMDL
MODEL 2
REMARK VINA RESULT: -6.016761674      1.835      6.529
REMARK  7 active torsions:
REMARK  status: ('A' for Active; 'I' for Inactive)
REMARK    1  A    between atoms: C2_2  and  C3_3 
REMARK    2  A    between atoms: C3_3  and  C4_4 
REMARK    3  A    between atoms: C4_4  and  C5_5 
REMARK    4  A    between atoms: C5_5  and  C6_6 
REMARK    5  A    between atoms: C6_6  and  C7_7 
REMARK    6  A    between atoms: C7_7  and  N1_8 
REMARK    7  A    between atoms: N1_8  and  C8_11 
ROOT
HETATM    1  C7  UNL     1       3.086   1.561  22.817  1.00  0.00     0.232 C 
ENDROOT
BRANCH   1   2
HETATM    2  C6  UNL     1       2.608   0.307  22.166  1.00  0.00     0.027 C 
BRANCH   2   3
HETATM    3  C5  UNL     1       1.297  -0.160  22.768  1.00  0.00     0.002 C 
BRANCH   3   4
HETATM    4  C4  UNL     1       1.461  -1.584  23.238  1.00  0.00     0.004 C 
BRANCH   4   5
HETATM    5  C3  UNL     1       1.406  -1.639  24.763  1.00  0.00     0.026 C 
BRANCH   5   6
HETATM    6  C2  UNL     1       0.050  -2.074  25.194  1.00  0.00    -0.037 C 
HETATM    7  C1  UNL     1      -0.208  -2.407  26.447  1.00  0.00     0.007 C 
ENDBRANCH   5   6
ENDBRANCH   4   5
ENDBRANCH   3   4
ENDBRANCH   2   3
ENDBRANCH   1   2
BRANCH   1   8
HETATM    8  N1  UNL     1       4.151   2.162  22.081  1.00  0.00    -0.071 N 
ATOM      9  H12 UNL     1       5.060   1.993  22.511  1.00  0.00     0.277 HD
ATOM     10  H11 UNL     1       4.319   1.689  21.193  1.00  0.00     0.277 HD
BRANCH   8  11
HETATM   11  C8  UNL     1       3.885   3.564  21.907  1.00  0.00     0.185 C 
HETATM   12  C9  UNL     1       3.284   3.933  20.566  1.00  0.00     0.033 C 
HETATM   13  C10 UNL     1       2.489   5.001  21.332  1.00  0.00     0.004 C 
HETATM   14  C11 UNL     1       2.551   4.022  22.514  1.00  0.00     0.033 C 
ENDBRANCH   8  11
ENDBRANCH   1   8
TORSDOF 7
ENDMDL
MODEL 3
REMARK VINA RESULT: -6.011481864      1.730      6.499
REMARK  7 active torsions:
REMARK  status: ('A' for Active; 'I' for Inactive)
REMARK    1  A    between atoms: C2_2  and  C3_3 
REMARK    2  A    between atoms: C3_3  and  C4_4 
REMARK    3  A    between atoms: C4_4  and  C5_5 
REMARK    4  A    between atoms: C5_5  and  C6_6 
REMARK    5  A    between atoms: C6_6  and  C7_7 
REMARK    6  A    between atoms: C7_7  and  N1_8 
REMARK    7  A    between atoms: N1_8  and  C8_11 
ROOT
HETATM    1  C7  UNL     1       2.849   0.891  22.081  1.00  0.00     0.232 C 
ENDROOT
BRANCH   1   2
HETATM    2  C6  UNL     1       1.457   0.476  22.422  1.00  0.00     0.027 C 
BRANCH   2   3
HETATM    3  C5  UNL     1       1.389  -1.003  22.749  1.00  0.00     0.002 C 
BRANCH   3   4
HETATM    4  C4  UNL     1       1.384  -1.168  24.249  1.00  0.00     0.004 C 
BRANCH   4   5
HETATM    5  C3  UNL     1       0.558  -2.393  24.636  1.00  0.00     0.026 C 
BRANCH   5   6
HETATM    6  C2  UNL     1      -0.250  -2.081  25.846  1.00  0.00    -0.037 C 
HETATM    7  C1  UNL     1      -0.035  -2.688  27.001  1.00  0.00     0.007 C 
ENDBRANCH   5   6
ENDBRANCH   4   5
ENDBRANCH   3   4
ENDBRANCH   2   3
ENDBRANCH   1   2
BRANCH   1   8
HETATM    8  N1  UNL     1       2.861   2.033  21.226  1.00  0.00    -0.071 N 
ATOM      9  H12 UNL     1       3.807   2.295  20.947  1.00  0.00     0.277 HD
ATOM     10  H11 UNL     1       2.489   1.823  20.299  1.00  0.00     0.277 HD
BRANCH   8  11
HETATM   11  C8  UNL     1       2.162   3.117  21.859  1.00  0.00     0.185 C 
HETATM   12  C9  UNL     1       2.987   3.906  22.855  1.00  0.00     0.033 C 
HETATM   13  C10 UNL     1       2.204   5.136  22.372  1.00  0.00     0.004 C 
HETATM   14  C11 UNL     1       2.126   4.405  21.024  1.00  0.00     0.033 C 
ENDBRANCH   8  11
ENDBRANCH   1   8
TORSDOF 7
ENDMDL
MODEL 4
REMARK VINA RESULT: -5.922730904      0.690      1.056
REMARK  7 active torsions:
REMARK  status: ('A' for Active; 'I' for Inactive)
REMARK    1  A    between atoms: C2_2  and  C3_3 
REMARK    2  A    between atoms: C3_3  and  C4_4 
REMARK    3  A    between atoms: C4_4  and  C5_5 
REMARK    4  A    between atoms: C5_5  and  C6_6 
REMARK    5  A    between atoms: C6_6  and  C7_7 
REMARK    6  A    between atoms: C7_7  and  N1_8 
REMARK    7  A    between atoms: N1_8  and  C8_11 
ROOT
HETATM    1  C7  UNL     1       1.379  -1.197  23.765  1.00  0.00     0.232 C 
ENDROOT
BRANCH   1   2
HETATM    2  C6  UNL     1       1.453  -0.632  22.386  1.00  0.00     0.027 C 
BRANCH   2   3
HETATM    3  C5  UNL     1       1.410   0.883  22.409  1.00  0.00     0.002 C 
BRANCH   3   4
HETATM    4  C4  UNL     1       2.810   1.410  22.205  1.00  0.00     0.004 C 
BRANCH   4   5
HETATM    5  C3  UNL     1       2.946   2.790  22.845  1.00  0.00     0.026 C 
BRANCH   5   6
HETATM    6  C2  UNL     1       2.210   3.789  22.024  1.00  0.00    -0.037 C 
HETATM    7  C1  UNL     1       2.160   5.067  22.363  1.00  0.00     0.007 C 
ENDBRANCH   5   6
ENDBRANCH   4   5
ENDBRANCH   3   4
ENDBRANCH   2   3
ENDBRANCH   1   2
BRANCH   1   8
HETATM    8  N1  UNL     1       1.261  -2.619  23.743  1.00  0.00    -0.071 N 
ATOM      9  H12 UNL     1       0.815  -2.956  22.889  1.00  0.00     0.277 HD
ATOM     10  H11 UNL     1       2.164  -3.079  23.628  1.00  0.00     0.277 HD
BRANCH   8  11
HETATM   11  C8  UNL     1       0.572  -3.063  24.924  1.00  0.00     0.185 C 
HETATM   12  C9  UNL     1       1.315  -2.813  26.221  1.00  0.00     0.033 C 
HETATM   13  C10 UNL     1      -0.067  -2.563  26.843  1.00  0.00     0.004 C 
HETATM   14  C11 UNL     1      -0.469  -2.063  25.448  1.00  0.00     0.033 C 
ENDBRANCH   8  11
ENDBRANCH   1   8
TORSDOF 7
ENDMDL
MODEL 5
REMARK VINA RESULT: -5.896090508      1.794      5.948
REMARK  7 active torsions:
REMARK  status: ('A' for Active; 'I' for Inactive)
REMARK    1  A    between atoms: C2_2  and  C3_3 
REMARK    2  A    between atoms: C3_3  and  C4_4 
REMARK    3  A    between atoms: C4_4  and  C5_5 
REMARK    4  A    between atoms: C5_5  and  C6_6 
REMARK    5  A    between atoms: C6_6  and  C7_7 
REMARK    6  A    between atoms: C7_7  and  N1_8 
REMARK    7  A    between atoms: N1_8  and  C8_11 
ROOT
HETATM    1  C7  UNL     1       3.296   0.300  21.138  1.00  0.00     0.232 C 
ENDROOT
BRANCH   1   2
HETATM    2  C6  UNL     1       2.872  -0.948  21.836  1.00  0.00     0.027 C 
BRANCH   2   3
HETATM    3  C5  UNL     1       1.458  -0.828  22.367  1.00  0.00     0.002 C 
BRANCH   3   4
HETATM    4  C4  UNL     1       1.498  -0.910  23.874  1.00  0.00     0.004 C 
BRANCH   4   5
HETATM    5  C3  UNL     1       0.976  -2.269  24.336  1.00  0.00     0.026 C 
BRANCH   5   6
HETATM    6  C2  UNL     1      -0.076  -2.068  25.368  1.00  0.00    -0.037 C 
HETATM    7  C1  UNL     1       0.086  -2.477  26.616  1.00  0.00     0.007 C 
ENDBRANCH   5   6
ENDBRANCH   4   5
ENDBRANCH   3   4
ENDBRANCH   2   3
ENDBRANCH   1   2
BRANCH   1   8
HETATM    8  N1  UNL     1       4.427   0.896  21.772  1.00  0.00    -0.071 N 
ATOM      9  H12 UNL     1       4.754   0.351  22.569  1.00  0.00     0.277 HD
ATOM     10  H11 UNL     1       5.268   0.833  21.197  1.00  0.00     0.277 HD
BRANCH   8  11
HETATM   11  C8  UNL     1       4.118   2.253  22.133  1.00  0.00     0.185 C 
HETATM   12  C9  UNL     1       2.966   2.866  21.364  1.00  0.00     0.033 C 
HETATM   13  C10 UNL     1       2.622   3.600  22.668  1.00  0.00     0.004 C 
HETATM   14  C11 UNL     1       3.220   2.374  23.373  1.00  0.00     0.033 C 
ENDBRANCH   8  11
ENDBRANCH   1   8
TORSDOF 7
ENDMDL
