MODEL 1
REMARK VINA RESULT: -6.291504562      0.000      0.000
REMARK  8 active torsions:
REMARK  status: ('A' for Active; 'I' for Inactive)
REMARK    1  A    between atoms: C2_2  and  C3_3 
REMARK    2  A    between atoms: C3_3  and  C4_4 
REMARK    3  A    between atoms: C4_4  and  C5_5 
REMARK    4  A    between atoms: C5_5  and  N1_6 
REMARK    5  A    between atoms: N1_6  and  C6_8 
REMARK    6  A    between atoms: C6_8  and  C7_9 
REMARK    7  A    between atoms: C7_9  and  C8_10 
REMARK    8  A    between atoms: C8_10  and  C9_11 
ROOT
HETATM    1  N1  UNL     1       1.611   0.580  22.436  1.00  0.00    -0.421 N 
ATOM      2  H1  UNL     1       0.826   1.202  22.635  1.00  0.00     0.153 HD
ENDROOT
BRANCH   1   3
HETATM    3  C5  UNL     1       2.914   1.072  22.146  1.00  0.00     0.114 C 
BRANCH   3   4
HETATM    4  C4  UNL     1       3.304   2.164  23.102  1.00  0.00     0.023 C 
BRANCH   4   5
HETATM    5  C3  UNL     1       3.671   3.459  22.423  1.00  0.00     0.028 C 
BRANCH   5   6
HETATM    6  C2  UNL     1       2.535   4.397  22.510  1.00  0.00    -0.037 C 
HETATM    7  C1  UNL     1       2.094   5.115  21.497  1.00  0.00     0.007 C 
ENDBRANCH   5   6
ENDBRANCH   4   5
ENDBRANCH   3   4
ENDBRANCH   1   3
BRANCH   1   8
HETATM    8  C6  UNL     1       1.473  -0.856  22.432  1.00  0.00     0.113 C 
BRANCH   8   9
HETATM    9  C7  UNL     1       1.118  -1.297  23.806  1.00  0.00     0.020 C 
BRANCH   9  10
HETATM   10  C8  UNL     1       1.236  -2.798  24.001  1.00  0.00     0.006 C 
BRANCH  10  11
HETATM   11  C9  UNL     1       0.153  -3.166  24.994  1.00  0.00    -0.014 C 
HETATM   12  C10 UNL     1      -0.355  -2.031  25.842  1.00  0.00     0.005 C 
HETATM   13  C11 UNL     1      -0.110  -2.935  27.058  1.00  0.00     0.001 C 
HETATM   14  C12 UNL     1       0.747  -3.860  26.184  1.00  0.00     0.005 C 
ENDBRANCH  10  11
ENDBRANCH   9  10
ENDBRANCH   8   9
ENDBRANCH   1   8
TORSDOF 8
ENDMDL
MODEL 2
REMARK VINA RESULT: -6.227212336      0.736      1.077
REMARK  8 active torsions:
REMARK  status: ('A' for Active; 'I' for Inactive)
REMARK    1  A    between atoms: C2_2  and  C3_3 
REMARK    2  A    between atoms: C3_3  and  C4_4 
REMARK    3  A    between atoms: C4_4  and  C5_5 
REMARK    4  A    between atoms: C5_5  and  N1_6 
REMARK    5  A    between atoms: N1_6  and  C6_8 
REMARK    6  A    between atoms: C6_8  and  C7_9 
REMARK    7  A    between atoms: C7_9  and  C8_10 
REMARK    8  A    between atoms: C8_10  and  C9_11 
ROOT
HETATM    1  N1  UNL     1       2.757   0.233  21.819  1.00  0.00    -0.421 N 
ATOM      2  H1  UNL     1       3.646   0.218  21.320  1.00  0.00     0.153 HD
ENDROOT
BRANCH   1   3
HETATM    3  C5  UNL     1       2.259   1.409  22.448  1.00  0.00     0.114 C 
BRANCH   3   4
HETATM    4  C4  UNL     1       3.370   2.184  23.099  1.00  0.00     0.023 C 
BRANCH   4   5
HETATM    5  C3  UNL     1       3.719   3.460  22.378  1.00  0.00     0.028 C 
BRANCH   5   6
HETATM    6  C2  UNL     1       2.605   4.419  22.510  1.00  0.00    -0.037 C 
HETATM    7  C1  UNL     1       2.148   5.160  21.521  1.00  0.00     0.007 C 
ENDBRANCH   5   6
ENDBRANCH   4   5
ENDBRANCH   3   4
ENDBRANCH   1   3
BRANCH   1   8
HETATM    8  C6  UNL     1       1.919  -0.936  21.935  1.00  0.00     0.113 C 
BRANCH   8   9
HETATM    9  C7  UNL     1       1.227  -0.889  23.249  1.00  0.00     0.020 C 
BRANCH   9  10
HETATM   10  C8  UNL     1       1.195  -2.232  23.955  1.00  0.00     0.006 C 
BRANCH  10  11
HETATM   11  C9  UNL     1       0.917  -1.921  25.411  1.00  0.00    -0.014 C 
HETATM   12  C10 UNL     1       1.288  -3.007  26.384  1.00  0.00     0.005 C 
HETATM   13  C11 UNL     1      -0.128  -2.866  26.959  1.00  0.00     0.001 C 
HETATM   14  C12 UNL     1      -0.545  -2.077  25.710  1.00  0.00     0.005 C 
ENDBRANCH  10  11
ENDBRANCH   9  10
ENDBRANCH   8   9
ENDBRANCH   1   8
TORSDOF 8
ENDMDL
MODEL 3
REMARK VINA RESULT: -6.201912565      0.866      6.874
REMARK  8 active torsions:
REMARK  status: ('A' for Active; 'I' for Inactive)
REMARK    1  A    between atoms: C2_2  and  C3_3 
REMARK    2  A    between atoms: C3_3  and  C4_4 
REMARK    3  A    between atoms: C4_4  and  C5_5 
REMARK    4  A    between atoms: C5_5  and  N1_6 
REMARK    5  A    between atoms: N1_6  and  C6_8 
REMARK    6  A    between atoms: C6_8  and  C7_9 
REMARK    7  A    between atoms: C7_9  and  C8_10 
REMARK    8  A    between atoms: C8_10  and  C9_11 
ROOT
HETATM    1  N1  UNL     1       1.751  -0.778  21.917  1.00  0.00    -0.421 N 
ATOM      2  H1  UNL     1       1.882  -0.951  20.921  1.00  0.00     0.153 HD
ENDROOT
BRANCH   1   3
HETATM    3  C5  UNL     1       1.850  -1.814  22.888  1.00  0.00     0.114 C 
BRANCH   3   4
HETATM    4  C4  UNL     1       1.136  -1.436  24.155  1.00  0.00     0.023 C 
BRANCH   4   5
HETATM    5  C3  UNL     1       0.368  -2.574  24.778  1.00  0.00     0.028 C 
BRANCH   5   6
HETATM    6  C2  UNL     1      -0.118  -2.166  26.110  1.00  0.00    -0.037 C 
HETATM    7  C1  UNL     1       0.009  -2.899  27.198  1.00  0.00     0.007 C 
ENDBRANCH   5   6
ENDBRANCH   4   5
ENDBRANCH   3   4
ENDBRANCH   1   3
BRANCH   1   8
HETATM    8  C6  UNL     1       1.454   0.535  22.438  1.00  0.00     0.113 C 
BRANCH   8   9
HETATM    9  C7  UNL     1       2.527   1.466  22.002  1.00  0.00     0.020 C 
BRANCH   9  10
HETATM   10  C8  UNL     1       2.967   2.423  23.095  1.00  0.00     0.006 C 
BRANCH  10  11
HETATM   11  C9  UNL     1       3.273   3.730  22.393  1.00  0.00    -0.014 C 
HETATM   12  C10 UNL     1       2.419   4.898  22.806  1.00  0.00     0.005 C 
HETATM   13  C11 UNL     1       2.156   5.133  21.312  1.00  0.00     0.001 C 
HETATM   14  C12 UNL     1       2.696   3.729  21.008  1.00  0.00     0.005 C 
ENDBRANCH  10  11
ENDBRANCH   9  10
ENDBRANCH   8   9
ENDBRANCH   1   8
TORSDOF 8
ENDMDL
MODEL 4
REMARK VINA RESULT: -6.181791553      0.882      6.870
REMARK  8 active torsions:
REMARK  status: ('A' for Active; 'I' for Inactive)
REMARK    1  A    between atoms: C2_2  and  C3_3 
REMARK    2  A    between atoms: C3_3  and  C4_4 
REMARK    3  A    between atoms: C4_4  and  C5_5 
REMARK    4  A    between atoms: C5_5  and  N1_6 
REMARK    5  A    between atoms: N1_6  and  C6_8 
REMARK    6  A    between atoms: C6_8  and  C7_9 
REMARK    7  A    between atoms: C7_9  and  C8_10 
REMARK    8  A    between atoms: C8_10  and  C9_11 
ROOT
HETATM    1  N1  UNL     1       1.188  -0.226  22.790  1.00  0.00    -0.421 N 
ATOM      2  H1  UNL     1       0.306  -0.095  23.285  1.00  0.00     0.153 HD
ENDROOT
BRANCH   1   3
HETATM    3  C5  UNL     1       1.776  -1.510  22.615  1.00  0.00     0.114 C 
BRANCH   3   4
HETATM    4  C4  UNL     1       1.403  -2.432  23.741  1.00  0.00     0.023 C 
BRANCH   4   5
HETATM    5  C3  UNL     1       1.189  -1.726  25.055  1.00  0.00     0.028 C 
BRANCH   5   6
HETATM    6  C2  UNL     1      -0.013  -2.273  25.716  1.00  0.00    -0.037 C 
HETATM    7  C1  UNL     1      -0.045  -2.677  26.969  1.00  0.00     0.007 C 
ENDBRANCH   5   6
ENDBRANCH   4   5
ENDBRANCH   3   4
ENDBRANCH   1   3
BRANCH   1   8
HETATM    8  C6  UNL     1       1.922   0.877  22.219  1.00  0.00     0.113 C 
BRANCH   8   9
HETATM    9  C7  UNL     1       2.827   1.428  23.262  1.00  0.00     0.020 C 
BRANCH   9  10
HETATM   10  C8  UNL     1       3.513   2.714  22.840  1.00  0.00     0.006 C 
BRANCH  10  11
HETATM   11  C9  UNL     1       2.455   3.522  22.120  1.00  0.00    -0.014 C 
HETATM   12  C10 UNL     1       2.876   4.101  20.796  1.00  0.00     0.005 C 
HETATM   13  C11 UNL     1       2.354   5.450  21.308  1.00  0.00     0.001 C 
HETATM   14  C12 UNL     1       2.327   4.884  22.735  1.00  0.00     0.005 C 
ENDBRANCH  10  11
ENDBRANCH   9  10
ENDBRANCH   8   9
ENDBRANCH   1   8
TORSDOF 8
ENDMDL
MODEL 5
REMARK VINA RESULT: -5.907506785      1.149      1.518
REMARK  8 active torsions:
REMARK  status: ('A' for Active; 'I' for Inactive)
REMARK    1  A    between atoms: C2_2  and  C3_3 
REMARK    2  A    between atoms: C3_3  and  C4_4 
REMARK    3  A    between atoms: C4_4  and  C5_5 
REMARK    4  A    between atoms: C5_5  and  N1_6 
REMARK    5  A    between atoms: N1_6  and  C6_8 
REMARK    6  A    between atoms: C6_8  and  C7_9 
REMARK    7  A    between atoms: C7_9  and  C8_10 
REMARK    8  A    between atoms: C8_10  and  C9_11 
ROOT
HETATM    1  N1  UNL     1       3.161  -0.823  21.945  1.00  0.00    -0.421 N 
ATOM      2  H1  UNL     1       3.681  -1.169  22.752  1.00  0.00     0.153 HD
ENDROOT
BRANCH   1   3
HETATM    3  C5  UNL     1       3.792  -0.124  20.879  1.00  0.00     0.114 C 
BRANCH   3   4
HETATM    4  C4  UNL     1       3.578   1.358  21.004  1.00  0.00     0.023 C 
BRANCH   4   5
HETATM    5  C3  UNL     1       3.999   1.919  22.338  1.00  0.00     0.028 C 
BRANCH   5   6
HETATM    6  C2  UNL     1       2.938   2.807  22.854  1.00  0.00    -0.037 C 
HETATM    7  C1  UNL     1       2.155   3.541  22.089  1.00  0.00     0.007 C 
ENDBRANCH   5   6
ENDBRANCH   4   5
ENDBRANCH   3   4
ENDBRANCH   1   3
BRANCH   1   8
HETATM    8  C6  UNL     1       1.736  -1.010  21.809  1.00  0.00     0.113 C 
BRANCH   8   9
HETATM    9  C7  UNL     1       1.081  -0.546  23.059  1.00  0.00     0.020 C 
BRANCH   9  10
HETATM   10  C8  UNL     1       1.556  -1.289  24.294  1.00  0.00     0.006 C 
BRANCH  10  11
HETATM   11  C9  UNL     1       0.420  -2.213  24.677  1.00  0.00    -0.014 C 
HETATM   12  C10 UNL     1      -0.055  -2.095  26.100  1.00  0.00     0.005 C 
HETATM   13  C11 UNL     1       0.094  -3.619  26.193  1.00  0.00     0.001 C 
HETATM   14  C12 UNL     1       0.931  -3.605  24.906  1.00  0.00     0.005 C 
ENDBRANCH  10  11
ENDBRANCH   9  10
ENDBRANCH   8   9
ENDBRANCH   1   8
TORSDOF 8
ENDMDL
