MODEL 1
REMARK VINA RESULT: -8.476415470      0.000      0.000
REMARK  6 active torsions:
REMARK  status: ('A' for Active; 'I' for Inactive)
REMARK    1  A    between atoms: C2_2  and  O1_3 
REMARK    2  A    between atoms: O1_3  and  C3_4 
REMARK    3  A    between atoms: C3_4  and  C4_6 
REMARK    4  A    between atoms: C8_12  and  C9_13 
REMARK    5  A    between atoms: C9_13  and  C10_14 
REMARK    6  A    between atoms: C19_31  and  N5_32 
ROOT
HETATM    1  N5  UNL     1      35.816   4.306  11.345  1.00  0.00    -0.305 N 
HETATM    2  C20 UNL     1      36.073   3.848  12.580  1.00  0.00     0.187 A 
HETATM    3  N6  UNL     1      37.079   2.955  12.556  1.00  0.00    -0.342 N 
ATOM      4  H6  UNL     1      37.475   2.455  13.352  1.00  0.00     0.167 HD
HETATM    5  C21 UNL     1      37.460   2.856  11.259  1.00  0.00     0.130 A 
HETATM    6  C22 UNL     1      38.531   1.991  10.783  1.00  0.00     0.119 C 
HETATM    7  N7  UNL     1      39.377   1.296  10.413  1.00  0.00    -0.190 NA
HETATM    8  C23 UNL     1      36.671   3.697  10.525  1.00  0.00     0.137 A 
ENDROOT
BRANCH   1   9
HETATM    9  C19 UNL     1      34.783   5.282  11.058  1.00  0.00     0.359 C 
HETATM   10  N4  UNL     1      33.641   4.604  10.534  1.00  0.00    -0.379 N 
HETATM   11  C18 UNL     1      32.384   5.014  11.081  1.00  0.00     0.118 C 
ATOM     12  H4  UNL     1      33.715   3.880   9.821  1.00  0.00     0.157 HD
HETATM   13  C17 UNL     1      31.318   3.953  11.034  1.00  0.00     0.020 C 
HETATM   14  C16 UNL     1      30.662   4.008   9.647  1.00  0.00     0.011 C 
HETATM   15  C15 UNL     1      31.113   2.826   8.901  1.00  0.00     0.103 C 
HETATM   16  C14 UNL     1      30.758   2.700   7.485  1.00  0.00     0.217 C 
HETATM   17  N3  UNL     1      30.016   3.515   6.635  1.00  0.00    -0.360 N 
HETATM   18  O3  UNL     1      31.239   1.617   6.951  1.00  0.00    -0.274 OA
HETATM   19  C13 UNL     1      30.172   4.890   6.291  1.00  0.00     0.133 C 
ATOM     20  H3  UNL     1      29.228   3.051   6.183  1.00  0.00     0.162 HD
HETATM   21  C8  UNL     1      31.451   5.258   5.579  1.00  0.00     0.060 C 
HETATM   22  C7  UNL     1      32.640   5.364   6.505  1.00  0.00     0.034 A 
HETATM   23  C4  UNL     1      33.113   6.242   7.461  1.00  0.00     0.092 A 
HETATM   24  N1  UNL     1      33.508   4.283   6.415  1.00  0.00    -0.366 N 
HETATM   25  C5  UNL     1      34.291   5.643   7.938  1.00  0.00     0.088 A 
HETATM   26  C6  UNL     1      34.504   4.415   7.254  1.00  0.00     0.120 A 
HETATM   27  N8  UNL     1      35.319   5.924   8.919  1.00  0.00    -0.260 N 
HETATM   28  O4  UNL     1      35.194   6.282  10.227  1.00  0.00    -0.232 OA
ATOM     29  H8  UNL     1      36.278   5.842   8.581  1.00  0.00     0.194 HD
ATOM     30  H1  UNL     1      33.384   3.494   5.781  1.00  0.00     0.165 HD
BRANCH  21  31
HETATM   31  C9  UNL     1      31.647   4.337   4.391  1.00  0.00     0.077 C 
BRANCH  31  32
HETATM   32  C10 UNL     1      32.404   5.104   3.330  1.00  0.00     0.051 A 
HETATM   33  N2  UNL     1      33.304   4.638   2.475  1.00  0.00    -0.363 N 
HETATM   34  C11 UNL     1      33.854   5.439   1.626  1.00  0.00     0.095 A 
ATOM     35  H2  UNL     1      33.560   3.651   2.489  1.00  0.00     0.165 HD
HETATM   36  C12 UNL     1      33.475   6.757   1.645  1.00  0.00     0.068 A 
HETATM   37  S1  UNL     1      32.329   6.759   2.913  1.00  0.00    -0.087 SA
ENDBRANCH  31  32
ENDBRANCH  21  31
BRANCH  23  38
HETATM   38  C3  UNL     1      32.515   7.574   7.919  1.00  0.00     0.297 C 
HETATM   39  O2  UNL     1      32.626   8.052   9.073  1.00  0.00    -0.259 OA
BRANCH  38  40
HETATM   40  O1  UNL     1      31.778   8.442   7.169  1.00  0.00    -0.318 OA
BRANCH  40  41
HETATM   41  C2  UNL     1      30.407   8.534   7.108  1.00  0.00     0.174 C 
HETATM   42  C1  UNL     1      29.965   8.700   5.650  1.00  0.00     0.034 C 
ENDBRANCH  40  41
ENDBRANCH  38  40
ENDBRANCH  23  38
ENDBRANCH   1   9
TORSDOF 6
ENDMDL
MODEL 2
REMARK VINA RESULT: -8.123987614      2.743      8.042
REMARK  6 active torsions:
REMARK  status: ('A' for Active; 'I' for Inactive)
REMARK    1  A    between atoms: C2_2  and  O1_3 
REMARK    2  A    between atoms: O1_3  and  C3_4 
REMARK    3  A    between atoms: C3_4  and  C4_6 
REMARK    4  A    between atoms: C8_12  and  C9_13 
REMARK    5  A    between atoms: C9_13  and  C10_14 
REMARK    6  A    between atoms: C19_31  and  N5_32 
ROOT
HETATM    1  N5  UNL     1      29.304   5.671   3.799  1.00  0.00    -0.305 N 
HETATM    2  C20 UNL     1      28.407   5.357   2.851  1.00  0.00     0.187 A 
HETATM    3  N6  UNL     1      28.791   5.838   1.655  1.00  0.00    -0.342 N 
ATOM      4  H6  UNL     1      28.297   5.743   0.768  1.00  0.00     0.167 HD
HETATM    5  C21 UNL     1      29.968   6.475   1.869  1.00  0.00     0.130 A 
HETATM    6  C22 UNL     1      30.738   7.145   0.830  1.00  0.00     0.119 C 
HETATM    7  N7  UNL     1      31.339   7.681   0.001  1.00  0.00    -0.190 NA
HETATM    8  C23 UNL     1      30.271   6.362   3.197  1.00  0.00     0.137 A 
ENDROOT
BRANCH   1   9
HETATM    9  C19 UNL     1      29.160   5.285   5.189  1.00  0.00     0.359 C 
HETATM   10  N4  UNL     1      30.062   6.060   5.979  1.00  0.00    -0.379 N 
HETATM   11  C18 UNL     1      29.510   6.603   7.181  1.00  0.00     0.118 C 
ATOM     12  H4  UNL     1      31.033   6.214   5.706  1.00  0.00     0.157 HD
HETATM   13  C17 UNL     1      30.189   7.858   7.657  1.00  0.00     0.020 C 
HETATM   14  C16 UNL     1      31.415   7.445   8.483  1.00  0.00     0.011 C 
HETATM   15  C15 UNL     1      32.607   7.749   7.679  1.00  0.00     0.103 C 
HETATM   16  C14 UNL     1      33.921   7.316   8.162  1.00  0.00     0.217 C 
HETATM   17  N3  UNL     1      34.312   6.640   9.315  1.00  0.00    -0.360 N 
HETATM   18  O3  UNL     1      34.878   7.636   7.343  1.00  0.00    -0.274 OA
HETATM   19  C13 UNL     1      33.900   5.381   9.844  1.00  0.00     0.133 C 
ATOM     20  H3  UNL     1      35.011   7.128   9.876  1.00  0.00     0.162 HD
HETATM   21  C8  UNL     1      34.201   4.172   8.993  1.00  0.00     0.060 C 
HETATM   22  C7  UNL     1      33.236   3.995   7.844  1.00  0.00     0.034 A 
HETATM   23  C4  UNL     1      31.927   3.592   7.663  1.00  0.00     0.092 A 
HETATM   24  N1  UNL     1      33.773   4.351   6.613  1.00  0.00    -0.366 N 
HETATM   25  C5  UNL     1      31.704   3.724   6.283  1.00  0.00     0.088 A 
HETATM   26  C6  UNL     1      32.889   4.202   5.659  1.00  0.00     0.120 A 
HETATM   27  N8  UNL     1      30.619   3.520   5.344  1.00  0.00    -0.260 N 
HETATM   28  O4  UNL     1      29.329   3.949   5.405  1.00  0.00    -0.232 OA
ATOM     29  H8  UNL     1      30.857   2.973   4.517  1.00  0.00     0.194 HD
ATOM     30  H1  UNL     1      34.727   4.684   6.473  1.00  0.00     0.165 HD
BRANCH  21  31
HETATM   31  C9  UNL     1      35.665   4.184   8.601  1.00  0.00     0.077 C 
BRANCH  31  32
HETATM   32  C10 UNL     1      36.442   3.476   9.690  1.00  0.00     0.051 A 
HETATM   33  N2  UNL     1      35.970   2.932  10.803  1.00  0.00    -0.363 N 
HETATM   34  C11 UNL     1      36.780   2.359  11.628  1.00  0.00     0.095 A 
ATOM     35  H2  UNL     1      34.971   2.968  11.007  1.00  0.00     0.165 HD
HETATM   36  C12 UNL     1      38.114   2.336  11.309  1.00  0.00     0.068 A 
HETATM   37  S1  UNL     1      38.116   3.160   9.811  1.00  0.00    -0.087 SA
ENDBRANCH  31  32
ENDBRANCH  21  31
BRANCH  23  38
HETATM   38  C3  UNL     1      30.922   3.105   8.709  1.00  0.00     0.297 C 
HETATM   39  O2  UNL     1      29.742   2.754   8.463  1.00  0.00    -0.259 OA
BRANCH  38  40
HETATM   40  O1  UNL     1      31.133   2.972  10.050  1.00  0.00    -0.318 OA
BRANCH  40  41
HETATM   41  C2  UNL     1      30.349   3.465  11.068  1.00  0.00     0.174 C 
HETATM   42  C1  UNL     1      31.209   4.306  12.018  1.00  0.00     0.034 C 
ENDBRANCH  40  41
ENDBRANCH  38  40
ENDBRANCH  23  38
ENDBRANCH   1   9
TORSDOF 6
ENDMDL
MODEL 3
REMARK VINA RESULT: -8.039700899      1.096      1.186
REMARK  6 active torsions:
REMARK  status: ('A' for Active; 'I' for Inactive)
REMARK    1  A    between atoms: C2_2  and  O1_3 
REMARK    2  A    between atoms: O1_3  and  C3_4 
REMARK    3  A    between atoms: C3_4  and  C4_6 
REMARK    4  A    between atoms: C8_12  and  C9_13 
REMARK    5  A    between atoms: C9_13  and  C10_14 
REMARK    6  A    between atoms: C19_31  and  N5_32 
ROOT
HETATM    1  N5  UNL     1      35.986   3.906  11.481  1.00  0.00    -0.305 N 
HETATM    2  C20 UNL     1      36.183   3.188  12.597  1.00  0.00     0.187 A 
HETATM    3  N6  UNL     1      37.216   2.339  12.440  1.00  0.00    -0.342 N 
ATOM      4  H6  UNL     1      37.579   1.681  13.129  1.00  0.00     0.167 HD
HETATM    5  C21 UNL     1      37.674   2.538  11.181  1.00  0.00     0.130 A 
HETATM    6  C22 UNL     1      38.796   1.817  10.593  1.00  0.00     0.119 C 
HETATM    7  N7  UNL     1      39.683   1.236  10.133  1.00  0.00    -0.190 NA
HETATM    8  C23 UNL     1      36.904   3.508  10.602  1.00  0.00     0.137 A 
ENDROOT
BRANCH   1   9
HETATM    9  C19 UNL     1      34.943   4.904  11.352  1.00  0.00     0.359 C 
HETATM   10  N4  UNL     1      33.783   4.291  10.788  1.00  0.00    -0.379 N 
HETATM   11  C18 UNL     1      32.546   4.623  11.424  1.00  0.00     0.118 C 
ATOM     12  H4  UNL     1      33.834   3.660   9.988  1.00  0.00     0.157 HD
HETATM   13  C17 UNL     1      31.480   3.571  11.283  1.00  0.00     0.020 C 
HETATM   14  C16 UNL     1      30.776   3.794   9.937  1.00  0.00     0.011 C 
HETATM   15  C15 UNL     1      31.201   2.714   9.036  1.00  0.00     0.103 C 
HETATM   16  C14 UNL     1      30.798   2.762   7.628  1.00  0.00     0.217 C 
HETATM   17  N3  UNL     1      30.026   3.672   6.911  1.00  0.00    -0.360 N 
HETATM   18  O3  UNL     1      31.261   1.756   6.948  1.00  0.00    -0.274 OA
HETATM   19  C13 UNL     1      30.169   5.080   6.734  1.00  0.00     0.133 C 
ATOM     20  H3  UNL     1      29.223   3.263   6.433  1.00  0.00     0.162 HD
HETATM   21  C8  UNL     1      31.423   5.539   6.030  1.00  0.00     0.060 C 
HETATM   22  C7  UNL     1      32.643   5.537   6.921  1.00  0.00     0.034 A 
HETATM   23  C4  UNL     1      33.148   6.292   7.961  1.00  0.00     0.092 A 
HETATM   24  N1  UNL     1      33.508   4.479   6.668  1.00  0.00    -0.366 N 
HETATM   25  C5  UNL     1      34.343   5.645   8.320  1.00  0.00     0.088 A 
HETATM   26  C6  UNL     1      34.533   4.511   7.482  1.00  0.00     0.120 A 
HETATM   27  N8  UNL     1      35.403   5.808   9.292  1.00  0.00    -0.260 N 
HETATM   28  O4  UNL     1      35.323   6.002  10.637  1.00  0.00    -0.232 OA
ATOM     29  H8  UNL     1      36.350   5.772   8.914  1.00  0.00     0.194 HD
ATOM     30  H1  UNL     1      33.363   3.773   5.946  1.00  0.00     0.165 HD
BRANCH  21  31
HETATM   31  C9  UNL     1      31.578   4.773   4.731  1.00  0.00     0.077 C 
BRANCH  31  32
HETATM   32  C10 UNL     1      31.083   5.658   3.609  1.00  0.00     0.051 A 
HETATM   33  N2  UNL     1      29.900   5.628   3.011  1.00  0.00    -0.363 N 
HETATM   34  C11 UNL     1      29.641   6.467   2.065  1.00  0.00     0.095 A 
ATOM     35  H2  UNL     1      29.199   4.946   3.297  1.00  0.00     0.165 HD
HETATM   36  C12 UNL     1      30.616   7.367   1.716  1.00  0.00     0.068 A 
HETATM   37  S1  UNL     1      31.870   6.937   2.795  1.00  0.00    -0.087 SA
ENDBRANCH  31  32
ENDBRANCH  21  31
BRANCH  23  38
HETATM   38  C3  UNL     1      32.565   7.554   8.600  1.00  0.00     0.297 C 
HETATM   39  O2  UNL     1      32.516   7.778   9.833  1.00  0.00    -0.259 OA
BRANCH  38  40
HETATM   40  O1  UNL     1      32.015   8.621   7.953  1.00  0.00    -0.318 OA
BRANCH  40  41
HETATM   41  C2  UNL     1      30.683   8.832   7.680  1.00  0.00     0.174 C 
HETATM   42  C1  UNL     1      30.466   8.864   6.163  1.00  0.00     0.034 C 
ENDBRANCH  40  41
ENDBRANCH  38  40
ENDBRANCH  23  38
ENDBRANCH   1   9
TORSDOF 6
ENDMDL
MODEL 4
REMARK VINA RESULT: -8.004996282      2.773      7.808
REMARK  6 active torsions:
REMARK  status: ('A' for Active; 'I' for Inactive)
REMARK    1  A    between atoms: C2_2  and  O1_3 
REMARK    2  A    between atoms: O1_3  and  C3_4 
REMARK    3  A    between atoms: C3_4  and  C4_6 
REMARK    4  A    between atoms: C8_12  and  C9_13 
REMARK    5  A    between atoms: C9_13  and  C10_14 
REMARK    6  A    between atoms: C19_31  and  N5_32 
ROOT
HETATM    1  N5  UNL     1      29.680   3.799   4.292  1.00  0.00    -0.305 N 
HETATM    2  C20 UNL     1      28.882   3.144   3.434  1.00  0.00     0.187 A 
HETATM    3  N6  UNL     1      29.382   3.195   2.185  1.00  0.00    -0.342 N 
ATOM      4  H6  UNL     1      28.978   2.782   1.345  1.00  0.00     0.167 HD
HETATM    5  C21 UNL     1      30.531   3.909   2.272  1.00  0.00     0.130 A 
HETATM    6  C22 UNL     1      31.399   4.206   1.141  1.00  0.00     0.119 C 
HETATM    7  N7  UNL     1      32.078   4.443   0.236  1.00  0.00    -0.190 NA
HETATM    8  C23 UNL     1      30.700   4.273   3.579  1.00  0.00     0.137 A 
ENDROOT
BRANCH   1   9
HETATM    9  C19 UNL     1      29.400   3.913   5.709  1.00  0.00     0.359 C 
HETATM   10  N4  UNL     1      30.148   5.006   6.241  1.00  0.00    -0.379 N 
HETATM   11  C18 UNL     1      29.423   5.875   7.115  1.00  0.00     0.118 C 
ATOM     12  H4  UNL     1      31.131   5.156   6.015  1.00  0.00     0.157 HD
HETATM   13  C17 UNL     1      29.954   7.282   7.163  1.00  0.00     0.020 C 
HETATM   14  C16 UNL     1      31.100   7.316   8.184  1.00  0.00     0.011 C 
HETATM   15  C15 UNL     1      32.355   7.443   7.430  1.00  0.00     0.103 C 
HETATM   16  C14 UNL     1      33.629   7.348   8.148  1.00  0.00     0.217 C 
HETATM   17  N3  UNL     1      33.927   7.166   9.495  1.00  0.00    -0.360 N 
HETATM   18  O3  UNL     1      34.652   7.459   7.354  1.00  0.00    -0.274 OA
HETATM   19  C13 UNL     1      33.542   6.136  10.405  1.00  0.00     0.133 C 
ATOM     20  H3  UNL     1      34.520   7.890   9.901  1.00  0.00     0.162 HD
HETATM   21  C8  UNL     1      34.022   4.744  10.076  1.00  0.00     0.060 C 
HETATM   22  C7  UNL     1      33.213   4.074   8.990  1.00  0.00     0.034 A 
HETATM   23  C4  UNL     1      31.965   3.498   8.855  1.00  0.00     0.092 A 
HETATM   24  N1  UNL     1      33.866   4.030   7.764  1.00  0.00    -0.366 N 
HETATM   25  C5  UNL     1      31.897   3.113   7.506  1.00  0.00     0.088 A 
HETATM   26  C6  UNL     1      33.113   3.463   6.855  1.00  0.00     0.120 A 
HETATM   27  N8  UNL     1      30.947   2.478   6.615  1.00  0.00    -0.260 N 
HETATM   28  O4  UNL     1      29.633   2.763   6.405  1.00  0.00    -0.232 OA
ATOM     29  H8  UNL     1      31.318   1.705   6.063  1.00  0.00     0.194 HD
ATOM     30  H1  UNL     1      34.805   4.392   7.596  1.00  0.00     0.165 HD
BRANCH  21  31
HETATM   31  C9  UNL     1      35.518   4.773   9.833  1.00  0.00     0.077 C 
BRANCH  31  32
HETATM   32  C10 UNL     1      36.172   3.885  10.870  1.00  0.00     0.051 A 
HETATM   33  N2  UNL     1      37.112   2.970  10.679  1.00  0.00    -0.363 N 
HETATM   34  C11 UNL     1      37.565   2.300  11.685  1.00  0.00     0.095 A 
ATOM     35  H2  UNL     1      37.475   2.795   9.742  1.00  0.00     0.165 HD
HETATM   36  C12 UNL     1      37.047   2.572  12.926  1.00  0.00     0.068 A 
HETATM   37  S1  UNL     1      35.915   3.798  12.556  1.00  0.00    -0.087 SA
ENDBRANCH  31  32
ENDBRANCH  21  31
BRANCH  23  38
HETATM   38  C3  UNL     1      30.879   3.306   9.916  1.00  0.00     0.297 C 
HETATM   39  O2  UNL     1      31.007   3.582  11.133  1.00  0.00    -0.259 OA
BRANCH  38  40
HETATM   40  O1  UNL     1      29.622   2.814   9.722  1.00  0.00    -0.318 OA
BRANCH  40  41
HETATM   41  C2  UNL     1      28.444   3.525   9.700  1.00  0.00     0.174 C 
HETATM   42  C1  UNL     1      27.273   2.593  10.029  1.00  0.00     0.034 C 
ENDBRANCH  40  41
ENDBRANCH  38  40
ENDBRANCH  23  38
ENDBRANCH   1   9
TORSDOF 6
ENDMDL
MODEL 5
REMARK VINA RESULT: -7.913975333      2.720      7.875
REMARK  6 active torsions:
REMARK  status: ('A' for Active; 'I' for Inactive)
REMARK    1  A    between atoms: C2_2  and  O1_3 
REMARK    2  A    between atoms: O1_3  and  C3_4 
REMARK    3  A    between atoms: C3_4  and  C4_6 
REMARK    4  A    between atoms: C8_12  and  C9_13 
REMARK    5  A    between atoms: C9_13  and  C10_14 
REMARK    6  A    between atoms: C19_31  and  N5_32 
ROOT
HETATM    1  N5  UNL     1      29.027   4.498   4.515  1.00  0.00    -0.305 N 
HETATM    2  C20 UNL     1      28.038   4.022   3.741  1.00  0.00     0.187 A 
HETATM    3  N6  UNL     1      28.296   4.259   2.441  1.00  0.00    -0.342 N 
ATOM      4  H6  UNL     1      27.714   4.004   1.644  1.00  0.00     0.167 HD
HETATM    5  C21 UNL     1      29.487   4.906   2.409  1.00  0.00     0.130 A 
HETATM    6  C22 UNL     1      30.144   5.353   1.188  1.00  0.00     0.119 C 
HETATM    7  N7  UNL     1      30.654   5.711   0.215  1.00  0.00    -0.190 NA
HETATM    8  C23 UNL     1      29.924   5.045   3.697  1.00  0.00     0.137 A 
ENDROOT
BRANCH   1   9
HETATM    9  C19 UNL     1      29.027   4.388   5.960  1.00  0.00     0.359 C 
HETATM   10  N4  UNL     1      29.922   5.363   6.497  1.00  0.00    -0.379 N 
HETATM   11  C18 UNL     1      29.424   6.097   7.619  1.00  0.00     0.118 C 
ATOM     12  H4  UNL     1      30.850   5.524   6.108  1.00  0.00     0.157 HD
HETATM   13  C17 UNL     1      30.030   7.464   7.778  1.00  0.00     0.020 C 
HETATM   14  C16 UNL     1      31.350   7.305   8.547  1.00  0.00     0.011 C 
HETATM   15  C15 UNL     1      32.444   7.523   7.591  1.00  0.00     0.103 C 
HETATM   16  C14 UNL     1      33.823   7.283   8.021  1.00  0.00     0.217 C 
HETATM   17  N3  UNL     1      34.361   6.878   9.240  1.00  0.00    -0.360 N 
HETATM   18  O3  UNL     1      34.681   7.496   7.069  1.00  0.00    -0.274 OA
HETATM   19  C13 UNL     1      34.100   5.725  10.037  1.00  0.00     0.133 C 
ATOM     20  H3  UNL     1      35.059   7.513   9.628  1.00  0.00     0.162 HD
HETATM   21  C8  UNL     1      34.432   4.392   9.411  1.00  0.00     0.060 C 
HETATM   22  C7  UNL     1      33.396   3.927   8.414  1.00  0.00     0.034 A 
HETATM   23  C4  UNL     1      32.116   3.410   8.440  1.00  0.00     0.092 A 
HETATM   24  N1  UNL     1      33.802   4.066   7.093  1.00  0.00    -0.366 N 
HETATM   25  C5  UNL     1      31.772   3.249   7.087  1.00  0.00     0.088 A 
HETATM   26  C6  UNL     1      32.860   3.671   6.273  1.00  0.00     0.120 A 
HETATM   27  N8  UNL     1      30.637   2.790   6.313  1.00  0.00    -0.260 N 
HETATM   28  O4  UNL     1      29.325   3.136   6.412  1.00  0.00    -0.232 OA
ATOM     29  H8  UNL     1      30.854   2.107   5.587  1.00  0.00     0.194 HD
ATOM     30  H1  UNL     1      34.710   4.427   6.801  1.00  0.00     0.165 HD
BRANCH  21  31
HETATM   31  C9  UNL     1      35.854   4.425   8.887  1.00  0.00     0.077 C 
BRANCH  31  32
HETATM   32  C10 UNL     1      36.704   3.569   9.801  1.00  0.00     0.051 A 
HETATM   33  N2  UNL     1      36.344   2.987  10.936  1.00  0.00    -0.363 N 
HETATM   34  C11 UNL     1      37.202   2.283  11.594  1.00  0.00     0.095 A 
ATOM     35  H2  UNL     1      35.393   3.095  11.288  1.00  0.00     0.165 HD
HETATM   36  C12 UNL     1      38.469   2.166  11.079  1.00  0.00     0.068 A 
HETATM   37  S1  UNL     1      38.339   3.099   9.652  1.00  0.00    -0.087 SA
ENDBRANCH  31  32
ENDBRANCH  21  31
BRANCH  23  38
HETATM   38  C3  UNL     1      31.242   3.074   9.650  1.00  0.00     0.297 C 
HETATM   39  O2  UNL     1      31.538   3.330  10.843  1.00  0.00    -0.259 OA
BRANCH  38  40
HETATM   40  O1  UNL     1      30.026   2.457   9.638  1.00  0.00    -0.318 OA
BRANCH  40  41
HETATM   41  C2  UNL     1      28.951   2.719  10.456  1.00  0.00     0.174 C 
HETATM   42  C1  UNL     1      27.810   3.323   9.630  1.00  0.00     0.034 C 
ENDBRANCH  40  41
ENDBRANCH  38  40
ENDBRANCH  23  38
ENDBRANCH   1   9
TORSDOF 6
ENDMDL
