MODEL 1
REMARK VINA RESULT: -9.130243857      0.000      0.000
REMARK  5 active torsions:
REMARK  status: ('A' for Active; 'I' for Inactive)
REMARK    1  A    between atoms: S1_2  and  C2_3 
REMARK    2  A    between atoms: C3_6  and  N2_7 
REMARK    3  A    between atoms: C5_13  and  C6_14 
REMARK    4  A    between atoms: C8_18  and  N5_19 
REMARK    5  A    between atoms: C11_24  and  C12_25 
ROOT
HETATM    1  C12 UNL     1      30.372   3.490   8.827  1.00  0.00     0.157 C 
HETATM    2  C13 UNL     1      31.038   2.180   8.455  1.00  0.00     0.034 C 
HETATM    3  C14 UNL     1      28.909   3.296   8.782  1.00  0.00     0.071 C 
HETATM    4  N7  UNL     1      27.764   3.141   8.759  1.00  0.00    -0.196 NA
ENDROOT
BRANCH   1   5
HETATM    5  C11 UNL     1      30.726   3.896  10.203  1.00  0.00     0.106 A 
HETATM    6  N5  UNL     1      31.929   4.319  10.625  1.00  0.00    -0.293 N 
HETATM    7  C9  UNL     1      31.792   4.580  11.952  1.00  0.00     0.117 A 
HETATM    8  C10 UNL     1      30.484   4.309  12.337  1.00  0.00     0.107 A 
HETATM    9  N6  UNL     1      29.867   3.893  11.235  1.00  0.00    -0.353 N 
ATOM     10  H6  UNL     1      28.888   3.614  11.182  1.00  0.00     0.166 HD
BRANCH   6  11
HETATM   11  C8  UNL     1      33.112   4.469   9.853  1.00  0.00     0.145 A 
HETATM   12  C7  UNL     1      33.042   5.272   8.709  1.00  0.00     0.123 A 
HETATM   13  N4  UNL     1      32.074   5.987   8.112  1.00  0.00    -0.334 N 
HETATM   14  C21 UNL     1      34.182   5.408   7.978  1.00  0.00     0.139 A 
HETATM   15  C6  UNL     1      32.587   6.583   6.998  1.00  0.00     0.140 A 
ATOM     16  H4  UNL     1      31.112   6.071   8.439  1.00  0.00     0.168 HD
HETATM   17  N11 UNL     1      33.860   6.213   6.948  1.00  0.00    -0.325 N 
ATOM     18  H11 UNL     1      34.514   6.503   6.220  1.00  0.00     0.169 HD
HETATM   19  N10 UNL     1      35.304   4.800   8.345  1.00  0.00    -0.325 N 
HETATM   20  C15 UNL     1      35.386   4.022   9.447  1.00  0.00     0.135 A 
ATOM     21  H10 UNL     1      36.139   4.927   7.772  1.00  0.00     0.169 HD
HETATM   22  N8  UNL     1      34.274   3.877  10.179  1.00  0.00    -0.324 N 
HETATM   23  C16 UNL     1      36.663   3.413   9.742  1.00  0.00     0.076 A 
ATOM     24  H8  UNL     1      34.310   3.294  11.015  1.00  0.00     0.169 HD
HETATM   25  C17 UNL     1      36.821   2.609  10.844  1.00  0.00     0.033 A 
HETATM   26  N9  UNL     1      37.747   3.593   8.973  1.00  0.00    -0.363 N 
HETATM   27  C18 UNL     1      38.037   2.011  11.153  1.00  0.00     0.004 A 
HETATM   28  C19 UNL     1      39.119   2.229  10.327  1.00  0.00     0.017 A 
HETATM   29  C20 UNL     1      38.938   3.038   9.230  1.00  0.00     0.088 A 
ATOM     30  H9  UNL     1      37.658   4.185   8.147  1.00  0.00     0.165 HD
BRANCH  15  31
HETATM   31  C5  UNL     1      31.795   7.435   6.121  1.00  0.00     0.146 A 
HETATM   32  N3  UNL     1      31.786   7.172   4.789  1.00  0.00    -0.343 N 
HETATM   33  C4  UNL     1      31.051   7.967   3.998  1.00  0.00     0.121 A 
ATOM     34  H3  UNL     1      32.321   6.395   4.403  1.00  0.00     0.166 HD
HETATM   35  C3  UNL     1      31.053   7.683   2.626  1.00  0.00     0.132 A 
HETATM   36  C23 UNL     1      30.322   9.020   4.497  1.00  0.00     0.141 A 
HETATM   37  N1  UNL     1      30.316   8.482   1.844  1.00  0.00    -0.321 N 
HETATM   38  C2  UNL     1      29.609   9.507   2.348  1.00  0.00     0.147 A 
ATOM     39  H1  UNL     1      30.290   8.309   0.839  1.00  0.00     0.169 HD
HETATM   40  N13 UNL     1      29.596   9.791   3.654  1.00  0.00    -0.321 N 
ATOM     41  H13 UNL     1      29.049  10.575   4.008  1.00  0.00     0.169 HD
HETATM   42  N12 UNL     1      30.336   9.272   5.813  1.00  0.00    -0.305 N 
HETATM   43  C22 UNL     1      31.069   8.483   6.624  1.00  0.00     0.277 A 
ATOM     44  H12 UNL     1      29.800  10.051   6.196  1.00  0.00     0.170 HD
HETATM   45  O1  UNL     1      31.036   8.780   7.855  1.00  0.00    -0.265 OA
BRANCH  35  46
HETATM   46  N2  UNL     1      31.738   6.694   2.158  1.00  0.00    -0.383 N 
ATOM     47  H22 UNL     1      32.552   6.858   1.565  1.00  0.00     0.157 HD
ATOM     48  H21 UNL     1      31.505   5.721   2.357  1.00  0.00     0.157 HD
ENDBRANCH  35  46
BRANCH  38  49
HETATM   49  S1  UNL     1      28.627  10.567   1.273  1.00  0.00    -0.098 SA
HETATM   50  C1  UNL     1      27.928  11.918   2.274  1.00  0.00     0.099 C 
ENDBRANCH  38  49
ENDBRANCH  15  31
ENDBRANCH   6  11
ENDBRANCH   1   5
TORSDOF 5
ENDMDL
MODEL 2
REMARK VINA RESULT: -9.124605997      3.336      6.459
REMARK  5 active torsions:
REMARK  status: ('A' for Active; 'I' for Inactive)
REMARK    1  A    between atoms: S1_2  and  C2_3 
REMARK    2  A    between atoms: C3_6  and  N2_7 
REMARK    3  A    between atoms: C5_13  and  C6_14 
REMARK    4  A    between atoms: C8_18  and  N5_19 
REMARK    5  A    between atoms: C11_24  and  C12_25 
ROOT
HETATM    1  C12 UNL     1      32.184   7.322   7.369  1.00  0.00     0.157 C 
HETATM    2  C13 UNL     1      33.369   8.019   8.007  1.00  0.00     0.034 C 
HETATM    3  C14 UNL     1      31.316   8.347   6.756  1.00  0.00     0.071 C 
HETATM    4  N7  UNL     1      30.643   9.149   6.267  1.00  0.00    -0.196 NA
ENDROOT
BRANCH   1   5
HETATM    5  C11 UNL     1      32.619   6.405   6.295  1.00  0.00     0.106 A 
HETATM    6  N5  UNL     1      33.030   5.136   6.447  1.00  0.00    -0.293 N 
HETATM    7  C9  UNL     1      33.329   4.685   5.200  1.00  0.00     0.117 A 
HETATM    8  C10 UNL     1      33.094   5.700   4.280  1.00  0.00     0.107 A 
HETATM    9  N6  UNL     1      32.660   6.734   4.994  1.00  0.00    -0.353 N 
ATOM     10  H6  UNL     1      32.398   7.642   4.610  1.00  0.00     0.166 HD
BRANCH   6  11
HETATM   11  C8  UNL     1      33.137   4.401   7.658  1.00  0.00     0.145 A 
HETATM   12  C7  UNL     1      31.956   3.898   8.216  1.00  0.00     0.123 A 
HETATM   13  N4  UNL     1      30.658   3.934   7.876  1.00  0.00    -0.334 N 
HETATM   14  C21 UNL     1      32.072   3.195   9.376  1.00  0.00     0.139 A 
HETATM   15  C6  UNL     1      29.935   3.257   8.813  1.00  0.00     0.140 A 
ATOM     16  H4  UNL     1      30.274   4.393   7.050  1.00  0.00     0.168 HD
HETATM   17  N11 UNL     1      30.819   2.824   9.703  1.00  0.00    -0.325 N 
ATOM     18  H11 UNL     1      30.579   2.279  10.532  1.00  0.00     0.169 HD
HETATM   19  N10 UNL     1      33.257   3.003   9.943  1.00  0.00    -0.325 N 
HETATM   20  C15 UNL     1      34.404   3.484   9.415  1.00  0.00     0.135 A 
ATOM     21  H10 UNL     1      33.303   2.471  10.812  1.00  0.00     0.169 HD
HETATM   22  N8  UNL     1      34.310   4.178   8.274  1.00  0.00    -0.324 N 
HETATM   23  C16 UNL     1      35.633   3.211  10.125  1.00  0.00     0.076 A 
ATOM     24  H8  UNL     1      35.163   4.551   7.855  1.00  0.00     0.169 HD
HETATM   25  C17 UNL     1      36.837   3.668   9.649  1.00  0.00     0.033 A 
HETATM   26  N9  UNL     1      35.669   2.509  11.267  1.00  0.00    -0.363 N 
HETATM   27  C18 UNL     1      38.034   3.420  10.311  1.00  0.00     0.004 A 
HETATM   28  C19 UNL     1      38.013   2.693  11.482  1.00  0.00     0.017 A 
HETATM   29  C20 UNL     1      36.796   2.245  11.940  1.00  0.00     0.088 A 
ATOM     30  H9  UNL     1      34.789   2.157  11.644  1.00  0.00     0.165 HD
BRANCH  15  31
HETATM   31  C5  UNL     1      28.488   3.108   8.740  1.00  0.00     0.146 A 
HETATM   32  N3  UNL     1      27.847   3.499   7.609  1.00  0.00    -0.343 N 
HETATM   33  C4  UNL     1      26.515   3.354   7.560  1.00  0.00     0.121 A 
ATOM     34  H3  UNL     1      28.362   3.891   6.821  1.00  0.00     0.166 HD
HETATM   35  C3  UNL     1      25.869   3.763   6.386  1.00  0.00     0.132 A 
HETATM   36  C23 UNL     1      25.800   2.828   8.610  1.00  0.00     0.141 A 
HETATM   37  N1  UNL     1      24.538   3.613   6.347  1.00  0.00    -0.321 N 
HETATM   38  C2  UNL     1      23.855   3.098   7.381  1.00  0.00     0.147 A 
ATOM     39  H1  UNL     1      24.030   3.898   5.510  1.00  0.00     0.169 HD
HETATM   40  N13 UNL     1      24.456   2.702   8.508  1.00  0.00    -0.321 N 
ATOM     41  H13 UNL     1      23.911   2.313   9.277  1.00  0.00     0.169 HD
HETATM   42  N12 UNL     1      26.440   2.444   9.722  1.00  0.00    -0.305 N 
HETATM   43  C22 UNL     1      27.780   2.582   9.789  1.00  0.00     0.277 A 
ATOM     44  H12 UNL     1      25.921   2.053  10.508  1.00  0.00     0.170 HD
HETATM   45  O1  UNL     1      28.317   2.200  10.870  1.00  0.00    -0.265 OA
BRANCH  35  46
HETATM   46  N2  UNL     1      26.542   4.257   5.401  1.00  0.00    -0.383 N 
ATOM     47  H22 UNL     1      27.562   4.235   5.404  1.00  0.00     0.157 HD
ATOM     48  H21 UNL     1      26.095   4.682   4.588  1.00  0.00     0.157 HD
ENDBRANCH  35  46
BRANCH  38  49
HETATM   49  S1  UNL     1      22.065   2.909   7.302  1.00  0.00    -0.098 SA
HETATM   50  C1  UNL     1      21.645   1.193   7.742  1.00  0.00     0.099 C 
ENDBRANCH  38  49
ENDBRANCH  15  31
ENDBRANCH   6  11
ENDBRANCH   1   5
TORSDOF 5
ENDMDL
MODEL 3
REMARK VINA RESULT: -8.851854598      3.066      6.120
REMARK  5 active torsions:
REMARK  status: ('A' for Active; 'I' for Inactive)
REMARK    1  A    between atoms: S1_2  and  C2_3 
REMARK    2  A    between atoms: C3_6  and  N2_7 
REMARK    3  A    between atoms: C5_13  and  C6_14 
REMARK    4  A    between atoms: C8_18  and  N5_19 
REMARK    5  A    between atoms: C11_24  and  C12_25 
ROOT
HETATM    1  C12 UNL     1      34.244   6.977   1.671  1.00  0.00     0.157 C 
HETATM    2  C13 UNL     1      35.368   6.969   0.652  1.00  0.00     0.034 C 
HETATM    3  C14 UNL     1      33.241   7.972   1.247  1.00  0.00     0.071 C 
HETATM    4  N7  UNL     1      32.449   8.744   0.909  1.00  0.00    -0.196 NA
ENDROOT
BRANCH   1   5
HETATM    5  C11 UNL     1      33.572   5.663   1.732  1.00  0.00     0.106 A 
HETATM    6  N5  UNL     1      32.988   5.115   2.811  1.00  0.00    -0.293 N 
HETATM    7  C9  UNL     1      32.505   3.910   2.406  1.00  0.00     0.117 A 
HETATM    8  C10 UNL     1      32.802   3.729   1.061  1.00  0.00     0.107 A 
HETATM    9  N6  UNL     1      33.455   4.826   0.689  1.00  0.00    -0.353 N 
ATOM     10  H6  UNL     1      33.814   5.005  -0.249  1.00  0.00     0.166 HD
BRANCH   6  11
HETATM   11  C8  UNL     1      32.889   5.669   4.115  1.00  0.00     0.145 A 
HETATM   12  C7  UNL     1      32.012   6.744   4.297  1.00  0.00     0.123 A 
HETATM   13  N4  UNL     1      31.182   7.434   3.498  1.00  0.00    -0.334 N 
HETATM   14  C21 UNL     1      31.925   7.266   5.551  1.00  0.00     0.139 A 
HETATM   15  C6  UNL     1      30.560   8.400   4.233  1.00  0.00     0.140 A 
ATOM     16  H4  UNL     1      31.038   7.263   2.502  1.00  0.00     0.168 HD
HETATM   17  N11 UNL     1      31.031   8.270   5.467  1.00  0.00    -0.325 N 
ATOM     18  H11 UNL     1      30.751   8.856   6.253  1.00  0.00     0.169 HD
HETATM   19  N10 UNL     1      32.647   6.768   6.549  1.00  0.00    -0.325 N 
HETATM   20  C15 UNL     1      33.498   5.731   6.387  1.00  0.00     0.135 A 
ATOM     21  H10 UNL     1      32.554   7.186   7.475  1.00  0.00     0.169 HD
HETATM   22  N8  UNL     1      33.596   5.204   5.160  1.00  0.00    -0.324 N 
HETATM   23  C16 UNL     1      34.229   5.278   7.548  1.00  0.00     0.076 A 
ATOM     24  H8  UNL     1      34.232   4.420   5.012  1.00  0.00     0.169 HD
HETATM   25  C17 UNL     1      35.112   4.231   7.460  1.00  0.00     0.033 A 
HETATM   26  N9  UNL     1      34.092   5.844   8.756  1.00  0.00    -0.363 N 
HETATM   27  C18 UNL     1      35.829   3.774   8.560  1.00  0.00     0.004 A 
HETATM   28  C19 UNL     1      35.649   4.393   9.778  1.00  0.00     0.017 A 
HETATM   29  C20 UNL     1      34.760   5.440   9.844  1.00  0.00     0.088 A 
ATOM     30  H9  UNL     1      33.443   6.625   8.852  1.00  0.00     0.165 HD
BRANCH  15  31
HETATM   31  C5  UNL     1      29.591   9.326   3.664  1.00  0.00     0.146 A 
HETATM   32  N3  UNL     1      29.957  10.079   2.595  1.00  0.00    -0.343 N 
HETATM   33  C4  UNL     1      29.051  10.926   2.085  1.00  0.00     0.121 A 
ATOM     34  H3  UNL     1      30.891  10.003   2.193  1.00  0.00     0.166 HD
HETATM   35  C3  UNL     1      29.445  11.697   0.982  1.00  0.00     0.132 A 
HETATM   36  C23 UNL     1      27.787  11.046   2.611  1.00  0.00     0.141 A 
HETATM   37  N1  UNL     1      28.533  12.540   0.480  1.00  0.00    -0.321 N 
HETATM   38  C2  UNL     1      27.302  12.643   1.006  1.00  0.00     0.147 A 
ATOM     39  H1  UNL     1      28.780  13.118  -0.323  1.00  0.00     0.169 HD
HETATM   40  N13 UNL     1      26.911  11.917   2.057  1.00  0.00    -0.321 N 
ATOM     41  H13 UNL     1      25.969  12.016   2.435  1.00  0.00     0.169 HD
HETATM   42  N12 UNL     1      27.434  10.299   3.666  1.00  0.00    -0.305 N 
HETATM   43  C22 UNL     1      28.332   9.441   4.192  1.00  0.00     0.277 A 
ATOM     44  H12 UNL     1      26.499  10.378   4.066  1.00  0.00     0.170 HD
HETATM   45  O1  UNL     1      27.930   8.768   5.187  1.00  0.00    -0.265 OA
BRANCH  35  46
HETATM   46  N2  UNL     1      30.633  11.584   0.490  1.00  0.00    -0.383 N 
ATOM     47  H22 UNL     1      30.791  11.063  -0.373  1.00  0.00     0.157 HD
ATOM     48  H21 UNL     1      31.452  12.002   0.930  1.00  0.00     0.157 HD
ENDBRANCH  35  46
BRANCH  38  49
HETATM   49  S1  UNL     1      26.095  13.787   0.311  1.00  0.00    -0.098 SA
HETATM   50  C1  UNL     1      26.880  14.695  -1.058  1.00  0.00     0.099 C 
ENDBRANCH  38  49
ENDBRANCH  15  31
ENDBRANCH   6  11
ENDBRANCH   1   5
TORSDOF 5
ENDMDL
MODEL 4
REMARK VINA RESULT: -8.805680901      2.481      4.083
REMARK  5 active torsions:
REMARK  status: ('A' for Active; 'I' for Inactive)
REMARK    1  A    between atoms: S1_2  and  C2_3 
REMARK    2  A    between atoms: C3_6  and  N2_7 
REMARK    3  A    between atoms: C5_13  and  C6_14 
REMARK    4  A    between atoms: C8_18  and  N5_19 
REMARK    5  A    between atoms: C11_24  and  C12_25 
ROOT
HETATM    1  C12 UNL     1      27.937   3.990   9.152  1.00  0.00     0.157 C 
HETATM    2  C13 UNL     1      27.152   5.261   9.416  1.00  0.00     0.034 C 
HETATM    3  C14 UNL     1      27.286   2.883   9.880  1.00  0.00     0.071 C 
HETATM    4  N7  UNL     1      26.770   2.014  10.440  1.00  0.00    -0.196 NA
ENDROOT
BRANCH   1   5
HETATM    5  C11 UNL     1      27.927   3.647   7.715  1.00  0.00     0.106 A 
HETATM    6  N5  UNL     1      28.841   4.012   6.802  1.00  0.00    -0.293 N 
HETATM    7  C9  UNL     1      28.430   3.475   5.622  1.00  0.00     0.117 A 
HETATM    8  C10 UNL     1      27.247   2.774   5.829  1.00  0.00     0.107 A 
HETATM    9  N6  UNL     1      26.976   2.906   7.124  1.00  0.00    -0.353 N 
ATOM     10  H6  UNL     1      26.167   2.503   7.597  1.00  0.00     0.166 HD
BRANCH   6  11
HETATM   11  C8  UNL     1      30.005   4.799   7.010  1.00  0.00     0.145 A 
HETATM   12  C7  UNL     1      30.045   6.065   6.413  1.00  0.00     0.123 A 
HETATM   13  N4  UNL     1      29.208   6.775   5.641  1.00  0.00    -0.334 N 
HETATM   14  C21 UNL     1      31.166   6.810   6.620  1.00  0.00     0.139 A 
HETATM   15  C6  UNL     1      29.784   7.976   5.349  1.00  0.00     0.140 A 
ATOM     16  H4  UNL     1      28.288   6.467   5.325  1.00  0.00     0.168 HD
HETATM   17  N11 UNL     1      30.964   7.963   5.956  1.00  0.00    -0.325 N 
ATOM     18  H11 UNL     1      31.635   8.732   5.923  1.00  0.00     0.169 HD
HETATM   19  N10 UNL     1      32.168   6.345   7.357  1.00  0.00    -0.325 N 
HETATM   20  C15 UNL     1      32.142   5.124   7.937  1.00  0.00     0.135 A 
ATOM     21  H10 UNL     1      32.992   6.932   7.490  1.00  0.00     0.169 HD
HETATM   22  N8  UNL     1      31.048   4.378   7.745  1.00  0.00    -0.324 N 
HETATM   23  C16 UNL     1      33.295   4.729   8.715  1.00  0.00     0.076 A 
ATOM     24  H8  UNL     1      31.004   3.453   8.173  1.00  0.00     0.169 HD
HETATM   25  C17 UNL     1      33.339   3.504   9.333  1.00  0.00     0.033 A 
HETATM   26  N9  UNL     1      34.366   5.519   8.874  1.00  0.00    -0.363 N 
HETATM   27  C18 UNL     1      34.434   3.097  10.087  1.00  0.00     0.004 A 
HETATM   28  C19 UNL     1      35.510   3.949  10.218  1.00  0.00     0.017 A 
HETATM   29  C20 UNL     1      35.443   5.171   9.591  1.00  0.00     0.088 A 
ATOM     30  H9  UNL     1      34.361   6.435   8.426  1.00  0.00     0.165 HD
BRANCH  15  31
HETATM   31  C5  UNL     1      29.133   8.987   4.526  1.00  0.00     0.146 A 
HETATM   32  N3  UNL     1      29.892   9.728   3.679  1.00  0.00    -0.343 N 
HETATM   33  C4  UNL     1      29.275  10.653   2.931  1.00  0.00     0.121 A 
ATOM     34  H3  UNL     1      30.900   9.585   3.615  1.00  0.00     0.166 HD
HETATM   35  C3  UNL     1      30.074  11.410   2.062  1.00  0.00     0.132 A 
HETATM   36  C23 UNL     1      27.919  10.863   3.002  1.00  0.00     0.141 A 
HETATM   37  N1  UNL     1      29.448  12.332   1.318  1.00  0.00    -0.321 N 
HETATM   38  C2  UNL     1      28.122  12.523   1.400  1.00  0.00     0.147 A 
ATOM     39  H1  UNL     1      29.992  12.903   0.673  1.00  0.00     0.169 HD
HETATM   40  N13 UNL     1      27.346  11.811   2.223  1.00  0.00    -0.321 N 
ATOM     41  H13 UNL     1      26.341  11.977   2.263  1.00  0.00     0.169 HD
HETATM   42  N12 UNL     1      27.177  10.127   3.840  1.00  0.00    -0.305 N 
HETATM   43  C22 UNL     1      27.780   9.191   4.601  1.00  0.00     0.277 A 
ATOM     44  H12 UNL     1      26.169  10.273   3.903  1.00  0.00     0.170 HD
HETATM   45  O1  UNL     1      27.018   8.534   5.370  1.00  0.00    -0.265 OA
BRANCH  35  46
HETATM   46  N2  UNL     1      31.347  11.212   1.996  1.00  0.00    -0.383 N 
ATOM     47  H22 UNL     1      31.959  11.898   1.553  1.00  0.00     0.157 HD
ATOM     48  H21 UNL     1      31.794  10.378   2.377  1.00  0.00     0.157 HD
ENDBRANCH  35  46
BRANCH  38  49
HETATM   49  S1  UNL     1      27.305  13.771   0.388  1.00  0.00    -0.098 SA
HETATM   50  C1  UNL     1      25.534  13.362   0.282  1.00  0.00     0.099 C 
ENDBRANCH  38  49
ENDBRANCH  15  31
ENDBRANCH   6  11
ENDBRANCH   1   5
TORSDOF 5
ENDMDL
MODEL 5
REMARK VINA RESULT: -8.689911264      2.223      3.493
REMARK  5 active torsions:
REMARK  status: ('A' for Active; 'I' for Inactive)
REMARK    1  A    between atoms: S1_2  and  C2_3 
REMARK    2  A    between atoms: C3_6  and  N2_7 
REMARK    3  A    between atoms: C5_13  and  C6_14 
REMARK    4  A    between atoms: C8_18  and  N5_19 
REMARK    5  A    between atoms: C11_24  and  C12_25 
ROOT
HETATM    1  C12 UNL     1      28.426   3.290   6.130  1.00  0.00     0.157 C 
HETATM    2  C13 UNL     1      29.507   2.227   6.166  1.00  0.00     0.034 C 
HETATM    3  C14 UNL     1      27.222   2.707   5.509  1.00  0.00     0.071 C 
HETATM    4  N7  UNL     1      26.274   2.246   5.032  1.00  0.00    -0.196 NA
ENDROOT
BRANCH   1   5
HETATM    5  C11 UNL     1      28.060   3.723   7.494  1.00  0.00     0.106 A 
HETATM    6  N5  UNL     1      28.811   4.465   8.325  1.00  0.00    -0.293 N 
HETATM    7  C9  UNL     1      28.079   4.616   9.461  1.00  0.00     0.117 A 
HETATM    8  C10 UNL     1      26.866   3.954   9.312  1.00  0.00     0.107 A 
HETATM    9  N6  UNL     1      26.897   3.423   8.094  1.00  0.00    -0.353 N 
ATOM     10  H6  UNL     1      26.148   2.870   7.677  1.00  0.00     0.166 HD
BRANCH   6  11
HETATM   11  C8  UNL     1      30.108   4.990   8.081  1.00  0.00     0.145 A 
HETATM   12  C7  UNL     1      30.212   6.076   7.203  1.00  0.00     0.123 A 
HETATM   13  N4  UNL     1      29.338   6.798   6.483  1.00  0.00    -0.334 N 
HETATM   14  C21 UNL     1      31.460   6.571   6.977  1.00  0.00     0.139 A 
HETATM   15  C6  UNL     1      30.019   7.757   5.793  1.00  0.00     0.140 A 
ATOM     16  H4  UNL     1      28.329   6.653   6.456  1.00  0.00     0.168 HD
HETATM   17  N11 UNL     1      31.296   7.592   6.114  1.00  0.00    -0.325 N 
ATOM     18  H11 UNL     1      32.058   8.166   5.753  1.00  0.00     0.169 HD
HETATM   19  N10 UNL     1      32.523   6.038   7.569  1.00  0.00    -0.325 N 
HETATM   20  C15 UNL     1      32.436   4.990   8.418  1.00  0.00     0.135 A 
ATOM     21  H10 UNL     1      33.442   6.437   7.375  1.00  0.00     0.169 HD
HETATM   22  N8  UNL     1      31.217   4.490   8.652  1.00  0.00    -0.324 N 
HETATM   23  C16 UNL     1      33.665   4.498   8.999  1.00  0.00     0.076 A 
ATOM     24  H8  UNL     1      31.125   3.698   9.289  1.00  0.00     0.169 HD
HETATM   25  C17 UNL     1      33.655   3.435   9.869  1.00  0.00     0.033 A 
HETATM   26  N9  UNL     1      34.862   5.038   8.728  1.00  0.00    -0.363 N 
HETATM   27  C18 UNL     1      34.820   2.941  10.444  1.00  0.00     0.004 A 
HETATM   28  C19 UNL     1      36.024   3.534  10.129  1.00  0.00     0.017 A 
HETATM   29  C20 UNL     1      36.011   4.597   9.257  1.00  0.00     0.088 A 
ATOM     30  H9  UNL     1      34.899   5.828   8.085  1.00  0.00     0.165 HD
BRANCH  15  31
HETATM   31  C5  UNL     1      29.363   8.714   4.912  1.00  0.00     0.146 A 
HETATM   32  N3  UNL     1      30.130   9.517   4.132  1.00  0.00    -0.343 N 
HETATM   33  C4  UNL     1      29.508  10.391   3.329  1.00  0.00     0.121 A 
ATOM     34  H3  UNL     1      31.148   9.458   4.157  1.00  0.00     0.166 HD
HETATM   35  C3  UNL     1      30.315  11.214   2.530  1.00  0.00     0.132 A 
HETATM   36  C23 UNL     1      28.138  10.489   3.279  1.00  0.00     0.141 A 
HETATM   37  N1  UNL     1      29.684  12.084   1.731  1.00  0.00    -0.321 N 
HETATM   38  C2  UNL     1      28.344  12.166   1.695  1.00  0.00     0.147 A 
ATOM     39  H1  UNL     1      30.235  12.700   1.134  1.00  0.00     0.169 HD
HETATM   40  N13 UNL     1      27.560  11.389   2.449  1.00  0.00    -0.321 N 
ATOM     41  H13 UNL     1      26.545  11.473   2.399  1.00  0.00     0.169 HD
HETATM   42  N12 UNL     1      27.388   9.692   4.052  1.00  0.00    -0.305 N 
HETATM   43  C22 UNL     1      27.996   8.806   4.866  1.00  0.00     0.277 A 
ATOM     44  H12 UNL     1      26.370   9.755   4.025  1.00  0.00     0.170 HD
HETATM   45  O1  UNL     1      27.225   8.087   5.568  1.00  0.00    -0.265 OA
BRANCH  35  46
HETATM   46  N2  UNL     1      31.601  11.121   2.578  1.00  0.00    -0.383 N 
ATOM     47  H22 UNL     1      32.187  11.661   1.940  1.00  0.00     0.157 HD
ATOM     48  H21 UNL     1      32.085  10.517   3.244  1.00  0.00     0.157 HD
ENDBRANCH  35  46
BRANCH  38  49
HETATM   49  S1  UNL     1      27.521  13.346   0.610  1.00  0.00    -0.098 SA
HETATM   50  C1  UNL     1      25.781  12.845   0.425  1.00  0.00     0.099 C 
ENDBRANCH  38  49
ENDBRANCH  15  31
ENDBRANCH   6  11
ENDBRANCH   1   5
TORSDOF 5
ENDMDL
