MODEL 1
REMARK VINA RESULT: -9.282275048      0.000      0.000
REMARK  6 active torsions:
REMARK  status: ('A' for Active; 'I' for Inactive)
REMARK    1  A    between atoms: N1_1  and  C1_4 
REMARK    2  A    between atoms: C2_7  and  N3_8 
REMARK    3  A    between atoms: C5_11  and  N4_12 
REMARK    4  A    between atoms: C14_29  and  S1_30 
REMARK    5  A    between atoms: S1_30  and  C15_31 
REMARK    6  A    between atoms: C15_31  and  C16_32 
ROOT
HETATM    1  C1  UNL     1      27.295   2.795  10.020  1.00  0.00     0.678 A 
HETATM    2  N2  UNL     1      28.592   2.722  10.240  1.00  0.00    -0.177 N 
ATOM      3  H2  UNL     1      28.957   1.889  10.703  1.00  0.00     0.185 HD
HETATM    4  C2  UNL     1      29.466   3.693   9.885  1.00  0.00     0.121 A 
HETATM    5  C13 UNL     1      28.954   4.804   9.264  1.00  0.00     0.086 A 
HETATM    6  C14 UNL     1      27.574   4.883   9.029  1.00  0.00     0.090 A 
HETATM    7  N11 UNL     1      26.780   3.892   9.405  1.00  0.00    -0.186 N 
ATOM      8  H11 UNL     1      25.777   3.953   9.232  1.00  0.00     0.185 HD
ENDROOT
BRANCH   4   9
HETATM    9  N3  UNL     1      30.850   3.558  10.145  1.00  0.00    -0.367 N 
HETATM   10  C3  UNL     1      31.669   2.652   9.383  1.00  0.00     0.126 C 
HETATM   11  C4  UNL     1      32.915   3.314   8.866  1.00  0.00     0.045 C 
HETATM   12  C5  UNL     1      33.582   4.207   9.898  1.00  0.00     0.099 C 
HETATM   13  C11 UNL     1      32.928   3.963  11.216  1.00  0.00     0.045 C 
HETATM   14  C12 UNL     1      31.453   4.343  11.189  1.00  0.00     0.126 C 
BRANCH  12  15
HETATM   15  N4  UNL     1      34.989   3.908   9.923  1.00  0.00    -0.278 N 
HETATM   16  C6  UNL     1      35.736   3.833   8.779  1.00  0.00     0.329 A 
HETATM   17  O1  UNL     1      35.311   4.009   7.586  1.00  0.00    -0.246 OA
HETATM   18  N5  UNL     1      36.981   3.540   9.158  1.00  0.00    -0.301 N 
HETATM   19  C7  UNL     1      37.042   3.430  10.502  1.00  0.00     0.149 A 
ATOM     20  H5  UNL     1      37.771   3.419   8.525  1.00  0.00     0.171 HD
HETATM   21  C8  UNL     1      38.102   3.143  11.355  1.00  0.00     0.277 A 
HETATM   22  C10 UNL     1      35.774   3.664  10.983  1.00  0.00     0.145 A 
HETATM   23  O2  UNL     1      39.261   2.929  10.910  1.00  0.00    -0.266 OA
HETATM   24  N6  UNL     1      37.827   3.105  12.676  1.00  0.00    -0.318 N 
HETATM   25  C9  UNL     1      36.577   3.339  13.123  1.00  0.00     0.185 A 
ATOM     26  H6  UNL     1      38.571   2.898  13.341  1.00  0.00     0.169 HD
HETATM   27  N7  UNL     1      35.544   3.616  12.326  1.00  0.00    -0.336 N 
ATOM     28  H7  UNL     1      34.613   3.784  12.708  1.00  0.00     0.168 HD
ENDBRANCH  12  15
ENDBRANCH   4   9
BRANCH   1  29
HETATM   29  N1  UNL     1      26.535   1.817  10.394  1.00  0.00    -0.234 N 
ATOM     30  H12 UNL     1      26.173   1.763  11.346  1.00  0.00     0.174 HD
ATOM     31  H11 UNL     1      26.296   1.087   9.723  1.00  0.00     0.174 HD
ENDBRANCH   1  29
BRANCH   6  32
HETATM   32  S1  UNL     1      26.975   6.302   8.182  1.00  0.00    -0.104 SA
BRANCH  32  33
HETATM   33  C15 UNL     1      27.588   6.559   6.533  1.00  0.00     0.158 C 
BRANCH  33  34
HETATM   34  C16 UNL     1      29.080   6.355   6.474  1.00  0.00     0.097 C 
HETATM   35  N8  UNL     1      29.787   7.154   7.206  1.00  0.00    -0.343 N 
HETATM   36  C17 UNL     1      31.175   7.155   7.307  1.00  0.00     0.069 A 
ATOM     37  H8  UNL     1      29.282   7.845   7.760  1.00  0.00     0.167 HD
HETATM   38  C18 UNL     1      31.761   8.061   8.188  1.00  0.00     0.034 A 
HETATM   39  C21 UNL     1      32.056   6.324   6.654  1.00  0.00     0.117 A 
HETATM   40  C19 UNL     1      33.123   8.099   8.373  1.00  0.00     0.019 A 
HETATM   41  C20 UNL     1      33.976   7.239   7.693  1.00  0.00     0.089 A 
HETATM   42  N9  UNL     1      33.378   6.381   6.852  1.00  0.00    -0.357 N 
ATOM     43  H9  UNL     1      33.968   5.732   6.332  1.00  0.00     0.166 HD
HETATM   44  S2  UNL     1      31.351   5.169   5.473  1.00  0.00     0.007 SA
HETATM   45  N10 UNL     1      29.602   5.318   5.675  1.00  0.00    -0.314 N 
ATOM     46  H10 UNL     1      28.974   4.659   5.216  1.00  0.00     0.175 HD
ENDBRANCH  33  34
ENDBRANCH  32  33
ENDBRANCH   6  32
TORSDOF 6
ENDMDL
MODEL 2
REMARK VINA RESULT: -9.078401688      4.810      9.796
REMARK  6 active torsions:
REMARK  status: ('A' for Active; 'I' for Inactive)
REMARK    1  A    between atoms: N1_1  and  C1_4 
REMARK    2  A    between atoms: C2_7  and  N3_8 
REMARK    3  A    between atoms: C5_11  and  N4_12 
REMARK    4  A    between atoms: C14_29  and  S1_30 
REMARK    5  A    between atoms: S1_30  and  C15_31 
REMARK    6  A    between atoms: C15_31  and  C16_32 
ROOT
HETATM    1  C1  UNL     1      31.724   3.578   7.192  1.00  0.00     0.678 A 
HETATM    2  N2  UNL     1      31.265   4.470   6.337  1.00  0.00    -0.177 N 
ATOM      3  H2  UNL     1      30.647   4.151   5.591  1.00  0.00     0.185 HD
HETATM    4  C2  UNL     1      31.570   5.788   6.397  1.00  0.00     0.121 A 
HETATM    5  C13 UNL     1      32.403   6.196   7.408  1.00  0.00     0.086 A 
HETATM    6  C14 UNL     1      32.892   5.248   8.317  1.00  0.00     0.090 A 
HETATM    7  N11 UNL     1      32.549   3.975   8.196  1.00  0.00    -0.186 N 
ATOM      8  H11 UNL     1      32.907   3.289   8.859  1.00  0.00     0.185 HD
ENDROOT
BRANCH   4   9
HETATM    9  N3  UNL     1      31.045   6.701   5.452  1.00  0.00    -0.367 N 
HETATM   10  C3  UNL     1      30.242   7.823   5.863  1.00  0.00     0.126 C 
HETATM   11  C4  UNL     1      30.719   9.113   5.255  1.00  0.00     0.045 C 
HETATM   12  C5  UNL     1      31.082   8.975   3.787  1.00  0.00     0.099 C 
HETATM   13  C11 UNL     1      30.615   7.639   3.315  1.00  0.00     0.045 C 
HETATM   14  C12 UNL     1      31.319   6.508   4.053  1.00  0.00     0.126 C 
BRANCH  12  15
HETATM   15  N4  UNL     1      30.470  10.055   3.060  1.00  0.00    -0.278 N 
HETATM   16  C6  UNL     1      31.193  10.889   2.251  1.00  0.00     0.329 A 
HETATM   17  O1  UNL     1      32.452  10.829   2.037  1.00  0.00    -0.246 OA
HETATM   18  N5  UNL     1      30.328  11.766   1.740  1.00  0.00    -0.301 N 
HETATM   19  C7  UNL     1      29.084  11.512   2.200  1.00  0.00     0.149 A 
ATOM     20  H5  UNL     1      30.570  12.518   1.095  1.00  0.00     0.171 HD
HETATM   21  C8  UNL     1      27.867  12.138   1.959  1.00  0.00     0.277 A 
HETATM   22  C10 UNL     1      29.180  10.424   3.038  1.00  0.00     0.145 A 
HETATM   23  O2  UNL     1      27.785  13.134   1.191  1.00  0.00    -0.266 OA
HETATM   24  N6  UNL     1      26.786  11.630   2.586  1.00  0.00    -0.318 N 
HETATM   25  C9  UNL     1      26.905  10.564   3.402  1.00  0.00     0.185 A 
ATOM     26  H6  UNL     1      25.871  12.056   2.442  1.00  0.00     0.169 HD
HETATM   27  N7  UNL     1      28.060   9.945   3.650  1.00  0.00    -0.336 N 
ATOM     28  H7  UNL     1      28.104   9.141   4.277  1.00  0.00     0.168 HD
ENDBRANCH  12  15
ENDBRANCH   4   9
BRANCH   1  29
HETATM   29  N1  UNL     1      31.378   2.339   7.057  1.00  0.00    -0.234 N 
ATOM     30  H12 UNL     1      30.729   2.047   6.326  1.00  0.00     0.174 HD
ATOM     31  H11 UNL     1      31.763   1.643   7.695  1.00  0.00     0.174 HD
ENDBRANCH   1  29
BRANCH   6  32
HETATM   32  S1  UNL     1      33.912   5.830   9.625  1.00  0.00    -0.104 SA
BRANCH  32  33
HETATM   33  C15 UNL     1      33.841   4.920  11.151  1.00  0.00     0.158 C 
BRANCH  33  34
HETATM   34  C16 UNL     1      35.134   4.187  11.403  1.00  0.00     0.097 C 
HETATM   35  N8  UNL     1      35.842   3.917  10.354  1.00  0.00    -0.343 N 
HETATM   36  C17 UNL     1      37.061   3.248  10.342  1.00  0.00     0.069 A 
ATOM     37  H8  UNL     1      35.473   4.223   9.454  1.00  0.00     0.167 HD
HETATM   38  C18 UNL     1      37.705   3.092   9.117  1.00  0.00     0.034 A 
HETATM   39  C21 UNL     1      37.742   2.743  11.426  1.00  0.00     0.117 A 
HETATM   40  C19 UNL     1      38.930   2.476   9.026  1.00  0.00     0.019 A 
HETATM   41  C20 UNL     1      39.583   1.982  10.148  1.00  0.00     0.089 A 
HETATM   42  N9  UNL     1      38.935   2.148  11.311  1.00  0.00    -0.357 N 
ATOM     43  H9  UNL     1      39.379   1.799  12.160  1.00  0.00     0.166 HD
HETATM   44  S2  UNL     1      36.932   2.879  13.023  1.00  0.00     0.007 SA
HETATM   45  N10 UNL     1      35.502   3.874  12.727  1.00  0.00    -0.314 N 
ATOM     46  H10 UNL     1      34.946   4.220  13.508  1.00  0.00     0.175 HD
ENDBRANCH  33  34
ENDBRANCH  32  33
ENDBRANCH   6  32
TORSDOF 6
ENDMDL
MODEL 3
REMARK VINA RESULT: -9.069544198      4.191      8.852
REMARK  6 active torsions:
REMARK  status: ('A' for Active; 'I' for Inactive)
REMARK    1  A    between atoms: N1_1  and  C1_4 
REMARK    2  A    between atoms: C2_7  and  N3_8 
REMARK    3  A    between atoms: C5_11  and  N4_12 
REMARK    4  A    between atoms: C14_29  and  S1_30 
REMARK    5  A    between atoms: S1_30  and  C15_31 
REMARK    6  A    between atoms: C15_31  and  C16_32 
ROOT
HETATM    1  C1  UNL     1      28.797   3.189  10.163  1.00  0.00     0.678 A 
HETATM    2  N2  UNL     1      28.564   3.914   9.087  1.00  0.00    -0.177 N 
ATOM      3  H2  UNL     1      27.684   3.772   8.591  1.00  0.00     0.185 HD
HETATM    4  C2  UNL     1      29.431   4.837   8.607  1.00  0.00     0.121 A 
HETATM    5  C13 UNL     1      30.608   5.011   9.289  1.00  0.00     0.086 A 
HETATM    6  C14 UNL     1      30.857   4.240  10.433  1.00  0.00     0.090 A 
HETATM    7  N11 UNL     1      29.961   3.356  10.844  1.00  0.00    -0.186 N 
ATOM      8  H11 UNL     1      30.146   2.797  11.677  1.00  0.00     0.185 HD
ENDROOT
BRANCH   4   9
HETATM    9  N3  UNL     1      29.125   5.589   7.447  1.00  0.00    -0.367 N 
HETATM   10  C3  UNL     1      28.124   6.623   7.470  1.00  0.00     0.126 C 
HETATM   11  C4  UNL     1      28.626   7.909   6.877  1.00  0.00     0.045 C 
HETATM   12  C5  UNL     1      29.430   7.699   5.605  1.00  0.00     0.099 C 
HETATM   13  C11 UNL     1      29.269   6.278   5.182  1.00  0.00     0.045 C 
HETATM   14  C12 UNL     1      29.829   5.317   6.223  1.00  0.00     0.126 C 
BRANCH  12  15
HETATM   15  N4  UNL     1      28.958   8.622   4.607  1.00  0.00    -0.278 N 
HETATM   16  C6  UNL     1      27.675   8.587   4.132  1.00  0.00     0.329 A 
HETATM   17  O1  UNL     1      26.760   7.770   4.491  1.00  0.00    -0.246 OA
HETATM   18  N5  UNL     1      27.578   9.565   3.231  1.00  0.00    -0.301 N 
HETATM   19  C7  UNL     1      28.756  10.215   3.122  1.00  0.00     0.149 A 
ATOM     20  H5  UNL     1      26.736   9.790   2.701  1.00  0.00     0.171 HD
HETATM   21  C8  UNL     1      29.146  11.288   2.330  1.00  0.00     0.277 A 
HETATM   22  C10 UNL     1      29.630   9.612   3.998  1.00  0.00     0.145 A 
HETATM   23  O2  UNL     1      28.342  11.837   1.529  1.00  0.00    -0.266 OA
HETATM   24  N6  UNL     1      30.422  11.710   2.461  1.00  0.00    -0.318 N 
HETATM   25  C9  UNL     1      31.258  11.104   3.326  1.00  0.00     0.185 A 
ATOM     26  H6  UNL     1      30.755  12.493   1.900  1.00  0.00     0.169 HD
HETATM   27  N7  UNL     1      30.909  10.072   4.097  1.00  0.00    -0.336 N 
ATOM     28  H7  UNL     1      31.577   9.643   4.737  1.00  0.00     0.168 HD
ENDBRANCH  12  15
ENDBRANCH   4   9
BRANCH   1  29
HETATM   29  N1  UNL     1      27.910   2.330  10.549  1.00  0.00    -0.234 N 
ATOM     30  H12 UNL     1      28.163   1.539  11.141  1.00  0.00     0.174 HD
ATOM     31  H11 UNL     1      26.941   2.449  10.254  1.00  0.00     0.174 HD
ENDBRANCH   1  29
BRANCH   6  32
HETATM   32  S1  UNL     1      32.355   4.539  11.302  1.00  0.00    -0.104 SA
BRANCH  32  33
HETATM   33  C15 UNL     1      33.758   5.023  10.323  1.00  0.00     0.158 C 
BRANCH  33  34
HETATM   34  C16 UNL     1      35.017   4.360  10.819  1.00  0.00     0.097 C 
HETATM   35  N8  UNL     1      35.836   3.949   9.904  1.00  0.00    -0.343 N 
HETATM   36  C17 UNL     1      37.051   3.309  10.124  1.00  0.00     0.069 A 
ATOM     37  H8  UNL     1      35.566   4.110   8.934  1.00  0.00     0.167 HD
HETATM   38  C18 UNL     1      37.824   2.983   9.012  1.00  0.00     0.034 A 
HETATM   39  C21 UNL     1      37.611   2.985  11.339  1.00  0.00     0.117 A 
HETATM   40  C19 UNL     1      39.053   2.384   9.147  1.00  0.00     0.019 A 
HETATM   41  C20 UNL     1      39.582   2.076  10.394  1.00  0.00     0.089 A 
HETATM   42  N9  UNL     1      38.811   2.402  11.443  1.00  0.00    -0.357 N 
ATOM     43  H9  UNL     1      39.162   2.192  12.377  1.00  0.00     0.166 HD
HETATM   44  S2  UNL     1      36.632   3.344  12.801  1.00  0.00     0.007 SA
HETATM   45  N10 UNL     1      35.241   4.256  12.206  1.00  0.00    -0.314 N 
ATOM     46  H10 UNL     1      34.603   4.705  12.863  1.00  0.00     0.175 HD
ENDBRANCH  33  34
ENDBRANCH  32  33
ENDBRANCH   6  32
TORSDOF 6
ENDMDL
MODEL 4
REMARK VINA RESULT: -9.065915867      5.246     10.118
REMARK  6 active torsions:
REMARK  status: ('A' for Active; 'I' for Inactive)
REMARK    1  A    between atoms: N1_1  and  C1_4 
REMARK    2  A    between atoms: C2_7  and  N3_8 
REMARK    3  A    between atoms: C5_11  and  N4_12 
REMARK    4  A    between atoms: C14_29  and  S1_30 
REMARK    5  A    between atoms: S1_30  and  C15_31 
REMARK    6  A    between atoms: C15_31  and  C16_32 
ROOT
HETATM    1  C1  UNL     1      30.436   3.406   5.505  1.00  0.00     0.678 A 
HETATM    2  N2  UNL     1      30.224   4.585   4.955  1.00  0.00    -0.177 N 
ATOM      3  H2  UNL     1      29.482   4.666   4.259  1.00  0.00     0.185 HD
HETATM    4  C2  UNL     1      30.937   5.693   5.266  1.00  0.00     0.121 A 
HETATM    5  C13 UNL     1      31.929   5.560   6.204  1.00  0.00     0.086 A 
HETATM    6  C14 UNL     1      32.157   4.307   6.788  1.00  0.00     0.090 A 
HETATM    7  N11 UNL     1      31.418   3.267   6.435  1.00  0.00    -0.186 N 
ATOM      8  H11 UNL     1      31.586   2.357   6.863  1.00  0.00     0.185 HD
ENDROOT
BRANCH   4   9
HETATM    9  N3  UNL     1      30.662   6.934   4.644  1.00  0.00    -0.367 N 
HETATM   10  C3  UNL     1      30.338   7.012   3.244  1.00  0.00     0.126 C 
HETATM   11  C4  UNL     1      29.096   7.822   2.995  1.00  0.00     0.045 C 
HETATM   12  C5  UNL     1      29.041   9.091   3.828  1.00  0.00     0.099 C 
HETATM   13  C11 UNL     1      30.373   9.283   4.472  1.00  0.00     0.045 C 
HETATM   14  C12 UNL     1      30.703   8.141   5.425  1.00  0.00     0.126 C 
BRANCH  12  15
HETATM   15  N4  UNL     1      28.687  10.189   2.969  1.00  0.00    -0.278 N 
HETATM   16  C6  UNL     1      27.542  10.915   3.152  1.00  0.00     0.329 A 
HETATM   17  O1  UNL     1      26.669  10.731   4.067  1.00  0.00    -0.246 OA
HETATM   18  N5  UNL     1      27.524  11.842   2.192  1.00  0.00    -0.301 N 
HETATM   19  C7  UNL     1      28.619  11.723   1.412  1.00  0.00     0.149 A 
ATOM     20  H5  UNL     1      26.790  12.539   2.067  1.00  0.00     0.171 HD
HETATM   21  C8  UNL     1      29.042  12.446   0.303  1.00  0.00     0.277 A 
HETATM   22  C10 UNL     1      29.355  10.671   1.909  1.00  0.00     0.145 A 
HETATM   23  O2  UNL     1      28.365  13.408  -0.149  1.00  0.00    -0.266 OA
HETATM   24  N6  UNL     1      30.207  12.066  -0.263  1.00  0.00    -0.318 N 
HETATM   25  C9  UNL     1      30.910  11.034   0.242  1.00  0.00     0.185 A 
ATOM     26  H6  UNL     1      30.559  12.565  -1.080  1.00  0.00     0.169 HD
HETATM   27  N7  UNL     1      30.526  10.324   1.305  1.00  0.00    -0.336 N 
ATOM     28  H7  UNL     1      31.090   9.548   1.653  1.00  0.00     0.168 HD
ENDBRANCH  12  15
ENDBRANCH   4   9
BRANCH   1  29
HETATM   29  N1  UNL     1      29.704   2.401   5.147  1.00  0.00    -0.234 N 
ATOM     30  H12 UNL     1      29.882   1.901   4.276  1.00  0.00     0.174 HD
ATOM     31  H11 UNL     1      28.935   2.106   5.748  1.00  0.00     0.174 HD
ENDBRANCH   1  29
BRANCH   6  32
HETATM   32  S1  UNL     1      33.403   4.203   8.023  1.00  0.00    -0.104 SA
BRANCH  32  33
HETATM   33  C15 UNL     1      35.086   4.166   7.451  1.00  0.00     0.158 C 
BRANCH  33  34
HETATM   34  C16 UNL     1      36.032   3.835   8.578  1.00  0.00     0.097 C 
HETATM   35  N8  UNL     1      35.566   4.007   9.773  1.00  0.00    -0.343 N 
HETATM   36  C17 UNL     1      36.255   3.773  10.958  1.00  0.00     0.069 A 
ATOM     37  H8  UNL     1      34.607   4.344   9.853  1.00  0.00     0.167 HD
HETATM   38  C18 UNL     1      35.571   3.968  12.156  1.00  0.00     0.034 A 
HETATM   39  C21 UNL     1      37.550   3.326  11.093  1.00  0.00     0.117 A 
HETATM   40  C19 UNL     1      36.169   3.722  13.369  1.00  0.00     0.019 A 
HETATM   41  C20 UNL     1      37.480   3.269  13.458  1.00  0.00     0.089 A 
HETATM   42  N9  UNL     1      38.109   3.094  12.286  1.00  0.00    -0.357 N 
ATOM     43  H9  UNL     1      39.073   2.763  12.306  1.00  0.00     0.166 HD
HETATM   44  S2  UNL     1      38.488   3.104   9.578  1.00  0.00     0.007 SA
HETATM   45  N10 UNL     1      37.318   3.344   8.276  1.00  0.00    -0.314 N 
ATOM     46  H10 UNL     1      37.571   3.129   7.312  1.00  0.00     0.175 HD
ENDBRANCH  33  34
ENDBRANCH  32  33
ENDBRANCH   6  32
TORSDOF 6
ENDMDL
MODEL 5
REMARK VINA RESULT: -9.060975383      4.744      9.437
REMARK  6 active torsions:
REMARK  status: ('A' for Active; 'I' for Inactive)
REMARK    1  A    between atoms: N1_1  and  C1_4 
REMARK    2  A    between atoms: C2_7  and  N3_8 
REMARK    3  A    between atoms: C5_11  and  N4_12 
REMARK    4  A    between atoms: C14_29  and  S1_30 
REMARK    5  A    between atoms: S1_30  and  C15_31 
REMARK    6  A    between atoms: C15_31  and  C16_32 
ROOT
HETATM    1  C1  UNL     1      31.293   3.128   7.204  1.00  0.00     0.678 A 
HETATM    2  N2  UNL     1      31.071   4.218   6.498  1.00  0.00    -0.177 N 
ATOM      3  H2  UNL     1      30.691   4.115   5.557  1.00  0.00     0.185 HD
HETATM    4  C2  UNL     1      31.320   5.468   6.956  1.00  0.00     0.121 A 
HETATM    5  C13 UNL     1      31.832   5.584   8.223  1.00  0.00     0.086 A 
HETATM    6  C14 UNL     1      32.069   4.425   8.975  1.00  0.00     0.090 A 
HETATM    7  N11 UNL     1      31.800   3.235   8.461  1.00  0.00    -0.186 N 
ATOM      8  H11 UNL     1      31.973   2.394   9.011  1.00  0.00     0.185 HD
ENDROOT
BRANCH   4   9
HETATM    9  N3  UNL     1      31.059   6.603   6.152  1.00  0.00    -0.367 N 
HETATM   10  C3  UNL     1      30.962   6.498   4.720  1.00  0.00     0.126 C 
HETATM   11  C4  UNL     1      29.721   7.159   4.188  1.00  0.00     0.045 C 
HETATM   12  C5  UNL     1      29.439   8.501   4.842  1.00  0.00     0.099 C 
HETATM   13  C11 UNL     1      30.631   8.883   5.653  1.00  0.00     0.045 C 
HETATM   14  C12 UNL     1      30.886   7.887   6.777  1.00  0.00     0.126 C 
BRANCH  12  15
HETATM   15  N4  UNL     1      29.150   9.462   3.811  1.00  0.00    -0.278 N 
HETATM   16  C6  UNL     1      27.910  10.022   3.667  1.00  0.00     0.329 A 
HETATM   17  O1  UNL     1      26.885   9.785   4.393  1.00  0.00    -0.246 OA
HETATM   18  N5  UNL     1      27.989  10.856   2.629  1.00  0.00    -0.301 N 
HETATM   19  C7  UNL     1      29.236  10.838   2.114  1.00  0.00     0.149 A 
ATOM     20  H5  UNL     1      27.219  11.423   2.275  1.00  0.00     0.171 HD
HETATM   21  C8  UNL     1      29.802  11.524   1.045  1.00  0.00     0.277 A 
HETATM   22  C10 UNL     1      29.970   9.951   2.868  1.00  0.00     0.145 A 
HETATM   23  O2  UNL     1      29.126  12.335   0.358  1.00  0.00    -0.266 OA
HETATM   24  N6  UNL     1      31.102  11.277   0.783  1.00  0.00    -0.318 N 
HETATM   25  C9  UNL     1      31.800  10.405   1.536  1.00  0.00     0.185 A 
ATOM     26  H6  UNL     1      31.561  11.756   0.008  1.00  0.00     0.169 HD
HETATM   27  N7  UNL     1      31.282   9.734   2.566  1.00  0.00    -0.336 N 
ATOM     28  H7  UNL     1      31.848   9.081   3.109  1.00  0.00     0.168 HD
ENDBRANCH  12  15
ENDBRANCH   4   9
BRANCH   1  29
HETATM   29  N1  UNL     1      31.024   1.974   6.685  1.00  0.00    -0.234 N 
ATOM     30  H12 UNL     1      30.228   1.848   6.060  1.00  0.00     0.174 HD
ATOM     31  H11 UNL     1      31.622   1.177   6.906  1.00  0.00     0.174 HD
ENDBRANCH   1  29
BRANCH   6  32
HETATM   32  S1  UNL     1      32.673   4.630  10.613  1.00  0.00    -0.104 SA
BRANCH  32  33
HETATM   33  C15 UNL     1      34.189   5.542  10.791  1.00  0.00     0.158 C 
BRANCH  33  34
HETATM   34  C16 UNL     1      35.333   4.624  11.139  1.00  0.00     0.097 C 
HETATM   35  N8  UNL     1      36.077   4.250  10.148  1.00  0.00    -0.343 N 
HETATM   36  C17 UNL     1      37.180   3.407  10.229  1.00  0.00     0.069 A 
ATOM     37  H8  UNL     1      35.832   4.607   9.224  1.00  0.00     0.167 HD
HETATM   38  C18 UNL     1      37.892   3.155   9.058  1.00  0.00     0.034 A 
HETATM   39  C21 UNL     1      37.687   2.808  11.359  1.00  0.00     0.117 A 
HETATM   40  C19 UNL     1      39.015   2.363   9.060  1.00  0.00     0.019 A 
HETATM   41  C20 UNL     1      39.493   1.779  10.227  1.00  0.00     0.089 A 
HETATM   42  N9  UNL     1      38.784   2.041  11.335  1.00  0.00    -0.357 N 
ATOM     43  H9  UNL     1      39.100   1.631  12.213  1.00  0.00     0.166 HD
HETATM   44  S2  UNL     1      36.778   3.066  12.886  1.00  0.00     0.007 SA
HETATM   45  N10 UNL     1      35.541   4.262  12.485  1.00  0.00    -0.314 N 
ATOM     46  H10 UNL     1      34.981   4.688  13.223  1.00  0.00     0.175 HD
ENDBRANCH  33  34
ENDBRANCH  32  33
ENDBRANCH   6  32
TORSDOF 6
ENDMDL
