MODEL 1
REMARK VINA RESULT: -7.316533543      0.000      0.000
REMARK  6 active torsions:
REMARK  status: ('A' for Active; 'I' for Inactive)
REMARK    1  A    between atoms: O1_2  and  C2_3 
REMARK    2  A    between atoms: C3_6  and  S1_7 
REMARK    3  A    between atoms: S1_7  and  C4_8 
REMARK    4  A    between atoms: C5_11  and  S2_12 
REMARK    5  A    between atoms: C9_16  and  N3_17 
REMARK    6  A    between atoms: C16_30  and  N6_31 
ROOT
HETATM    1  C4  UNL     1      33.187   5.461   5.703  1.00  0.00     0.105 A 
HETATM    2  N2  UNL     1      32.917   4.975   4.455  1.00  0.00    -0.343 N 
ATOM      3  H2  UNL     1      33.420   4.153   4.117  1.00  0.00     0.167 HD
HETATM    4  C5  UNL     1      32.004   5.557   3.667  1.00  0.00     0.071 A 
HETATM    5  C7  UNL     1      31.338   6.654   4.131  1.00  0.00     0.054 A 
HETATM    6  C8  UNL     1      31.591   7.161   5.378  1.00  0.00     0.041 A 
HETATM    7  C9  UNL     1      30.907   8.272   5.830  1.00  0.00     0.132 A 
HETATM    8  N5  UNL     1      31.193   8.724   7.057  1.00  0.00    -0.176 N 
ATOM      9  H5  UNL     1      30.697   9.544   7.405  1.00  0.00     0.186 HD
HETATM   10  C16 UNL     1      32.109   8.140   7.847  1.00  0.00     0.678 A 
HETATM   11  N7  UNL     1      32.781   7.062   7.421  1.00  0.00    -0.188 N 
ATOM     12  H7  UNL     1      33.476   6.625   8.026  1.00  0.00     0.184 HD
HETATM   13  C17 UNL     1      32.543   6.559   6.207  1.00  0.00     0.097 A 
ENDROOT
BRANCH   1  14
HETATM   14  S1  UNL     1      34.412   4.598   6.643  1.00  0.00    -0.050 SA
BRANCH  14  15
HETATM   15  C3  UNL     1      33.804   3.905   8.147  1.00  0.00     0.110 A 
HETATM   16  N1  UNL     1      32.500   3.644   8.306  1.00  0.00    -0.314 N 
HETATM   17  C2  UNL     1      32.042   3.095   9.462  1.00  0.00     0.225 A 
ATOM     18  H1  UNL     1      31.846   3.858   7.553  1.00  0.00     0.170 HD
HETATM   19  N10 UNL     1      32.902   2.810  10.459  1.00  0.00    -0.306 N 
HETATM   20  C20 UNL     1      34.212   3.060  10.327  1.00  0.00     0.139 A 
ATOM     21  H10 UNL     1      32.552   2.399  11.325  1.00  0.00     0.171 HD
HETATM   22  C18 UNL     1      34.676   3.613   9.165  1.00  0.00     0.112 A 
HETATM   23  N9  UNL     1      35.274   2.887  11.129  1.00  0.00    -0.337 N 
HETATM   24  N8  UNL     1      36.022   3.773   9.265  1.00  0.00    -0.347 N 
HETATM   25  C19 UNL     1      36.389   3.323  10.479  1.00  0.00     0.182 A 
ATOM     26  H8  UNL     1      36.639   4.162   8.552  1.00  0.00     0.167 HD
ATOM     27  H9  UNL     1      35.251   2.493  12.069  1.00  0.00     0.168 HD
BRANCH  17  28
HETATM   28  O1  UNL     1      30.687   2.825   9.623  1.00  0.00    -0.327 OA
HETATM   29  C1  UNL     1      29.893   3.578  10.517  1.00  0.00     0.213 C 
ENDBRANCH  17  28
ENDBRANCH  14  15
ENDBRANCH   1  14
BRANCH   4  30
HETATM   30  S2  UNL     1      31.616   4.960   2.029  1.00  0.00    -0.117 SA
HETATM   31  C6  UNL     1      32.419   3.335   1.846  1.00  0.00     0.097 C 
ENDBRANCH   4  30
BRANCH   7  32
HETATM   32  N3  UNL     1      29.943   8.872   4.984  1.00  0.00    -0.366 N 
HETATM   33  C10 UNL     1      28.555   8.535   5.111  1.00  0.00     0.129 C 
HETATM   34  C11 UNL     1      27.849   8.380   3.777  1.00  0.00     0.081 C 
HETATM   35  C12 UNL     1      28.065   9.676   3.039  1.00  0.00     0.152 C 
HETATM   36  C13 UNL     1      29.536   9.868   2.758  1.00  0.00     0.081 C 
HETATM   37  N4  UNL     1      27.169   9.979   1.974  1.00  0.00    -0.304 N 
HETATM   38  O3  UNL     1      27.504  10.745   3.776  1.00  0.00    -0.272 OA
HETATM   39  C14 UNL     1      30.371   9.822   3.997  1.00  0.00     0.129 C 
HETATM   40  C15 UNL     1      26.477  10.859   2.851  1.00  0.00     0.365 C 
ATOM     41  H4  UNL     1      27.068   9.689   1.001  1.00  0.00     0.167 HD
HETATM   42  O2  UNL     1      25.378  11.461   2.757  1.00  0.00    -0.238 OA
ENDBRANCH   7  32
BRANCH  10  43
HETATM   43  N6  UNL     1      32.353   8.624   9.042  1.00  0.00    -0.234 N 
ATOM     44  H62 UNL     1      33.189   9.188   9.196  1.00  0.00     0.174 HD
ATOM     45  H61 UNL     1      31.709   8.438   9.811  1.00  0.00     0.174 HD
ENDBRANCH  10  43
TORSDOF 6
ENDMDL
MODEL 2
REMARK VINA RESULT: -7.162228776      1.893      3.507
REMARK  6 active torsions:
REMARK  status: ('A' for Active; 'I' for Inactive)
REMARK    1  A    between atoms: O1_2  and  C2_3 
REMARK    2  A    between atoms: C3_6  and  S1_7 
REMARK    3  A    between atoms: S1_7  and  C4_8 
REMARK    4  A    between atoms: C5_11  and  S2_12 
REMARK    5  A    between atoms: C9_16  and  N3_17 
REMARK    6  A    between atoms: C16_30  and  N6_31 
ROOT
HETATM    1  C4  UNL     1      33.204   5.591   6.164  1.00  0.00     0.105 A 
HETATM    2  N2  UNL     1      32.788   6.441   7.150  1.00  0.00    -0.343 N 
ATOM      3  H2  UNL     1      33.062   6.260   8.116  1.00  0.00     0.167 HD
HETATM    4  C5  UNL     1      32.027   7.508   6.870  1.00  0.00     0.071 A 
HETATM    5  C7  UNL     1      31.668   7.738   5.574  1.00  0.00     0.054 A 
HETATM    6  C8  UNL     1      32.072   6.900   4.568  1.00  0.00     0.041 A 
HETATM    7  C9  UNL     1      31.699   7.151   3.263  1.00  0.00     0.132 A 
HETATM    8  N5  UNL     1      32.122   6.300   2.319  1.00  0.00    -0.176 N 
ATOM      9  H5  UNL     1      31.855   6.471   1.350  1.00  0.00     0.186 HD
HETATM   10  C16 UNL     1      32.885   5.231   2.600  1.00  0.00     0.678 A 
HETATM   11  N7  UNL     1      33.254   4.976   3.862  1.00  0.00    -0.188 N 
ATOM     12  H7  UNL     1      33.833   4.162   4.068  1.00  0.00     0.184 HD
HETATM   13  C17 UNL     1      32.866   5.785   4.852  1.00  0.00     0.097 A 
ENDROOT
BRANCH   1  14
HETATM   14  S1  UNL     1      34.208   4.224   6.667  1.00  0.00    -0.050 SA
BRANCH  14  15
HETATM   15  C3  UNL     1      34.086   3.838   8.384  1.00  0.00     0.110 A 
HETATM   16  N1  UNL     1      32.892   3.759   8.987  1.00  0.00    -0.314 N 
HETATM   17  C2  UNL     1      32.806   3.446  10.306  1.00  0.00     0.225 A 
ATOM     18  H1  UNL     1      32.042   3.936   8.453  1.00  0.00     0.170 HD
HETATM   19  N10 UNL     1      33.926   3.211  11.018  1.00  0.00    -0.306 N 
HETATM   20  C20 UNL     1      35.133   3.283  10.439  1.00  0.00     0.139 A 
ATOM     21  H10 UNL     1      33.855   2.978  12.008  1.00  0.00     0.171 HD
HETATM   22  C18 UNL     1      35.223   3.599   9.112  1.00  0.00     0.112 A 
HETATM   23  N9  UNL     1      36.387   3.105  10.885  1.00  0.00    -0.337 N 
HETATM   24  N8  UNL     1      36.534   3.611   8.754  1.00  0.00    -0.347 N 
HETATM   25  C19 UNL     1      37.250   3.306   9.852  1.00  0.00     0.182 A 
ATOM     26  H8  UNL     1      36.906   3.814   7.826  1.00  0.00     0.167 HD
ATOM     27  H9  UNL     1      36.649   2.860  11.840  1.00  0.00     0.168 HD
BRANCH  17  28
HETATM   28  O1  UNL     1      31.565   3.364  10.930  1.00  0.00    -0.327 OA
HETATM   29  C1  UNL     1      31.196   4.277  11.944  1.00  0.00     0.213 C 
ENDBRANCH  17  28
ENDBRANCH  14  15
ENDBRANCH   1  14
BRANCH   4  30
HETATM   30  S2  UNL     1      31.459   8.646   8.123  1.00  0.00    -0.117 SA
HETATM   31  C6  UNL     1      32.434   8.321   9.627  1.00  0.00     0.097 C 
ENDBRANCH   4  30
BRANCH   7  32
HETATM   32  N3  UNL     1      30.897   8.284   2.986  1.00  0.00    -0.366 N 
HETATM   33  C10 UNL     1      31.484   9.473   2.440  1.00  0.00     0.129 C 
HETATM   34  C11 UNL     1      30.937  10.749   3.051  1.00  0.00     0.081 C 
HETATM   35  C12 UNL     1      29.444  10.699   2.856  1.00  0.00     0.152 C 
HETATM   36  C13 UNL     1      28.864   9.537   3.627  1.00  0.00     0.081 C 
HETATM   37  N4  UNL     1      28.732  11.930   2.930  1.00  0.00    -0.304 N 
HETATM   38  O3  UNL     1      29.145  10.643   1.475  1.00  0.00    -0.272 OA
HETATM   39  C14 UNL     1      29.489   8.230   3.259  1.00  0.00     0.129 C 
HETATM   40  C15 UNL     1      28.687  11.951   1.509  1.00  0.00     0.365 C 
ATOM     41  H4  UNL     1      28.399  12.536   3.680  1.00  0.00     0.167 HD
HETATM   42  O2  UNL     1      28.356  12.838   0.682  1.00  0.00    -0.238 OA
ENDBRANCH   7  32
BRANCH  10  43
HETATM   43  N6  UNL     1      33.273   4.428   1.637  1.00  0.00    -0.234 N 
ATOM     44  H62 UNL     1      32.838   4.498   0.717  1.00  0.00     0.174 HD
ATOM     45  H61 UNL     1      34.006   3.740   1.809  1.00  0.00     0.174 HD
ENDBRANCH  10  43
TORSDOF 6
ENDMDL
MODEL 3
REMARK VINA RESULT: -7.159208260      3.547      5.341
REMARK  6 active torsions:
REMARK  status: ('A' for Active; 'I' for Inactive)
REMARK    1  A    between atoms: O1_2  and  C2_3 
REMARK    2  A    between atoms: C3_6  and  S1_7 
REMARK    3  A    between atoms: S1_7  and  C4_8 
REMARK    4  A    between atoms: C5_11  and  S2_12 
REMARK    5  A    between atoms: C9_16  and  N3_17 
REMARK    6  A    between atoms: C16_30  and  N6_31 
ROOT
HETATM    1  C4  UNL     1      34.201   4.344   8.614  1.00  0.00     0.105 A 
HETATM    2  N2  UNL     1      33.698   4.332   9.885  1.00  0.00    -0.343 N 
ATOM      3  H2  UNL     1      34.291   4.023  10.656  1.00  0.00     0.167 HD
HETATM    4  C5  UNL     1      32.441   4.720  10.136  1.00  0.00     0.071 A 
HETATM    5  C7  UNL     1      31.659   5.131   9.096  1.00  0.00     0.054 A 
HETATM    6  C8  UNL     1      32.140   5.151   7.813  1.00  0.00     0.041 A 
HETATM    7  C9  UNL     1      31.333   5.571   6.774  1.00  0.00     0.132 A 
HETATM    8  N5  UNL     1      31.855   5.571   5.541  1.00  0.00    -0.176 N 
ATOM      9  H5  UNL     1      31.272   5.878   4.762  1.00  0.00     0.186 HD
HETATM   10  C16 UNL     1      33.116   5.182   5.289  1.00  0.00     0.678 A 
HETATM   11  N7  UNL     1      33.909   4.772   6.288  1.00  0.00    -0.188 N 
ATOM     12  H7  UNL     1      34.865   4.478   6.089  1.00  0.00     0.184 HD
HETATM   13  C17 UNL     1      33.451   4.748   7.543  1.00  0.00     0.097 A 
ENDROOT
BRANCH   1  14
HETATM   14  S1  UNL     1      35.877   3.812   8.420  1.00  0.00    -0.050 SA
BRANCH  14  15
HETATM   15  C3  UNL     1      36.703   3.472   9.941  1.00  0.00     0.110 A 
HETATM   16  N1  UNL     1      36.171   3.852  11.111  1.00  0.00    -0.314 N 
HETATM   17  C2  UNL     1      36.806   3.572  12.279  1.00  0.00     0.225 A 
ATOM     18  H1  UNL     1      35.284   4.354  11.125  1.00  0.00     0.170 HD
HETATM   19  N10 UNL     1      37.978   2.908  12.268  1.00  0.00    -0.306 N 
HETATM   20  C20 UNL     1      38.532   2.515  11.112  1.00  0.00     0.139 A 
ATOM     21  H10 UNL     1      38.450   2.702  13.148  1.00  0.00     0.171 HD
HETATM   22  C18 UNL     1      37.896   2.796   9.934  1.00  0.00     0.112 A 
HETATM   23  N9  UNL     1      39.659   1.857  10.801  1.00  0.00    -0.337 N 
HETATM   24  N8  UNL     1      38.641   2.305   8.908  1.00  0.00    -0.347 N 
HETATM   25  C19 UNL     1      39.729   1.726   9.447  1.00  0.00     0.182 A 
ATOM     26  H8  UNL     1      38.416   2.365   7.915  1.00  0.00     0.167 HD
ATOM     27  H9  UNL     1      40.349   1.512  11.468  1.00  0.00     0.168 HD
BRANCH  17  28
HETATM   28  O1  UNL     1      36.251   3.967  13.492  1.00  0.00    -0.327 OA
HETATM   29  C1  UNL     1      37.061   4.458  14.541  1.00  0.00     0.213 C 
ENDBRANCH  17  28
ENDBRANCH  14  15
ENDBRANCH   1  14
BRANCH   4  30
HETATM   30  S2  UNL     1      31.738   4.723  11.777  1.00  0.00    -0.117 SA
HETATM   31  C6  UNL     1      30.273   3.642  11.737  1.00  0.00     0.097 C 
ENDBRANCH   4  30
BRANCH   7  32
HETATM   32  N3  UNL     1      30.009   5.979   7.059  1.00  0.00    -0.366 N 
HETATM   33  C10 UNL     1      28.978   5.005   7.273  1.00  0.00     0.129 C 
HETATM   34  C11 UNL     1      27.658   5.374   6.624  1.00  0.00     0.081 C 
HETATM   35  C12 UNL     1      27.291   6.730   7.166  1.00  0.00     0.152 C 
HETATM   36  C13 UNL     1      28.315   7.751   6.731  1.00  0.00     0.081 C 
HETATM   37  N4  UNL     1      25.925   7.123   7.078  1.00  0.00    -0.304 N 
HETATM   38  O3  UNL     1      27.151   6.661   8.571  1.00  0.00    -0.272 OA
HETATM   39  C14 UNL     1      29.707   7.380   7.133  1.00  0.00     0.129 C 
HETATM   40  C15 UNL     1      25.775   6.787   8.452  1.00  0.00     0.365 C 
ATOM     41  H4  UNL     1      25.317   7.488   6.345  1.00  0.00     0.167 HD
HETATM   42  O2  UNL     1      24.767   6.669   9.193  1.00  0.00    -0.238 OA
ENDBRANCH   7  32
BRANCH  10  43
HETATM   43  N6  UNL     1      33.578   5.201   4.061  1.00  0.00    -0.234 N 
ATOM     44  H62 UNL     1      33.414   4.401   3.450  1.00  0.00     0.174 HD
ATOM     45  H61 UNL     1      34.096   6.012   3.722  1.00  0.00     0.174 HD
ENDBRANCH  10  43
TORSDOF 6
ENDMDL
MODEL 4
REMARK VINA RESULT: -7.156306938      2.676      9.380
REMARK  6 active torsions:
REMARK  status: ('A' for Active; 'I' for Inactive)
REMARK    1  A    between atoms: O1_2  and  C2_3 
REMARK    2  A    between atoms: C3_6  and  S1_7 
REMARK    3  A    between atoms: S1_7  and  C4_8 
REMARK    4  A    between atoms: C5_11  and  S2_12 
REMARK    5  A    between atoms: C9_16  and  N3_17 
REMARK    6  A    between atoms: C16_30  and  N6_31 
ROOT
HETATM    1  C4  UNL     1      29.762   6.124   6.413  1.00  0.00     0.105 A 
HETATM    2  N2  UNL     1      30.273   7.241   7.011  1.00  0.00    -0.343 N 
ATOM      3  H2  UNL     1      29.861   8.152   6.806  1.00  0.00     0.167 HD
HETATM    4  C5  UNL     1      31.306   7.162   7.861  1.00  0.00     0.071 A 
HETATM    5  C7  UNL     1      31.846   5.937   8.126  1.00  0.00     0.054 A 
HETATM    6  C8  UNL     1      31.352   4.802   7.539  1.00  0.00     0.041 A 
HETATM    7  C9  UNL     1      31.913   3.573   7.820  1.00  0.00     0.132 A 
HETATM    8  N5  UNL     1      31.390   2.496   7.219  1.00  0.00    -0.176 N 
ATOM      9  H5  UNL     1      31.793   1.581   7.416  1.00  0.00     0.186 HD
HETATM   10  C16 UNL     1      30.355   2.577   6.367  1.00  0.00     0.678 A 
HETATM   11  N7  UNL     1      29.801   3.763   6.085  1.00  0.00    -0.188 N 
ATOM     12  H7  UNL     1      29.016   3.817   5.436  1.00  0.00     0.184 HD
HETATM   13  C17 UNL     1      30.275   4.877   6.650  1.00  0.00     0.097 A 
ENDROOT
BRANCH   1  14
HETATM   14  S1  UNL     1      28.396   6.366   5.315  1.00  0.00    -0.050 SA
BRANCH  14  15
HETATM   15  C3  UNL     1      28.521   7.822   4.326  1.00  0.00     0.110 A 
HETATM   16  N1  UNL     1      27.577   8.772   4.379  1.00  0.00    -0.314 N 
HETATM   17  C2  UNL     1      27.689   9.897   3.626  1.00  0.00     0.225 A 
ATOM     18  H1  UNL     1      26.769   8.649   4.989  1.00  0.00     0.170 HD
HETATM   19  N10 UNL     1      28.755  10.065   2.819  1.00  0.00    -0.306 N 
HETATM   20  C20 UNL     1      29.714   9.131   2.747  1.00  0.00     0.139 A 
ATOM     21  H10 UNL     1      28.833  10.912   2.256  1.00  0.00     0.171 HD
HETATM   22  C18 UNL     1      29.604   7.997   3.503  1.00  0.00     0.112 A 
HETATM   23  N9  UNL     1      30.857   9.028   2.052  1.00  0.00    -0.337 N 
HETATM   24  N8  UNL     1      30.684   7.207   3.264  1.00  0.00    -0.347 N 
HETATM   25  C19 UNL     1      31.456   7.847   2.367  1.00  0.00     0.182 A 
ATOM     26  H8  UNL     1      30.873   6.298   3.686  1.00  0.00     0.167 HD
ATOM     27  H9  UNL     1      31.218   9.721   1.395  1.00  0.00     0.168 HD
BRANCH  17  28
HETATM   28  O1  UNL     1      26.708  10.882   3.684  1.00  0.00    -0.327 OA
HETATM   29  C1  UNL     1      26.046  11.323   2.516  1.00  0.00     0.213 C 
ENDBRANCH  17  28
ENDBRANCH  14  15
ENDBRANCH   1  14
BRANCH   4  30
HETATM   30  S2  UNL     1      32.009   8.591   8.666  1.00  0.00    -0.117 SA
HETATM   31  C6  UNL     1      33.020   7.984  10.054  1.00  0.00     0.097 C 
ENDBRANCH   4  30
BRANCH   7  32
HETATM   32  N3  UNL     1      33.001   3.508   8.722  1.00  0.00    -0.366 N 
HETATM   33  C10 UNL     1      32.779   3.213  10.108  1.00  0.00     0.129 C 
HETATM   34  C11 UNL     1      33.628   4.052  11.045  1.00  0.00     0.081 C 
HETATM   35  C12 UNL     1      35.057   3.825  10.628  1.00  0.00     0.152 C 
HETATM   36  C13 UNL     1      35.273   4.345   9.227  1.00  0.00     0.081 C 
HETATM   37  N4  UNL     1      36.073   4.125  11.580  1.00  0.00    -0.304 N 
HETATM   38  O3  UNL     1      35.381   2.454  10.758  1.00  0.00    -0.272 OA
HETATM   39  C14 UNL     1      34.331   3.741   8.235  1.00  0.00     0.129 C 
HETATM   40  C15 UNL     1      36.175   2.734  11.861  1.00  0.00     0.365 C 
ATOM     41  H4  UNL     1      36.530   4.972  11.917  1.00  0.00     0.167 HD
HETATM   42  O2  UNL     1      36.764   2.090  12.764  1.00  0.00    -0.238 OA
ENDBRANCH   7  32
BRANCH  10  43
HETATM   43  N6  UNL     1      29.879   1.490   5.804  1.00  0.00    -0.234 N 
ATOM     44  H62 UNL     1      30.455   0.648   5.770  1.00  0.00     0.174 HD
ATOM     45  H61 UNL     1      28.941   1.490   5.405  1.00  0.00     0.174 HD
ENDBRANCH  10  43
TORSDOF 6
ENDMDL
MODEL 5
REMARK VINA RESULT: -7.107278185      4.956      8.925
REMARK  6 active torsions:
REMARK  status: ('A' for Active; 'I' for Inactive)
REMARK    1  A    between atoms: O1_2  and  C2_3 
REMARK    2  A    between atoms: C3_6  and  S1_7 
REMARK    3  A    between atoms: S1_7  and  C4_8 
REMARK    4  A    between atoms: C5_11  and  S2_12 
REMARK    5  A    between atoms: C9_16  and  N3_17 
REMARK    6  A    between atoms: C16_30  and  N6_31 
ROOT
HETATM    1  C4  UNL     1      29.622   3.677   6.237  1.00  0.00     0.105 A 
HETATM    2  N2  UNL     1      29.089   3.311   7.441  1.00  0.00    -0.343 N 
ATOM      3  H2  UNL     1      28.107   3.039   7.492  1.00  0.00     0.167 HD
HETATM    4  C5  UNL     1      29.833   3.303   8.555  1.00  0.00     0.071 A 
HETATM    5  C7  UNL     1      31.145   3.667   8.472  1.00  0.00     0.054 A 
HETATM    6  C8  UNL     1      31.704   4.038   7.277  1.00  0.00     0.041 A 
HETATM    7  C9  UNL     1      33.033   4.404   7.214  1.00  0.00     0.132 A 
HETATM    8  N5  UNL     1      33.527   4.757   6.020  1.00  0.00    -0.176 N 
ATOM      9  H5  UNL     1      34.507   5.030   5.956  1.00  0.00     0.186 HD
HETATM   10  C16 UNL     1      32.780   4.765   4.903  1.00  0.00     0.678 A 
HETATM   11  N7  UNL     1      31.489   4.413   4.950  1.00  0.00    -0.188 N 
ATOM     12  H7  UNL     1      30.928   4.423   4.099  1.00  0.00     0.184 HD
HETATM   13  C17 UNL     1      30.933   4.050   6.110  1.00  0.00     0.097 A 
ENDROOT
BRANCH   1  14
HETATM   14  S1  UNL     1      28.533   3.641   4.843  1.00  0.00    -0.050 SA
BRANCH  14  15
HETATM   15  C3  UNL     1      28.352   2.044   4.117  1.00  0.00     0.110 A 
HETATM   16  N1  UNL     1      27.440   1.177   4.580  1.00  0.00    -0.314 N 
HETATM   17  C2  UNL     1      27.296  -0.045   4.004  1.00  0.00     0.225 A 
ATOM     18  H1  UNL     1      26.851   1.438   5.370  1.00  0.00     0.170 HD
HETATM   19  N10 UNL     1      28.073  -0.394   2.960  1.00  0.00    -0.306 N 
HETATM   20  C20 UNL     1      28.992   0.453   2.476  1.00  0.00     0.139 A 
ATOM     21  H10 UNL     1      27.960  -1.314   2.533  1.00  0.00     0.171 HD
HETATM   22  C18 UNL     1      29.140   1.684   3.053  1.00  0.00     0.112 A 
HETATM   23  N9  UNL     1      29.882   0.381   1.474  1.00  0.00    -0.337 N 
HETATM   24  N8  UNL     1      30.122   2.358   2.399  1.00  0.00    -0.347 N 
HETATM   25  C19 UNL     1      30.579   1.550   1.424  1.00  0.00     0.182 A 
ATOM     26  H8  UNL     1      30.452   3.300   2.608  1.00  0.00     0.167 HD
ATOM     27  H9  UNL     1      30.015  -0.417   0.854  1.00  0.00     0.168 HD
BRANCH  17  28
HETATM   28  O1  UNL     1      26.348  -0.941   4.487  1.00  0.00    -0.327 OA
HETATM   29  C1  UNL     1      26.700  -2.272   4.811  1.00  0.00     0.213 C 
ENDBRANCH  17  28
ENDBRANCH  14  15
ENDBRANCH   1  14
BRANCH   4  30
HETATM   30  S2  UNL     1      29.183   2.833  10.150  1.00  0.00    -0.117 SA
HETATM   31  C6  UNL     1      27.366   2.834  10.011  1.00  0.00     0.097 C 
ENDBRANCH   4  30
BRANCH   7  32
HETATM   32  N3  UNL     1      33.804   4.386   8.400  1.00  0.00    -0.366 N 
HETATM   33  C10 UNL     1      34.213   3.141   8.983  1.00  0.00     0.129 C 
HETATM   34  C11 UNL     1      34.108   3.121  10.496  1.00  0.00     0.081 C 
HETATM   35  C12 UNL     1      34.929   4.285  10.985  1.00  0.00     0.152 C 
HETATM   36  C13 UNL     1      34.323   5.581  10.503  1.00  0.00     0.081 C 
HETATM   37  N4  UNL     1      35.365   4.255  12.341  1.00  0.00    -0.304 N 
HETATM   38  O3  UNL     1      36.274   4.126  10.580  1.00  0.00    -0.272 OA
HETATM   39  C14 UNL     1      34.173   5.629   9.015  1.00  0.00     0.129 C 
HETATM   40  C15 UNL     1      36.646   3.839  11.885  1.00  0.00     0.365 C 
ATOM     41  H4  UNL     1      34.941   4.447  13.248  1.00  0.00     0.167 HD
HETATM   42  O2  UNL     1      37.660   3.398  12.482  1.00  0.00    -0.238 OA
ENDBRANCH   7  32
BRANCH  10  43
HETATM   43  N6  UNL     1      33.313   5.120   3.757  1.00  0.00    -0.234 N 
ATOM     44  H62 UNL     1      33.672   4.403   3.126  1.00  0.00     0.174 HD
ATOM     45  H61 UNL     1      33.366   6.105   3.501  1.00  0.00     0.174 HD
ENDBRANCH  10  43
TORSDOF 6
ENDMDL
