MODEL 1
REMARK VINA RESULT: -8.225060324      0.000      0.000
REMARK  6 active torsions:
REMARK  status: ('A' for Active; 'I' for Inactive)
REMARK    1  A    between atoms: O1_2  and  C2_3 
REMARK    2  A    between atoms: C2_3  and  C3_4 
REMARK    3  A    between atoms: C8_11  and  N1_12 
REMARK    4  A    between atoms: C9_13  and  S2_14 
REMARK    5  A    between atoms: S2_14  and  C10_15 
REMARK    6  A    between atoms: C21_36  and  N6_37 
ROOT
HETATM    1  C10 UNL     1      32.780   3.507   8.647  1.00  0.00     0.280 C 
HETATM    2  N2  UNL     1      34.040   4.092   8.147  1.00  0.00    -0.056 N 
ATOM      3  H21 UNL     1      33.943   5.071   7.875  1.00  0.00     0.279 HD
ATOM      4  H22 UNL     1      34.312   3.727   7.234  1.00  0.00     0.279 HD
HETATM    5  C11 UNL     1      35.017   3.894   9.124  1.00  0.00     0.189 C 
HETATM    6  C12 UNL     1      36.417   3.518   8.708  1.00  0.00     0.033 C 
HETATM    7  C13 UNL     1      37.211   3.651  10.015  1.00  0.00     0.004 C 
HETATM    8  C14 UNL     1      36.357   3.520  11.249  1.00  0.00     0.032 C 
HETATM    9  C15 UNL     1      35.297   4.621  11.372  1.00  0.00     0.132 C 
HETATM   10  C16 UNL     1      35.196   5.158   9.937  1.00  0.00     0.065 C 
HETATM   11  O3  UNL     1      34.015   4.030  11.619  1.00  0.00    -0.333 OA
HETATM   12  C17 UNL     1      32.713   4.136  11.083  1.00  0.00     0.132 C 
HETATM   13  N3  UNL     1      31.883   4.041  12.064  1.00  0.00    -0.382 N 
ATOM     14  H31 UNL     1      30.943   4.118  11.677  1.00  0.00     0.158 HD
ATOM     15  H32 UNL     1      32.268   3.913  12.999  1.00  0.00     0.158 HD
HETATM   16  C18 UNL     1      32.161   4.320   9.740  1.00  0.00     0.208 C 
HETATM   17  C19 UNL     1      30.741   3.875   9.800  1.00  0.00     0.075 C 
HETATM   18  N4  UNL     1      29.626   3.516   9.827  1.00  0.00    -0.196 NA
ENDROOT
BRANCH   1  19
HETATM   19  S2  UNL     1      31.683   3.126   7.277  1.00  0.00    -0.058 SA
BRANCH  19  20
HETATM   20  C9  UNL     1      31.902   4.173   5.867  1.00  0.00     0.151 A 
HETATM   21  N1  UNL     1      31.547   5.468   5.831  1.00  0.00    -0.302 N 
HETATM   22  C23 UNL     1      31.898   5.899   4.577  1.00  0.00     0.142 A 
HETATM   23  C20 UNL     1      32.459   4.889   3.855  1.00  0.00     0.123 A 
HETATM   24  N8  UNL     1      31.769   7.113   4.004  1.00  0.00    -0.336 N 
HETATM   25  N5  UNL     1      32.455   3.823   4.665  1.00  0.00    -0.330 N 
HETATM   26  C21 UNL     1      32.871   5.150   2.567  1.00  0.00     0.131 A 
ATOM     27  H5  UNL     1      32.809   2.897   4.425  1.00  0.00     0.168 HD
HETATM   28  N7  UNL     1      32.718   6.379   2.050  1.00  0.00    -0.337 N 
HETATM   29  C22 UNL     1      32.166   7.377   2.759  1.00  0.00     0.183 A 
ATOM     30  H7  UNL     1      33.029   6.559   1.095  1.00  0.00     0.168 HD
ATOM     31  H8  UNL     1      31.348   7.865   4.548  1.00  0.00     0.168 HD
BRANCH  21  32
HETATM   32  C8  UNL     1      30.919   6.295   6.841  1.00  0.00     0.152 C 
HETATM   33  C3  UNL     1      29.552   6.766   6.432  1.00  0.00     0.141 A 
HETATM   34  O2  UNL     1      28.935   7.460   7.526  1.00  0.00    -0.353 OA
HETATM   35  C4  UNL     1      29.343   8.109   6.359  1.00  0.00     0.224 A 
HETATM   36  S1  UNL     1      30.989   8.889   6.636  1.00  0.00    -0.123 SA
HETATM   37  C5  UNL     1      31.758   7.398   7.332  1.00  0.00     0.027 C 
HETATM   38  C6  UNL     1      33.219   7.300   6.972  1.00  0.00     0.029 C 
HETATM   39  C7  UNL     1      31.630   7.541   8.854  1.00  0.00     0.029 C 
BRANCH  33  40
HETATM   40  C2  UNL     1      28.710   5.650   5.901  1.00  0.00     0.210 C 
BRANCH  40  41
HETATM   41  O1  UNL     1      28.401   4.610   6.700  1.00  0.00    -0.393 OA
HETATM   42  C1  UNL     1      28.059   3.446   6.106  1.00  0.00     0.201 C 
ENDBRANCH  40  41
ENDBRANCH  33  40
ENDBRANCH  21  32
BRANCH  26  43
HETATM   43  N6  UNL     1      33.400   4.194   1.890  1.00  0.00    -0.383 N 
ATOM     44  H62 UNL     1      33.947   3.460   2.338  1.00  0.00     0.157 HD
ATOM     45  H61 UNL     1      33.259   4.181   0.880  1.00  0.00     0.157 HD
ENDBRANCH  26  43
ENDBRANCH  19  20
ENDBRANCH   1  19
TORSDOF 6
ENDMDL
MODEL 2
REMARK VINA RESULT: -7.588446874      1.527      1.625
REMARK  6 active torsions:
REMARK  status: ('A' for Active; 'I' for Inactive)
REMARK    1  A    between atoms: O1_2  and  C2_3 
REMARK    2  A    between atoms: C2_3  and  C3_4 
REMARK    3  A    between atoms: C8_11  and  N1_12 
REMARK    4  A    between atoms: C9_13  and  S2_14 
REMARK    5  A    between atoms: S2_14  and  C10_15 
REMARK    6  A    between atoms: C21_36  and  N6_37 
ROOT
HETATM    1  C10 UNL     1      31.210   3.804   8.623  1.00  0.00     0.280 C 
HETATM    2  N2  UNL     1      32.441   4.433   8.105  1.00  0.00    -0.056 N 
ATOM      3  H21 UNL     1      32.358   5.445   8.007  1.00  0.00     0.279 HD
ATOM      4  H22 UNL     1      32.613   4.218   7.124  1.00  0.00     0.279 HD
HETATM    5  C11 UNL     1      33.495   4.052   8.939  1.00  0.00     0.189 C 
HETATM    6  C12 UNL     1      34.835   3.717   8.333  1.00  0.00     0.033 C 
HETATM    7  C13 UNL     1      35.749   3.613   9.561  1.00  0.00     0.004 C 
HETATM    8  C14 UNL     1      35.007   3.300  10.834  1.00  0.00     0.032 C 
HETATM    9  C15 UNL     1      34.007   4.390  11.237  1.00  0.00     0.132 C 
HETATM   10  C16 UNL     1      33.797   5.160   9.925  1.00  0.00     0.065 C 
HETATM   11  O3  UNL     1      32.731   3.797  11.507  1.00  0.00    -0.333 OA
HETATM   12  C17 UNL     1      31.390   4.022  11.124  1.00  0.00     0.132 C 
HETATM   13  N3  UNL     1      30.651   3.786  12.152  1.00  0.00    -0.382 N 
ATOM     14  H31 UNL     1      29.683   3.948  11.875  1.00  0.00     0.158 HD
ATOM     15  H32 UNL     1      31.114   3.495  13.012  1.00  0.00     0.158 HD
HETATM   16  C18 UNL     1      30.725   4.438   9.889  1.00  0.00     0.208 C 
HETATM   17  C19 UNL     1      29.300   4.024  10.013  1.00  0.00     0.075 C 
HETATM   18  N4  UNL     1      28.180   3.693  10.089  1.00  0.00    -0.196 NA
ENDROOT
BRANCH   1  19
HETATM   19  S2  UNL     1      29.978   3.681   7.323  1.00  0.00    -0.058 SA
BRANCH  19  20
HETATM   20  C9  UNL     1      30.537   4.256   5.745  1.00  0.00     0.151 A 
HETATM   21  N1  UNL     1      30.456   5.535   5.340  1.00  0.00    -0.302 N 
HETATM   22  C23 UNL     1      31.004   5.546   4.083  1.00  0.00     0.142 A 
HETATM   23  C20 UNL     1      31.415   4.299   3.720  1.00  0.00     0.123 A 
HETATM   24  N8  UNL     1      31.179   6.565   3.216  1.00  0.00    -0.336 N 
HETATM   25  N5  UNL     1      31.120   3.508   4.759  1.00  0.00    -0.330 N 
HETATM   26  C21 UNL     1      31.993   4.130   2.482  1.00  0.00     0.131 A 
ATOM     27  H5  UNL     1      31.300   2.505   4.808  1.00  0.00     0.168 HD
HETATM   28  N7  UNL     1      32.141   5.182   1.661  1.00  0.00    -0.337 N 
HETATM   29  C22 UNL     1      31.737   6.413   2.016  1.00  0.00     0.183 A 
ATOM     30  H7  UNL     1      32.571   5.042   0.747  1.00  0.00     0.168 HD
ATOM     31  H8  UNL     1      30.868   7.496   3.492  1.00  0.00     0.168 HD
BRANCH  21  32
HETATM   32  C8  UNL     1      29.915   6.698   6.014  1.00  0.00     0.152 C 
HETATM   33  C3  UNL     1      28.778   7.325   5.258  1.00  0.00     0.141 A 
HETATM   34  O2  UNL     1      28.203   8.380   6.041  1.00  0.00    -0.353 OA
HETATM   35  C4  UNL     1      28.919   8.622   4.867  1.00  0.00     0.224 A 
HETATM   36  S1  UNL     1      30.650   9.088   5.292  1.00  0.00    -0.123 SA
HETATM   37  C5  UNL     1      30.922   7.689   6.419  1.00  0.00     0.027 C 
HETATM   38  C6  UNL     1      32.349   7.205   6.379  1.00  0.00     0.029 C 
HETATM   39  C7  UNL     1      30.618   8.228   7.823  1.00  0.00     0.029 C 
BRANCH  33  40
HETATM   40  C2  UNL     1      27.771   6.312   4.817  1.00  0.00     0.210 C 
BRANCH  40  41
HETATM   41  O1  UNL     1      27.558   6.113   3.501  1.00  0.00    -0.393 OA
HETATM   42  C1  UNL     1      27.571   4.839   3.052  1.00  0.00     0.201 C 
ENDBRANCH  40  41
ENDBRANCH  33  40
ENDBRANCH  21  32
BRANCH  26  43
HETATM   43  N6  UNL     1      32.379   2.952   2.145  1.00  0.00    -0.383 N 
ATOM     44  H62 UNL     1      33.329   2.772   1.822  1.00  0.00     0.157 HD
ATOM     45  H61 UNL     1      31.708   2.186   2.207  1.00  0.00     0.157 HD
ENDBRANCH  26  43
ENDBRANCH  19  20
ENDBRANCH   1  19
TORSDOF 6
ENDMDL
MODEL 3
REMARK VINA RESULT: -7.508339667      2.106      7.525
REMARK  6 active torsions:
REMARK  status: ('A' for Active; 'I' for Inactive)
REMARK    1  A    between atoms: O1_2  and  C2_3 
REMARK    2  A    between atoms: C2_3  and  C3_4 
REMARK    3  A    between atoms: C8_11  and  N1_12 
REMARK    4  A    between atoms: C9_13  and  S2_14 
REMARK    5  A    between atoms: S2_14  and  C10_15 
REMARK    6  A    between atoms: C21_36  and  N6_37 
ROOT
HETATM    1  C10 UNL     1      30.908   5.976   5.206  1.00  0.00     0.280 C 
HETATM    2  N2  UNL     1      30.133   6.723   6.217  1.00  0.00    -0.056 N 
ATOM      3  H21 UNL     1      30.723   7.253   6.857  1.00  0.00     0.279 HD
ATOM      4  H22 UNL     1      29.696   6.115   6.909  1.00  0.00     0.279 HD
HETATM    5  C11 UNL     1      29.212   7.523   5.538  1.00  0.00     0.189 C 
HETATM    6  C12 UNL     1      27.815   7.676   6.088  1.00  0.00     0.033 C 
HETATM    7  C13 UNL     1      27.229   8.802   5.226  1.00  0.00     0.004 C 
HETATM    8  C14 UNL     1      27.907   8.946   3.888  1.00  0.00     0.032 C 
HETATM    9  C15 UNL     1      29.388   9.327   3.998  1.00  0.00     0.132 C 
HETATM   10  C16 UNL     1      29.733   8.941   5.443  1.00  0.00     0.065 C 
HETATM   11  O3  UNL     1      30.175   8.437   3.196  1.00  0.00    -0.333 OA
HETATM   12  C17 UNL     1      31.332   7.646   3.371  1.00  0.00     0.132 C 
HETATM   13  N3  UNL     1      32.004   7.699   2.274  1.00  0.00    -0.382 N 
ATOM     14  H31 UNL     1      32.839   7.128   2.400  1.00  0.00     0.158 HD
ATOM     15  H32 UNL     1      31.624   8.258   1.511  1.00  0.00     0.158 HD
HETATM   16  C18 UNL     1      31.878   6.843   4.466  1.00  0.00     0.208 C 
HETATM   17  C19 UNL     1      32.856   5.901   3.855  1.00  0.00     0.075 C 
HETATM   18  N4  UNL     1      33.619   5.144   3.388  1.00  0.00    -0.196 NA
ENDROOT
BRANCH   1  19
HETATM   19  S2  UNL     1      31.623   4.499   5.935  1.00  0.00    -0.058 SA
BRANCH  19  20
HETATM   20  C9  UNL     1      31.316   4.332   7.670  1.00  0.00     0.151 A 
HETATM   21  N1  UNL     1      32.125   4.818   8.626  1.00  0.00    -0.302 N 
HETATM   22  C23 UNL     1      31.518   4.484   9.810  1.00  0.00     0.142 A 
HETATM   23  C20 UNL     1      30.358   3.805   9.588  1.00  0.00     0.123 A 
HETATM   24  N8  UNL     1      31.896   4.725  11.082  1.00  0.00    -0.336 N 
HETATM   25  N5  UNL     1      30.243   3.717   8.257  1.00  0.00    -0.330 N 
HETATM   26  C21 UNL     1      29.618   3.393  10.673  1.00  0.00     0.131 A 
ATOM     27  H5  UNL     1      29.478   3.263   7.758  1.00  0.00     0.168 HD
HETATM   28  N7  UNL     1      30.043   3.662  11.917  1.00  0.00    -0.337 N 
HETATM   29  C22 UNL     1      31.187   4.331  12.140  1.00  0.00     0.183 A 
ATOM     30  H7  UNL     1      29.485   3.352  12.712  1.00  0.00     0.168 HD
ATOM     31  H8  UNL     1      32.766   5.232  11.243  1.00  0.00     0.168 HD
BRANCH  21  32
HETATM   32  C8  UNL     1      33.379   5.535   8.515  1.00  0.00     0.152 C 
HETATM   33  C3  UNL     1      34.442   4.979   9.421  1.00  0.00     0.141 A 
HETATM   34  O2  UNL     1      35.688   5.641   9.163  1.00  0.00    -0.353 OA
HETATM   35  C4  UNL     1      34.977   5.815  10.353  1.00  0.00     0.224 A 
HETATM   36  S1  UNL     1      33.994   7.369  10.256  1.00  0.00    -0.123 SA
HETATM   37  C5  UNL     1      33.258   6.994   8.638  1.00  0.00     0.027 C 
HETATM   38  C6  UNL     1      31.854   7.533   8.521  1.00  0.00     0.029 C 
HETATM   39  C7  UNL     1      34.149   7.701   7.607  1.00  0.00     0.029 C 
BRANCH  33  40
HETATM   40  C2  UNL     1      34.541   3.491   9.321  1.00  0.00     0.210 C 
BRANCH  40  41
HETATM   41  O1  UNL     1      34.541   2.746  10.444  1.00  0.00    -0.393 OA
HETATM   42  C1  UNL     1      35.692   2.678  11.148  1.00  0.00     0.201 C 
ENDBRANCH  40  41
ENDBRANCH  33  40
ENDBRANCH  21  32
BRANCH  26  43
HETATM   43  N6  UNL     1      28.524   2.754  10.458  1.00  0.00    -0.383 N 
ATOM     44  H62 UNL     1      27.888   2.510  11.217  1.00  0.00     0.157 HD
ATOM     45  H61 UNL     1      28.298   2.490   9.499  1.00  0.00     0.157 HD
ENDBRANCH  26  43
ENDBRANCH  19  20
ENDBRANCH   1  19
TORSDOF 6
ENDMDL
MODEL 4
REMARK VINA RESULT: -7.374402500      2.185      3.995
REMARK  6 active torsions:
REMARK  status: ('A' for Active; 'I' for Inactive)
REMARK    1  A    between atoms: O1_2  and  C2_3 
REMARK    2  A    between atoms: C2_3  and  C3_4 
REMARK    3  A    between atoms: C8_11  and  N1_12 
REMARK    4  A    between atoms: C9_13  and  S2_14 
REMARK    5  A    between atoms: S2_14  and  C10_15 
REMARK    6  A    between atoms: C21_36  and  N6_37 
ROOT
HETATM    1  C10 UNL     1      32.133   3.553   8.671  1.00  0.00     0.280 C 
HETATM    2  N2  UNL     1      33.247   4.243   7.991  1.00  0.00    -0.056 N 
ATOM      3  H21 UNL     1      33.043   5.222   7.789  1.00  0.00     0.279 HD
ATOM      4  H22 UNL     1      33.377   3.932   7.029  1.00  0.00     0.279 HD
HETATM    5  C11 UNL     1      34.391   4.078   8.775  1.00  0.00     0.189 C 
HETATM    6  C12 UNL     1      35.717   3.816   8.106  1.00  0.00     0.033 C 
HETATM    7  C13 UNL     1      36.717   3.956   9.262  1.00  0.00     0.004 C 
HETATM    8  C14 UNL     1      36.102   3.719  10.617  1.00  0.00     0.032 C 
HETATM    9  C15 UNL     1      35.013   4.738  10.974  1.00  0.00     0.132 C 
HETATM   10  C16 UNL     1      34.630   5.320   9.606  1.00  0.00     0.065 C 
HETATM   11  O3  UNL     1      33.834   4.049  11.409  1.00  0.00    -0.333 OA
HETATM   12  C17 UNL     1      32.454   4.084  11.111  1.00  0.00     0.132 C 
HETATM   13  N3  UNL     1      31.816   3.895  12.213  1.00  0.00    -0.382 N 
ATOM     14  H31 UNL     1      30.820   3.920  11.998  1.00  0.00     0.158 HD
ATOM     15  H32 UNL     1      32.366   3.759  13.061  1.00  0.00     0.158 HD
HETATM   16  C18 UNL     1      31.665   4.279   9.894  1.00  0.00     0.208 C 
HETATM   17  C19 UNL     1      30.308   3.733  10.175  1.00  0.00     0.075 C 
HETATM   18  N4  UNL     1      29.240   3.297  10.376  1.00  0.00    -0.196 NA
ENDROOT
BRANCH   1  19
HETATM   19  S2  UNL     1      30.839   3.147   7.494  1.00  0.00    -0.058 SA
BRANCH  19  20
HETATM   20  C9  UNL     1      29.839   4.528   7.019  1.00  0.00     0.151 A 
HETATM   21  N1  UNL     1      30.114   5.331   5.978  1.00  0.00    -0.302 N 
HETATM   22  C23 UNL     1      29.095   6.249   5.957  1.00  0.00     0.142 A 
HETATM   23  C20 UNL     1      28.210   6.017   6.967  1.00  0.00     0.123 A 
HETATM   24  N8  UNL     1      28.870   7.285   5.122  1.00  0.00    -0.336 N 
HETATM   25  N5  UNL     1      28.682   4.947   7.618  1.00  0.00    -0.330 N 
HETATM   26  C21 UNL     1      27.120   6.849   7.092  1.00  0.00     0.131 A 
ATOM     27  H5  UNL     1      28.249   4.512   8.433  1.00  0.00     0.168 HD
HETATM   28  N7  UNL     1      26.948   7.864   6.231  1.00  0.00    -0.337 N 
HETATM   29  C22 UNL     1      27.819   8.096   5.235  1.00  0.00     0.183 A 
ATOM     30  H7  UNL     1      26.136   8.472   6.335  1.00  0.00     0.168 HD
ATOM     31  H8  UNL     1      29.537   7.456   4.370  1.00  0.00     0.168 HD
BRANCH  21  32
HETATM   32  C8  UNL     1      31.222   5.308   5.044  1.00  0.00     0.152 C 
HETATM   33  C3  UNL     1      31.914   6.638   4.939  1.00  0.00     0.141 A 
HETATM   34  O2  UNL     1      33.077   6.510   4.109  1.00  0.00    -0.353 OA
HETATM   35  C4  UNL     1      31.951   7.235   3.716  1.00  0.00     0.224 A 
HETATM   36  S1  UNL     1      30.905   6.191   2.617  1.00  0.00    -0.123 SA
HETATM   37  C5  UNL     1      30.893   4.751   3.725  1.00  0.00     0.027 C 
HETATM   38  C6  UNL     1      29.588   3.999   3.654  1.00  0.00     0.029 C 
HETATM   39  C7  UNL     1      32.021   3.839   3.225  1.00  0.00     0.029 C 
BRANCH  33  40
HETATM   40  C2  UNL     1      32.218   7.220   6.282  1.00  0.00     0.210 C 
BRANCH  40  41
HETATM   41  O1  UNL     1      31.574   8.332   6.688  1.00  0.00    -0.393 OA
HETATM   42  C1  UNL     1      31.200   8.399   7.985  1.00  0.00     0.201 C 
ENDBRANCH  40  41
ENDBRANCH  33  40
ENDBRANCH  21  32
BRANCH  26  43
HETATM   43  N6  UNL     1      26.288   6.625   8.045  1.00  0.00    -0.383 N 
ATOM     44  H62 UNL     1      26.119   7.311   8.780  1.00  0.00     0.157 HD
ATOM     45  H61 UNL     1      25.791   5.734   8.054  1.00  0.00     0.157 HD
ENDBRANCH  26  43
ENDBRANCH  19  20
ENDBRANCH   1  19
TORSDOF 6
ENDMDL
MODEL 5
REMARK VINA RESULT: -7.329907802      1.779      2.765
REMARK  6 active torsions:
REMARK  status: ('A' for Active; 'I' for Inactive)
REMARK    1  A    between atoms: O1_2  and  C2_3 
REMARK    2  A    between atoms: C2_3  and  C3_4 
REMARK    3  A    between atoms: C8_11  and  N1_12 
REMARK    4  A    between atoms: C9_13  and  S2_14 
REMARK    5  A    between atoms: S2_14  and  C10_15 
REMARK    6  A    between atoms: C21_36  and  N6_37 
ROOT
HETATM    1  C10 UNL     1      30.947   4.127   8.368  1.00  0.00     0.280 C 
HETATM    2  N2  UNL     1      32.230   4.759   8.003  1.00  0.00    -0.056 N 
ATOM      3  H21 UNL     1      32.214   5.774   8.096  1.00  0.00     0.279 HD
ATOM      4  H22 UNL     1      32.421   4.719   7.002  1.00  0.00     0.279 HD
HETATM    5  C11 UNL     1      33.231   4.159   8.771  1.00  0.00     0.189 C 
HETATM    6  C12 UNL     1      34.567   3.854   8.140  1.00  0.00     0.033 C 
HETATM    7  C13 UNL     1      35.433   3.461   9.345  1.00  0.00     0.004 C 
HETATM    8  C14 UNL     1      34.632   2.966  10.521  1.00  0.00     0.032 C 
HETATM    9  C15 UNL     1      33.689   4.027  11.101  1.00  0.00     0.132 C 
HETATM   10  C16 UNL     1      33.569   5.040   9.953  1.00  0.00     0.065 C 
HETATM   11  O3  UNL     1      32.370   3.480  11.229  1.00  0.00    -0.333 OA
HETATM   12  C17 UNL     1      31.059   3.862  10.868  1.00  0.00     0.132 C 
HETATM   13  N3  UNL     1      30.274   3.488  11.818  1.00  0.00    -0.382 N 
ATOM     14  H31 UNL     1      29.328   3.764  11.557  1.00  0.00     0.158 HD
ATOM     15  H32 UNL     1      30.690   3.012  12.617  1.00  0.00     0.158 HD
HETATM   16  C18 UNL     1      30.462   4.545   9.720  1.00  0.00     0.208 C 
HETATM   17  C19 UNL     1      29.010   4.211   9.735  1.00  0.00     0.075 C 
HETATM   18  N4  UNL     1      27.870   3.947   9.724  1.00  0.00    -0.196 NA
ENDROOT
BRANCH   1  19
HETATM   19  S2  UNL     1      29.752   4.332   7.043  1.00  0.00    -0.058 SA
BRANCH  19  20
HETATM   20  C9  UNL     1      30.477   4.713   5.473  1.00  0.00     0.151 A 
HETATM   21  N1  UNL     1      30.519   5.947   4.946  1.00  0.00    -0.302 N 
HETATM   22  C23 UNL     1      31.167   5.800   3.746  1.00  0.00     0.142 A 
HETATM   23  C20 UNL     1      31.517   4.500   3.538  1.00  0.00     0.123 A 
HETATM   24  N8  UNL     1      31.483   6.715   2.806  1.00  0.00    -0.336 N 
HETATM   25  N5  UNL     1      31.083   3.835   4.616  1.00  0.00    -0.330 N 
HETATM   26  C21 UNL     1      32.180   4.173   2.376  1.00  0.00     0.131 A 
ATOM     27  H5  UNL     1      31.188   2.833   4.774  1.00  0.00     0.168 HD
HETATM   28  N7  UNL     1      32.468   5.127   1.477  1.00  0.00    -0.337 N 
HETATM   29  C22 UNL     1      32.124   6.410   1.679  1.00  0.00     0.183 A 
ATOM     30  H7  UNL     1      32.960   4.872   0.621  1.00  0.00     0.168 HD
ATOM     31  H8  UNL     1      31.217   7.687   2.966  1.00  0.00     0.168 HD
BRANCH  21  32
HETATM   32  C8  UNL     1      30.009   7.203   5.458  1.00  0.00     0.152 C 
HETATM   33  C3  UNL     1      30.731   7.655   6.696  1.00  0.00     0.141 A 
HETATM   34  O2  UNL     1      30.272   8.962   7.069  1.00  0.00    -0.353 OA
HETATM   35  C4  UNL     1      29.996   7.824   7.830  1.00  0.00     0.224 A 
HETATM   36  S1  UNL     1      28.305   7.215   7.425  1.00  0.00    -0.123 SA
HETATM   37  C5  UNL     1      28.549   7.243   5.626  1.00  0.00     0.027 C 
HETATM   38  C6  UNL     1      27.795   6.132   4.940  1.00  0.00     0.029 C 
HETATM   39  C7  UNL     1      27.986   8.591   5.155  1.00  0.00     0.029 C 
BRANCH  33  40
HETATM   40  C2  UNL     1      32.215   7.582   6.537  1.00  0.00     0.210 C 
BRANCH  40  41
HETATM   41  O1  UNL     1      33.003   7.583   7.631  1.00  0.00    -0.393 OA
HETATM   42  C1  UNL     1      34.341   7.585   7.436  1.00  0.00     0.201 C 
ENDBRANCH  40  41
ENDBRANCH  33  40
ENDBRANCH  21  32
BRANCH  26  43
HETATM   43  N6  UNL     1      32.508   2.946   2.186  1.00  0.00    -0.383 N 
ATOM     44  H62 UNL     1      31.834   2.188   2.292  1.00  0.00     0.157 HD
ATOM     45  H61 UNL     1      33.471   2.738   1.921  1.00  0.00     0.157 HD
ENDBRANCH  26  43
ENDBRANCH  19  20
ENDBRANCH   1  19
TORSDOF 6
ENDMDL
