MODEL 1
REMARK VINA RESULT: -9.622862152      0.000      0.000
REMARK  8 active torsions:
REMARK  status: ('A' for Active; 'I' for Inactive)
REMARK    1  A    between atoms: C4_5  and  C5_6 
REMARK    2  A    between atoms: C10_11  and  N2_12 
REMARK    3  A    between atoms: N2_12  and  C11_14 
REMARK    4  A    between atoms: C13_18  and  S1_19 
REMARK    5  A    between atoms: S1_19  and  C14_20 
REMARK    6  A    between atoms: C14_20  and  C15_21 
REMARK    7  A    between atoms: C16_27  and  N6_28 
REMARK    8  A    between atoms: C18_38  and  N10_39 
ROOT
HETATM    1  C11 UNL     1      27.772   2.948   9.923  1.00  0.00     0.698 C 
HETATM    2  N3  UNL     1      27.173   3.021   8.698  1.00  0.00    -0.184 N 
ATOM      3  H3  UNL     1      27.759   3.304   7.914  1.00  0.00     0.184 HD
HETATM    4  C12 UNL     1      25.856   2.750   8.422  1.00  0.00     0.129 A 
HETATM    5  C13 UNL     1      25.120   3.311   7.401  1.00  0.00     0.116 A 
HETATM    6  N7  UNL     1      23.897   2.766   7.518  1.00  0.00    -0.290 N 
ATOM      7  H7  UNL     1      23.106   2.972   6.908  1.00  0.00     0.187 HD
HETATM    8  N8  UNL     1      23.867   1.922   8.540  1.00  0.00    -0.282 N 
ATOM      9  H8  UNL     1      23.047   1.387   8.825  1.00  0.00     0.188 HD
HETATM   10  C17 UNL     1      25.064   1.866   9.149  1.00  0.00     0.166 A 
HETATM   11  N9  UNL     1      25.384   1.117  10.216  1.00  0.00    -0.173 N 
ATOM     12  H9  UNL     1      24.670   0.450  10.511  1.00  0.00     0.186 HD
HETATM   13  C18 UNL     1      26.508   1.120  10.949  1.00  0.00     0.692 C 
HETATM   14  N11 UNL     1      27.599   1.915  10.751  1.00  0.00    -0.022 N 
ATOM     15  H11 UNL     1      28.410   1.683  11.325  1.00  0.00     0.203 HD
ENDROOT
BRANCH   1  16
HETATM   16  N2  UNL     1      28.532   3.894  10.315  1.00  0.00    -0.185 N 
ATOM     17  H2  UNL     1      28.134   4.725  10.752  1.00  0.00     0.185 HD
BRANCH  16  18
HETATM   18  C10 UNL     1      29.947   3.781  10.136  1.00  0.00     0.093 A 
HETATM   19  C9  UNL     1      30.675   3.865   8.986  1.00  0.00     0.052 A 
HETATM   20  C8  UNL     1      32.016   3.727   9.088  1.00  0.00     0.001 A 
HETATM   21  C7  UNL     1      32.962   3.777   8.043  1.00  0.00     0.016 A 
HETATM   22  C19 UNL     1      32.529   3.514  10.334  1.00  0.00     0.086 A 
HETATM   23  C6  UNL     1      34.292   3.616   8.330  1.00  0.00     0.026 A 
HETATM   24  C5  UNL     1      34.787   3.403   9.593  1.00  0.00     0.014 A 
HETATM   25  N12 UNL     1      33.874   3.357  10.578  1.00  0.00    -0.353 N 
ATOM     26  H12 UNL     1      34.188   3.201  11.536  1.00  0.00     0.166 HD
HETATM   27  S2  UNL     1      31.132   3.514  11.327  1.00  0.00    -0.053 SA
BRANCH  24  28
HETATM   28  C4  UNL     1      36.216   3.231   9.898  1.00  0.00     0.038 C 
HETATM   29  C3  UNL     1      37.144   4.042   9.055  1.00  0.00     0.030 C 
HETATM   30  C2  UNL     1      38.557   3.664   9.397  1.00  0.00     0.117 C 
HETATM   31  N1  UNL     1      38.732   2.902  10.576  1.00  0.00    -0.417 N 
HETATM   32  C1  UNL     1      39.026   1.525  10.387  1.00  0.00     0.143 C 
HETATM   33  C21 UNL     1      37.930   3.233  11.699  1.00  0.00     0.117 C 
HETATM   34  C20 UNL     1      36.506   3.599  11.342  1.00  0.00     0.030 C 
ENDBRANCH  24  28
ENDBRANCH  16  18
ENDBRANCH   1  16
BRANCH  13  35
HETATM   35  N10 UNL     1      26.610   0.321  11.934  1.00  0.00    -0.234 N 
ATOM     36 2H10 UNL     1      25.846  -0.350  12.015  1.00  0.00     0.174 HD
ATOM     37 1H10 UNL     1      27.414   0.398  12.557  1.00  0.00     0.174 HD
ENDBRANCH  13  35
BRANCH   5  38
HETATM   38  S1  UNL     1      25.726   4.495   6.209  1.00  0.00    -0.102 SA
BRANCH  38  39
HETATM   39  C14 UNL     1      25.067   6.165   6.554  1.00  0.00     0.144 C 
BRANCH  39  40
HETATM   40  C15 UNL     1      25.240   6.524   7.966  1.00  0.00     0.089 A 
HETATM   41  N4  UNL     1      24.245   6.743   8.843  1.00  0.00    -0.241 N 
HETATM   42  O1  UNL     1      24.779   7.029   9.974  1.00  0.00    -0.155 OA
ATOM     43  H4  UNL     1      23.246   6.693   8.644  1.00  0.00     0.196 HD
HETATM   44  N5  UNL     1      26.081   7.010   9.899  1.00  0.00    -0.224 N 
HETATM   45  C16 UNL     1      26.427   6.693   8.639  1.00  0.00     0.146 A 
ATOM     46  H5  UNL     1      26.726   7.203  10.665  1.00  0.00     0.198 HD
BRANCH  45  47
HETATM   47  N6  UNL     1      27.647   6.576   8.171  1.00  0.00    -0.382 N 
ATOM     48  H62 UNL     1      28.050   7.094   7.390  1.00  0.00     0.157 HD
ATOM     49  H61 UNL     1      28.391   5.959   8.498  1.00  0.00     0.157 HD
ENDBRANCH  45  47
ENDBRANCH  39  40
ENDBRANCH  38  39
ENDBRANCH   5  38
TORSDOF 8
ENDMDL
MODEL 2
REMARK VINA RESULT: -9.499480668      2.045      2.675
REMARK  8 active torsions:
REMARK  status: ('A' for Active; 'I' for Inactive)
REMARK    1  A    between atoms: C4_5  and  C5_6 
REMARK    2  A    between atoms: C10_11  and  N2_12 
REMARK    3  A    between atoms: N2_12  and  C11_14 
REMARK    4  A    between atoms: C13_18  and  S1_19 
REMARK    5  A    between atoms: S1_19  and  C14_20 
REMARK    6  A    between atoms: C14_20  and  C15_21 
REMARK    7  A    between atoms: C16_27  and  N6_28 
REMARK    8  A    between atoms: C18_38  and  N10_39 
ROOT
HETATM    1  C11 UNL     1      27.891   2.911  10.001  1.00  0.00     0.698 C 
HETATM    2  N3  UNL     1      27.322   2.994   8.763  1.00  0.00    -0.184 N 
ATOM      3  H3  UNL     1      27.931   3.267   7.992  1.00  0.00     0.184 HD
HETATM    4  C12 UNL     1      26.008   2.743   8.456  1.00  0.00     0.129 A 
HETATM    5  C13 UNL     1      25.304   3.315   7.419  1.00  0.00     0.116 A 
HETATM    6  N7  UNL     1      24.071   2.789   7.507  1.00  0.00    -0.290 N 
ATOM      7  H7  UNL     1      23.297   3.007   6.879  1.00  0.00     0.187 HD
HETATM    8  N8  UNL     1      24.004   1.946   8.528  1.00  0.00    -0.282 N 
ATOM      9  H8  UNL     1      23.169   1.424   8.793  1.00  0.00     0.188 HD
HETATM   10  C17 UNL     1      25.185   1.871   9.165  1.00  0.00     0.166 A 
HETATM   11  N9  UNL     1      25.468   1.117  10.238  1.00  0.00    -0.173 N 
ATOM     12  H9  UNL     1      24.738   0.461  10.517  1.00  0.00     0.186 HD
HETATM   13  C18 UNL     1      26.576   1.103  10.998  1.00  0.00     0.692 C 
HETATM   14  N11 UNL     1      27.683   1.881  10.825  1.00  0.00    -0.022 N 
ATOM     15  H11 UNL     1      28.477   1.637  11.417  1.00  0.00     0.203 HD
ENDROOT
BRANCH   1  16
HETATM   16  N2  UNL     1      28.656   3.846  10.411  1.00  0.00    -0.185 N 
ATOM     17  H2  UNL     1      28.264   4.663  10.878  1.00  0.00     0.185 HD
BRANCH  16  18
HETATM   18  C10 UNL     1      30.069   3.738  10.212  1.00  0.00     0.093 A 
HETATM   19  C9  UNL     1      30.780   3.829   9.052  1.00  0.00     0.052 A 
HETATM   20  C8  UNL     1      32.123   3.695   9.134  1.00  0.00     0.001 A 
HETATM   21  C7  UNL     1      33.054   3.753   8.075  1.00  0.00     0.016 A 
HETATM   22  C19 UNL     1      32.654   3.477  10.371  1.00  0.00     0.086 A 
HETATM   23  C6  UNL     1      34.388   3.594   8.343  1.00  0.00     0.026 A 
HETATM   24  C5  UNL     1      34.902   3.376   9.597  1.00  0.00     0.014 A 
HETATM   25  N12 UNL     1      34.003   3.323  10.595  1.00  0.00    -0.353 N 
ATOM     26  H12 UNL     1      34.331   3.163  11.548  1.00  0.00     0.166 HD
HETATM   27  S2  UNL     1      31.272   3.468  11.384  1.00  0.00    -0.053 SA
BRANCH  24  28
HETATM   28  C4  UNL     1      36.336   3.207   9.881  1.00  0.00     0.038 C 
HETATM   29  C3  UNL     1      37.248   4.043   9.044  1.00  0.00     0.030 C 
HETATM   30  C2  UNL     1      38.668   3.667   9.360  1.00  0.00     0.117 C 
HETATM   31  N1  UNL     1      38.861   2.879  10.520  1.00  0.00    -0.417 N 
HETATM   32  C1  UNL     1      39.162   1.509  10.297  1.00  0.00     0.143 C 
HETATM   33  C21 UNL     1      38.071   3.180  11.660  1.00  0.00     0.117 C 
HETATM   34  C20 UNL     1      36.642   3.545  11.329  1.00  0.00     0.030 C 
ENDBRANCH  24  28
ENDBRANCH  16  18
ENDBRANCH   1  16
BRANCH  13  35
HETATM   35  N10 UNL     1      26.642   0.303  11.985  1.00  0.00    -0.234 N 
ATOM     36 2H10 UNL     1      26.056  -0.527  11.896  1.00  0.00     0.174 HD
ATOM     37 1H10 UNL     1      27.250   0.531  12.770  1.00  0.00     0.174 HD
ENDBRANCH  13  35
BRANCH   5  38
HETATM   38  S1  UNL     1      25.956   4.489   6.241  1.00  0.00    -0.102 SA
BRANCH  38  39
HETATM   39  C14 UNL     1      26.928   3.642   4.945  1.00  0.00     0.144 C 
BRANCH  39  40
HETATM   40  C15 UNL     1      28.367   3.725   5.218  1.00  0.00     0.089 A 
HETATM   41  N4  UNL     1      29.039   4.847   5.528  1.00  0.00    -0.241 N 
HETATM   42  O1  UNL     1      30.270   4.528   5.700  1.00  0.00    -0.155 OA
ATOM     43  H4  UNL     1      28.642   5.783   5.612  1.00  0.00     0.196 HD
HETATM   44  N5  UNL     1      30.456   3.250   5.521  1.00  0.00    -0.224 N 
HETATM   45  C16 UNL     1      29.273   2.691   5.212  1.00  0.00     0.146 A 
ATOM     46  H5  UNL     1      31.346   2.759   5.602  1.00  0.00     0.198 HD
BRANCH  45  47
HETATM   47  N6  UNL     1      29.051   1.422   4.960  1.00  0.00    -0.382 N 
ATOM     48  H62 UNL     1      28.558   1.040   4.152  1.00  0.00     0.157 HD
ATOM     49  H61 UNL     1      29.328   0.612   5.515  1.00  0.00     0.157 HD
ENDBRANCH  45  47
ENDBRANCH  39  40
ENDBRANCH  38  39
ENDBRANCH   5  38
TORSDOF 8
ENDMDL
MODEL 3
REMARK VINA RESULT: -9.490974318      0.987      1.558
REMARK  8 active torsions:
REMARK  status: ('A' for Active; 'I' for Inactive)
REMARK    1  A    between atoms: C4_5  and  C5_6 
REMARK    2  A    between atoms: C10_11  and  N2_12 
REMARK    3  A    between atoms: N2_12  and  C11_14 
REMARK    4  A    between atoms: C13_18  and  S1_19 
REMARK    5  A    between atoms: S1_19  and  C14_20 
REMARK    6  A    between atoms: C14_20  and  C15_21 
REMARK    7  A    between atoms: C16_27  and  N6_28 
REMARK    8  A    between atoms: C18_38  and  N10_39 
ROOT
HETATM    1  C11 UNL     1      27.889   2.986   9.860  1.00  0.00     0.698 C 
HETATM    2  N3  UNL     1      27.173   2.906   8.700  1.00  0.00    -0.184 N 
ATOM      3  H3  UNL     1      27.651   3.182   7.843  1.00  0.00     0.184 HD
HETATM    4  C12 UNL     1      25.871   2.490   8.578  1.00  0.00     0.129 A 
HETATM    5  C13 UNL     1      24.988   2.897   7.601  1.00  0.00     0.116 A 
HETATM    6  N7  UNL     1      23.845   2.248   7.878  1.00  0.00    -0.290 N 
ATOM      7  H7  UNL     1      22.982   2.330   7.339  1.00  0.00     0.187 HD
HETATM    8  N8  UNL     1      23.997   1.487   8.952  1.00  0.00    -0.282 N 
ATOM      9  H8  UNL     1      23.267   0.900   9.354  1.00  0.00     0.188 HD
HETATM   10  C17 UNL     1      25.246   1.593   9.440  1.00  0.00     0.166 A 
HETATM   11  N9  UNL     1      25.740   0.962  10.517  1.00  0.00    -0.173 N 
ATOM     12  H9  UNL     1      25.130   0.255  10.928  1.00  0.00     0.186 HD
HETATM   13  C18 UNL     1      26.922   1.130  11.131  1.00  0.00     0.692 C 
HETATM   14  N11 UNL     1      27.902   2.008  10.769  1.00  0.00    -0.022 N 
ATOM     15  H11 UNL     1      28.782   1.900  11.273  1.00  0.00     0.203 HD
ENDROOT
BRANCH   1  16
HETATM   16  N2  UNL     1      28.581   4.027  10.109  1.00  0.00    -0.185 N 
ATOM     17  H2  UNL     1      28.128   4.937  10.193  1.00  0.00     0.185 HD
BRANCH  16  18
HETATM   18  C10 UNL     1      29.998   3.911  10.268  1.00  0.00     0.093 A 
HETATM   19  C9  UNL     1      30.766   4.214  11.353  1.00  0.00     0.052 A 
HETATM   20  C8  UNL     1      32.098   4.006  11.249  1.00  0.00     0.001 A 
HETATM   21  C7  UNL     1      33.080   4.244  12.234  1.00  0.00     0.016 A 
HETATM   22  C19 UNL     1      32.562   3.509  10.066  1.00  0.00     0.086 A 
HETATM   23  C6  UNL     1      34.393   3.973  11.954  1.00  0.00     0.026 A 
HETATM   24  C5  UNL     1      34.839   3.473  10.756  1.00  0.00     0.014 A 
HETATM   25  N12 UNL     1      33.893   3.251   9.828  1.00  0.00    -0.353 N 
ATOM     26  H12 UNL     1      34.169   2.880   8.919  1.00  0.00     0.166 HD
HETATM   27  S2  UNL     1      31.134   3.346   9.134  1.00  0.00    -0.053 SA
BRANCH  24  28
HETATM   28  C4  UNL     1      36.250   3.181  10.460  1.00  0.00     0.038 C 
HETATM   29  C3  UNL     1      36.765   3.771   9.188  1.00  0.00     0.030 C 
HETATM   30  C2  UNL     1      38.168   3.282   8.966  1.00  0.00     0.117 C 
HETATM   31  N1  UNL     1      38.795   2.659  10.072  1.00  0.00    -0.417 N 
HETATM   32  C1  UNL     1      38.913   1.245  10.002  1.00  0.00     0.143 C 
HETATM   33  C21 UNL     1      38.569   3.216  11.357  1.00  0.00     0.117 C 
HETATM   34  C20 UNL     1      37.149   3.692  11.572  1.00  0.00     0.030 C 
ENDBRANCH  24  28
ENDBRANCH  16  18
ENDBRANCH   1  16
BRANCH  13  35
HETATM   35  N10 UNL     1      27.197   0.423  12.152  1.00  0.00    -0.234 N 
ATOM     36 2H10 UNL     1      26.674   0.670  12.991  1.00  0.00     0.174 HD
ATOM     37 1H10 UNL     1      27.895  -0.316  12.072  1.00  0.00     0.174 HD
ENDBRANCH  13  35
BRANCH   5  38
HETATM   38  S1  UNL     1      25.355   4.037   6.276  1.00  0.00    -0.102 SA
BRANCH  38  39
HETATM   39  C14 UNL     1      24.790   5.726   6.693  1.00  0.00     0.144 C 
BRANCH  39  40
HETATM   40  C15 UNL     1      25.465   6.231   7.895  1.00  0.00     0.089 A 
HETATM   41  N4  UNL     1      26.794   6.272   8.084  1.00  0.00    -0.241 N 
HETATM   42  O1  UNL     1      27.007   6.778   9.244  1.00  0.00    -0.155 OA
ATOM     43  H4  UNL     1      27.506   5.956   7.425  1.00  0.00     0.196 HD
HETATM   44  N5  UNL     1      25.887   7.080   9.839  1.00  0.00    -0.224 N 
HETATM   45  C16 UNL     1      24.872   6.751   9.021  1.00  0.00     0.146 A 
ATOM     46  H5  UNL     1      25.796   7.493  10.767  1.00  0.00     0.198 HD
BRANCH  45  47
HETATM   47  N6  UNL     1      23.591   6.902   9.266  1.00  0.00    -0.382 N 
ATOM     48  H62 UNL     1      22.922   7.423   8.699  1.00  0.00     0.157 HD
ATOM     49  H61 UNL     1      23.052   6.534  10.050  1.00  0.00     0.157 HD
ENDBRANCH  45  47
ENDBRANCH  39  40
ENDBRANCH  38  39
ENDBRANCH   5  38
TORSDOF 8
ENDMDL
MODEL 4
REMARK VINA RESULT: -9.476938139      1.274      1.587
REMARK  8 active torsions:
REMARK  status: ('A' for Active; 'I' for Inactive)
REMARK    1  A    between atoms: C4_5  and  C5_6 
REMARK    2  A    between atoms: C10_11  and  N2_12 
REMARK    3  A    between atoms: N2_12  and  C11_14 
REMARK    4  A    between atoms: C13_18  and  S1_19 
REMARK    5  A    between atoms: S1_19  and  C14_20 
REMARK    6  A    between atoms: C14_20  and  C15_21 
REMARK    7  A    between atoms: C16_27  and  N6_28 
REMARK    8  A    between atoms: C18_38  and  N10_39 
ROOT
HETATM    1  C11 UNL     1      27.889   2.960   9.992  1.00  0.00     0.698 C 
HETATM    2  N3  UNL     1      27.303   3.081   8.764  1.00  0.00    -0.184 N 
ATOM      3  H3  UNL     1      27.902   3.379   7.995  1.00  0.00     0.184 HD
HETATM    4  C12 UNL     1      25.986   2.839   8.466  1.00  0.00     0.129 A 
HETATM    5  C13 UNL     1      25.269   3.443   7.457  1.00  0.00     0.116 A 
HETATM    6  N7  UNL     1      24.037   2.914   7.544  1.00  0.00    -0.290 N 
ATOM      7  H7  UNL     1      23.255   3.151   6.933  1.00  0.00     0.187 HD
HETATM    8  N8  UNL     1      23.983   2.038   8.538  1.00  0.00    -0.282 N 
ATOM      9  H8  UNL     1      23.153   1.507   8.797  1.00  0.00     0.188 HD
HETATM   10  C17 UNL     1      25.173   1.944   9.157  1.00  0.00     0.166 A 
HETATM   11  N9  UNL     1      25.470   1.156  10.202  1.00  0.00    -0.173 N 
ATOM     12  H9  UNL     1      24.744   0.491  10.469  1.00  0.00     0.186 HD
HETATM   13  C18 UNL     1      26.587   1.119  10.947  1.00  0.00     0.692 C 
HETATM   14  N11 UNL     1      27.692   1.903  10.784  1.00  0.00    -0.022 N 
ATOM     15  H11 UNL     1      28.493   1.641  11.359  1.00  0.00     0.203 HD
ENDROOT
BRANCH   1  16
HETATM   16  N2  UNL     1      28.658   3.881  10.421  1.00  0.00    -0.185 N 
ATOM     17  H2  UNL     1      28.270   4.693  10.901  1.00  0.00     0.185 HD
BRANCH  16  18
HETATM   18  C10 UNL     1      30.071   3.768  10.225  1.00  0.00     0.093 A 
HETATM   19  C9  UNL     1      30.785   3.854   9.066  1.00  0.00     0.052 A 
HETATM   20  C8  UNL     1      32.127   3.714   9.151  1.00  0.00     0.001 A 
HETATM   21  C7  UNL     1      33.060   3.767   8.094  1.00  0.00     0.016 A 
HETATM   22  C19 UNL     1      32.655   3.498  10.390  1.00  0.00     0.086 A 
HETATM   23  C6  UNL     1      34.393   3.603   8.365  1.00  0.00     0.026 A 
HETATM   24  C5  UNL     1      34.904   3.387   9.621  1.00  0.00     0.014 A 
HETATM   25  N12 UNL     1      34.003   3.339  10.617  1.00  0.00    -0.353 N 
ATOM     26  H12 UNL     1      34.328   3.180  11.571  1.00  0.00     0.166 HD
HETATM   27  S2  UNL     1      31.271   3.496  11.401  1.00  0.00    -0.053 SA
BRANCH  24  28
HETATM   28  C4  UNL     1      36.336   3.213   9.908  1.00  0.00     0.038 C 
HETATM   29  C3  UNL     1      37.254   4.040   9.067  1.00  0.00     0.030 C 
HETATM   30  C2  UNL     1      38.672   3.659   9.388  1.00  0.00     0.117 C 
HETATM   31  N1  UNL     1      38.860   2.878  10.554  1.00  0.00    -0.417 N 
HETATM   32  C1  UNL     1      39.155   1.505  10.339  1.00  0.00     0.143 C 
HETATM   33  C21 UNL     1      38.069   3.189  11.690  1.00  0.00     0.117 C 
HETATM   34  C20 UNL     1      36.642   3.559  11.354  1.00  0.00     0.030 C 
ENDBRANCH  24  28
ENDBRANCH  16  18
ENDBRANCH   1  16
BRANCH  13  35
HETATM   35  N10 UNL     1      26.667   0.288  11.906  1.00  0.00    -0.234 N 
ATOM     36 2H10 UNL     1      25.824  -0.265  12.057  1.00  0.00     0.174 HD
ATOM     37 1H10 UNL     1      27.532   0.228  12.443  1.00  0.00     0.174 HD
ENDBRANCH  13  35
BRANCH   5  38
HETATM   38  S1  UNL     1      25.905   4.655   6.309  1.00  0.00    -0.102 SA
BRANCH  38  39
HETATM   39  C14 UNL     1      25.996   6.307   7.088  1.00  0.00     0.144 C 
BRANCH  39  40
HETATM   40  C15 UNL     1      27.382   6.785   7.161  1.00  0.00     0.089 A 
HETATM   41  N4  UNL     1      28.329   6.309   7.986  1.00  0.00    -0.241 N 
HETATM   42  O1  UNL     1      29.407   6.967   7.762  1.00  0.00    -0.155 OA
ATOM     43  H4  UNL     1      28.212   5.559   8.667  1.00  0.00     0.196 HD
HETATM   44  N5  UNL     1      29.230   7.859   6.828  1.00  0.00    -0.224 N 
HETATM   45  C16 UNL     1      27.954   7.784   6.410  1.00  0.00     0.146 A 
ATOM     46  H5  UNL     1      29.937   8.503   6.474  1.00  0.00     0.198 HD
BRANCH  45  47
HETATM   47  N6  UNL     1      27.392   8.521   5.479  1.00  0.00    -0.382 N 
ATOM     48  H62 UNL     1      27.862   8.962   4.688  1.00  0.00     0.157 HD
ATOM     49  H61 UNL     1      26.409   8.777   5.387  1.00  0.00     0.157 HD
ENDBRANCH  45  47
ENDBRANCH  39  40
ENDBRANCH  38  39
ENDBRANCH   5  38
TORSDOF 8
ENDMDL
MODEL 5
REMARK VINA RESULT: -9.466630665      2.162      2.927
REMARK  8 active torsions:
REMARK  status: ('A' for Active; 'I' for Inactive)
REMARK    1  A    between atoms: C4_5  and  C5_6 
REMARK    2  A    between atoms: C10_11  and  N2_12 
REMARK    3  A    between atoms: N2_12  and  C11_14 
REMARK    4  A    between atoms: C13_18  and  S1_19 
REMARK    5  A    between atoms: S1_19  and  C14_20 
REMARK    6  A    between atoms: C14_20  and  C15_21 
REMARK    7  A    between atoms: C16_27  and  N6_28 
REMARK    8  A    between atoms: C18_38  and  N10_39 
ROOT
HETATM    1  C11 UNL     1      28.064   2.985  10.035  1.00  0.00     0.698 C 
HETATM    2  N3  UNL     1      27.398   2.935   8.844  1.00  0.00    -0.184 N 
ATOM      3  H3  UNL     1      27.918   3.217   8.013  1.00  0.00     0.184 HD
HETATM    4  C12 UNL     1      26.097   2.540   8.658  1.00  0.00     0.129 A 
HETATM    5  C13 UNL     1      25.265   2.977   7.651  1.00  0.00     0.116 A 
HETATM    6  N7  UNL     1      24.100   2.341   7.866  1.00  0.00    -0.290 N 
ATOM      7  H7  UNL     1      23.264   2.444   7.291  1.00  0.00     0.187 HD
HETATM    8  N8  UNL     1      24.195   1.560   8.933  1.00  0.00    -0.282 N 
ATOM      9  H8  UNL     1      23.439   0.978   9.293  1.00  0.00     0.188 HD
HETATM   10  C17 UNL     1      25.422   1.640   9.477  1.00  0.00     0.166 A 
HETATM   11  N9  UNL     1      25.858   0.985  10.564  1.00  0.00    -0.173 N 
ATOM     12  H9  UNL     1      25.221   0.281  10.936  1.00  0.00     0.186 HD
HETATM   13  C18 UNL     1      27.015   1.125  11.232  1.00  0.00     0.692 C 
HETATM   14  N11 UNL     1      28.022   1.993  10.928  1.00  0.00    -0.022 N 
ATOM     15  H11 UNL     1      28.878   1.863  11.468  1.00  0.00     0.203 HD
ENDROOT
BRANCH   1  16
HETATM   16  N2  UNL     1      28.759   4.012  10.331  1.00  0.00    -0.185 N 
ATOM     17  H2  UNL     1      28.307   4.914  10.480  1.00  0.00     0.185 HD
BRANCH  16  18
HETATM   18  C10 UNL     1      30.180   3.890  10.452  1.00  0.00     0.093 A 
HETATM   19  C9  UNL     1      30.982   4.226  11.502  1.00  0.00     0.052 A 
HETATM   20  C8  UNL     1      32.309   4.003  11.367  1.00  0.00     0.001 A 
HETATM   21  C7  UNL     1      33.321   4.269  12.313  1.00  0.00     0.016 A 
HETATM   22  C19 UNL     1      32.734   3.462  10.189  1.00  0.00     0.086 A 
HETATM   23  C6  UNL     1      34.624   3.978  12.004  1.00  0.00     0.026 A 
HETATM   24  C5  UNL     1      35.030   3.432  10.812  1.00  0.00     0.014 A 
HETATM   25  N12 UNL     1      34.055   3.185   9.921  1.00  0.00    -0.353 N 
ATOM     26  H12 UNL     1      34.302   2.780   9.017  1.00  0.00     0.166 HD
HETATM   27  S2  UNL     1      31.277   3.277   9.305  1.00  0.00    -0.053 SA
BRANCH  24  28
HETATM   28  C4  UNL     1      36.430   3.120  10.485  1.00  0.00     0.038 C 
HETATM   29  C3  UNL     1      36.926   3.703   9.202  1.00  0.00     0.030 C 
HETATM   30  C2  UNL     1      38.316   3.193   8.949  1.00  0.00     0.117 C 
HETATM   31  N1  UNL     1      38.957   2.559  10.040  1.00  0.00    -0.417 N 
HETATM   32  C1  UNL     1      39.052   1.143   9.967  1.00  0.00     0.143 C 
HETATM   33  C21 UNL     1      38.768   3.118  11.330  1.00  0.00     0.117 C 
HETATM   34  C20 UNL     1      37.361   3.616  11.577  1.00  0.00     0.030 C 
ENDBRANCH  24  28
ENDBRANCH  16  18
ENDBRANCH   1  16
BRANCH  13  35
HETATM   35  N10 UNL     1      27.234   0.397  12.253  1.00  0.00    -0.234 N 
ATOM     36 2H10 UNL     1      28.180   0.020  12.307  1.00  0.00     0.174 HD
ATOM     37 1H10 UNL     1      26.483   0.242  12.924  1.00  0.00     0.174 HD
ENDBRANCH  13  35
BRANCH   5  38
HETATM   38  S1  UNL     1      25.705   4.132   6.362  1.00  0.00    -0.102 SA
BRANCH  38  39
HETATM   39  C14 UNL     1      26.732   3.323   5.083  1.00  0.00     0.144 C 
BRANCH  39  40
HETATM   40  C15 UNL     1      28.162   3.465   5.380  1.00  0.00     0.089 A 
HETATM   41  N4  UNL     1      28.751   4.566   5.876  1.00  0.00    -0.241 N 
HETATM   42  O1  UNL     1      30.002   4.314   6.005  1.00  0.00    -0.155 OA
ATOM     43  H4  UNL     1      28.286   5.444   6.108  1.00  0.00     0.196 HD
HETATM   44  N5  UNL     1      30.281   3.100   5.621  1.00  0.00    -0.224 N 
HETATM   45  C16 UNL     1      29.141   2.514   5.213  1.00  0.00     0.146 A 
ATOM     46  H5  UNL     1      31.204   2.668   5.628  1.00  0.00     0.198 HD
BRANCH  45  47
HETATM   47  N6  UNL     1      29.012   1.291   4.754  1.00  0.00    -0.382 N 
ATOM     48  H62 UNL     1      29.002   1.008   3.774  1.00  0.00     0.157 HD
ATOM     49  H61 UNL     1      28.903   0.427   5.286  1.00  0.00     0.157 HD
ENDBRANCH  45  47
ENDBRANCH  39  40
ENDBRANCH  38  39
ENDBRANCH   5  38
TORSDOF 8
ENDMDL
