MODEL 1
REMARK VINA RESULT: -5.500276492      0.000      0.000
REMARK  4 active torsions:
REMARK  status: ('A' for Active; 'I' for Inactive)
REMARK    1  A    between atoms: C3_4  and  O1_5 
REMARK    2  A    between atoms: N2_8  and  C5_10 
REMARK    3  A    between atoms: C5_10  and  C6_11 
REMARK    4  A    between atoms: C6_11  and  O2_12 
ROOT
HETATM    1  N1  UNL     1      79.946  56.365 113.238  1.00  0.00    -0.197 NA
HETATM    2  C1  UNL     1      79.756  55.747 112.269  1.00  0.00     0.069 C 
HETATM    3  C2  UNL     1      79.539  54.969 111.035  1.00  0.00     0.164 C 
HETATM    4  C3  UNL     1      80.829  54.383 110.540  1.00  0.00     0.183 C 
HETATM    5  C4  UNL     1      80.654  54.342 109.071  1.00  0.00     0.019 C 
HETATM    6  N2  UNL     1      81.056  53.443 108.313  1.00  0.00    -0.372 N 
ATOM      7  H2  UNL     1      81.548  52.674 108.766  1.00  0.00     0.164 HD
HETATM    8  C7  UNL     1      79.917  55.574 108.721  1.00  0.00     0.097 C 
HETATM    9  C8  UNL     1      79.141  55.939 109.964  1.00  0.00     0.161 C 
HETATM   10  C9  UNL     1      79.402  57.322 110.323  1.00  0.00     0.086 C 
HETATM   11  N3  UNL     1      79.598  58.426 110.606  1.00  0.00    -0.195 NA
HETATM   12  C10 UNL     1      77.702  55.725 109.703  1.00  0.00     0.086 C 
HETATM   13  N4  UNL     1      76.566  55.565 109.516  1.00  0.00    -0.195 NA
ENDROOT
BRANCH   4  14
HETATM   14  O1  UNL     1      81.912  55.234 110.800  1.00  0.00    -0.388 OA
ATOM     15  H1  UNL     1      81.875  56.016 110.262  1.00  0.00     0.210 HD
ENDBRANCH   4  14
BRANCH   6  16
HETATM   16  C5  UNL     1      80.924  53.341 106.914  1.00  0.00     0.086 C 
BRANCH  16  17
HETATM   17  C6  UNL     1      80.199  52.071 106.525  1.00  0.00     0.208 C 
BRANCH  17  18
HETATM   18  O2  UNL     1      78.898  52.359 106.135  1.00  0.00    -0.396 OA
ATOM     19  H2  UNL     1      78.333  52.427 106.896  1.00  0.00     0.209 HD
ENDBRANCH  17  18
ENDBRANCH  16  17
ENDBRANCH   6  16
TORSDOF 4
ENDMDL
MODEL 2
REMARK VINA RESULT: -5.493531573      1.794      3.158
REMARK  4 active torsions:
REMARK  status: ('A' for Active; 'I' for Inactive)
REMARK    1  A    between atoms: C3_4  and  O1_5 
REMARK    2  A    between atoms: N2_8  and  C5_10 
REMARK    3  A    between atoms: C5_10  and  C6_11 
REMARK    4  A    between atoms: C6_11  and  O2_12 
ROOT
HETATM    1  N1  UNL     1      79.211  57.968 110.692  1.00  0.00    -0.197 NA
HETATM    2  C1  UNL     1      79.827  57.176 110.099  1.00  0.00     0.069 C 
HETATM    3  C2  UNL     1      80.587  56.160 109.347  1.00  0.00     0.164 C 
HETATM    4  C3  UNL     1      79.678  55.366 108.455  1.00  0.00     0.183 C 
HETATM    5  C4  UNL     1      80.318  54.033 108.400  1.00  0.00     0.019 C 
HETATM    6  N2  UNL     1      80.379  53.293 107.404  1.00  0.00    -0.372 N 
ATOM      7  H2  UNL     1      79.941  53.658 106.559  1.00  0.00     0.164 HD
HETATM    8  C7  UNL     1      80.851  53.788 109.757  1.00  0.00     0.097 C 
HETATM    9  C8  UNL     1      81.093  55.159 110.341  1.00  0.00     0.161 C 
HETATM   10  C9  UNL     1      80.445  55.267 111.636  1.00  0.00     0.086 C 
HETATM   11  N3  UNL     1      79.941  55.353 112.674  1.00  0.00    -0.195 NA
HETATM   12  C10 UNL     1      82.550  55.371 110.461  1.00  0.00     0.086 C 
HETATM   13  N4  UNL     1      83.693  55.556 110.566  1.00  0.00    -0.195 NA
ENDROOT
BRANCH   4  14
HETATM   14  O1  UNL     1      78.415  55.190 109.038  1.00  0.00    -0.388 OA
ATOM     15  H1  UNL     1      77.801  54.805 108.424  1.00  0.00     0.210 HD
ENDBRANCH   4  14
BRANCH   6  16
HETATM   16  C5  UNL     1      80.969  52.020 107.281  1.00  0.00     0.086 C 
BRANCH  16  17
HETATM   17  C6  UNL     1      80.427  51.280 106.078  1.00  0.00     0.208 C 
BRANCH  17  18
HETATM   18  O2  UNL     1      79.474  50.350 106.474  1.00  0.00    -0.396 OA
ATOM     19  H2  UNL     1      78.886  50.153 105.754  1.00  0.00     0.209 HD
ENDBRANCH  17  18
ENDBRANCH  16  17
ENDBRANCH   6  16
TORSDOF 4
ENDMDL
MODEL 3
REMARK VINA RESULT: -5.326565522      2.036      3.717
REMARK  4 active torsions:
REMARK  status: ('A' for Active; 'I' for Inactive)
REMARK    1  A    between atoms: C3_4  and  O1_5 
REMARK    2  A    between atoms: N2_8  and  C5_10 
REMARK    3  A    between atoms: C5_10  and  C6_11 
REMARK    4  A    between atoms: C6_11  and  O2_12 
ROOT
HETATM    1  N1  UNL     1      83.070  54.752 109.629  1.00  0.00    -0.197 NA
HETATM    2  C1  UNL     1      81.943  54.732 109.921  1.00  0.00     0.069 C 
HETATM    3  C2  UNL     1      80.509  54.716 110.269  1.00  0.00     0.164 C 
HETATM    4  C3  UNL     1      79.665  54.520 109.043  1.00  0.00     0.183 C 
HETATM    5  C4  UNL     1      78.419  55.255 109.356  1.00  0.00     0.019 C 
HETATM    6  N2  UNL     1      77.268  54.905 109.045  1.00  0.00    -0.372 N 
ATOM      7  H2  UNL     1      77.200  54.029 108.528  1.00  0.00     0.164 HD
HETATM    8  C7  UNL     1      78.840  56.462 110.097  1.00  0.00     0.097 C 
HETATM    9  C8  UNL     1      80.152  56.092 110.746  1.00  0.00     0.161 C 
HETATM   10  C9  UNL     1      81.163  57.084 110.423  1.00  0.00     0.086 C 
HETATM   11  N3  UNL     1      81.967  57.879 110.179  1.00  0.00    -0.195 NA
HETATM   12  C10 UNL     1      79.949  56.001 112.206  1.00  0.00     0.086 C 
HETATM   13  N4  UNL     1      79.809  55.928 113.358  1.00  0.00    -0.195 NA
ENDROOT
BRANCH   4  14
HETATM   14  O1  UNL     1      80.236  55.141 107.924  1.00  0.00    -0.388 OA
ATOM     15  H1  UNL     1      80.565  56.006 108.137  1.00  0.00     0.210 HD
ENDBRANCH   4  14
BRANCH   6  16
HETATM   16  C5  UNL     1      76.045  55.551 109.308  1.00  0.00     0.086 C 
BRANCH  16  17
HETATM   17  C6  UNL     1      74.872  54.703 108.867  1.00  0.00     0.208 C 
BRANCH  17  18
HETATM   18  O2  UNL     1      75.313  53.630 108.103  1.00  0.00    -0.396 OA
ATOM     19  H2  UNL     1      76.253  53.678 107.979  1.00  0.00     0.209 HD
ENDBRANCH  17  18
ENDBRANCH  16  17
ENDBRANCH   6  16
TORSDOF 4
ENDMDL
MODEL 4
REMARK VINA RESULT: -5.223382134      1.279      1.345
REMARK  4 active torsions:
REMARK  status: ('A' for Active; 'I' for Inactive)
REMARK    1  A    between atoms: C3_4  and  O1_5 
REMARK    2  A    between atoms: N2_8  and  C5_10 
REMARK    3  A    between atoms: C5_10  and  C6_11 
REMARK    4  A    between atoms: C6_11  and  O2_12 
ROOT
HETATM    1  N1  UNL     1      80.998  56.121 112.368  1.00  0.00    -0.197 NA
HETATM    2  C1  UNL     1      80.659  55.377 111.539  1.00  0.00     0.069 C 
HETATM    3  C2  UNL     1      80.254  54.433 110.481  1.00  0.00     0.164 C 
HETATM    4  C3  UNL     1      81.415  53.586 110.047  1.00  0.00     0.183 C 
HETATM    5  C4  UNL     1      81.135  53.312 108.620  1.00  0.00     0.019 C 
HETATM    6  N2  UNL     1      81.358  52.245 108.024  1.00  0.00    -0.372 N 
ATOM      7  H2  UNL     1      81.772  51.505 108.590  1.00  0.00     0.164 HD
HETATM    8  C7  UNL     1      80.550  54.558 108.080  1.00  0.00     0.097 C 
HETATM    9  C8  UNL     1      79.918  55.246 109.266  1.00  0.00     0.161 C 
HETATM   10  C9  UNL     1      80.389  56.617 109.353  1.00  0.00     0.086 C 
HETATM   11  N3  UNL     1      80.752  57.713 109.418  1.00  0.00    -0.195 NA
HETATM   12  C10 UNL     1      78.450  55.201 109.112  1.00  0.00     0.086 C 
HETATM   13  N4  UNL     1      77.292  55.179 109.007  1.00  0.00    -0.195 NA
ENDROOT
BRANCH   4  14
HETATM   14  O1  UNL     1      82.618  54.302 110.098  1.00  0.00    -0.388 OA
ATOM     15  H1  UNL     1      83.330  53.813 109.704  1.00  0.00     0.210 HD
ENDBRANCH   4  14
BRANCH   6  16
HETATM   16  C5  UNL     1      81.118  51.917 106.676  1.00  0.00     0.086 C 
BRANCH  16  17
HETATM   17  C6  UNL     1      79.647  51.663 106.428  1.00  0.00     0.208 C 
BRANCH  17  18
HETATM   18  O2  UNL     1      79.425  50.315 106.180  1.00  0.00    -0.396 OA
ATOM     19  H2  UNL     1      79.137  50.187 105.283  1.00  0.00     0.209 HD
ENDBRANCH  17  18
ENDBRANCH  16  17
ENDBRANCH   6  16
TORSDOF 4
ENDMDL
MODEL 5
REMARK VINA RESULT: -5.095499018      1.711      2.792
REMARK  4 active torsions:
REMARK  status: ('A' for Active; 'I' for Inactive)
REMARK    1  A    between atoms: C3_4  and  O1_5 
REMARK    2  A    between atoms: N2_8  and  C5_10 
REMARK    3  A    between atoms: C5_10  and  C6_11 
REMARK    4  A    between atoms: C6_11  and  O2_12 
ROOT
HETATM    1  N1  UNL     1      79.584  59.018 109.141  1.00  0.00    -0.197 NA
HETATM    2  C1  UNL     1      80.031  57.956 109.312  1.00  0.00     0.069 C 
HETATM    3  C2  UNL     1      80.591  56.605 109.505  1.00  0.00     0.164 C 
HETATM    4  C3  UNL     1      81.077  56.038 108.203  1.00  0.00     0.183 C 
HETATM    5  C4  UNL     1      80.871  54.580 108.357  1.00  0.00     0.019 C 
HETATM    6  N2  UNL     1      81.626  53.688 107.936  1.00  0.00    -0.372 N 
ATOM      7  H2  UNL     1      82.457  54.013 107.443  1.00  0.00     0.164 HD
HETATM    8  C7  UNL     1      79.602  54.432 109.101  1.00  0.00     0.097 C 
HETATM    9  C8  UNL     1      79.458  55.706 109.898  1.00  0.00     0.161 C 
HETATM   10  C9  UNL     1      78.154  56.297 109.654  1.00  0.00     0.086 C 
HETATM   11  N3  UNL     1      77.111  56.765 109.473  1.00  0.00    -0.195 NA
HETATM   12  C10 UNL     1      79.635  55.391 111.330  1.00  0.00     0.086 C 
HETATM   13  N4  UNL     1      79.769  55.163 112.462  1.00  0.00    -0.195 NA
ENDROOT
BRANCH   4  14
HETATM   14  O1  UNL     1      80.274  56.454 107.132  1.00  0.00    -0.388 OA
ATOM     15  H1  UNL     1      80.799  56.699 106.380  1.00  0.00     0.210 HD
ENDBRANCH   4  14
BRANCH   6  16
HETATM   16  C5  UNL     1      81.493  52.290 108.047  1.00  0.00     0.086 C 
BRANCH  16  17
HETATM   17  C6  UNL     1      80.911  51.694 106.784  1.00  0.00     0.208 C 
BRANCH  17  18
HETATM   18  O2  UNL     1      81.278  50.360 106.666  1.00  0.00    -0.396 OA
ATOM     19  H2  UNL     1      82.202  50.254 106.859  1.00  0.00     0.209 HD
ENDBRANCH  17  18
ENDBRANCH  16  17
ENDBRANCH   6  16
TORSDOF 4
ENDMDL
