MODEL 1
REMARK VINA RESULT: -5.221853384      0.000      0.000
REMARK  4 active torsions:
REMARK  status: ('A' for Active; 'I' for Inactive)
REMARK    1  A    between atoms: C2_3  and  O1_6 
REMARK    2  A    between atoms: O1_6  and  C4_7 
REMARK    3  A    between atoms: C6_9  and  O2_10 
REMARK    4  A    between atoms: N3_16  and  N4_17 
ROOT
HETATM    1  N1  UNL     1      79.191  50.711 106.188  1.00  0.00    -0.193 NA
HETATM    2  C1  UNL     1      79.977  51.566 106.336  1.00  0.00     0.106 C 
HETATM    3  C2  UNL     1      80.951  52.640 106.499  1.00  0.00     0.337 C 
HETATM    4  C3  UNL     1      81.620  52.815 105.207  1.00  0.00     0.106 C 
HETATM    5  N2  UNL     1      82.147  52.952 104.190  1.00  0.00    -0.193 NA
ENDROOT
BRANCH   3   6
HETATM    6  O1  UNL     1      80.349  53.816 106.938  1.00  0.00    -0.332 OA
BRANCH   6   7
HETATM    7  C4  UNL     1      80.802  54.187 108.197  1.00  0.00     0.252 C 
HETATM    8  C5  UNL     1      81.844  55.251 108.132  1.00  0.00     0.072 A 
HETATM    9  C6  UNL     1      81.961  56.286 107.136  1.00  0.00     0.131 A 
HETATM   10  C7  UNL     1      81.066  56.600 108.212  1.00  0.00     0.026 A 
HETATM   11  C8  UNL     1      81.376  57.117 109.562  1.00  0.00     0.013 C 
HETATM   12  C9  UNL     1      81.096  55.984 110.526  1.00  0.00     0.047 C 
HETATM   13  C10 UNL     1      79.889  55.191 110.215  1.00  0.00     0.085 C 
HETATM   14  N3  UNL     1      79.705  54.645 108.960  1.00  0.00    -0.284 N 
BRANCH   9  15
HETATM   15  O2  UNL     1      81.407  56.035 105.879  1.00  0.00    -0.395 OA
ATOM     16  H2  UNL     1      81.524  56.698 105.209  1.00  0.00     0.210 HD
ENDBRANCH   9  15
BRANCH  14  17
HETATM   17  N4  UNL     1      78.463  54.448 108.485  1.00  0.00    -0.341 N 
ATOM     18  H42 UNL     1      77.700  55.060 108.774  1.00  0.00     0.177 HD
ATOM     19  H41 UNL     1      78.289  53.634 107.895  1.00  0.00     0.177 HD
ENDBRANCH  14  17
ENDBRANCH   6   7
ENDBRANCH   3   6
TORSDOF 4
ENDMDL
MODEL 2
REMARK VINA RESULT: -5.127559339      1.577      1.995
REMARK  4 active torsions:
REMARK  status: ('A' for Active; 'I' for Inactive)
REMARK    1  A    between atoms: C2_3  and  O1_6 
REMARK    2  A    between atoms: O1_6  and  C4_7 
REMARK    3  A    between atoms: C6_9  and  O2_10 
REMARK    4  A    between atoms: N3_16  and  N4_17 
ROOT
HETATM    1  N1  UNL     1      78.535  52.178 106.259  1.00  0.00    -0.193 NA
HETATM    2  C1  UNL     1      79.645  52.506 106.431  1.00  0.00     0.106 C 
HETATM    3  C2  UNL     1      81.029  52.928 106.624  1.00  0.00     0.337 C 
HETATM    4  C3  UNL     1      81.657  52.967 105.301  1.00  0.00     0.106 C 
HETATM    5  N2  UNL     1      82.151  52.997 104.259  1.00  0.00    -0.193 NA
ENDROOT
BRANCH   3   6
HETATM    6  O1  UNL     1      81.103  54.157 107.274  1.00  0.00    -0.332 OA
BRANCH   6   7
HETATM    7  C4  UNL     1      80.360  54.164 108.447  1.00  0.00     0.252 C 
HETATM    8  C5  UNL     1      81.169  53.760 109.632  1.00  0.00     0.072 A 
HETATM    9  C6  UNL     1      82.579  53.974 109.829  1.00  0.00     0.131 A 
HETATM   10  C7  UNL     1      81.755  55.086 110.207  1.00  0.00     0.026 A 
HETATM   11  C8  UNL     1      80.999  55.301 111.459  1.00  0.00     0.013 C 
HETATM   12  C9  UNL     1      79.534  55.176 111.099  1.00  0.00     0.047 C 
HETATM   13  C10 UNL     1      79.160  55.784 109.808  1.00  0.00     0.085 C 
HETATM   14  N3  UNL     1      79.841  55.462 108.649  1.00  0.00    -0.284 N 
BRANCH   9  15
HETATM   15  O2  UNL     1      83.375  54.111 108.689  1.00  0.00    -0.395 OA
ATOM     16  H2  UNL     1      84.293  53.876 108.765  1.00  0.00     0.210 HD
ENDBRANCH   9  15
BRANCH  14  17
HETATM   17  N4  UNL     1      79.932  56.355 107.649  1.00  0.00    -0.341 N 
ATOM     18  H42 UNL     1      80.843  56.715 107.364  1.00  0.00     0.177 HD
ATOM     19  H41 UNL     1      79.072  56.719 107.238  1.00  0.00     0.177 HD
ENDBRANCH  14  17
ENDBRANCH   6   7
ENDBRANCH   3   6
TORSDOF 4
ENDMDL
MODEL 3
REMARK VINA RESULT: -5.104860732      2.098      5.090
REMARK  4 active torsions:
REMARK  status: ('A' for Active; 'I' for Inactive)
REMARK    1  A    between atoms: C2_3  and  O1_6 
REMARK    2  A    between atoms: O1_6  and  C4_7 
REMARK    3  A    between atoms: C6_9  and  O2_10 
REMARK    4  A    between atoms: N3_16  and  N4_17 
ROOT
HETATM    1  N1  UNL     1      81.104  56.772 109.816  1.00  0.00    -0.193 NA
HETATM    2  C1  UNL     1      80.435  55.875 109.473  1.00  0.00     0.106 C 
HETATM    3  C2  UNL     1      79.585  54.773 109.035  1.00  0.00     0.337 C 
HETATM    4  C3  UNL     1      78.196  55.207 109.200  1.00  0.00     0.106 C 
HETATM    5  N2  UNL     1      77.102  55.549 109.330  1.00  0.00    -0.193 NA
ENDROOT
BRANCH   3   6
HETATM    6  O1  UNL     1      79.863  54.403 107.722  1.00  0.00    -0.332 OA
BRANCH   6   7
HETATM    7  C4  UNL     1      81.024  53.644 107.636  1.00  0.00     0.252 C 
HETATM    8  C5  UNL     1      80.747  52.225 107.276  1.00  0.00     0.072 A 
HETATM    9  C6  UNL     1      79.664  51.734 106.463  1.00  0.00     0.131 A 
HETATM   10  C7  UNL     1      80.811  52.170 105.719  1.00  0.00     0.026 A 
HETATM   11  C8  UNL     1      82.067  51.444 105.435  1.00  0.00     0.013 C 
HETATM   12  C9  UNL     1      83.147  52.127 106.246  1.00  0.00     0.047 C 
HETATM   13  C10 UNL     1      83.050  53.599 106.291  1.00  0.00     0.085 C 
HETATM   14  N3  UNL     1      81.875  54.220 106.666  1.00  0.00    -0.284 N 
BRANCH   9  15
HETATM   15  O2  UNL     1      78.508  52.515 106.393  1.00  0.00    -0.395 OA
ATOM     16  H2  UNL     1      77.961  52.556 107.169  1.00  0.00     0.210 HD
ENDBRANCH   9  15
BRANCH  14  17
HETATM   17  N4  UNL     1      81.571  55.439 106.186  1.00  0.00    -0.341 N 
ATOM     18  H42 UNL     1      82.283  56.169 106.155  1.00  0.00     0.177 HD
ATOM     19  H41 UNL     1      80.604  55.635 105.928  1.00  0.00     0.177 HD
ENDBRANCH  14  17
ENDBRANCH   6   7
ENDBRANCH   3   6
TORSDOF 4
ENDMDL
MODEL 4
REMARK VINA RESULT: -5.099245734      1.020      1.036
REMARK  4 active torsions:
REMARK  status: ('A' for Active; 'I' for Inactive)
REMARK    1  A    between atoms: C2_3  and  O1_6 
REMARK    2  A    between atoms: O1_6  and  C4_7 
REMARK    3  A    between atoms: C6_9  and  O2_10 
REMARK    4  A    between atoms: N3_16  and  N4_17 
ROOT
HETATM    1  N1  UNL     1      79.520  50.876 106.178  1.00  0.00    -0.193 NA
HETATM    2  C1  UNL     1      80.126  51.740 106.683  1.00  0.00     0.106 C 
HETATM    3  C2  UNL     1      80.889  52.826 107.291  1.00  0.00     0.337 C 
HETATM    4  C3  UNL     1      82.111  52.990 106.500  1.00  0.00     0.106 C 
HETATM    5  N2  UNL     1      83.073  53.120 105.877  1.00  0.00    -0.193 NA
ENDROOT
BRANCH   3   6
HETATM    6  O1  UNL     1      80.145  54.001 107.353  1.00  0.00    -0.332 OA
BRANCH   6   7
HETATM    7  C4  UNL     1      80.307  54.648 108.571  1.00  0.00     0.252 C 
HETATM    8  C5  UNL     1      81.126  55.887 108.450  1.00  0.00     0.072 A 
HETATM    9  C6  UNL     1      81.210  56.760 107.306  1.00  0.00     0.131 A 
HETATM   10  C7  UNL     1      80.106  57.035 108.179  1.00  0.00     0.026 A 
HETATM   11  C8  UNL     1      80.087  57.806 109.441  1.00  0.00     0.013 C 
HETATM   12  C9  UNL     1      79.868  56.800 110.551  1.00  0.00     0.047 C 
HETATM   13  C10 UNL     1      78.900  55.730 110.235  1.00  0.00     0.085 C 
HETATM   14  N3  UNL     1      79.032  54.973 109.087  1.00  0.00    -0.284 N 
BRANCH   9  15
HETATM   15  O2  UNL     1      80.929  56.207 106.054  1.00  0.00    -0.395 OA
ATOM     16  H2  UNL     1      81.141  55.291 105.923  1.00  0.00     0.210 HD
ENDBRANCH   9  15
BRANCH  14  17
HETATM   17  N4  UNL     1      77.945  54.445 108.498  1.00  0.00    -0.341 N 
ATOM     18  H42 UNL     1      77.962  54.214 107.504  1.00  0.00     0.177 HD
ATOM     19  H41 UNL     1      77.088  54.355 109.044  1.00  0.00     0.177 HD
ENDBRANCH  14  17
ENDBRANCH   6   7
ENDBRANCH   3   6
TORSDOF 4
ENDMDL
MODEL 5
REMARK VINA RESULT: -5.039245292      1.300      1.436
REMARK  4 active torsions:
REMARK  status: ('A' for Active; 'I' for Inactive)
REMARK    1  A    between atoms: C2_3  and  O1_6 
REMARK    2  A    between atoms: O1_6  and  C4_7 
REMARK    3  A    between atoms: C6_9  and  O2_10 
REMARK    4  A    between atoms: N3_16  and  N4_17 
ROOT
HETATM    1  N1  UNL     1      77.447  51.459 106.182  1.00  0.00    -0.193 NA
HETATM    2  C1  UNL     1      78.579  51.655 106.401  1.00  0.00     0.106 C 
HETATM    3  C2  UNL     1      79.996  51.905 106.650  1.00  0.00     0.337 C 
HETATM    4  C3  UNL     1      80.735  51.391 105.494  1.00  0.00     0.106 C 
HETATM    5  N2  UNL     1      81.316  50.987 104.583  1.00  0.00    -0.193 NA
ENDROOT
BRANCH   3   6
HETATM    6  O1  UNL     1      80.246  53.256 106.871  1.00  0.00    -0.332 OA
BRANCH   6   7
HETATM    7  C4  UNL     1      80.932  53.465 108.061  1.00  0.00     0.252 C 
HETATM    8  C5  UNL     1      82.320  53.957 107.835  1.00  0.00     0.072 A 
HETATM    9  C6  UNL     1      82.780  54.775 106.741  1.00  0.00     0.131 A 
HETATM   10  C7  UNL     1      82.214  55.513 107.833  1.00  0.00     0.026 A 
HETATM   11  C8  UNL     1      82.843  55.920 109.108  1.00  0.00     0.013 C 
HETATM   12  C9  UNL     1      82.192  55.084 110.189  1.00  0.00     0.047 C 
HETATM   13  C10 UNL     1      80.738  54.885 110.026  1.00  0.00     0.085 C 
HETATM   14  N3  UNL     1      80.218  54.402 108.840  1.00  0.00    -0.284 N 
BRANCH   9  15
HETATM   15  O2  UNL     1      82.056  54.719 105.547  1.00  0.00    -0.395 OA
ATOM     16  H2  UNL     1      81.265  54.193 105.540  1.00  0.00     0.210 HD
ENDBRANCH   9  15
BRANCH  14  17
HETATM   17  N4  UNL     1      78.975  54.742 108.460  1.00  0.00    -0.341 N 
ATOM     18  H42 UNL     1      78.834  55.347 107.650  1.00  0.00     0.177 HD
ATOM     19  H41 UNL     1      78.188  54.448 109.039  1.00  0.00     0.177 HD
ENDBRANCH  14  17
ENDBRANCH   6   7
ENDBRANCH   3   6
TORSDOF 4
ENDMDL
