MODEL 1
REMARK VINA RESULT: -5.378978361      0.000      0.000
REMARK  4 active torsions:
REMARK  status: ('A' for Active; 'I' for Inactive)
REMARK    1  A    between atoms: O1_1  and  C1_3 
REMARK    2  A    between atoms: C1_3  and  C2_4 
REMARK    3  A    between atoms: C4_7  and  N1_8 
REMARK    4  A    between atoms: C10_16  and  O3_17 
ROOT
HETATM    1  C2  UNL     1      82.242  53.706 105.946  1.00  0.00     0.130 C 
HETATM    2  C3  UNL     1      81.698  55.084 106.079  1.00  0.00     0.213 C 
HETATM    3  O2  UNL     1      80.789  55.230 107.119  1.00  0.00    -0.360 OA
HETATM    4  C4  UNL     1      81.334  54.648 108.253  1.00  0.00     0.257 C 
HETATM    5  C8  UNL     1      81.532  53.166 107.910  1.00  0.00     0.174 C 
HETATM    6  C9  UNL     1      80.430  52.684 106.987  1.00  0.00     0.071 C 
HETATM    7  C10 UNL     1      81.107  52.746 105.609  1.00  0.00     0.159 C 
HETATM    8  O4  UNL     1      82.709  53.156 107.124  1.00  0.00    -0.363 OA
ENDROOT
BRANCH   4   9
HETATM    9  N1  UNL     1      80.515  54.812 109.426  1.00  0.00    -0.322 N 
HETATM   10  C5  UNL     1      80.958  54.652 110.687  1.00  0.00     0.111 A 
HETATM   11  C6  UNL     1      79.935  54.879 111.566  1.00  0.00     0.106 A 
HETATM   12  N2  UNL     1      78.854  55.184 110.821  1.00  0.00    -0.361 N 
HETATM   13  C7  UNL     1      79.221  55.139 109.528  1.00  0.00     0.184 A 
ATOM     14  H2  UNL     1      77.925  55.408 111.175  1.00  0.00     0.166 HD
ENDBRANCH   4   9
BRANCH   1  15
HETATM   15  C1  UNL     1      83.326  53.685 104.914  1.00  0.00     0.207 C 
BRANCH  15  16
HETATM   16  O1  UNL     1      82.739  53.636 103.639  1.00  0.00    -0.398 OA
ATOM     17  H1  UNL     1      83.427  53.628 102.984  1.00  0.00     0.209 HD
ENDBRANCH  15  16
ENDBRANCH   1  15
BRANCH   7  18
HETATM   18  O3  UNL     1      80.267  53.240 104.643  1.00  0.00    -0.392 OA
ATOM     19  H3  UNL     1      79.501  53.667 105.008  1.00  0.00     0.210 HD
ENDBRANCH   7  18
TORSDOF 4
ENDMDL
MODEL 2
REMARK VINA RESULT: -5.217349854      2.836      4.553
REMARK  4 active torsions:
REMARK  status: ('A' for Active; 'I' for Inactive)
REMARK    1  A    between atoms: O1_1  and  C1_3 
REMARK    2  A    between atoms: C1_3  and  C2_4 
REMARK    3  A    between atoms: C4_7  and  N1_8 
REMARK    4  A    between atoms: C10_16  and  O3_17 
ROOT
HETATM    1  C2  UNL     1      80.313  52.266 106.243  1.00  0.00     0.130 C 
HETATM    2  C3  UNL     1      80.646  53.131 107.407  1.00  0.00     0.213 C 
HETATM    3  O2  UNL     1      81.793  53.894 107.229  1.00  0.00    -0.360 OA
HETATM    4  C4  UNL     1      81.718  54.501 105.985  1.00  0.00     0.257 C 
HETATM    5  C8  UNL     1      81.662  53.359 104.963  1.00  0.00     0.174 C 
HETATM    6  C9  UNL     1      82.493  52.183 105.436  1.00  0.00     0.071 C 
HETATM    7  C10 UNL     1      81.429  51.250 106.034  1.00  0.00     0.159 C 
HETATM    8  O4  UNL     1      80.319  52.915 105.024  1.00  0.00    -0.363 OA
ENDROOT
BRANCH   4   9
HETATM    9  N1  UNL     1      82.817  55.393 105.720  1.00  0.00    -0.322 N 
HETATM   10  C5  UNL     1      83.427  56.141 106.657  1.00  0.00     0.111 A 
HETATM   11  C6  UNL     1      84.427  56.874 106.080  1.00  0.00     0.106 A 
HETATM   12  N2  UNL     1      84.421  56.561 104.769  1.00  0.00    -0.361 N 
HETATM   13  C7  UNL     1      83.441  55.663 104.567  1.00  0.00     0.184 A 
ATOM     14  H2  UNL     1      85.048  56.937 104.059  1.00  0.00     0.166 HD
ENDBRANCH   4   9
BRANCH   1  15
HETATM   15  C1  UNL     1      78.985  51.611 106.460  1.00  0.00     0.207 C 
BRANCH  15  16
HETATM   16  O1  UNL     1      79.091  50.248 106.137  1.00  0.00    -0.398 OA
ATOM     17  H1  UNL     1      78.481  49.756 106.674  1.00  0.00     0.209 HD
ENDBRANCH  15  16
ENDBRANCH   1  15
BRANCH   7  18
HETATM   18  O3  UNL     1      81.847  50.675 107.209  1.00  0.00    -0.392 OA
ATOM     19  H3  UNL     1      82.274  49.838 107.074  1.00  0.00     0.210 HD
ENDBRANCH   7  18
TORSDOF 4
ENDMDL
MODEL 3
REMARK VINA RESULT: -5.148749539      1.864      2.420
REMARK  4 active torsions:
REMARK  status: ('A' for Active; 'I' for Inactive)
REMARK    1  A    between atoms: O1_1  and  C1_3 
REMARK    2  A    between atoms: C1_3  and  C2_4 
REMARK    3  A    between atoms: C4_7  and  N1_8 
REMARK    4  A    between atoms: C10_16  and  O3_17 
ROOT
HETATM    1  C2  UNL     1      82.088  52.776 107.271  1.00  0.00     0.130 C 
HETATM    2  C3  UNL     1      80.711  53.054 106.781  1.00  0.00     0.213 C 
HETATM    3  O2  UNL     1      79.894  53.667 107.722  1.00  0.00    -0.360 OA
HETATM    4  C4  UNL     1      80.597  54.724 108.280  1.00  0.00     0.257 C 
HETATM    5  C8  UNL     1      81.827  54.102 108.952  1.00  0.00     0.174 C 
HETATM    6  C9  UNL     1      81.488  52.736 109.518  1.00  0.00     0.071 C 
HETATM    7  C10 UNL     1      82.021  51.790 108.431  1.00  0.00     0.159 C 
HETATM    8  O4  UNL     1      82.711  53.850 107.876  1.00  0.00    -0.363 OA
ENDROOT
BRANCH   4   9
HETATM    9  N1  UNL     1      79.819  55.495 109.214  1.00  0.00    -0.322 N 
HETATM   10  C5  UNL     1      78.476  55.574 109.195  1.00  0.00     0.111 A 
HETATM   11  C6  UNL     1      78.049  56.385 110.212  1.00  0.00     0.106 A 
HETATM   12  N2  UNL     1      79.157  56.801 110.857  1.00  0.00    -0.361 N 
HETATM   13  C7  UNL     1      80.220  56.254 110.241  1.00  0.00     0.184 A 
ATOM     14  H2  UNL     1      79.184  57.419 111.667  1.00  0.00     0.166 HD
ENDBRANCH   4   9
BRANCH   1  15
HETATM   15  C1  UNL     1      82.935  52.269 106.146  1.00  0.00     0.207 C 
BRANCH  15  16
HETATM   16  O1  UNL     1      82.990  50.867 106.214  1.00  0.00    -0.398 OA
ATOM     17  H1  UNL     1      83.723  50.563 105.692  1.00  0.00     0.209 HD
ENDBRANCH  15  16
ENDBRANCH   1  15
BRANCH   7  18
HETATM   18  O3  UNL     1      81.164  50.746 108.189  1.00  0.00    -0.392 OA
ATOM     19  H3  UNL     1      80.980  50.633 107.264  1.00  0.00     0.210 HD
ENDBRANCH   7  18
TORSDOF 4
ENDMDL
MODEL 4
REMARK VINA RESULT: -5.105977884      1.601      2.471
REMARK  4 active torsions:
REMARK  status: ('A' for Active; 'I' for Inactive)
REMARK    1  A    between atoms: O1_1  and  C1_3 
REMARK    2  A    between atoms: C1_3  and  C2_4 
REMARK    3  A    between atoms: C4_7  and  N1_8 
REMARK    4  A    between atoms: C10_16  and  O3_17 
ROOT
HETATM    1  C2  UNL     1      81.736  52.559 106.381  1.00  0.00     0.130 C 
HETATM    2  C3  UNL     1      81.395  51.851 107.644  1.00  0.00     0.213 C 
HETATM    3  O2  UNL     1      81.433  52.663 108.770  1.00  0.00    -0.360 OA
HETATM    4  C4  UNL     1      80.737  53.827 108.485  1.00  0.00     0.257 C 
HETATM    5  C8  UNL     1      81.481  54.486 107.316  1.00  0.00     0.174 C 
HETATM    6  C9  UNL     1      82.972  54.230 107.426  1.00  0.00     0.071 C 
HETATM    7  C10 UNL     1      83.175  53.058 106.454  1.00  0.00     0.159 C 
HETATM    8  O4  UNL     1      81.058  53.746 106.186  1.00  0.00    -0.363 OA
ENDROOT
BRANCH   4   9
HETATM    9  N1  UNL     1      80.632  54.718 109.612  1.00  0.00    -0.322 N 
HETATM   10  C5  UNL     1      80.394  54.316 110.874  1.00  0.00     0.111 A 
HETATM   11  C6  UNL     1      80.354  55.404 111.703  1.00  0.00     0.106 A 
HETATM   12  N2  UNL     1      80.573  56.482 110.926  1.00  0.00    -0.361 N 
HETATM   13  C7  UNL     1      80.740  56.051 109.663  1.00  0.00     0.184 A 
ATOM     14  H2  UNL     1      80.607  57.452 111.239  1.00  0.00     0.166 HD
ENDBRANCH   4   9
BRANCH   1  15
HETATM   15  C1  UNL     1      81.511  51.652 105.212  1.00  0.00     0.207 C 
BRANCH  15  16
HETATM   16  O1  UNL     1      81.991  50.371 105.532  1.00  0.00    -0.398 OA
ATOM     17  H1  UNL     1      81.535  49.730 104.999  1.00  0.00     0.209 HD
ENDBRANCH  15  16
ENDBRANCH   1  15
BRANCH   7  18
HETATM   18  O3  UNL     1      84.035  52.114 106.956  1.00  0.00    -0.392 OA
ATOM     19  H3  UNL     1      84.240  52.257 107.873  1.00  0.00     0.210 HD
ENDBRANCH   7  18
TORSDOF 4
ENDMDL
MODEL 5
REMARK VINA RESULT: -5.072922654      1.571      2.118
REMARK  4 active torsions:
REMARK  status: ('A' for Active; 'I' for Inactive)
REMARK    1  A    between atoms: O1_1  and  C1_3 
REMARK    2  A    between atoms: C1_3  and  C2_4 
REMARK    3  A    between atoms: C4_7  and  N1_8 
REMARK    4  A    between atoms: C10_16  and  O3_17 
ROOT
HETATM    1  C2  UNL     1      81.550  52.533 106.364  1.00  0.00     0.130 C 
HETATM    2  C3  UNL     1      80.071  52.679 106.433  1.00  0.00     0.213 C 
HETATM    3  O2  UNL     1      79.601  53.048 107.686  1.00  0.00    -0.360 OA
HETATM    4  C4  UNL     1      80.368  54.111 108.138  1.00  0.00     0.257 C 
HETATM    5  C8  UNL     1      81.805  53.582 108.231  1.00  0.00     0.174 C 
HETATM    6  C9  UNL     1      81.807  52.122 108.640  1.00  0.00     0.071 C 
HETATM    7  C10 UNL     1      81.988  51.406 107.293  1.00  0.00     0.159 C 
HETATM    8  O4  UNL     1      82.258  53.596 106.891  1.00  0.00    -0.363 OA
ENDROOT
BRANCH   4   9
HETATM    9  N1  UNL     1      79.918  54.641 109.400  1.00  0.00    -0.322 N 
HETATM   10  C5  UNL     1      78.990  55.607 109.526  1.00  0.00     0.111 A 
HETATM   11  C6  UNL     1      78.791  55.882 110.852  1.00  0.00     0.106 A 
HETATM   12  N2  UNL     1      79.614  55.065 111.537  1.00  0.00    -0.361 N 
HETATM   13  C7  UNL     1      80.290  54.320 110.644  1.00  0.00     0.184 A 
ATOM     14  H2  UNL     1      79.708  55.019 112.551  1.00  0.00     0.166 HD
ENDBRANCH   4   9
BRANCH   1  15
HETATM   15  C1  UNL     1      81.973  52.296 104.949  1.00  0.00     0.207 C 
BRANCH  15  16
HETATM   16  O1  UNL     1      81.473  51.054 104.526  1.00  0.00    -0.398 OA
ATOM     17  H1  UNL     1      80.850  51.196 103.823  1.00  0.00     0.209 HD
ENDBRANCH  15  16
ENDBRANCH   1  15
BRANCH   7  18
HETATM   18  O3  UNL     1      81.191  50.294 107.186  1.00  0.00    -0.392 OA
ATOM     19  H3  UNL     1      80.620  50.325 106.428  1.00  0.00     0.210 HD
ENDBRANCH   7  18
TORSDOF 4
ENDMDL
