MODEL 1
REMARK VINA RESULT: -4.759218645      0.000      0.000
REMARK  3 active torsions:
REMARK  status: ('A' for Active; 'I' for Inactive)
REMARK    1  A    between atoms: S1_2  and  C2_3 
REMARK    2  A    between atoms: C2_3  and  C3_4 
REMARK    3  A    between atoms: C7_12  and  O3_14 
ROOT
HETATM    1  C3  UNL     1      81.044  52.874 107.688  1.00  0.00     0.179 C 
HETATM    2  O1  UNL     1      80.056  52.663 106.745  1.00  0.00    -0.376 OA
HETATM    3  C4  UNL     1      80.219  51.524 105.997  1.00  0.00     0.229 C 
HETATM    4  C5  UNL     1      81.637  51.510 105.440  1.00  0.00     0.291 C 
HETATM    5  O2  UNL     1      82.526  51.516 106.491  1.00  0.00    -0.332 OA
HETATM    6  C6  UNL     1      82.424  52.748 107.128  1.00  0.00     0.253 C 
HETATM    7  N1  UNL     1      82.799  53.765 106.210  1.00  0.00    -0.341 N 
ATOM      8  H1  UNL     1      83.455  54.503 106.462  1.00  0.00     0.161 HD
HETATM    9  C7  UNL     1      82.209  53.695 104.922  1.00  0.00     0.242 C 
HETATM   10  C8  UNL     1      83.233  54.234 103.910  1.00  0.00     0.106 C 
HETATM   11  O4  UNL     1      81.845  52.458 104.487  1.00  0.00    -0.306 OA
ENDROOT
BRANCH   1  12
HETATM   12  C2  UNL     1      80.780  54.192 108.358  1.00  0.00     0.109 C 
BRANCH  12  13
HETATM   13  S1  UNL     1      81.304  54.011 110.101  1.00  0.00    -0.171 SA
HETATM   14  C1  UNL     1      80.102  54.745 111.227  1.00  0.00     0.089 C 
ENDBRANCH  12  13
ENDBRANCH   1  12
BRANCH   9  15
HETATM   15  O3  UNL     1      81.120  54.576 104.858  1.00  0.00    -0.349 OA
ATOM     16  H3  UNL     1      81.437  55.471 104.817  1.00  0.00     0.215 HD
ENDBRANCH   9  15
TORSDOF 3
ENDMDL
MODEL 2
REMARK VINA RESULT: -4.677241269      1.500      2.887
REMARK  3 active torsions:
REMARK  status: ('A' for Active; 'I' for Inactive)
REMARK    1  A    between atoms: S1_2  and  C2_3 
REMARK    2  A    between atoms: C2_3  and  C3_4 
REMARK    3  A    between atoms: C7_12  and  O3_14 
ROOT
HETATM    1  C3  UNL     1      82.443  53.303 107.553  1.00  0.00     0.179 C 
HETATM    2  O1  UNL     1      82.815  52.232 106.763  1.00  0.00    -0.376 OA
HETATM    3  C4  UNL     1      82.769  52.479 105.414  1.00  0.00     0.229 C 
HETATM    4  C5  UNL     1      81.406  53.070 105.077  1.00  0.00     0.291 C 
HETATM    5  O2  UNL     1      81.245  54.243 105.777  1.00  0.00    -0.332 OA
HETATM    6  C6  UNL     1      81.151  53.924 107.127  1.00  0.00     0.253 C 
HETATM    7  N1  UNL     1      79.999  53.115 107.323  1.00  0.00    -0.341 N 
ATOM      8  H1  UNL     1      79.326  53.307 108.065  1.00  0.00     0.161 HD
HETATM    9  C7  UNL     1      79.837  52.028 106.427  1.00  0.00     0.242 C 
HETATM   10  C8  UNL     1      78.329  51.823 106.211  1.00  0.00     0.106 C 
HETATM   11  O4  UNL     1      80.393  52.170 105.193  1.00  0.00    -0.306 OA
ENDROOT
BRANCH   1  12
HETATM   12  C2  UNL     1      82.456  52.856 108.987  1.00  0.00     0.109 C 
BRANCH  12  13
HETATM   13  S1  UNL     1      82.166  54.346 110.006  1.00  0.00    -0.171 SA
HETATM   14  C1  UNL     1      80.535  54.309 110.774  1.00  0.00     0.089 C 
ENDBRANCH  12  13
ENDBRANCH   1  12
BRANCH   9  15
HETATM   15  O3  UNL     1      80.292  50.849 107.035  1.00  0.00    -0.349 OA
ATOM     16  H3  UNL     1      79.573  50.430 107.494  1.00  0.00     0.215 HD
ENDBRANCH   9  15
TORSDOF 3
ENDMDL
MODEL 3
REMARK VINA RESULT: -4.653593501      3.647      6.209
REMARK  3 active torsions:
REMARK  status: ('A' for Active; 'I' for Inactive)
REMARK    1  A    between atoms: S1_2  and  C2_3 
REMARK    2  A    between atoms: C2_3  and  C3_4 
REMARK    3  A    between atoms: C7_12  and  O3_14 
ROOT
HETATM    1  C3  UNL     1      80.284  55.170 108.789  1.00  0.00     0.179 C 
HETATM    2  O1  UNL     1      78.936  55.024 109.055  1.00  0.00    -0.376 OA
HETATM    3  C4  UNL     1      78.248  56.206 109.163  1.00  0.00     0.229 C 
HETATM    4  C5  UNL     1      78.991  57.110 110.140  1.00  0.00     0.291 C 
HETATM    5  O2  UNL     1      80.256  57.344 109.652  1.00  0.00    -0.332 OA
HETATM    6  C6  UNL     1      80.959  56.144 109.700  1.00  0.00     0.253 C 
HETATM    7  N1  UNL     1      81.061  55.733 111.056  1.00  0.00    -0.341 N 
ATOM      8  H1  UNL     1      81.947  55.430 111.461  1.00  0.00     0.161 HD
HETATM    9  C7  UNL     1      79.864  55.766 111.813  1.00  0.00     0.242 C 
HETATM   10  C8  UNL     1      80.238  56.114 113.263  1.00  0.00     0.106 C 
HETATM   11  O4  UNL     1      78.925  56.672 111.425  1.00  0.00    -0.306 OA
ENDROOT
BRANCH   1  12
HETATM   12  C2  UNL     1      80.913  53.806 108.789  1.00  0.00     0.109 C 
BRANCH  12  13
HETATM   13  S1  UNL     1      81.176  53.347 107.038  1.00  0.00    -0.171 SA
HETATM   14  C1  UNL     1      80.532  51.699 106.689  1.00  0.00     0.089 C 
ENDBRANCH  12  13
ENDBRANCH   1  12
BRANCH   9  15
HETATM   15  O3  UNL     1      79.308  54.480 111.869  1.00  0.00    -0.349 OA
ATOM     16  H3  UNL     1      79.990  53.833 111.729  1.00  0.00     0.215 HD
ENDBRANCH   9  15
TORSDOF 3
ENDMDL
MODEL 4
REMARK VINA RESULT: -4.595505355      4.177      6.222
REMARK  3 active torsions:
REMARK  status: ('A' for Active; 'I' for Inactive)
REMARK    1  A    between atoms: S1_2  and  C2_3 
REMARK    2  A    between atoms: C2_3  and  C3_4 
REMARK    3  A    between atoms: C7_12  and  O3_14 
ROOT
HETATM    1  C3  UNL     1      81.441  55.076 110.676  1.00  0.00     0.179 C 
HETATM    2  O1  UNL     1      81.512  56.445 110.847  1.00  0.00    -0.376 OA
HETATM    3  C4  UNL     1      80.994  56.897 112.034  1.00  0.00     0.229 C 
HETATM    4  C5  UNL     1      79.599  56.311 112.207  1.00  0.00     0.291 C 
HETATM    5  O2  UNL     1      79.694  54.938 112.226  1.00  0.00    -0.332 OA
HETATM    6  C6  UNL     1      80.081  54.521 110.957  1.00  0.00     0.253 C 
HETATM    7  N1  UNL     1      79.073  54.895 110.029  1.00  0.00    -0.341 N 
ATOM      8  H1  UNL     1      78.704  54.239 109.341  1.00  0.00     0.161 HD
HETATM    9  C7  UNL     1      78.607  56.232 110.114  1.00  0.00     0.242 C 
HETATM   10  C8  UNL     1      77.120  56.233 109.726  1.00  0.00     0.106 C 
HETATM   11  O4  UNL     1      78.692  56.828 111.335  1.00  0.00    -0.306 OA
ENDROOT
BRANCH   1  12
HETATM   12  C2  UNL     1      81.958  54.745 109.306  1.00  0.00     0.109 C 
BRANCH  12  13
HETATM   13  S1  UNL     1      82.633  53.047 109.393  1.00  0.00    -0.171 SA
HETATM   14  C1  UNL     1      81.736  51.929 108.298  1.00  0.00     0.089 C 
ENDBRANCH  12  13
ENDBRANCH   1  12
BRANCH   9  15
HETATM   15  O3  UNL     1      79.249  57.014 109.143  1.00  0.00    -0.349 OA
ATOM     16  H3  UNL     1      80.027  57.411 109.518  1.00  0.00     0.215 HD
ENDBRANCH   9  15
TORSDOF 3
ENDMDL
MODEL 5
REMARK VINA RESULT: -4.544201913      2.314      4.084
REMARK  3 active torsions:
REMARK  status: ('A' for Active; 'I' for Inactive)
REMARK    1  A    between atoms: S1_2  and  C2_3 
REMARK    2  A    between atoms: C2_3  and  C3_4 
REMARK    3  A    between atoms: C7_12  and  O3_14 
ROOT
HETATM    1  C3  UNL     1      81.459  52.255 105.449  1.00  0.00     0.179 C 
HETATM    2  O1  UNL     1      82.679  52.408 106.080  1.00  0.00    -0.376 OA
HETATM    3  C4  UNL     1      82.906  51.520 107.100  1.00  0.00     0.229 C 
HETATM    4  C5  UNL     1      81.704  51.542 108.036  1.00  0.00     0.291 C 
HETATM    5  O2  UNL     1      80.584  51.170 107.328  1.00  0.00    -0.332 OA
HETATM    6  C6  UNL     1      80.312  52.175 106.405  1.00  0.00     0.253 C 
HETATM    7  N1  UNL     1      80.028  53.374 107.110  1.00  0.00    -0.341 N 
ATOM      8  H1  UNL     1      79.216  53.950 106.888  1.00  0.00     0.161 HD
HETATM    9  C7  UNL     1      80.935  53.725 108.141  1.00  0.00     0.242 C 
HETATM   10  C8  UNL     1      80.136  54.438 109.244  1.00  0.00     0.106 C 
HETATM   11  O4  UNL     1      81.599  52.699 108.742  1.00  0.00    -0.306 OA
ENDROOT
BRANCH   1  12
HETATM   12  C2  UNL     1      81.318  53.345 104.426  1.00  0.00     0.109 C 
BRANCH  12  13
HETATM   13  S1  UNL     1      82.964  54.126 104.258  1.00  0.00    -0.171 SA
HETATM   14  C1  UNL     1      82.845  55.924 104.308  1.00  0.00     0.089 C 
ENDBRANCH  12  13
ENDBRANCH   1  12
BRANCH   9  15
HETATM   15  O3  UNL     1      81.844  54.680 107.660  1.00  0.00    -0.349 OA
ATOM     16  H3  UNL     1      81.587  55.543 107.963  1.00  0.00     0.215 HD
ENDBRANCH   9  15
TORSDOF 3
ENDMDL
