MODEL 1
REMARK VINA RESULT: -5.246776625      0.000      0.000
REMARK  4 active torsions:
REMARK  status: ('A' for Active; 'I' for Inactive)
REMARK    1  A    between atoms: O1_2  and  C2_3 
REMARK    2  A    between atoms: C3_5  and  C4_6 
REMARK    3  A    between atoms: C4_6  and  O3_7 
REMARK    4  A    between atoms: C9_15  and  O6_16 
ROOT
HETATM    1  C2  UNL     1      79.148  51.934 106.114  1.00  0.00     0.294 C 
HETATM    2  O2  UNL     1      79.345  52.977 107.003  1.00  0.00    -0.318 OA
HETATM    3  C3  UNL     1      80.690  53.159 107.173  1.00  0.00     0.220 C 
HETATM    4  O4  UNL     1      81.262  54.015 106.264  1.00  0.00    -0.315 OA
HETATM    5  C5  UNL     1      82.515  53.512 105.930  1.00  0.00     0.161 C 
HETATM    6  C6  UNL     1      83.548  54.288 106.731  1.00  0.00     0.078 C 
HETATM    7  C7  UNL     1      82.837  53.735 104.468  1.00  0.00     0.078 C 
HETATM    8  O5  UNL     1      82.526  52.170 106.214  1.00  0.00    -0.342 OA
HETATM    9  C8  UNL     1      81.382  51.863 106.917  1.00  0.00     0.223 C 
HETATM   10  C9  UNL     1      80.384  51.074 106.142  1.00  0.00     0.208 C 
ENDROOT
BRANCH   3  11
HETATM   11  C4  UNL     1      80.912  53.621 108.611  1.00  0.00     0.235 C 
BRANCH  11  12
HETATM   12  O3  UNL     1      81.690  52.671 109.271  1.00  0.00    -0.395 OA
ATOM     13  H3  UNL     1      82.502  53.080 109.545  1.00  0.00     0.209 HD
ENDBRANCH  11  12
ENDBRANCH   3  11
BRANCH   1  14
HETATM   14  O1  UNL     1      78.067  51.135 106.462  1.00  0.00    -0.363 OA
HETATM   15  C1  UNL     1      76.932  51.939 106.485  1.00  0.00     0.204 C 
ENDBRANCH   1  14
BRANCH  10  16
HETATM   16  O6  UNL     1      80.769  50.839 104.825  1.00  0.00    -0.388 OA
ATOM     17  H6  UNL     1      80.421  49.994 104.566  1.00  0.00     0.210 HD
ENDBRANCH  10  16
TORSDOF 4
ENDMDL
MODEL 2
REMARK VINA RESULT: -5.163295368      1.192      1.431
REMARK  4 active torsions:
REMARK  status: ('A' for Active; 'I' for Inactive)
REMARK    1  A    between atoms: O1_2  and  C2_3 
REMARK    2  A    between atoms: C3_5  and  C4_6 
REMARK    3  A    between atoms: C4_6  and  O3_7 
REMARK    4  A    between atoms: C9_15  and  O6_16 
ROOT
HETATM    1  C2  UNL     1      79.850  51.749 106.271  1.00  0.00     0.294 C 
HETATM    2  O2  UNL     1      79.696  53.018 106.801  1.00  0.00    -0.318 OA
HETATM    3  C3  UNL     1      80.824  53.339 107.505  1.00  0.00     0.220 C 
HETATM    4  O4  UNL     1      81.809  53.928 106.751  1.00  0.00    -0.315 OA
HETATM    5  C5  UNL     1      83.036  53.441 107.193  1.00  0.00     0.161 C 
HETATM    6  C6  UNL     1      83.643  54.490 108.109  1.00  0.00     0.078 C 
HETATM    7  C7  UNL     1      84.006  53.246 106.048  1.00  0.00     0.078 C 
HETATM    8  O5  UNL     1      82.816  52.247 107.830  1.00  0.00    -0.342 OA
HETATM    9  C8  UNL     1      81.457  52.079 107.988  1.00  0.00     0.223 C 
HETATM   10  C9  UNL     1      80.869  51.026 107.113  1.00  0.00     0.208 C 
ENDROOT
BRANCH   3  11
HETATM   11  C4  UNL     1      80.397  54.219 108.677  1.00  0.00     0.235 C 
BRANCH  11  12
HETATM   12  O3  UNL     1      79.125  54.727 108.414  1.00  0.00    -0.395 OA
ATOM     13  H3  UNL     1      79.132  55.133 107.555  1.00  0.00     0.209 HD
ENDBRANCH  11  12
ENDBRANCH   3  11
BRANCH   1  14
HETATM   14  O1  UNL     1      78.673  51.012 106.305  1.00  0.00    -0.363 OA
HETATM   15  C1  UNL     1      77.612  51.907 106.395  1.00  0.00     0.204 C 
ENDBRANCH   1  14
BRANCH  10  16
HETATM   16  O6  UNL     1      81.795  50.442 106.254  1.00  0.00    -0.388 OA
ATOM     17  H6  UNL     1      82.374  49.898 106.776  1.00  0.00     0.210 HD
ENDBRANCH  10  16
TORSDOF 4
ENDMDL
MODEL 3
REMARK VINA RESULT: -4.853541234      1.906      3.715
REMARK  4 active torsions:
REMARK  status: ('A' for Active; 'I' for Inactive)
REMARK    1  A    between atoms: O1_2  and  C2_3 
REMARK    2  A    between atoms: C3_5  and  C4_6 
REMARK    3  A    between atoms: C4_6  and  O3_7 
REMARK    4  A    between atoms: C9_15  and  O6_16 
ROOT
HETATM    1  C2  UNL     1      81.016  54.156 109.707  1.00  0.00     0.294 C 
HETATM    2  O2  UNL     1      81.811  53.056 109.438  1.00  0.00    -0.318 OA
HETATM    3  C3  UNL     1      81.743  52.783 108.099  1.00  0.00     0.220 C 
HETATM    4  O4  UNL     1      82.668  53.456 107.340  1.00  0.00    -0.315 OA
HETATM    5  C5  UNL     1      82.055  53.827 106.147  1.00  0.00     0.161 C 
HETATM    6  C6  UNL     1      82.481  52.826 105.084  1.00  0.00     0.078 C 
HETATM    7  C7  UNL     1      82.520  55.188 105.677  1.00  0.00     0.078 C 
HETATM    8  O5  UNL     1      80.699  53.837 106.349  1.00  0.00    -0.342 OA
HETATM    9  C8  UNL     1      80.436  53.275 107.579  1.00  0.00     0.223 C 
HETATM   10  C9  UNL     1      79.987  54.251 108.611  1.00  0.00     0.208 C 
ENDROOT
BRANCH   3  11
HETATM   11  C4  UNL     1      81.862  51.269 107.934  1.00  0.00     0.235 C 
BRANCH  11  12
HETATM   12  O3  UNL     1      80.693  50.792 107.342  1.00  0.00    -0.395 OA
ATOM     13  H3  UNL     1      80.838  49.897 107.060  1.00  0.00     0.209 HD
ENDBRANCH  11  12
ENDBRANCH   3  11
BRANCH   1  14
HETATM   14  O1  UNL     1      80.340  54.043 110.914  1.00  0.00    -0.363 OA
HETATM   15  C1  UNL     1      80.477  55.250 111.594  1.00  0.00     0.204 C 
ENDBRANCH   1  14
BRANCH  10  16
HETATM   16  O6  UNL     1      79.969  55.566 108.155  1.00  0.00    -0.388 OA
ATOM     17  H6  UNL     1      79.327  55.624 107.457  1.00  0.00     0.210 HD
ENDBRANCH  10  16
TORSDOF 4
ENDMDL
MODEL 4
REMARK VINA RESULT: -4.651306400      1.485      1.805
REMARK  4 active torsions:
REMARK  status: ('A' for Active; 'I' for Inactive)
REMARK    1  A    between atoms: O1_2  and  C2_3 
REMARK    2  A    between atoms: C3_5  and  C4_6 
REMARK    3  A    between atoms: C4_6  and  O3_7 
REMARK    4  A    between atoms: C9_15  and  O6_16 
ROOT
HETATM    1  C2  UNL     1      79.725  52.128 106.492  1.00  0.00     0.294 C 
HETATM    2  O2  UNL     1      80.508  51.954 107.621  1.00  0.00    -0.318 OA
HETATM    3  C3  UNL     1      81.763  52.431 107.360  1.00  0.00     0.220 C 
HETATM    4  O4  UNL     1      81.925  53.767 107.629  1.00  0.00    -0.315 OA
HETATM    5  C5  UNL     1      82.739  54.309 106.639  1.00  0.00     0.161 C 
HETATM    6  C6  UNL     1      84.144  54.417 107.210  1.00  0.00     0.078 C 
HETATM    7  C7  UNL     1      82.309  55.710 106.265  1.00  0.00     0.078 C 
HETATM    8  O5  UNL     1      82.677  53.489 105.541  1.00  0.00    -0.342 OA
HETATM    9  C8  UNL     1      82.014  52.335 105.894  1.00  0.00     0.223 C 
HETATM   10  C9  UNL     1      80.649  52.214 105.307  1.00  0.00     0.208 C 
ENDROOT
BRANCH   3  11
HETATM   11  C4  UNL     1      82.751  51.567 108.140  1.00  0.00     0.235 C 
BRANCH  11  12
HETATM   12  O3  UNL     1      83.591  50.919 107.234  1.00  0.00    -0.395 OA
ATOM     13  H3  UNL     1      84.288  50.492 107.717  1.00  0.00     0.209 HD
ENDBRANCH  11  12
ENDBRANCH   3  11
BRANCH   1  14
HETATM   14  O1  UNL     1      78.856  51.066 106.278  1.00  0.00    -0.363 OA
HETATM   15  C1  UNL     1      77.559  51.570 106.272  1.00  0.00     0.204 C 
ENDBRANCH   1  14
BRANCH  10  16
HETATM   16  O6  UNL     1      80.274  53.320 104.551  1.00  0.00    -0.388 OA
ATOM     17  H6  UNL     1      81.011  53.918 104.523  1.00  0.00     0.210 HD
ENDBRANCH  10  16
TORSDOF 4
ENDMDL
MODEL 5
REMARK VINA RESULT: -4.611198009      1.918      3.569
REMARK  4 active torsions:
REMARK  status: ('A' for Active; 'I' for Inactive)
REMARK    1  A    between atoms: O1_2  and  C2_3 
REMARK    2  A    between atoms: C3_5  and  C4_6 
REMARK    3  A    between atoms: C4_6  and  O3_7 
REMARK    4  A    between atoms: C9_15  and  O6_16 
ROOT
HETATM    1  C2  UNL     1      80.978  51.459 107.228  1.00  0.00     0.294 C 
HETATM    2  O2  UNL     1      82.232  51.404 107.811  1.00  0.00    -0.318 OA
HETATM    3  C3  UNL     1      82.564  52.655 108.255  1.00  0.00     0.220 C 
HETATM    4  O4  UNL     1      82.140  52.930 109.532  1.00  0.00    -0.315 OA
HETATM    5  C5  UNL     1      81.723  54.257 109.568  1.00  0.00     0.161 C 
HETATM    6  C6  UNL     1      82.851  55.074 110.179  1.00  0.00     0.078 C 
HETATM    7  C7  UNL     1      80.516  54.441 110.462  1.00  0.00     0.078 C 
HETATM    8  O5  UNL     1      81.423  54.646 108.288  1.00  0.00    -0.342 OA
HETATM    9  C8  UNL     1      81.846  53.661 107.422  1.00  0.00     0.223 C 
HETATM   10  C9  UNL     1      80.739  52.883 106.798  1.00  0.00     0.208 C 
ENDROOT
BRANCH   3  11
HETATM   11  C4  UNL     1      84.077  52.805 108.110  1.00  0.00     0.235 C 
BRANCH  11  12
HETATM   12  O3  UNL     1      84.428  52.534 106.788  1.00  0.00    -0.395 OA
ATOM     13  H3  UNL     1      85.366  52.394 106.745  1.00  0.00     0.209 HD
ENDBRANCH  11  12
ENDBRANCH   3  11
BRANCH   1  14
HETATM   14  O1  UNL     1      80.879  50.654 106.101  1.00  0.00    -0.363 OA
HETATM   15  C1  UNL     1      81.408  51.360 105.025  1.00  0.00     0.204 C 
ENDBRANCH   1  14
BRANCH  10  16
HETATM   16  O6  UNL     1      79.478  53.259 107.250  1.00  0.00    -0.388 OA
ATOM     17  H6  UNL     1      79.387  52.959 108.146  1.00  0.00     0.210 HD
ENDBRANCH  10  16
TORSDOF 4
ENDMDL
