MODEL 1
REMARK VINA RESULT: -5.200463651      0.000      0.000
REMARK  4 active torsions:
REMARK  status: ('A' for Active; 'I' for Inactive)
REMARK    1  A    between atoms: O1_2  and  C2_3 
REMARK    2  A    between atoms: C3_5  and  C4_6 
REMARK    3  A    between atoms: C4_6  and  O3_7 
REMARK    4  A    between atoms: C7_12  and  O5_13 
ROOT
HETATM    1  C2  UNL     1      80.346  53.404 107.836  1.00  0.00     0.298 C 
HETATM    2  O2  UNL     1      80.303  53.318 106.440  1.00  0.00    -0.348 OA
HETATM    3  C3  UNL     1      80.372  51.991 106.044  1.00  0.00     0.179 C 
HETATM    4  C5  UNL     1      81.449  51.210 106.722  1.00  0.00     0.178 C 
HETATM    5  C6  UNL     1      82.779  51.657 106.157  1.00  0.00     0.205 C 
HETATM    6  O4  UNL     1      83.095  52.957 106.502  1.00  0.00    -0.356 OA
HETATM    7  C7  UNL     1      82.851  53.292 107.797  1.00  0.00     0.295 C 
HETATM    8  C8  UNL     1      81.590  52.710 108.377  1.00  0.00     0.156 C 
HETATM    9  C9  UNL     1      81.610  52.943 109.872  1.00  0.00     0.056 C 
HETATM   10  O6  UNL     1      81.447  51.354 108.105  1.00  0.00    -0.360 OA
ENDROOT
BRANCH   3  11
HETATM   11  C4  UNL     1      79.011  51.297 106.157  1.00  0.00     0.198 C 
BRANCH  11  12
HETATM   12  O3  UNL     1      79.178  49.970 106.531  1.00  0.00    -0.398 OA
ATOM     13  H3  UNL     1      78.741  49.805 107.359  1.00  0.00     0.209 HD
ENDBRANCH  11  12
ENDBRANCH   3  11
BRANCH   1  14
HETATM   14  O1  UNL     1      80.349  54.741 108.190  1.00  0.00    -0.363 OA
HETATM   15  C1  UNL     1      79.136  55.053 108.782  1.00  0.00     0.204 C 
ENDBRANCH   1  14
BRANCH   7  16
HETATM   16  O5  UNL     1      82.744  54.680 107.880  1.00  0.00    -0.368 OA
ATOM     17  H5  UNL     1      81.836  54.921 107.738  1.00  0.00     0.212 HD
ENDBRANCH   7  16
TORSDOF 4
ENDMDL
MODEL 2
REMARK VINA RESULT: -5.028492125      1.601      2.102
REMARK  4 active torsions:
REMARK  status: ('A' for Active; 'I' for Inactive)
REMARK    1  A    between atoms: O1_2  and  C2_3 
REMARK    2  A    between atoms: C3_5  and  C4_6 
REMARK    3  A    between atoms: C4_6  and  O3_7 
REMARK    4  A    between atoms: C7_12  and  O5_13 
ROOT
HETATM    1  C2  UNL     1      81.128  53.758 107.614  1.00  0.00     0.298 C 
HETATM    2  O2  UNL     1      80.092  53.380 106.753  1.00  0.00    -0.348 OA
HETATM    3  C3  UNL     1      80.524  52.372 105.905  1.00  0.00     0.179 C 
HETATM    4  C5  UNL     1      81.849  52.638 105.270  1.00  0.00     0.178 C 
HETATM    5  C6  UNL     1      81.659  53.713 104.222  1.00  0.00     0.205 C 
HETATM    6  O4  UNL     1      81.340  54.941 104.769  1.00  0.00    -0.356 OA
HETATM    7  C7  UNL     1      82.062  55.295 105.866  1.00  0.00     0.295 C 
HETATM    8  C8  UNL     1      82.361  54.170 106.820  1.00  0.00     0.156 C 
HETATM    9  C9  UNL     1      83.386  54.661 107.819  1.00  0.00     0.056 C 
HETATM   10  O6  UNL     1      82.828  53.027 106.178  1.00  0.00    -0.360 OA
ENDROOT
BRANCH   3  11
HETATM   11  C4  UNL     1      80.491  51.003 106.592  1.00  0.00     0.198 C 
BRANCH  11  12
HETATM   12  O3  UNL     1      79.333  50.319 106.244  1.00  0.00    -0.398 OA
ATOM     13  H3  UNL     1      79.042  50.585 105.380  1.00  0.00     0.209 HD
ENDBRANCH  11  12
ENDBRANCH   3  11
BRANCH   1  14
HETATM   14  O1  UNL     1      80.684  54.812 108.392  1.00  0.00    -0.363 OA
HETATM   15  C1  UNL     1      79.387  54.553 108.805  1.00  0.00     0.204 C 
ENDBRANCH   1  14
BRANCH   7  16
HETATM   16  O5  UNL     1      81.344  56.259 106.573  1.00  0.00    -0.368 OA
ATOM     17  H5  UNL     1      80.520  56.410 106.123  1.00  0.00     0.212 HD
ENDBRANCH   7  16
TORSDOF 4
ENDMDL
MODEL 3
REMARK VINA RESULT: -4.801818397      1.367      1.650
REMARK  4 active torsions:
REMARK  status: ('A' for Active; 'I' for Inactive)
REMARK    1  A    between atoms: O1_2  and  C2_3 
REMARK    2  A    between atoms: C3_5  and  C4_6 
REMARK    3  A    between atoms: C4_6  and  O3_7 
REMARK    4  A    between atoms: C7_12  and  O5_13 
ROOT
HETATM    1  C2  UNL     1      81.430  52.669 107.872  1.00  0.00     0.298 C 
HETATM    2  O2  UNL     1      80.548  53.382 107.053  1.00  0.00    -0.348 OA
HETATM    3  C3  UNL     1      80.152  52.594 105.983  1.00  0.00     0.179 C 
HETATM    4  C5  UNL     1      81.277  51.896 105.293  1.00  0.00     0.178 C 
HETATM    5  C6  UNL     1      82.055  52.926 104.506  1.00  0.00     0.205 C 
HETATM    6  O4  UNL     1      82.718  53.827 105.315  1.00  0.00    -0.356 OA
HETATM    7  C7  UNL     1      83.356  53.287 106.389  1.00  0.00     0.295 C 
HETATM    8  C8  UNL     1      82.619  52.162 107.065  1.00  0.00     0.156 C 
HETATM    9  C9  UNL     1      83.566  51.501 108.042  1.00  0.00     0.056 C 
HETATM   10  O6  UNL     1      82.126  51.223 106.165  1.00  0.00    -0.360 OA
ENDROOT
BRANCH   3  11
HETATM   11  C4  UNL     1      79.038  51.620 106.381  1.00  0.00     0.198 C 
BRANCH  11  12
HETATM   12  O3  UNL     1      79.425  50.313 106.113  1.00  0.00    -0.398 OA
ATOM     13  H3  UNL     1      78.667  49.785 105.893  1.00  0.00     0.209 HD
ENDBRANCH  11  12
ENDBRANCH   3  11
BRANCH   1  14
HETATM   14  O1  UNL     1      81.860  53.509 108.884  1.00  0.00    -0.363 OA
HETATM   15  C1  UNL     1      80.763  54.157 109.427  1.00  0.00     0.204 C 
ENDBRANCH   1  14
BRANCH   7  16
HETATM   16  O5  UNL     1      83.545  54.290 107.339  1.00  0.00    -0.368 OA
ATOM     17  H5  UNL     1      83.988  55.020 106.921  1.00  0.00     0.212 HD
ENDBRANCH   7  16
TORSDOF 4
ENDMDL
MODEL 4
REMARK VINA RESULT: -4.756029829      1.970      3.691
REMARK  4 active torsions:
REMARK  status: ('A' for Active; 'I' for Inactive)
REMARK    1  A    between atoms: O1_2  and  C2_3 
REMARK    2  A    between atoms: C3_5  and  C4_6 
REMARK    3  A    between atoms: C4_6  and  O3_7 
REMARK    4  A    between atoms: C7_12  and  O5_13 
ROOT
HETATM    1  C2  UNL     1      81.140  53.260 106.741  1.00  0.00     0.298 C 
HETATM    2  O2  UNL     1      80.977  54.114 105.644  1.00  0.00    -0.348 OA
HETATM    3  C3  UNL     1      82.133  54.852 105.442  1.00  0.00     0.179 C 
HETATM    4  C5  UNL     1      82.686  55.469 106.684  1.00  0.00     0.178 C 
HETATM    5  C6  UNL     1      81.783  56.616 107.080  1.00  0.00     0.205 C 
HETATM    6  O4  UNL     1      80.533  56.194 107.490  1.00  0.00    -0.356 OA
HETATM    7  C7  UNL     1      80.525  55.113 108.315  1.00  0.00     0.295 C 
HETATM    8  C8  UNL     1      81.537  54.051 107.981  1.00  0.00     0.156 C 
HETATM    9  C9  UNL     1      81.587  53.071 109.132  1.00  0.00     0.056 C 
HETATM   10  O6  UNL     1      82.805  54.571 107.739  1.00  0.00    -0.360 OA
ENDROOT
BRANCH   3  11
HETATM   11  C4  UNL     1      83.194  54.043 104.689  1.00  0.00     0.198 C 
BRANCH  11  12
HETATM   12  O3  UNL     1      82.692  53.609 103.469  1.00  0.00    -0.398 OA
ATOM     13  H3  UNL     1      83.267  53.880 102.762  1.00  0.00     0.209 HD
ENDBRANCH  11  12
ENDBRANCH   3  11
BRANCH   1  14
HETATM   14  O1  UNL     1      79.945  52.596 106.957  1.00  0.00    -0.363 OA
HETATM   15  C1  UNL     1      79.979  51.381 106.293  1.00  0.00     0.204 C 
ENDBRANCH   1  14
BRANCH   7  16
HETATM   16  O5  UNL     1      79.264  54.520 108.250  1.00  0.00    -0.368 OA
ATOM     17  H5  UNL     1      79.203  54.032 107.437  1.00  0.00     0.212 HD
ENDBRANCH   7  16
TORSDOF 4
ENDMDL
MODEL 5
REMARK VINA RESULT: -4.660173276      1.896      3.403
REMARK  4 active torsions:
REMARK  status: ('A' for Active; 'I' for Inactive)
REMARK    1  A    between atoms: O1_2  and  C2_3 
REMARK    2  A    between atoms: C3_5  and  C4_6 
REMARK    3  A    between atoms: C4_6  and  O3_7 
REMARK    4  A    between atoms: C7_12  and  O5_13 
ROOT
HETATM    1  C2  UNL     1      81.762  54.512 106.689  1.00  0.00     0.298 C 
HETATM    2  O2  UNL     1      80.637  54.164 107.445  1.00  0.00    -0.348 OA
HETATM    3  C3  UNL     1      80.948  53.121 108.305  1.00  0.00     0.179 C 
HETATM    4  C5  UNL     1      81.682  51.996 107.654  1.00  0.00     0.178 C 
HETATM    5  C6  UNL     1      80.705  51.246 106.775  1.00  0.00     0.205 C 
HETATM    6  O4  UNL     1      80.284  51.991 105.690  1.00  0.00    -0.356 OA
HETATM    7  C7  UNL     1      81.259  52.685 105.045  1.00  0.00     0.295 C 
HETATM    8  C8  UNL     1      82.301  53.298 105.942  1.00  0.00     0.156 C 
HETATM    9  C9  UNL     1      83.441  53.784 105.073  1.00  0.00     0.056 C 
HETATM   10  O6  UNL     1      82.776  52.411 106.903  1.00  0.00    -0.360 OA
ENDROOT
BRANCH   3  11
HETATM   11  C4  UNL     1      81.673  53.621 109.559  1.00  0.00     0.198 C 
BRANCH  11  12
HETATM   12  O3  UNL     1      82.850  52.908 109.749  1.00  0.00    -0.398 OA
ATOM     13  H3  UNL     1      82.994  52.312 109.023  1.00  0.00     0.209 HD
ENDBRANCH  11  12
ENDBRANCH   3  11
BRANCH   1  14
HETATM   14  O1  UNL     1      81.395  55.502 105.794  1.00  0.00    -0.363 OA
HETATM   15  C1  UNL     1      81.540  56.737 106.405  1.00  0.00     0.204 C 
ENDBRANCH   1  14
BRANCH   7  16
HETATM   16  O5  UNL     1      80.662  53.724 104.332  1.00  0.00    -0.368 OA
ATOM     17  H5  UNL     1      80.622  54.490 104.893  1.00  0.00     0.212 HD
ENDBRANCH   7  16
TORSDOF 4
ENDMDL
