MODEL 1
REMARK VINA RESULT: -5.118708353      0.000      0.000
REMARK  4 active torsions:
REMARK  status: ('A' for Active; 'I' for Inactive)
REMARK    1  A    between atoms: O1_1  and  C1_3 
REMARK    2  A    between atoms: C2_6  and  C3_7 
REMARK    3  A    between atoms: C3_7  and  N1_8 
REMARK    4  A    between atoms: C8_14  and  O4_15 
ROOT
HETATM    1  C1  UNL     1      81.628  51.182 105.504  1.00  0.00     0.301 C 
HETATM    2  O2  UNL     1      82.171  52.206 104.737  1.00  0.00    -0.285 OA
HETATM    3  S1  UNL     1      81.456  53.658 105.371  1.00  0.00     0.001 SA
HETATM    4  C2  UNL     1      80.893  52.969 106.977  1.00  0.00     0.138 C 
HETATM    5  C8  UNL     1      81.623  51.624 106.938  1.00  0.00     0.191 C 
ENDROOT
BRANCH   4   6
HETATM    6  C3  UNL     1      81.493  53.723 108.126  1.00  0.00     0.292 C 
BRANCH   6   7
HETATM    7  N1  UNL     1      80.552  54.040 109.167  1.00  0.00     0.093 N 
HETATM    8  C4  UNL     1      79.703  55.102 108.678  1.00  0.00     0.298 C 
HETATM    9  C5  UNL     1      78.652  55.499 109.691  1.00  0.00     0.198 C 
HETATM   10  O3  UNL     1      79.324  55.843 110.862  1.00  0.00    -0.388 OA
HETATM   11  C6  UNL     1      80.026  54.776 111.369  1.00  0.00     0.198 C 
HETATM   12  C7  UNL     1      81.141  54.311 110.430  1.00  0.00     0.298 C 
ENDBRANCH   6   7
ENDBRANCH   4   6
BRANCH   5  13
HETATM   13  O4  UNL     1      80.958  50.671 107.681  1.00  0.00    -0.389 OA
ATOM     14  H4  UNL     1      80.647  51.081 108.480  1.00  0.00     0.210 HD
ENDBRANCH   5  13
BRANCH   1  15
HETATM   15  O1  UNL     1      80.401  50.754 105.059  1.00  0.00    -0.368 OA
ATOM     16  H1  UNL     1      80.452  50.041 104.433  1.00  0.00     0.212 HD
ENDBRANCH   1  15
TORSDOF 4
ENDMDL
MODEL 2
REMARK VINA RESULT: -5.101218193      0.559      1.346
REMARK  4 active torsions:
REMARK  status: ('A' for Active; 'I' for Inactive)
REMARK    1  A    between atoms: O1_1  and  C1_3 
REMARK    2  A    between atoms: C2_6  and  C3_7 
REMARK    3  A    between atoms: C3_7  and  N1_8 
REMARK    4  A    between atoms: C8_14  and  O4_15 
ROOT
HETATM    1  C1  UNL     1      81.340  50.968 105.534  1.00  0.00     0.301 C 
HETATM    2  O2  UNL     1      81.830  51.887 104.612  1.00  0.00    -0.285 OA
HETATM    3  S1  UNL     1      81.377  53.439 105.253  1.00  0.00     0.001 SA
HETATM    4  C2  UNL     1      81.047  52.901 106.977  1.00  0.00     0.138 C 
HETATM    5  C8  UNL     1      81.631  51.487 106.911  1.00  0.00     0.191 C 
ENDROOT
BRANCH   4   6
HETATM    6  C3  UNL     1      81.909  53.651 107.948  1.00  0.00     0.292 C 
BRANCH   6   7
HETATM    7  N1  UNL     1      81.174  54.527 108.821  1.00  0.00     0.093 N 
HETATM    8  C4  UNL     1      81.597  54.249 110.174  1.00  0.00     0.298 C 
HETATM    9  C5  UNL     1      80.900  55.138 111.180  1.00  0.00     0.198 C 
HETATM   10  O3  UNL     1      79.530  54.963 110.998  1.00  0.00    -0.388 OA
HETATM   11  C6  UNL     1      79.138  55.350 109.740  1.00  0.00     0.198 C 
HETATM   12  C7  UNL     1      79.766  54.490 108.641  1.00  0.00     0.298 C 
ENDBRANCH   6   7
ENDBRANCH   4   6
BRANCH   5  13
HETATM   13  O4  UNL     1      81.024  50.652 107.825  1.00  0.00    -0.389 OA
ATOM     14  H4  UNL     1      81.281  49.759 107.628  1.00  0.00     0.210 HD
ENDBRANCH   5  13
BRANCH   1  15
HETATM   15  O1  UNL     1      80.019  50.646 105.338  1.00  0.00    -0.368 OA
ATOM     16  H1  UNL     1      79.633  50.169 106.063  1.00  0.00     0.212 HD
ENDBRANCH   1  15
TORSDOF 4
ENDMDL
MODEL 3
REMARK VINA RESULT: -4.954734833      4.820      5.505
REMARK  4 active torsions:
REMARK  status: ('A' for Active; 'I' for Inactive)
REMARK    1  A    between atoms: O1_1  and  C1_3 
REMARK    2  A    between atoms: C2_6  and  C3_7 
REMARK    3  A    between atoms: C3_7  and  N1_8 
REMARK    4  A    between atoms: C8_14  and  O4_15 
ROOT
HETATM    1  C1  UNL     1      75.970  50.557 105.730  1.00  0.00     0.301 C 
HETATM    2  O2  UNL     1      74.646  50.459 105.318  1.00  0.00    -0.285 OA
HETATM    3  S1  UNL     1      73.733  51.228 106.582  1.00  0.00     0.001 SA
HETATM    4  C2  UNL     1      75.119  52.152 107.353  1.00  0.00     0.138 C 
HETATM    5  C8  UNL     1      76.188  51.936 106.279  1.00  0.00     0.191 C 
ENDROOT
BRANCH   4   6
HETATM    6  C3  UNL     1      74.843  53.626 107.361  1.00  0.00     0.292 C 
BRANCH   6   7
HETATM    7  N1  UNL     1      75.306  54.297 108.547  1.00  0.00     0.093 N 
HETATM    8  C4  UNL     1      74.381  55.369 108.830  1.00  0.00     0.298 C 
HETATM    9  C5  UNL     1      74.761  56.130 110.081  1.00  0.00     0.198 C 
HETATM   10  O3  UNL     1      76.067  56.579 109.903  1.00  0.00    -0.388 OA
HETATM   11  C6  UNL     1      76.943  55.531 109.757  1.00  0.00     0.198 C 
HETATM   12  C7  UNL     1      76.665  54.708 108.497  1.00  0.00     0.298 C 
ENDBRANCH   6   7
ENDBRANCH   4   6
BRANCH   5  13
HETATM   13  O4  UNL     1      77.457  51.992 106.816  1.00  0.00    -0.389 OA
ATOM     14  H4  UNL     1      77.435  52.569 107.571  1.00  0.00     0.210 HD
ENDBRANCH   5  13
BRANCH   1  15
HETATM   15  O1  UNL     1      76.352  49.558 106.592  1.00  0.00    -0.368 OA
ATOM     16  H1  UNL     1      76.753  49.879 107.391  1.00  0.00     0.212 HD
ENDBRANCH   1  15
TORSDOF 4
ENDMDL
MODEL 4
REMARK VINA RESULT: -4.929818625      1.419      1.846
REMARK  4 active torsions:
REMARK  status: ('A' for Active; 'I' for Inactive)
REMARK    1  A    between atoms: O1_1  and  C1_3 
REMARK    2  A    between atoms: C2_6  and  C3_7 
REMARK    3  A    between atoms: C3_7  and  N1_8 
REMARK    4  A    between atoms: C8_14  and  O4_15 
ROOT
HETATM    1  C1  UNL     1      81.141  50.712 105.758  1.00  0.00     0.301 C 
HETATM    2  O2  UNL     1      81.534  51.412 104.623  1.00  0.00    -0.285 OA
HETATM    3  S1  UNL     1      81.176  53.074 104.985  1.00  0.00     0.001 SA
HETATM    4  C2  UNL     1      81.038  52.901 106.808  1.00  0.00     0.138 C 
HETATM    5  C8  UNL     1      81.594  51.483 106.963  1.00  0.00     0.191 C 
ENDROOT
BRANCH   4   6
HETATM    6  C3  UNL     1      82.015  53.798 107.508  1.00  0.00     0.292 C 
BRANCH   6   7
HETATM    7  N1  UNL     1      81.416  54.973 108.082  1.00  0.00     0.093 N 
HETATM    8  C4  UNL     1      80.080  54.619 108.502  1.00  0.00     0.298 C 
HETATM    9  C5  UNL     1      79.362  55.783 109.148  1.00  0.00     0.198 C 
HETATM   10  O3  UNL     1      79.377  56.832 108.230  1.00  0.00    -0.388 OA
HETATM   11  C6  UNL     1      80.661  57.227 107.943  1.00  0.00     0.198 C 
HETATM   12  C7  UNL     1      81.471  56.126 107.254  1.00  0.00     0.298 C 
ENDBRANCH   6   7
ENDBRANCH   4   6
BRANCH   5  13
HETATM   13  O4  UNL     1      81.085  50.866 108.087  1.00  0.00    -0.389 OA
ATOM     14  H4  UNL     1      81.811  50.511 108.586  1.00  0.00     0.210 HD
ENDBRANCH   5  13
BRANCH   1  15
HETATM   15  O1  UNL     1      79.803  50.403 105.777  1.00  0.00    -0.368 OA
ATOM     16  H1  UNL     1      79.538  49.906 106.542  1.00  0.00     0.212 HD
ENDBRANCH   1  15
TORSDOF 4
ENDMDL
MODEL 5
REMARK VINA RESULT: -4.721103019      1.188      1.351
REMARK  4 active torsions:
REMARK  status: ('A' for Active; 'I' for Inactive)
REMARK    1  A    between atoms: O1_1  and  C1_3 
REMARK    2  A    between atoms: C2_6  and  C3_7 
REMARK    3  A    between atoms: C3_7  and  N1_8 
REMARK    4  A    between atoms: C8_14  and  O4_15 
ROOT
HETATM    1  C1  UNL     1      81.832  51.588 105.356  1.00  0.00     0.301 C 
HETATM    2  O2  UNL     1      80.513  51.892 105.041  1.00  0.00    -0.285 OA
HETATM    3  S1  UNL     1      79.783  52.314 106.561  1.00  0.00     0.001 SA
HETATM    4  C2  UNL     1      81.332  52.627 107.495  1.00  0.00     0.138 C 
HETATM    5  C8  UNL     1      82.328  52.614 106.331  1.00  0.00     0.191 C 
ENDROOT
BRANCH   4   6
HETATM    6  C3  UNL     1      81.360  54.025 108.037  1.00  0.00     0.292 C 
BRANCH   6   7
HETATM    7  N1  UNL     1      80.450  54.242 109.129  1.00  0.00     0.093 N 
HETATM    8  C4  UNL     1      79.629  55.381 108.793  1.00  0.00     0.298 C 
HETATM    9  C5  UNL     1      78.610  55.684 109.869  1.00  0.00     0.198 C 
HETATM   10  O3  UNL     1      79.315  55.861 111.058  1.00  0.00    -0.388 OA
HETATM   11  C6  UNL     1      79.989  54.719 111.416  1.00  0.00     0.198 C 
HETATM   12  C7  UNL     1      81.071  54.337 110.403  1.00  0.00     0.298 C 
ENDBRANCH   6   7
ENDBRANCH   4   6
BRANCH   5  13
HETATM   13  O4  UNL     1      83.586  52.237 106.753  1.00  0.00    -0.389 OA
ATOM     14  H4  UNL     1      83.558  52.111 107.695  1.00  0.00     0.210 HD
ENDBRANCH   5  13
BRANCH   1  15
HETATM   15  O1  UNL     1      82.011  50.295 105.783  1.00  0.00    -0.368 OA
ATOM     16  H1  UNL     1      82.855  50.143 106.191  1.00  0.00     0.212 HD
ENDBRANCH   1  15
TORSDOF 4
ENDMDL
