MODEL 1
REMARK VINA RESULT: -3.610347707      0.000      0.000
REMARK  0 active torsions:
REMARK  status: ('A' for Active; 'I' for Inactive)
ROOT
HETATM    1  C1  UNL     1       8.759  -2.422  17.527  1.00  0.00     0.049 C 
HETATM    2  C2  UNL     1       9.764  -1.352  17.248  1.00  0.00     0.085 A 
HETATM    3  C3  UNL     1      10.302  -1.325  15.834  1.00  0.00     0.049 C 
HETATM    4  O1  UNL     1      10.742  -1.046  18.203  1.00  0.00    -0.365 OA
HETATM    5  C4  UNL     1       9.737  -0.101  18.059  1.00  0.00     0.085 A 
HETATM    6  C5  UNL     1       9.977   1.166  17.305  1.00  0.00     0.049 C 
HETATM    7  C6  UNL     1       8.794  -0.027  19.230  1.00  0.00     0.049 C 
ENDROOT
TORSDOF 0
ENDMDL
MODEL 2
REMARK VINA RESULT: -3.594473439      0.059      3.030
REMARK  0 active torsions:
REMARK  status: ('A' for Active; 'I' for Inactive)
ROOT
HETATM    1  C1  UNL     1       9.948   1.174  17.299  1.00  0.00     0.049 C 
HETATM    2  C2  UNL     1       9.685  -0.105  18.027  1.00  0.00     0.085 A 
HETATM    3  C3  UNL     1       8.778   0.013  19.233  1.00  0.00     0.049 C 
HETATM    4  O1  UNL     1      10.723  -1.025  18.222  1.00  0.00    -0.365 OA
HETATM    5  C4  UNL     1       9.771  -1.394  17.284  1.00  0.00     0.085 A 
HETATM    6  C5  UNL     1       8.721  -2.405  17.613  1.00  0.00     0.049 C 
HETATM    7  C6  UNL     1      10.270  -1.371  15.863  1.00  0.00     0.049 C 
ENDROOT
TORSDOF 0
ENDMDL
MODEL 3
REMARK VINA RESULT: -3.585101229      6.400      7.018
REMARK  0 active torsions:
REMARK  status: ('A' for Active; 'I' for Inactive)
ROOT
HETATM    1  C1  UNL     1      12.395  -4.603  13.170  1.00  0.00     0.049 C 
HETATM    2  C2  UNL     1      13.099  -3.803  12.123  1.00  0.00     0.085 A 
HETATM    3  C3  UNL     1      12.479  -3.856  10.743  1.00  0.00     0.049 C 
HETATM    4  O1  UNL     1      14.500  -3.782  12.083  1.00  0.00    -0.365 OA
HETATM    5  C4  UNL     1      13.901  -2.615  12.533  1.00  0.00     0.085 A 
HETATM    6  C5  UNL     1      13.789  -1.418  11.645  1.00  0.00     0.049 C 
HETATM    7  C6  UNL     1      14.095  -2.354  14.003  1.00  0.00     0.049 C 
ENDROOT
TORSDOF 0
ENDMDL
MODEL 4
REMARK VINA RESULT: -3.581695491      6.380      6.896
REMARK  0 active torsions:
REMARK  status: ('A' for Active; 'I' for Inactive)
ROOT
HETATM    1  C1  UNL     1      12.158  -5.001  12.270  1.00  0.00     0.049 C 
HETATM    2  C2  UNL     1      13.025  -3.785  12.345  1.00  0.00     0.085 A 
HETATM    3  C3  UNL     1      12.469  -2.553  11.665  1.00  0.00     0.049 C 
HETATM    4  O1  UNL     1      14.412  -3.905  12.192  1.00  0.00    -0.365 OA
HETATM    5  C4  UNL     1      13.978  -3.642  13.482  1.00  0.00     0.085 A 
HETATM    6  C5  UNL     1      14.091  -2.271  14.065  1.00  0.00     0.049 C 
HETATM    7  C6  UNL     1      14.140  -4.799  14.431  1.00  0.00     0.049 C 
ENDROOT
TORSDOF 0
ENDMDL
MODEL 5
REMARK VINA RESULT: -3.575134169      6.339      7.238
REMARK  0 active torsions:
REMARK  status: ('A' for Active; 'I' for Inactive)
ROOT
HETATM    1  C1  UNL     1      14.008  -2.225  14.022  1.00  0.00     0.049 C 
HETATM    2  C2  UNL     1      13.862  -3.593  13.438  1.00  0.00     0.085 A 
HETATM    3  C3  UNL     1      14.064  -4.735  14.410  1.00  0.00     0.049 C 
HETATM    4  O1  UNL     1      14.381  -3.870  12.167  1.00  0.00    -0.365 OA
HETATM    5  C4  UNL     1      12.999  -3.781  12.237  1.00  0.00     0.085 A 
HETATM    6  C5  UNL     1      12.150  -5.011  12.234  1.00  0.00     0.049 C 
HETATM    7  C6  UNL     1      12.429  -2.560  11.566  1.00  0.00     0.049 C 
ENDROOT
TORSDOF 0
ENDMDL
