MODEL 1
REMARK VINA RESULT: -4.146084156      0.000      0.000
REMARK  0 active torsions:
REMARK  status: ('A' for Active; 'I' for Inactive)
ROOT
HETATM    1  C1  UNL     1      11.975  -2.180  10.936  1.00  0.00     0.042 C 
HETATM    2  C2  UNL     1      12.879  -3.167  11.627  1.00  0.00     0.040 A 
HETATM    3  C3  UNL     1      14.331  -2.934  11.354  1.00  0.00     0.042 C 
HETATM    4  C4  UNL     1      12.674  -2.965  13.103  1.00  0.00     0.004 A 
HETATM    5  C5  UNL     1      12.248  -4.101  13.572  1.00  0.00     0.015 A 
HETATM    6  C6  UNL     1      12.160  -5.039  12.487  1.00  0.00     0.083 A 
HETATM    7  N1  UNL     1      12.518  -4.523  11.362  1.00  0.00    -0.387 N 
ATOM      8  H1  UNL     1      12.538  -4.993  10.457  1.00  0.00     0.160 HD
ENDROOT
TORSDOF 0
ENDMDL
MODEL 2
REMARK VINA RESULT: -4.020515679      1.299      2.678
REMARK  0 active torsions:
REMARK  status: ('A' for Active; 'I' for Inactive)
ROOT
HETATM    1  C1  UNL     1      12.464  -3.993  13.230  1.00  0.00     0.042 C 
HETATM    2  C2  UNL     1      12.981  -3.530  11.893  1.00  0.00     0.040 A 
HETATM    3  C3  UNL     1      12.355  -4.241  10.735  1.00  0.00     0.042 C 
HETATM    4  C4  UNL     1      12.599  -2.079  11.772  1.00  0.00     0.004 A 
HETATM    5  C5  UNL     1      13.711  -1.418  11.638  1.00  0.00     0.015 A 
HETATM    6  C6  UNL     1      14.803  -2.352  11.664  1.00  0.00     0.083 A 
HETATM    7  N1  UNL     1      14.406  -3.569  11.809  1.00  0.00    -0.387 N 
ATOM      8  H1  UNL     1      14.996  -4.400  11.856  1.00  0.00     0.160 HD
ENDROOT
TORSDOF 0
ENDMDL
MODEL 3
REMARK VINA RESULT: -3.985652786      1.039      1.993
REMARK  0 active torsions:
REMARK  status: ('A' for Active; 'I' for Inactive)
ROOT
HETATM    1  C1  UNL     1      14.273  -2.803  11.271  1.00  0.00     0.042 C 
HETATM    2  C2  UNL     1      12.839  -2.980  11.695  1.00  0.00     0.040 A 
HETATM    3  C3  UNL     1      11.894  -2.057  10.993  1.00  0.00     0.042 C 
HETATM    4  C4  UNL     1      12.452  -4.380  11.303  1.00  0.00     0.004 A 
HETATM    5  C5  UNL     1      12.112  -4.987  12.402  1.00  0.00     0.015 A 
HETATM    6  C6  UNL     1      12.255  -4.065  13.495  1.00  0.00     0.083 A 
HETATM    7  N1  UNL     1      12.670  -2.908  13.111  1.00  0.00    -0.387 N 
ATOM      8  H1  UNL     1      12.845  -2.097  13.704  1.00  0.00     0.160 HD
ENDROOT
TORSDOF 0
ENDMDL
MODEL 4
REMARK VINA RESULT: -3.887895129      1.194      1.398
REMARK  0 active torsions:
REMARK  status: ('A' for Active; 'I' for Inactive)
ROOT
HETATM    1  C1  UNL     1      12.367  -4.069  10.664  1.00  0.00     0.042 C 
HETATM    2  C2  UNL     1      13.158  -3.498  11.811  1.00  0.00     0.040 A 
HETATM    3  C3  UNL     1      14.476  -2.924  11.396  1.00  0.00     0.042 C 
HETATM    4  C4  UNL     1      12.342  -2.360  12.362  1.00  0.00     0.004 A 
HETATM    5  C5  UNL     1      12.094  -2.656  13.604  1.00  0.00     0.015 A 
HETATM    6  C6  UNL     1      12.702  -3.924  13.901  1.00  0.00     0.083 A 
HETATM    7  N1  UNL     1      13.317  -4.424  12.886  1.00  0.00    -0.387 N 
ATOM      8  H1  UNL     1      13.821  -5.311  12.855  1.00  0.00     0.160 HD
ENDROOT
TORSDOF 0
ENDMDL
MODEL 5
REMARK VINA RESULT: -3.826034192      1.278      2.554
REMARK  0 active torsions:
REMARK  status: ('A' for Active; 'I' for Inactive)
ROOT
HETATM    1  C1  UNL     1      14.367  -3.908  13.870  1.00  0.00     0.042 C 
HETATM    2  C2  UNL     1      12.936  -3.821  13.407  1.00  0.00     0.040 A 
HETATM    3  C3  UNL     1      12.051  -3.073  14.352  1.00  0.00     0.042 C 
HETATM    4  C4  UNL     1      12.957  -3.041  12.120  1.00  0.00     0.004 A 
HETATM    5  C5  UNL     1      12.462  -3.828  11.209  1.00  0.00     0.015 A 
HETATM    6  C6  UNL     1      12.118  -5.080  11.825  1.00  0.00     0.083 A 
HETATM    7  N1  UNL     1      12.382  -5.097  13.085  1.00  0.00    -0.387 N 
ATOM      8  H1  UNL     1      12.226  -5.872  13.730  1.00  0.00     0.160 HD
ENDROOT
TORSDOF 0
ENDMDL
