MODEL 1
REMARK VINA RESULT: -3.515167361      0.000      0.000
REMARK  0 active torsions:
REMARK  status: ('A' for Active; 'I' for Inactive)
ROOT
HETATM    1  C1  UNL     1      14.268  -2.904  11.319  1.00  0.00     0.031 C 
HETATM    2  C2  UNL     1      12.790  -3.221  11.643  1.00  0.00     0.023 A 
HETATM    3  C3  UNL     1      11.983  -2.042  11.057  1.00  0.00     0.031 C 
HETATM    4  C4  UNL     1      12.344  -4.511  11.296  1.00  0.00     0.000 A 
HETATM    5  C5  UNL     1      12.121  -4.957  12.438  1.00  0.00     0.043 A 
HETATM    6  S1  UNL     1      12.575  -3.558  13.319  1.00  0.00    -0.128 SA
ENDROOT
TORSDOF 0
ENDMDL
MODEL 2
REMARK VINA RESULT: -3.365624625      1.398      2.595
REMARK  0 active torsions:
REMARK  status: ('A' for Active; 'I' for Inactive)
ROOT
HETATM    1  C1  UNL     1      12.542  -4.193  13.000  1.00  0.00     0.031 C 
HETATM    2  C2  UNL     1      12.781  -3.399  11.696  1.00  0.00     0.023 A 
HETATM    3  C3  UNL     1      12.263  -4.311  10.563  1.00  0.00     0.031 C 
HETATM    4  C4  UNL     1      12.311  -2.071  11.688  1.00  0.00     0.000 A 
HETATM    5  C5  UNL     1      13.402  -1.475  11.605  1.00  0.00     0.043 A 
HETATM    6  S1  UNL     1      14.413  -2.859  11.582  1.00  0.00    -0.128 SA
ENDROOT
TORSDOF 0
ENDMDL
MODEL 3
REMARK VINA RESULT: -3.258605471      1.500      2.029
REMARK  0 active torsions:
REMARK  status: ('A' for Active; 'I' for Inactive)
ROOT
HETATM    1  C1  UNL     1      12.310  -4.312  10.682  1.00  0.00     0.031 C 
HETATM    2  C2  UNL     1      12.704  -3.074  11.521  1.00  0.00     0.023 A 
HETATM    3  C3  UNL     1      11.859  -1.913  10.954  1.00  0.00     0.031 C 
HETATM    4  C4  UNL     1      12.670  -3.240  12.919  1.00  0.00     0.000 A 
HETATM    5  C5  UNL     1      13.885  -3.111  13.163  1.00  0.00     0.043 A 
HETATM    6  S1  UNL     1      14.412  -2.857  11.552  1.00  0.00    -0.128 SA
ENDROOT
TORSDOF 0
ENDMDL
MODEL 4
REMARK VINA RESULT: -3.230208632      0.901      2.022
REMARK  0 active torsions:
REMARK  status: ('A' for Active; 'I' for Inactive)
ROOT
HETATM    1  C1  UNL     1      11.962  -1.999  11.249  1.00  0.00     0.031 C 
HETATM    2  C2  UNL     1      12.767  -3.282  11.558  1.00  0.00     0.023 A 
HETATM    3  C3  UNL     1      12.270  -4.330  10.540  1.00  0.00     0.031 C 
HETATM    4  C4  UNL     1      14.163  -3.126  11.656  1.00  0.00     0.000 A 
HETATM    5  C5  UNL     1      14.310  -3.400  12.862  1.00  0.00     0.043 A 
HETATM    6  S1  UNL     1      12.661  -3.700  13.226  1.00  0.00    -0.128 SA
ENDROOT
TORSDOF 0
ENDMDL
MODEL 5
REMARK VINA RESULT: -3.190119973      1.073      2.128
REMARK  0 active torsions:
REMARK  status: ('A' for Active; 'I' for Inactive)
ROOT
HETATM    1  C1  UNL     1      12.395  -4.142  10.835  1.00  0.00     0.031 C 
HETATM    2  C2  UNL     1      13.058  -3.224  11.887  1.00  0.00     0.023 A 
HETATM    3  C3  UNL     1      14.475  -2.939  11.344  1.00  0.00     0.031 C 
HETATM    4  C4  UNL     1      12.308  -2.099  12.284  1.00  0.00     0.000 A 
HETATM    5  C5  UNL     1      12.110  -2.404  13.475  1.00  0.00     0.043 A 
HETATM    6  S1  UNL     1      12.947  -3.900  13.467  1.00  0.00    -0.128 SA
ENDROOT
TORSDOF 0
ENDMDL
