MODEL 1
REMARK VINA RESULT: -7.870884501      0.000      0.000
REMARK  8 active torsions:
REMARK  status: ('A' for Active; 'I' for Inactive)
REMARK    1  A    between atoms: C2_2  and  C3_3 
REMARK    2  A    between atoms: C3_3  and  C4_4 
REMARK    3  A    between atoms: C4_4  and  C5_5 
REMARK    4  A    between atoms: C4_4  and  S1_7 
REMARK    5  A    between atoms: S1_7  and  C7_8 
REMARK    6  A    between atoms: C8_12  and  C9_13 
REMARK    7  A    between atoms: C9_13  and  N3_14 
REMARK    8  A    between atoms: C13_18  and  N4_19 
ROOT
HETATM    1  C7  UNL     1     -25.629  -7.106   8.085  1.00  0.00     0.131 A 
HETATM    2  N1  UNL     1     -25.119  -6.094   7.405  1.00  0.00    -0.278 N 
ATOM      3  H1  UNL     1     -25.034  -6.155   6.391  1.00  0.00     0.189 HD
HETATM    4  N2  UNL     1     -24.732  -5.040   8.011  1.00  0.00    -0.215 N 
HETATM    5  C8  UNL     1     -24.176  -3.836   7.656  1.00  0.00     0.149 A 
HETATM    6  N6  UNL     1     -23.989  -3.115   8.775  1.00  0.00    -0.284 N 
ATOM      7  H6  UNL     1     -23.589  -2.177   8.803  1.00  0.00     0.188 HD
HETATM    8  N7  UNL     1     -24.391  -3.785   9.822  1.00  0.00    -0.277 N 
ATOM      9  H7  UNL     1     -24.367  -3.481  10.795  1.00  0.00     0.189 HD
HETATM   10  C18 UNL     1     -24.854  -4.983   9.338  1.00  0.00     0.189 A 
HETATM   11  S2  UNL     1     -25.549  -6.510   9.685  1.00  0.00    -0.024 SA
ENDROOT
BRANCH   5  12
HETATM   12  C9  UNL     1     -23.821  -3.361   6.290  1.00  0.00     0.352 C 
BRANCH  12  13
HETATM   13  N3  UNL     1     -24.187  -1.975   6.098  1.00  0.00     0.097 N 
HETATM   14  C10 UNL     1     -23.542  -1.328   5.013  1.00  0.00     0.273 C 
HETATM   15  C11 UNL     1     -24.484  -0.529   4.137  1.00  0.00     0.032 C 
HETATM   16  C12 UNL     1     -25.308   0.352   5.045  1.00  0.00     0.029 C 
HETATM   17  C13 UNL     1     -26.147  -0.497   5.971  1.00  0.00     0.118 C 
HETATM   18  C17 UNL     1     -25.626  -1.903   6.089  1.00  0.00     0.298 C 
BRANCH  17  19
HETATM   19  N4  UNL     1     -26.264   0.162   7.248  1.00  0.00    -0.345 N 
HETATM   20  C14 UNL     1     -25.903   1.423   7.542  1.00  0.00     0.109 A 
HETATM   21  C15 UNL     1     -26.182   1.649   8.864  1.00  0.00     0.106 A 
HETATM   22  N5  UNL     1     -26.721   0.509   9.382  1.00  0.00    -0.361 N 
HETATM   23  C16 UNL     1     -26.762  -0.376   8.392  1.00  0.00     0.182 A 
ATOM     24  H5  UNL     1     -27.031   0.364  10.342  1.00  0.00     0.166 HD
ENDBRANCH  17  19
ENDBRANCH  12  13
ENDBRANCH   5  12
BRANCH   1  25
HETATM   25  S1  UNL     1     -26.237  -8.679   7.446  1.00  0.00    -0.099 SA
BRANCH  25  26
HETATM   26  C4  UNL     1     -24.873  -9.887   7.433  1.00  0.00     0.054 C 
BRANCH  26  27
HETATM   27  C3  UNL     1     -25.452 -11.215   7.796  1.00  0.00     0.015 C 
BRANCH  27  28
HETATM   28  C2  UNL     1     -26.669 -11.599   7.015  1.00  0.00    -0.003 C 
HETATM   29  C1  UNL     1     -27.317 -12.860   7.494  1.00  0.00     0.005 C 
ENDBRANCH  27  28
ENDBRANCH  26  27
BRANCH  26  30
HETATM   30  C5  UNL     1     -23.779  -9.451   8.394  1.00  0.00     0.011 C 
HETATM   31  C6  UNL     1     -22.846 -10.619   8.637  1.00  0.00     0.006 C 
ENDBRANCH  26  30
ENDBRANCH  25  26
ENDBRANCH   1  25
TORSDOF 8
ENDMDL
MODEL 2
REMARK VINA RESULT: -7.523035018      2.167      3.261
REMARK  8 active torsions:
REMARK  status: ('A' for Active; 'I' for Inactive)
REMARK    1  A    between atoms: C2_2  and  C3_3 
REMARK    2  A    between atoms: C3_3  and  C4_4 
REMARK    3  A    between atoms: C4_4  and  C5_5 
REMARK    4  A    between atoms: C4_4  and  S1_7 
REMARK    5  A    between atoms: S1_7  and  C7_8 
REMARK    6  A    between atoms: C8_12  and  C9_13 
REMARK    7  A    between atoms: C9_13  and  N3_14 
REMARK    8  A    between atoms: C13_18  and  N4_19 
ROOT
HETATM    1  C7  UNL     1     -24.728  -5.033   8.196  1.00  0.00     0.131 A 
HETATM    2  N1  UNL     1     -25.006  -4.056   7.349  1.00  0.00    -0.278 N 
ATOM      3  H1  UNL     1     -24.928  -4.217   6.346  1.00  0.00     0.189 HD
HETATM    4  N2  UNL     1     -25.370  -2.913   7.781  1.00  0.00    -0.215 N 
HETATM    5  C8  UNL     1     -25.727  -1.707   7.228  1.00  0.00     0.149 A 
HETATM    6  N6  UNL     1     -26.017  -0.857   8.228  1.00  0.00    -0.284 N 
ATOM      7  H6  UNL     1     -26.312   0.111   8.101  1.00  0.00     0.188 HD
HETATM    8  N7  UNL     1     -25.867  -1.445   9.385  1.00  0.00    -0.277 N 
ATOM      9  H7  UNL     1     -26.017  -1.038  10.308  1.00  0.00     0.189 HD
HETATM   10  C18 UNL     1     -25.464  -2.726   9.099  1.00  0.00     0.189 A 
HETATM   11  S2  UNL     1     -25.007  -4.265   9.697  1.00  0.00    -0.024 SA
ENDROOT
BRANCH   5  12
HETATM   12  C9  UNL     1     -25.796  -1.350   5.785  1.00  0.00     0.352 C 
BRANCH  12  13
HETATM   13  N3  UNL     1     -24.747  -0.425   5.414  1.00  0.00     0.097 N 
HETATM   14  C10 UNL     1     -23.590  -1.022   4.852  1.00  0.00     0.273 C 
HETATM   15  C11 UNL     1     -23.098  -0.329   3.599  1.00  0.00     0.032 C 
HETATM   16  C12 UNL     1     -23.007   1.147   3.904  1.00  0.00     0.029 C 
HETATM   17  C13 UNL     1     -24.377   1.696   4.229  1.00  0.00     0.118 C 
HETATM   18  C17 UNL     1     -25.349   0.617   4.621  1.00  0.00     0.298 C 
BRANCH  17  19
HETATM   19  N4  UNL     1     -24.254   2.725   5.230  1.00  0.00    -0.345 N 
HETATM   20  C14 UNL     1     -25.079   2.945   6.269  1.00  0.00     0.109 A 
HETATM   21  C15 UNL     1     -24.601   4.018   6.973  1.00  0.00     0.106 A 
HETATM   22  N5  UNL     1     -23.469   4.457   6.355  1.00  0.00    -0.361 N 
HETATM   23  C16 UNL     1     -23.275   3.665   5.306  1.00  0.00     0.182 A 
ATOM     24  H5  UNL     1     -22.884   5.242   6.641  1.00  0.00     0.166 HD
ENDBRANCH  17  19
ENDBRANCH  12  13
ENDBRANCH   5  12
BRANCH   1  25
HETATM   25  S1  UNL     1     -24.201  -6.715   7.816  1.00  0.00    -0.099 SA
BRANCH  25  26
HETATM   26  C4  UNL     1     -25.608  -7.849   8.043  1.00  0.00     0.054 C 
BRANCH  26  27
HETATM   27  C3  UNL     1     -25.180  -9.192   7.550  1.00  0.00     0.015 C 
BRANCH  27  28
HETATM   28  C2  UNL     1     -23.908  -9.700   8.150  1.00  0.00    -0.003 C 
HETATM   29  C1  UNL     1     -23.644 -11.145   7.865  1.00  0.00     0.005 C 
ENDBRANCH  27  28
ENDBRANCH  26  27
BRANCH  26  30
HETATM   30  C5  UNL     1     -26.828  -7.324   7.305  1.00  0.00     0.011 C 
HETATM   31  C6  UNL     1     -27.693  -8.495   6.890  1.00  0.00     0.006 C 
ENDBRANCH  26  30
ENDBRANCH  25  26
ENDBRANCH   1  25
TORSDOF 8
ENDMDL
MODEL 3
REMARK VINA RESULT: -7.501999611      5.227      9.000
REMARK  8 active torsions:
REMARK  status: ('A' for Active; 'I' for Inactive)
REMARK    1  A    between atoms: C2_2  and  C3_3 
REMARK    2  A    between atoms: C3_3  and  C4_4 
REMARK    3  A    between atoms: C4_4  and  C5_5 
REMARK    4  A    between atoms: C4_4  and  S1_7 
REMARK    5  A    between atoms: S1_7  and  C7_8 
REMARK    6  A    between atoms: C8_12  and  C9_13 
REMARK    7  A    between atoms: C9_13  and  N3_14 
REMARK    8  A    between atoms: C13_18  and  N4_19 
ROOT
HETATM    1  C7  UNL     1     -25.800  -9.093   7.632  1.00  0.00     0.131 A 
HETATM    2  N1  UNL     1     -26.989  -8.882   7.092  1.00  0.00    -0.278 N 
ATOM      3  H1  UNL     1     -27.355  -7.933   7.026  1.00  0.00     0.189 HD
HETATM    4  N2  UNL     1     -27.681  -9.859   6.654  1.00  0.00    -0.215 N 
HETATM    5  C8  UNL     1     -28.906 -10.022   6.055  1.00  0.00     0.149 A 
HETATM    6  N6  UNL     1     -29.087 -11.333   5.821  1.00  0.00    -0.284 N 
ATOM      7  H6  UNL     1     -29.915 -11.737   5.383  1.00  0.00     0.188 HD
HETATM    8  N7  UNL     1     -28.054 -12.017   6.234  1.00  0.00    -0.277 N 
ATOM      9  H7  UNL     1     -27.922 -13.028   6.183  1.00  0.00     0.189 HD
HETATM   10  C18 UNL     1     -27.181 -11.093   6.752  1.00  0.00     0.189 A 
HETATM   11  S2  UNL     1     -25.670 -10.792   7.501  1.00  0.00    -0.024 SA
ENDROOT
BRANCH   5  12
HETATM   12  C9  UNL     1     -29.898  -8.969   5.705  1.00  0.00     0.352 C 
BRANCH  12  13
HETATM   13  N3  UNL     1     -30.393  -9.133   4.355  1.00  0.00     0.097 N 
HETATM   14  C10 UNL     1     -31.780  -9.408   4.253  1.00  0.00     0.273 C 
HETATM   15  C11 UNL     1     -32.490  -8.570   3.211  1.00  0.00     0.032 C 
HETATM   16  C12 UNL     1     -31.694  -8.670   1.931  1.00  0.00     0.029 C 
HETATM   17  C13 UNL     1     -30.314  -8.087   2.132  1.00  0.00     0.118 C 
HETATM   18  C17 UNL     1     -29.932  -8.005   3.584  1.00  0.00     0.298 C 
BRANCH  17  19
HETATM   19  N4  UNL     1     -29.363  -8.833   1.347  1.00  0.00    -0.345 N 
HETATM   20  C14 UNL     1     -29.503 -10.088   0.886  1.00  0.00     0.109 A 
HETATM   21  C15 UNL     1     -28.370 -10.415   0.189  1.00  0.00     0.106 A 
HETATM   22  N5  UNL     1     -27.529  -9.344   0.226  1.00  0.00    -0.361 N 
HETATM   23  C16 UNL     1     -28.145  -8.399   0.928  1.00  0.00     0.182 A 
ATOM     24  H5  UNL     1     -26.605  -9.279  -0.202  1.00  0.00     0.166 HD
ENDBRANCH  17  19
ENDBRANCH  12  13
ENDBRANCH   5  12
BRANCH   1  25
HETATM   25  S1  UNL     1     -24.657  -7.875   8.310  1.00  0.00    -0.099 SA
BRANCH  25  26
HETATM   26  C4  UNL     1     -25.515  -6.277   8.481  1.00  0.00     0.054 C 
BRANCH  26  27
HETATM   27  C3  UNL     1     -25.363  -5.551   7.185  1.00  0.00     0.015 C 
BRANCH  27  28
HETATM   28  C2  UNL     1     -24.279  -4.520   7.171  1.00  0.00    -0.003 C 
HETATM   29  C1  UNL     1     -23.348  -4.642   6.006  1.00  0.00     0.005 C 
ENDBRANCH  27  28
ENDBRANCH  26  27
BRANCH  26  30
HETATM   30  C5  UNL     1     -24.940  -5.498   9.652  1.00  0.00     0.011 C 
HETATM   31  C6  UNL     1     -26.016  -5.326  10.703  1.00  0.00     0.006 C 
ENDBRANCH  26  30
ENDBRANCH  25  26
ENDBRANCH   1  25
TORSDOF 8
ENDMDL
MODEL 4
REMARK VINA RESULT: -7.458530046      1.903      2.597
REMARK  8 active torsions:
REMARK  status: ('A' for Active; 'I' for Inactive)
REMARK    1  A    between atoms: C2_2  and  C3_3 
REMARK    2  A    between atoms: C3_3  and  C4_4 
REMARK    3  A    between atoms: C4_4  and  C5_5 
REMARK    4  A    between atoms: C4_4  and  S1_7 
REMARK    5  A    between atoms: S1_7  and  C7_8 
REMARK    6  A    between atoms: C8_12  and  C9_13 
REMARK    7  A    between atoms: C9_13  and  N3_14 
REMARK    8  A    between atoms: C13_18  and  N4_19 
ROOT
HETATM    1  C7  UNL     1     -24.766  -5.593   8.334  1.00  0.00     0.131 A 
HETATM    2  N1  UNL     1     -24.823  -4.530   7.550  1.00  0.00    -0.278 N 
ATOM      3  H1  UNL     1     -24.607  -4.619   6.557  1.00  0.00     0.189 HD
HETATM    4  N2  UNL     1     -25.145  -3.392   8.028  1.00  0.00    -0.215 N 
HETATM    5  C8  UNL     1     -25.304  -2.117   7.543  1.00  0.00     0.149 A 
HETATM    6  N6  UNL     1     -25.666  -1.322   8.564  1.00  0.00    -0.284 N 
ATOM      7  H6  UNL     1     -25.851  -0.322   8.486  1.00  0.00     0.188 HD
HETATM    8  N7  UNL     1     -25.748  -2.011   9.671  1.00  0.00    -0.277 N 
ATOM      9  H7  UNL     1     -26.001  -1.663  10.596  1.00  0.00     0.189 HD
HETATM   10  C18 UNL     1     -25.422  -3.300   9.330  1.00  0.00     0.189 A 
HETATM   11  S2  UNL     1     -25.201  -4.919   9.844  1.00  0.00    -0.024 SA
ENDROOT
BRANCH   5  12
HETATM   12  C9  UNL     1     -25.120  -1.644   6.143  1.00  0.00     0.352 C 
BRANCH  12  13
HETATM   13  N3  UNL     1     -25.623  -0.299   5.966  1.00  0.00     0.097 N 
HETATM   14  C10 UNL     1     -24.782   0.564   5.219  1.00  0.00     0.273 C 
HETATM   15  C11 UNL     1     -25.515   1.355   4.157  1.00  0.00     0.032 C 
HETATM   16  C12 UNL     1     -26.713   1.997   4.816  1.00  0.00     0.029 C 
HETATM   17  C13 UNL     1     -27.653   0.932   5.331  1.00  0.00     0.118 C 
HETATM   18  C17 UNL     1     -26.979  -0.403   5.487  1.00  0.00     0.298 C 
BRANCH  17  19
HETATM   19  N4  UNL     1     -28.269   1.390   6.551  1.00  0.00    -0.345 N 
HETATM   20  C14 UNL     1     -28.298   2.651   7.018  1.00  0.00     0.109 A 
HETATM   21  C15 UNL     1     -28.982   2.650   8.205  1.00  0.00     0.106 A 
HETATM   22  N5  UNL     1     -29.375   1.372   8.464  1.00  0.00    -0.361 N 
HETATM   23  C16 UNL     1     -28.937   0.626   7.455  1.00  0.00     0.182 A 
ATOM     24  H5  UNL     1     -29.903   1.049   9.275  1.00  0.00     0.166 HD
ENDBRANCH  17  19
ENDBRANCH  12  13
ENDBRANCH   5  12
BRANCH   1  25
HETATM   25  S1  UNL     1     -24.339  -7.285   7.882  1.00  0.00    -0.099 SA
BRANCH  25  26
HETATM   26  C4  UNL     1     -25.835  -8.322   7.959  1.00  0.00     0.054 C 
BRANCH  26  27
HETATM   27  C3  UNL     1     -25.466  -9.675   7.448  1.00  0.00     0.015 C 
BRANCH  27  28
HETATM   28  C2  UNL     1     -24.211 -10.241   8.033  1.00  0.00    -0.003 C 
HETATM   29  C1  UNL     1     -23.980 -11.677   7.684  1.00  0.00     0.005 C 
ENDBRANCH  27  28
ENDBRANCH  26  27
BRANCH  26  30
HETATM   30  C5  UNL     1     -26.955  -7.685   7.153  1.00  0.00     0.011 C 
HETATM   31  C6  UNL     1     -27.955  -8.756   6.770  1.00  0.00     0.006 C 
ENDBRANCH  26  30
ENDBRANCH  25  26
ENDBRANCH   1  25
TORSDOF 8
ENDMDL
MODEL 5
REMARK VINA RESULT: -7.439461500      1.225      1.608
REMARK  8 active torsions:
REMARK  status: ('A' for Active; 'I' for Inactive)
REMARK    1  A    between atoms: C2_2  and  C3_3 
REMARK    2  A    between atoms: C3_3  and  C4_4 
REMARK    3  A    between atoms: C4_4  and  C5_5 
REMARK    4  A    between atoms: C4_4  and  S1_7 
REMARK    5  A    between atoms: S1_7  and  C7_8 
REMARK    6  A    between atoms: C8_12  and  C9_13 
REMARK    7  A    between atoms: C9_13  and  N3_14 
REMARK    8  A    between atoms: C13_18  and  N4_19 
ROOT
HETATM    1  C7  UNL     1     -24.735  -7.288   8.528  1.00  0.00     0.131 A 
HETATM    2  N1  UNL     1     -24.444  -6.228   7.794  1.00  0.00    -0.278 N 
ATOM      3  H1  UNL     1     -24.083  -6.351   6.848  1.00  0.00     0.189 HD
HETATM    4  N2  UNL     1     -24.612  -5.054   8.261  1.00  0.00    -0.215 N 
HETATM    5  C8  UNL     1     -24.428  -3.769   7.813  1.00  0.00     0.149 A 
HETATM    6  N6  UNL     1     -24.796  -2.926   8.794  1.00  0.00    -0.284 N 
ATOM      7  H6  UNL     1     -24.762  -1.909   8.730  1.00  0.00     0.188 HD
HETATM    8  N7  UNL     1     -25.202  -3.595   9.840  1.00  0.00    -0.277 N 
ATOM      9  H7  UNL     1     -25.536  -3.212  10.725  1.00  0.00     0.189 HD
HETATM   10  C18 UNL     1     -25.085  -4.919   9.501  1.00  0.00     0.189 A 
HETATM   11  S2  UNL     1     -25.282  -6.555   9.973  1.00  0.00    -0.024 SA
ENDROOT
BRANCH   5  12
HETATM   12  C9  UNL     1     -23.916  -3.329   6.486  1.00  0.00     0.352 C 
BRANCH  12  13
HETATM   13  N3  UNL     1     -24.260  -1.951   6.213  1.00  0.00     0.097 N 
HETATM   14  C10 UNL     1     -23.588  -1.371   5.108  1.00  0.00     0.273 C 
HETATM   15  C11 UNL     1     -24.503  -0.608   4.173  1.00  0.00     0.032 C 
HETATM   16  C12 UNL     1     -25.333   0.330   5.017  1.00  0.00     0.029 C 
HETATM   17  C13 UNL     1     -26.199  -0.459   5.971  1.00  0.00     0.118 C 
HETATM   18  C17 UNL     1     -25.699  -1.863   6.173  1.00  0.00     0.298 C 
BRANCH  17  19
HETATM   19  N4  UNL     1     -26.331   0.268   7.208  1.00  0.00    -0.345 N 
HETATM   20  C14 UNL     1     -25.832   1.485   7.487  1.00  0.00     0.109 A 
HETATM   21  C15 UNL     1     -26.186   1.806   8.771  1.00  0.00     0.106 A 
HETATM   22  N5  UNL     1     -26.910   0.771   9.281  1.00  0.00    -0.361 N 
HETATM   23  C16 UNL     1     -26.988  -0.148   8.323  1.00  0.00     0.182 A 
ATOM     24  H5  UNL     1     -27.313   0.711  10.216  1.00  0.00     0.166 HD
ENDBRANCH  17  19
ENDBRANCH  12  13
ENDBRANCH   5  12
BRANCH   1  25
HETATM   25  S1  UNL     1     -24.582  -9.028   8.079  1.00  0.00    -0.099 SA
BRANCH  25  26
HETATM   26  C4  UNL     1     -26.020  -9.516   7.074  1.00  0.00     0.054 C 
BRANCH  26  27
HETATM   27  C3  UNL     1     -27.135  -8.582   7.410  1.00  0.00     0.015 C 
BRANCH  27  28
HETATM   28  C2  UNL     1     -28.121  -8.366   6.306  1.00  0.00    -0.003 C 
HETATM   29  C1  UNL     1     -29.467  -8.960   6.578  1.00  0.00     0.005 C 
ENDBRANCH  27  28
ENDBRANCH  26  27
BRANCH  26  30
HETATM   30  C5  UNL     1     -26.380 -10.967   7.347  1.00  0.00     0.011 C 
HETATM   31  C6  UNL     1     -25.115 -11.734   7.672  1.00  0.00     0.006 C 
ENDBRANCH  26  30
ENDBRANCH  25  26
ENDBRANCH   1  25
TORSDOF 8
ENDMDL
