MODEL 1
REMARK VINA RESULT: -10.461385189      0.000      0.000
REMARK  7 active torsions:
REMARK  status: ('A' for Active; 'I' for Inactive)
REMARK    1  A    between atoms: N1_2  and  C1_4 
REMARK    2  A    between atoms: C4_7  and  N2_8 
REMARK    3  A    between atoms: N2_8  and  C5_9 
REMARK    4  A    between atoms: N2_8  and  C12_23 
REMARK    5  A    between atoms: C5_9  and  C6_10 
REMARK    6  A    between atoms: N6_17  and  C7_18 
REMARK    7  A    between atoms: C12_23  and  C13_24 
ROOT
HETATM    1  N2  UNL     1     -24.565  -5.746   7.990  1.00  0.00    -0.351 N 
ENDROOT
BRANCH   1   2
HETATM    2  C4  UNL     1     -25.320  -6.951   7.703  1.00  0.00     0.065 A 
HETATM    3  C3  UNL     1     -26.616  -6.891   7.281  1.00  0.00     0.034 A 
HETATM    4  C2  UNL     1     -27.310  -8.044   7.035  1.00  0.00     0.041 A 
HETATM    5  C1  UNL     1     -26.709  -9.269   7.211  1.00  0.00     0.134 A 
HETATM    6  C19 UNL     1     -25.404  -9.369   7.635  1.00  0.00     0.120 A 
HETATM    7  C18 UNL     1     -24.730  -8.177   7.875  1.00  0.00     0.114 A 
HETATM    8  N8  UNL     1     -24.570 -10.411   7.884  1.00  0.00    -0.237 N 
HETATM    9  N7  UNL     1     -23.496  -8.610   8.264  1.00  0.00    -0.237 N 
HETATM   10  O3  UNL     1     -23.436  -9.905   8.259  1.00  0.00    -0.156 OA
ATOM     11  H7  UNL     1     -22.723  -7.996   8.523  1.00  0.00     0.197 HD
ATOM     12  H8  UNL     1     -24.793 -11.403   7.795  1.00  0.00     0.197 HD
BRANCH   5  13
HETATM   13  N1  UNL     1     -27.452 -10.476   6.950  1.00  0.00    -0.113 N 
HETATM   14  O1  UNL     1     -28.438 -10.416   6.188  1.00  0.00    -0.532 OA
HETATM   15  O2  UNL     1     -27.125 -11.676   7.500  1.00  0.00    -0.532 OA
ENDBRANCH   5  13
ENDBRANCH   1   2
BRANCH   1  16
HETATM   16  C5  UNL     1     -24.167  -5.664   9.379  1.00  0.00     0.207 C 
BRANCH  16  17
HETATM   17  C6  UNL     1     -25.168  -5.172  10.334  1.00  0.00     0.134 A 
HETATM   18  N3  UNL     1     -26.457  -5.428  10.531  1.00  0.00    -0.271 N 
HETATM   19  N4  UNL     1     -26.904  -4.720  11.527  1.00  0.00    -0.227 N 
ATOM     20  H3  UNL     1     -27.014  -6.082   9.980  1.00  0.00     0.190 HD
HETATM   21  N5  UNL     1     -25.904  -4.003  11.980  1.00  0.00    -0.224 N 
ATOM     22  H4  UNL     1     -27.857  -4.723  11.890  1.00  0.00     0.210 HD
HETATM   23  N6  UNL     1     -24.840  -4.242  11.293  1.00  0.00    -0.257 N 
ATOM     24  H5  UNL     1     -25.961  -3.350  12.762  1.00  0.00     0.210 HD
BRANCH  23  25
HETATM   25  C7  UNL     1     -23.527  -3.634  11.503  1.00  0.00     0.111 C 
HETATM   26  C8  UNL     1     -23.695  -2.144  11.348  1.00  0.00     0.027 C 
HETATM   27  C9  UNL     1     -22.503  -1.604  12.111  1.00  0.00     0.002 C 
HETATM   28  C10 UNL     1     -22.423  -2.513  13.336  1.00  0.00     0.002 C 
HETATM   29  C11 UNL     1     -23.147  -3.774  12.943  1.00  0.00     0.027 C 
ENDBRANCH  23  25
ENDBRANCH  16  17
ENDBRANCH   1  16
BRANCH   1  30
HETATM   30  C12 UNL     1     -24.249  -4.729   7.067  1.00  0.00     0.069 C 
BRANCH  30  31
HETATM   31  C13 UNL     1     -23.997  -3.349   7.514  1.00  0.00     0.024 C 
HETATM   32  C14 UNL     1     -23.578  -2.536   6.262  1.00  0.00     0.010 C 
HETATM   33  C15 UNL     1     -24.713  -1.647   5.909  1.00  0.00     0.001 C 
HETATM   34  C16 UNL     1     -25.872  -2.171   6.680  1.00  0.00     0.001 C 
HETATM   35  C17 UNL     1     -25.211  -2.590   7.990  1.00  0.00     0.010 C 
ENDBRANCH  30  31
ENDBRANCH   1  30
TORSDOF 7
ENDMDL
MODEL 2
REMARK VINA RESULT: -9.892058915      3.893      5.949
REMARK  7 active torsions:
REMARK  status: ('A' for Active; 'I' for Inactive)
REMARK    1  A    between atoms: N1_2  and  C1_4 
REMARK    2  A    between atoms: C4_7  and  N2_8 
REMARK    3  A    between atoms: N2_8  and  C5_9 
REMARK    4  A    between atoms: N2_8  and  C12_23 
REMARK    5  A    between atoms: C5_9  and  C6_10 
REMARK    6  A    between atoms: N6_17  and  C7_18 
REMARK    7  A    between atoms: C12_23  and  C13_24 
ROOT
HETATM    1  N2  UNL     1     -24.155  -4.190   8.698  1.00  0.00    -0.351 N 
ENDROOT
BRANCH   1   2
HETATM    2  C4  UNL     1     -24.258  -3.305   7.552  1.00  0.00     0.065 A 
HETATM    3  C3  UNL     1     -23.449  -3.461   6.464  1.00  0.00     0.034 A 
HETATM    4  C2  UNL     1     -23.554  -2.602   5.405  1.00  0.00     0.041 A 
HETATM    5  C1  UNL     1     -24.472  -1.577   5.429  1.00  0.00     0.134 A 
HETATM    6  C19 UNL     1     -25.304  -1.389   6.508  1.00  0.00     0.120 A 
HETATM    7  C18 UNL     1     -25.169  -2.282   7.565  1.00  0.00     0.114 A 
HETATM    8  N8  UNL     1     -26.283  -0.494   6.801  1.00  0.00    -0.237 N 
HETATM    9  N7  UNL     1     -26.113  -1.839   8.446  1.00  0.00    -0.237 N 
HETATM   10  O3  UNL     1     -26.739  -0.805   7.975  1.00  0.00    -0.156 OA
ATOM     11  H7  UNL     1     -26.302  -2.264   9.354  1.00  0.00     0.197 HD
ATOM     12  H8  UNL     1     -26.599   0.276   6.211  1.00  0.00     0.197 HD
BRANCH   5  13
HETATM   13  N1  UNL     1     -24.572  -0.677   4.307  1.00  0.00    -0.113 N 
HETATM   14  O1  UNL     1     -23.966  -0.967   3.255  1.00  0.00    -0.532 OA
HETATM   15  O2  UNL     1     -25.295   0.473   4.347  1.00  0.00    -0.532 OA
ENDBRANCH   5  13
ENDBRANCH   1   2
BRANCH   1  16
HETATM   16  C5  UNL     1     -23.732  -3.493   9.894  1.00  0.00     0.207 C 
BRANCH  16  17
HETATM   17  C6  UNL     1     -24.643  -3.524  11.044  1.00  0.00     0.134 A 
HETATM   18  N3  UNL     1     -25.908  -3.896  11.207  1.00  0.00    -0.271 N 
HETATM   19  N4  UNL     1     -26.265  -3.730  12.448  1.00  0.00    -0.227 N 
ATOM     20  H3  UNL     1     -26.511  -4.258  10.468  1.00  0.00     0.190 HD
HETATM   21  N5  UNL     1     -25.230  -3.249  13.094  1.00  0.00    -0.224 N 
ATOM     22  H4  UNL     1     -27.181  -3.936  12.845  1.00  0.00     0.210 HD
HETATM   23  N6  UNL     1     -24.232  -3.109  12.290  1.00  0.00    -0.257 N 
ATOM     24  H5  UNL     1     -25.217  -3.018  14.087  1.00  0.00     0.210 HD
BRANCH  23  25
HETATM   25  C7  UNL     1     -22.907  -2.602  12.645  1.00  0.00     0.111 C 
HETATM   26  C8  UNL     1     -22.885  -1.134  12.308  1.00  0.00     0.027 C 
HETATM   27  C9  UNL     1     -21.770  -0.616  13.194  1.00  0.00     0.002 C 
HETATM   28  C10 UNL     1     -21.977  -1.372  14.504  1.00  0.00     0.002 C 
HETATM   29  C11 UNL     1     -22.767  -2.600  14.134  1.00  0.00     0.027 C 
ENDBRANCH  23  25
ENDBRANCH  16  17
ENDBRANCH   1  16
BRANCH   1  30
HETATM   30  C12 UNL     1     -24.404  -5.576   8.696  1.00  0.00     0.069 C 
BRANCH  30  31
HETATM   31  C13 UNL     1     -24.646  -6.304   7.440  1.00  0.00     0.024 C 
HETATM   32  C14 UNL     1     -24.530  -7.816   7.761  1.00  0.00     0.010 C 
HETATM   33  C15 UNL     1     -25.902  -8.384   7.732  1.00  0.00     0.001 C 
HETATM   34  C16 UNL     1     -26.810  -7.206   7.760  1.00  0.00     0.001 C 
HETATM   35  C17 UNL     1     -26.050  -6.205   6.895  1.00  0.00     0.010 C 
ENDBRANCH  30  31
ENDBRANCH   1  30
TORSDOF 7
ENDMDL
MODEL 3
REMARK VINA RESULT: -9.877055523      1.074      1.947
REMARK  7 active torsions:
REMARK  status: ('A' for Active; 'I' for Inactive)
REMARK    1  A    between atoms: N1_2  and  C1_4 
REMARK    2  A    between atoms: C4_7  and  N2_8 
REMARK    3  A    between atoms: N2_8  and  C5_9 
REMARK    4  A    between atoms: N2_8  and  C12_23 
REMARK    5  A    between atoms: C5_9  and  C6_10 
REMARK    6  A    between atoms: N6_17  and  C7_18 
REMARK    7  A    between atoms: C12_23  and  C13_24 
ROOT
HETATM    1  N2  UNL     1     -24.360  -5.877   8.235  1.00  0.00    -0.351 N 
ENDROOT
BRANCH   1   2
HETATM    2  C4  UNL     1     -24.608  -7.297   8.073  1.00  0.00     0.065 A 
HETATM    3  C3  UNL     1     -23.647  -8.221   8.364  1.00  0.00     0.034 A 
HETATM    4  C2  UNL     1     -23.903  -9.553   8.184  1.00  0.00     0.041 A 
HETATM    5  C1  UNL     1     -25.125  -9.970   7.708  1.00  0.00     0.134 A 
HETATM    6  C19 UNL     1     -26.117  -9.067   7.404  1.00  0.00     0.120 A 
HETATM    7  C18 UNL     1     -25.822  -7.722   7.600  1.00  0.00     0.114 A 
HETATM    8  N8  UNL     1     -27.387  -9.183   6.937  1.00  0.00    -0.237 N 
HETATM    9  N7  UNL     1     -26.982  -7.110   7.222  1.00  0.00    -0.237 N 
HETATM   10  O3  UNL     1     -27.865  -7.980   6.845  1.00  0.00    -0.156 OA
ATOM     11  H7  UNL     1     -27.133  -6.101   7.235  1.00  0.00     0.197 HD
ATOM     12  H8  UNL     1     -27.873 -10.049   6.703  1.00  0.00     0.197 HD
BRANCH   5  13
HETATM   13  N1  UNL     1     -25.380 -11.375   7.521  1.00  0.00    -0.113 N 
HETATM   14  O1  UNL     1     -24.700 -12.196   8.169  1.00  0.00    -0.532 OA
HETATM   15  O2  UNL     1     -26.329 -11.846   6.668  1.00  0.00    -0.532 OA
ENDBRANCH   5  13
ENDBRANCH   1   2
BRANCH   1  16
HETATM   16  C5  UNL     1     -23.960  -5.540   9.585  1.00  0.00     0.207 C 
BRANCH  16  17
HETATM   17  C6  UNL     1     -25.007  -5.049  10.490  1.00  0.00     0.134 A 
HETATM   18  N3  UNL     1     -26.309  -5.290  10.609  1.00  0.00    -0.271 N 
HETATM   19  N4  UNL     1     -26.803  -4.592  11.590  1.00  0.00    -0.227 N 
ATOM     20  H3  UNL     1     -26.842  -5.928  10.017  1.00  0.00     0.190 HD
HETATM   21  N5  UNL     1     -25.821  -3.896  12.111  1.00  0.00    -0.224 N 
ATOM     22  H4  UNL     1     -27.775  -4.588  11.898  1.00  0.00     0.210 HD
HETATM   23  N6  UNL     1     -24.723  -4.140  11.482  1.00  0.00    -0.257 N 
ATOM     24  H5  UNL     1     -25.913  -3.256  12.899  1.00  0.00     0.210 HD
BRANCH  23  25
HETATM   25  C7  UNL     1     -23.416  -3.553  11.776  1.00  0.00     0.111 C 
HETATM   26  C8  UNL     1     -23.527  -2.070  11.532  1.00  0.00     0.027 C 
HETATM   27  C9  UNL     1     -22.391  -1.519  12.370  1.00  0.00     0.002 C 
HETATM   28  C10 UNL     1     -22.444  -2.365  13.641  1.00  0.00     0.002 C 
HETATM   29  C11 UNL     1     -23.167  -3.627  13.249  1.00  0.00     0.027 C 
ENDBRANCH  23  25
ENDBRANCH  16  17
ENDBRANCH   1  16
BRANCH   1  30
HETATM   30  C12 UNL     1     -24.499  -4.893   7.236  1.00  0.00     0.069 C 
BRANCH  30  31
HETATM   31  C13 UNL     1     -23.943  -3.542   7.416  1.00  0.00     0.024 C 
HETATM   32  C14 UNL     1     -23.656  -2.977   6.002  1.00  0.00     0.010 C 
HETATM   33  C15 UNL     1     -24.681  -1.939   5.722  1.00  0.00     0.001 C 
HETATM   34  C16 UNL     1     -25.731  -2.141   6.755  1.00  0.00     0.001 C 
HETATM   35  C17 UNL     1     -24.899  -2.518   7.976  1.00  0.00     0.010 C 
ENDBRANCH  30  31
ENDBRANCH   1  30
TORSDOF 7
ENDMDL
MODEL 4
REMARK VINA RESULT: -9.766859168      3.967      6.104
REMARK  7 active torsions:
REMARK  status: ('A' for Active; 'I' for Inactive)
REMARK    1  A    between atoms: N1_2  and  C1_4 
REMARK    2  A    between atoms: C4_7  and  N2_8 
REMARK    3  A    between atoms: N2_8  and  C5_9 
REMARK    4  A    between atoms: N2_8  and  C12_23 
REMARK    5  A    between atoms: C5_9  and  C6_10 
REMARK    6  A    between atoms: N6_17  and  C7_18 
REMARK    7  A    between atoms: C12_23  and  C13_24 
ROOT
HETATM    1  N2  UNL     1     -24.577  -4.065   8.317  1.00  0.00    -0.351 N 
ENDROOT
BRANCH   1   2
HETATM    2  C4  UNL     1     -24.908  -2.811   7.667  1.00  0.00     0.065 A 
HETATM    3  C3  UNL     1     -25.731  -1.900   8.264  1.00  0.00     0.034 A 
HETATM    4  C2  UNL     1     -26.041  -0.733   7.620  1.00  0.00     0.041 A 
HETATM    5  C1  UNL     1     -25.529  -0.471   6.370  1.00  0.00     0.134 A 
HETATM    6  C19 UNL     1     -24.697  -1.365   5.737  1.00  0.00     0.120 A 
HETATM    7  C18 UNL     1     -24.403  -2.539   6.421  1.00  0.00     0.114 A 
HETATM    8  N8  UNL     1     -24.055  -1.373   4.540  1.00  0.00    -0.237 N 
HETATM    9  N7  UNL     1     -23.575  -3.187   5.551  1.00  0.00    -0.237 N 
HETATM   10  O3  UNL     1     -23.394  -2.488   4.475  1.00  0.00    -0.156 OA
ATOM     11  H7  UNL     1     -23.155  -4.100   5.725  1.00  0.00     0.197 HD
ATOM     12  H8  UNL     1     -24.086  -0.643   3.829  1.00  0.00     0.197 HD
BRANCH   5  13
HETATM   13  N1  UNL     1     -25.865   0.761   5.702  1.00  0.00    -0.113 N 
HETATM   14  O1  UNL     1     -24.941   1.456   5.233  1.00  0.00    -0.532 OA
HETATM   15  O2  UNL     1     -27.145   1.198   5.561  1.00  0.00    -0.532 OA
ENDBRANCH   5  13
ENDBRANCH   1   2
BRANCH   1  16
HETATM   16  C5  UNL     1     -23.946  -3.866   9.604  1.00  0.00     0.207 C 
BRANCH  16  17
HETATM   17  C6  UNL     1     -24.824  -3.825  10.780  1.00  0.00     0.134 A 
HETATM   18  N3  UNL     1     -26.078  -4.201  11.007  1.00  0.00    -0.271 N 
HETATM   19  N4  UNL     1     -26.403  -3.948  12.242  1.00  0.00    -0.227 N 
ATOM     20  H3  UNL     1     -26.696  -4.625  10.314  1.00  0.00     0.190 HD
HETATM   21  N5  UNL     1     -25.358  -3.406  12.820  1.00  0.00    -0.224 N 
ATOM     22  H4  UNL     1     -27.304  -4.137  12.680  1.00  0.00     0.210 HD
HETATM   23  N6  UNL     1     -24.385  -3.313  11.979  1.00  0.00    -0.257 N 
ATOM     24  H5  UNL     1     -25.320  -3.103  13.793  1.00  0.00     0.210 HD
BRANCH  23  25
HETATM   25  C7  UNL     1     -23.059  -2.763  12.257  1.00  0.00     0.111 C 
HETATM   26  C8  UNL     1     -23.131  -1.277  12.019  1.00  0.00     0.027 C 
HETATM   27  C9  UNL     1     -21.970  -0.761  12.843  1.00  0.00     0.002 C 
HETATM   28  C10 UNL     1     -22.030  -1.608  14.112  1.00  0.00     0.002 C 
HETATM   29  C11 UNL     1     -22.792  -2.848  13.727  1.00  0.00     0.027 C 
ENDBRANCH  23  25
ENDBRANCH  16  17
ENDBRANCH   1  16
BRANCH   1  30
HETATM   30  C12 UNL     1     -24.799  -5.353   7.791  1.00  0.00     0.069 C 
BRANCH  30  31
HETATM   31  C13 UNL     1     -25.648  -6.327   8.496  1.00  0.00     0.024 C 
HETATM   32  C14 UNL     1     -26.464  -7.084   7.418  1.00  0.00     0.010 C 
HETATM   33  C15 UNL     1     -25.901  -8.453   7.314  1.00  0.00     0.001 C 
HETATM   34  C16 UNL     1     -24.594  -8.391   8.021  1.00  0.00     0.001 C 
HETATM   35  C17 UNL     1     -24.911  -7.452   9.180  1.00  0.00     0.010 C 
ENDBRANCH  30  31
ENDBRANCH   1  30
TORSDOF 7
ENDMDL
MODEL 5
REMARK VINA RESULT: -9.682832436      1.613      4.352
REMARK  7 active torsions:
REMARK  status: ('A' for Active; 'I' for Inactive)
REMARK    1  A    between atoms: N1_2  and  C1_4 
REMARK    2  A    between atoms: C4_7  and  N2_8 
REMARK    3  A    between atoms: N2_8  and  C5_9 
REMARK    4  A    between atoms: N2_8  and  C12_23 
REMARK    5  A    between atoms: C5_9  and  C6_10 
REMARK    6  A    between atoms: N6_17  and  C7_18 
REMARK    7  A    between atoms: C12_23  and  C13_24 
ROOT
HETATM    1  N2  UNL     1     -25.424  -5.686   8.539  1.00  0.00    -0.351 N 
ENDROOT
BRANCH   1   2
HETATM    2  C4  UNL     1     -25.700  -7.046   8.117  1.00  0.00     0.065 A 
HETATM    3  C3  UNL     1     -26.867  -7.369   7.486  1.00  0.00     0.034 A 
HETATM    4  C2  UNL     1     -27.109  -8.663   7.116  1.00  0.00     0.041 A 
HETATM    5  C1  UNL     1     -26.182  -9.647   7.375  1.00  0.00     0.134 A 
HETATM    6  C19 UNL     1     -24.995  -9.359   8.009  1.00  0.00     0.120 A 
HETATM    7  C18 UNL     1     -24.783  -8.033   8.370  1.00  0.00     0.114 A 
HETATM    8  N8  UNL     1     -23.920 -10.101   8.381  1.00  0.00    -0.237 N 
HETATM    9  N7  UNL     1     -23.550  -8.082   8.954  1.00  0.00    -0.237 N 
HETATM   10  O3  UNL     1     -23.079  -9.289   8.944  1.00  0.00    -0.156 OA
ATOM     11  H7  UNL     1     -23.064  -7.275   9.345  1.00  0.00     0.197 HD
ATOM     12  H8  UNL     1     -23.797 -11.104   8.244  1.00  0.00     0.197 HD
BRANCH   5  13
HETATM   13  N1  UNL     1     -26.450 -11.006   6.981  1.00  0.00    -0.113 N 
HETATM   14  O1  UNL     1     -27.510 -11.252   6.371  1.00  0.00    -0.532 OA
HETATM   15  O2  UNL     1     -25.598 -12.033   7.247  1.00  0.00    -0.532 OA
ENDBRANCH   5  13
ENDBRANCH   1   2
BRANCH   1  16
HETATM   16  C5  UNL     1     -25.666  -4.724   7.485  1.00  0.00     0.207 C 
BRANCH  16  17
HETATM   17  C6  UNL     1     -24.520  -4.346   6.648  1.00  0.00     0.134 A 
HETATM   18  N3  UNL     1     -23.405  -4.967   6.280  1.00  0.00    -0.271 N 
HETATM   19  N4  UNL     1     -22.695  -4.191   5.513  1.00  0.00    -0.227 N 
ATOM     20  H3  UNL     1     -23.143  -5.914   6.557  1.00  0.00     0.190 HD
HETATM   21  N5  UNL     1     -23.350  -3.062   5.383  1.00  0.00    -0.224 N 
ATOM     22  H4  UNL     1     -21.795  -4.418   5.091  1.00  0.00     0.210 HD
HETATM   23  N6  UNL     1     -24.453  -3.110   6.048  1.00  0.00    -0.257 N 
ATOM     24  H5  UNL     1     -23.033  -2.262   4.835  1.00  0.00     0.210 HD
BRANCH  23  25
HETATM   25  C7  UNL     1     -25.448  -2.043   6.141  1.00  0.00     0.111 C 
HETATM   26  C8  UNL     1     -25.364  -1.473   7.533  1.00  0.00     0.027 C 
HETATM   27  C9  UNL     1     -25.965  -0.093   7.354  1.00  0.00     0.002 C 
HETATM   28  C10 UNL     1     -25.401   0.369   6.012  1.00  0.00     0.002 C 
HETATM   29  C11 UNL     1     -25.014  -0.894   5.288  1.00  0.00     0.027 C 
ENDBRANCH  23  25
ENDBRANCH  16  17
ENDBRANCH   1  16
BRANCH   1  30
HETATM   30  C12 UNL     1     -24.951  -5.294   9.807  1.00  0.00     0.069 C 
BRANCH  30  31
HETATM   31  C13 UNL     1     -25.207  -3.941  10.329  1.00  0.00     0.024 C 
HETATM   32  C14 UNL     1     -25.508  -4.088  11.842  1.00  0.00     0.010 C 
HETATM   33  C15 UNL     1     -24.328  -3.572  12.582  1.00  0.00     0.001 C 
HETATM   34  C16 UNL     1     -23.246  -3.472  11.567  1.00  0.00     0.001 C 
HETATM   35  C17 UNL     1     -24.017  -3.013  10.333  1.00  0.00     0.010 C 
ENDBRANCH  30  31
ENDBRANCH   1  30
TORSDOF 7
ENDMDL
