MODEL 1
REMARK VINA RESULT: -8.607629194      0.000      0.000
REMARK  7 active torsions:
REMARK  status: ('A' for Active; 'I' for Inactive)
REMARK    1  A    between atoms: C2_2  and  C3_4 
REMARK    2  A    between atoms: C6_7  and  O2_8 
REMARK    3  A    between atoms: O2_8  and  C7_9 
REMARK    4  A    between atoms: C9_11  and  N1_12 
REMARK    5  A    between atoms: C14_17  and  N2_18 
REMARK    6  A    between atoms: C16_22  and  N3_23 
REMARK    7  A    between atoms: C17_26  and  N4_27 
ROOT
HETATM    1  C7  UNL     1     -25.042  -8.252   7.870  1.00  0.00     0.111 A 
HETATM    2  C8  UNL     1     -26.318  -8.049   7.351  1.00  0.00     0.071 A 
HETATM    3  C9  UNL     1     -27.164  -9.068   6.947  1.00  0.00     0.066 A 
HETATM    4  C14 UNL     1     -26.676 -10.335   7.085  1.00  0.00     0.132 A 
HETATM    5  C15 UNL     1     -25.418 -10.606   7.590  1.00  0.00     0.077 A 
HETATM    6  C16 UNL     1     -24.608  -9.546   7.979  1.00  0.00     0.139 A 
ENDROOT
BRANCH   1   7
HETATM    7  O2  UNL     1     -24.368  -7.120   8.209  1.00  0.00    -0.306 OA
BRANCH   7   8
HETATM    8  C6  UNL     1     -24.514  -5.833   7.814  1.00  0.00     0.109 A 
HETATM    9  C5  UNL     1     -24.091  -5.371   6.586  1.00  0.00     0.041 A 
HETATM   10  C4  UNL     1     -24.267  -4.060   6.245  1.00  0.00     0.018 A 
HETATM   11  C3  UNL     1     -24.866  -3.177   7.114  1.00  0.00     0.012 A 
HETATM   12  C18 UNL     1     -25.281  -3.665   8.337  1.00  0.00     0.054 A 
HETATM   13  C17 UNL     1     -25.128  -4.965   8.727  1.00  0.00     0.137 A 
BRANCH  11  14
HETATM   14  C2  UNL     1     -25.040  -1.795   6.719  1.00  0.00     0.155 C 
HETATM   15  C1  UNL     1     -24.507  -1.303   5.443  1.00  0.00     0.096 C 
HETATM   16  O1  UNL     1     -25.650  -1.015   7.476  1.00  0.00    -0.293 OA
ENDBRANCH  11  14
BRANCH  13  17
HETATM   17  N4  UNL     1     -25.558  -5.459   9.988  1.00  0.00    -0.113 N 
HETATM   18  O7  UNL     1     -26.589  -6.156  10.111  1.00  0.00    -0.532 OA
HETATM   19  O8  UNL     1     -24.853  -5.187  11.136  1.00  0.00    -0.532 OA
ENDBRANCH  13  17
ENDBRANCH   7   8
ENDBRANCH   1   7
BRANCH   6  20
HETATM   20  N3  UNL     1     -23.301  -9.869   8.380  1.00  0.00    -0.113 N 
HETATM   21  O5  UNL     1     -22.522 -10.288   7.445  1.00  0.00    -0.532 OA
HETATM   22  O6  UNL     1     -22.734  -9.798   9.592  1.00  0.00    -0.532 OA
ENDBRANCH   6  20
BRANCH   3  23
HETATM   23  N1  UNL     1     -28.425  -8.747   6.406  1.00  0.00    -0.379 N 
HETATM   24  C10 UNL     1     -29.700  -8.774   7.081  1.00  0.00     0.123 C 
HETATM   25  C11 UNL     1     -30.482  -9.660   6.084  1.00  0.00     0.021 C 
HETATM   26  C12 UNL     1     -29.868  -9.312   4.723  1.00  0.00     0.021 C 
HETATM   27  C13 UNL     1     -28.738  -8.339   5.056  1.00  0.00     0.123 C 
ENDBRANCH   3  23
BRANCH   4  28
HETATM   28  N2  UNL     1     -27.478 -11.450   6.710  1.00  0.00    -0.113 N 
HETATM   29  O3  UNL     1     -27.708 -11.817   5.557  1.00  0.00    -0.532 OA
HETATM   30  O4  UNL     1     -28.084 -12.189   7.725  1.00  0.00    -0.532 OA
ENDBRANCH   4  28
TORSDOF 7
ENDMDL
MODEL 2
REMARK VINA RESULT: -8.563879955      1.881      3.007
REMARK  7 active torsions:
REMARK  status: ('A' for Active; 'I' for Inactive)
REMARK    1  A    between atoms: C2_2  and  C3_4 
REMARK    2  A    between atoms: C6_7  and  O2_8 
REMARK    3  A    between atoms: O2_8  and  C7_9 
REMARK    4  A    between atoms: C9_11  and  N1_12 
REMARK    5  A    between atoms: C14_17  and  N2_18 
REMARK    6  A    between atoms: C16_22  and  N3_23 
REMARK    7  A    between atoms: C17_26  and  N4_27 
ROOT
HETATM    1  C7  UNL     1     -26.169  -7.611   7.402  1.00  0.00     0.111 A 
HETATM    2  C8  UNL     1     -27.432  -7.724   6.825  1.00  0.00     0.071 A 
HETATM    3  C9  UNL     1     -28.047  -8.930   6.532  1.00  0.00     0.066 A 
HETATM    4  C14 UNL     1     -27.336 -10.051   6.845  1.00  0.00     0.132 A 
HETATM    5  C15 UNL     1     -26.078 -10.009   7.417  1.00  0.00     0.077 A 
HETATM    6  C16 UNL     1     -25.504  -8.773   7.689  1.00  0.00     0.139 A 
ENDROOT
BRANCH   1   7
HETATM    7  O2  UNL     1     -25.741  -6.338   7.611  1.00  0.00    -0.306 OA
BRANCH   7   8
HETATM    8  C6  UNL     1     -25.399  -5.676   8.742  1.00  0.00     0.109 A 
HETATM    9  C5  UNL     1     -25.889  -6.011   9.986  1.00  0.00     0.041 A 
HETATM   10  C4  UNL     1     -25.504  -5.306  11.091  1.00  0.00     0.018 A 
HETATM   11  C3  UNL     1     -24.627  -4.252  10.987  1.00  0.00     0.012 A 
HETATM   12  C18 UNL     1     -24.151  -3.936   9.731  1.00  0.00     0.054 A 
HETATM   13  C17 UNL     1     -24.503  -4.608   8.595  1.00  0.00     0.137 A 
BRANCH  11  14
HETATM   14  C2  UNL     1     -24.239  -3.527  12.180  1.00  0.00     0.155 C 
HETATM   15  C1  UNL     1     -22.852  -3.093  12.380  1.00  0.00     0.096 C 
HETATM   16  O1  UNL     1     -25.098  -3.272  13.047  1.00  0.00    -0.293 OA
ENDBRANCH  11  14
BRANCH  13  17
HETATM   17  N4  UNL     1     -24.007  -4.277   7.305  1.00  0.00    -0.113 N 
HETATM   18  O7  UNL     1     -24.223  -3.164   6.777  1.00  0.00    -0.532 OA
HETATM   19  O8  UNL     1     -23.264  -5.175   6.578  1.00  0.00    -0.532 OA
ENDBRANCH  13  17
ENDBRANCH   7   8
ENDBRANCH   1   7
BRANCH   6  20
HETATM   20  N3  UNL     1     -24.183  -8.785   8.165  1.00  0.00    -0.113 N 
HETATM   21  O5  UNL     1     -23.433  -9.721   7.698  1.00  0.00    -0.532 OA
HETATM   22  O6  UNL     1     -23.576  -7.960   9.029  1.00  0.00    -0.532 OA
ENDBRANCH   6  20
BRANCH   3  23
HETATM   23  N1  UNL     1     -29.315  -8.928   5.918  1.00  0.00    -0.379 N 
HETATM   24  C10 UNL     1     -30.586  -9.227   6.534  1.00  0.00     0.123 C 
HETATM   25  C11 UNL     1     -31.086 -10.303   5.542  1.00  0.00     0.021 C 
HETATM   26  C12 UNL     1     -30.493  -9.868   4.197  1.00  0.00     0.021 C 
HETATM   27  C13 UNL     1     -29.638  -8.649   4.538  1.00  0.00     0.123 C 
ENDBRANCH   3  23
BRANCH   4  28
HETATM   28  N2  UNL     1     -27.892 -11.338   6.595  1.00  0.00    -0.113 N 
HETATM   29  O3  UNL     1     -28.142 -11.810   5.485  1.00  0.00    -0.532 OA
HETATM   30  O4  UNL     1     -28.207 -12.139   7.692  1.00  0.00    -0.532 OA
ENDBRANCH   4  28
TORSDOF 7
ENDMDL
MODEL 3
REMARK VINA RESULT: -8.543774536      5.287      7.905
REMARK  7 active torsions:
REMARK  status: ('A' for Active; 'I' for Inactive)
REMARK    1  A    between atoms: C2_2  and  C3_4 
REMARK    2  A    between atoms: C6_7  and  O2_8 
REMARK    3  A    between atoms: O2_8  and  C7_9 
REMARK    4  A    between atoms: C9_11  and  N1_12 
REMARK    5  A    between atoms: C14_17  and  N2_18 
REMARK    6  A    between atoms: C16_22  and  N3_23 
REMARK    7  A    between atoms: C17_26  and  N4_27 
ROOT
HETATM    1  C7  UNL     1     -24.630  -2.955   8.280  1.00  0.00     0.111 A 
HETATM    2  C8  UNL     1     -25.294  -1.767   8.573  1.00  0.00     0.071 A 
HETATM    3  C9  UNL     1     -25.785  -0.895   7.616  1.00  0.00     0.066 A 
HETATM    4  C14 UNL     1     -25.584  -1.264   6.317  1.00  0.00     0.132 A 
HETATM    5  C15 UNL     1     -24.931  -2.428   5.959  1.00  0.00     0.077 A 
HETATM    6  C16 UNL     1     -24.456  -3.267   6.959  1.00  0.00     0.139 A 
ENDROOT
BRANCH   1   7
HETATM    7  O2  UNL     1     -24.225  -3.673   9.362  1.00  0.00    -0.306 OA
BRANCH   7   8
HETATM    8  C6  UNL     1     -23.887  -3.296  10.618  1.00  0.00     0.109 A 
HETATM    9  C5  UNL     1     -22.888  -2.386  10.887  1.00  0.00     0.041 A 
HETATM   10  C4  UNL     1     -22.595  -2.045  12.176  1.00  0.00     0.018 A 
HETATM   11  C3  UNL     1     -23.285  -2.600  13.229  1.00  0.00     0.012 A 
HETATM   12  C18 UNL     1     -24.280  -3.509  12.934  1.00  0.00     0.054 A 
HETATM   13  C17 UNL     1     -24.613  -3.884  11.663  1.00  0.00     0.137 A 
BRANCH  11  14
HETATM   14  C2  UNL     1     -22.949  -2.214  14.584  1.00  0.00     0.155 C 
HETATM   15  C1  UNL     1     -21.961  -1.161  14.845  1.00  0.00     0.096 C 
HETATM   16  O1  UNL     1     -23.510  -2.786  15.539  1.00  0.00    -0.293 OA
ENDBRANCH  11  14
BRANCH  13  17
HETATM   17  N4  UNL     1     -25.640  -4.821  11.368  1.00  0.00    -0.113 N 
HETATM   18  O7  UNL     1     -26.845  -4.489  11.315  1.00  0.00    -0.532 OA
HETATM   19  O8  UNL     1     -25.349  -6.142  11.127  1.00  0.00    -0.532 OA
ENDBRANCH  13  17
ENDBRANCH   7   8
ENDBRANCH   1   7
BRANCH   6  20
HETATM   20  N3  UNL     1     -23.704  -4.378   6.541  1.00  0.00    -0.113 N 
HETATM   21  O5  UNL     1     -22.988  -4.199   5.487  1.00  0.00    -0.532 OA
HETATM   22  O6  UNL     1     -23.610  -5.601   7.082  1.00  0.00    -0.532 OA
ENDBRANCH   6  20
BRANCH   3  23
HETATM   23  N1  UNL     1     -26.415   0.298   8.024  1.00  0.00    -0.379 N 
HETATM   24  C10 UNL     1     -27.831   0.538   8.160  1.00  0.00     0.123 C 
HETATM   25  C11 UNL     1     -27.943   1.816   7.296  1.00  0.00     0.021 C 
HETATM   26  C12 UNL     1     -26.596   2.518   7.502  1.00  0.00     0.021 C 
HETATM   27  C13 UNL     1     -25.798   1.555   8.380  1.00  0.00     0.123 C 
ENDBRANCH   3  23
BRANCH   4  28
HETATM   28  N2  UNL     1     -26.067  -0.439   5.262  1.00  0.00    -0.113 N 
HETATM   29  O3  UNL     1     -27.187  -0.501   4.754  1.00  0.00    -0.532 OA
HETATM   30  O4  UNL     1     -25.200   0.515   4.730  1.00  0.00    -0.532 OA
ENDBRANCH   4  28
TORSDOF 7
ENDMDL
MODEL 4
REMARK VINA RESULT: -8.381831606      1.925      7.592
REMARK  7 active torsions:
REMARK  status: ('A' for Active; 'I' for Inactive)
REMARK    1  A    between atoms: C2_2  and  C3_4 
REMARK    2  A    between atoms: C6_7  and  O2_8 
REMARK    3  A    between atoms: O2_8  and  C7_9 
REMARK    4  A    between atoms: C9_11  and  N1_12 
REMARK    5  A    between atoms: C14_17  and  N2_18 
REMARK    6  A    between atoms: C16_22  and  N3_23 
REMARK    7  A    between atoms: C17_26  and  N4_27 
ROOT
HETATM    1  C7  UNL     1     -25.092  -5.060   8.246  1.00  0.00     0.111 A 
HETATM    2  C8  UNL     1     -24.964  -4.201   7.157  1.00  0.00     0.071 A 
HETATM    3  C9  UNL     1     -25.187  -2.835   7.215  1.00  0.00     0.066 A 
HETATM    4  C14 UNL     1     -25.555  -2.344   8.434  1.00  0.00     0.132 A 
HETATM    5  C15 UNL     1     -25.703  -3.142   9.552  1.00  0.00     0.077 A 
HETATM    6  C16 UNL     1     -25.468  -4.507   9.440  1.00  0.00     0.139 A 
ENDROOT
BRANCH   1   7
HETATM    7  O2  UNL     1     -24.828  -6.368   7.984  1.00  0.00    -0.306 OA
BRANCH   7   8
HETATM    8  C6  UNL     1     -25.637  -7.401   7.647  1.00  0.00     0.109 A 
HETATM    9  C5  UNL     1     -26.922  -7.228   7.182  1.00  0.00     0.041 A 
HETATM   10  C4  UNL     1     -27.689  -8.310   6.857  1.00  0.00     0.018 A 
HETATM   11  C3  UNL     1     -27.199  -9.589   6.987  1.00  0.00     0.012 A 
HETATM   12  C18 UNL     1     -25.909  -9.736   7.455  1.00  0.00     0.054 A 
HETATM   13  C17 UNL     1     -25.101  -8.687   7.794  1.00  0.00     0.137 A 
BRANCH  11  14
HETATM   14  C2  UNL     1     -28.038 -10.714   6.630  1.00  0.00     0.155 C 
HETATM   15  C1  UNL     1     -27.801 -12.044   7.203  1.00  0.00     0.096 C 
HETATM   16  O1  UNL     1     -28.975 -10.547   5.824  1.00  0.00    -0.293 OA
ENDBRANCH  11  14
BRANCH  13  17
HETATM   17  N4  UNL     1     -23.773  -8.847   8.275  1.00  0.00    -0.113 N 
HETATM   18  O7  UNL     1     -23.302  -8.121   9.178  1.00  0.00    -0.532 OA
HETATM   19  O8  UNL     1     -22.944  -9.816   7.762  1.00  0.00    -0.532 OA
ENDBRANCH  13  17
ENDBRANCH   7   8
ENDBRANCH   1   7
BRANCH   6  20
HETATM   20  N3  UNL     1     -25.741  -5.286  10.577  1.00  0.00    -0.113 N 
HETATM   21  O5  UNL     1     -26.459  -4.717  11.481  1.00  0.00    -0.532 OA
HETATM   22  O6  UNL     1     -25.374  -6.543  10.862  1.00  0.00    -0.532 OA
ENDBRANCH   6  20
BRANCH   3  23
HETATM   23  N1  UNL     1     -25.058  -2.063   6.043  1.00  0.00    -0.379 N 
HETATM   24  C10 UNL     1     -23.984  -2.106   5.081  1.00  0.00     0.123 C 
HETATM   25  C11 UNL     1     -23.627  -0.601   5.052  1.00  0.00     0.021 C 
HETATM   26  C12 UNL     1     -24.967   0.100   5.303  1.00  0.00     0.021 C 
HETATM   27  C13 UNL     1     -25.952  -1.043   5.544  1.00  0.00     0.123 C 
ENDBRANCH   3  23
BRANCH   4  28
HETATM   28  N2  UNL     1     -25.793  -0.950   8.595  1.00  0.00    -0.113 N 
HETATM   29  O3  UNL     1     -24.960  -0.113   8.947  1.00  0.00    -0.532 OA
HETATM   30  O4  UNL     1     -27.082  -0.475   8.360  1.00  0.00    -0.532 OA
ENDBRANCH   4  28
TORSDOF 7
ENDMDL
MODEL 5
REMARK VINA RESULT: -7.667806449      3.713      8.382
REMARK  7 active torsions:
REMARK  status: ('A' for Active; 'I' for Inactive)
REMARK    1  A    between atoms: C2_2  and  C3_4 
REMARK    2  A    between atoms: C6_7  and  O2_8 
REMARK    3  A    between atoms: O2_8  and  C7_9 
REMARK    4  A    between atoms: C9_11  and  N1_12 
REMARK    5  A    between atoms: C14_17  and  N2_18 
REMARK    6  A    between atoms: C16_22  and  N3_23 
REMARK    7  A    between atoms: C17_26  and  N4_27 
ROOT
HETATM    1  C7  UNL     1     -25.558  -1.714   7.450  1.00  0.00     0.111 A 
HETATM    2  C8  UNL     1     -26.592  -0.921   7.941  1.00  0.00     0.071 A 
HETATM    3  C9  UNL     1     -27.179   0.116   7.235  1.00  0.00     0.066 A 
HETATM    4  C14 UNL     1     -26.682   0.339   5.984  1.00  0.00     0.132 A 
HETATM    5  C15 UNL     1     -25.656  -0.409   5.438  1.00  0.00     0.077 A 
HETATM    6  C16 UNL     1     -25.100  -1.438   6.190  1.00  0.00     0.139 A 
ENDROOT
BRANCH   1   7
HETATM    7  O2  UNL     1     -25.118  -2.682   8.299  1.00  0.00    -0.306 OA
BRANCH   7   8
HETATM    8  C6  UNL     1     -25.115  -4.032   8.200  1.00  0.00     0.109 A 
HETATM    9  C5  UNL     1     -25.578  -4.706   7.091  1.00  0.00     0.041 A 
HETATM   10  C4  UNL     1     -25.547  -6.071   7.052  1.00  0.00     0.018 A 
HETATM   11  C3  UNL     1     -25.057  -6.799   8.112  1.00  0.00     0.012 A 
HETATM   12  C18 UNL     1     -24.600  -6.101   9.210  1.00  0.00     0.054 A 
HETATM   13  C17 UNL     1     -24.609  -4.737   9.301  1.00  0.00     0.137 A 
BRANCH  11  14
HETATM   14  C2  UNL     1     -25.036  -8.245   8.035  1.00  0.00     0.155 C 
HETATM   15  C1  UNL     1     -26.112  -8.980   7.358  1.00  0.00     0.096 C 
HETATM   16  O1  UNL     1     -24.091  -8.871   8.552  1.00  0.00    -0.293 OA
ENDBRANCH  11  14
BRANCH  13  17
HETATM   17  N4  UNL     1     -24.134  -4.026  10.436  1.00  0.00    -0.113 N 
HETATM   18  O7  UNL     1     -22.941  -3.666  10.543  1.00  0.00    -0.532 OA
HETATM   19  O8  UNL     1     -24.976  -3.702  11.473  1.00  0.00    -0.532 OA
ENDBRANCH  13  17
ENDBRANCH   7   8
ENDBRANCH   1   7
BRANCH   6  20
HETATM   20  N3  UNL     1     -23.988  -2.092   5.634  1.00  0.00    -0.113 N 
HETATM   21  O5  UNL     1     -23.875  -2.003   4.355  1.00  0.00    -0.532 OA
HETATM   22  O6  UNL     1     -23.016  -2.791   6.235  1.00  0.00    -0.532 OA
ENDBRANCH   6  20
BRANCH   3  23
HETATM   23  N1  UNL     1     -28.200   0.875   7.841  1.00  0.00    -0.379 N 
HETATM   24  C10 UNL     1     -29.625   0.704   7.692  1.00  0.00     0.123 C 
HETATM   25  C11 UNL     1     -30.001   2.150   7.295  1.00  0.00     0.021 C 
HETATM   26  C12 UNL     1     -28.983   3.015   8.046  1.00  0.00     0.021 C 
HETATM   27  C13 UNL     1     -28.061   2.006   8.730  1.00  0.00     0.123 C 
ENDBRANCH   3  23
BRANCH   4  28
HETATM   28  N2  UNL     1     -27.231   1.374   5.175  1.00  0.00    -0.113 N 
HETATM   29  O3  UNL     1     -26.856   2.547   5.155  1.00  0.00    -0.532 OA
HETATM   30  O4  UNL     1     -28.303   1.054   4.344  1.00  0.00    -0.532 OA
ENDBRANCH   4  28
TORSDOF 7
ENDMDL
