MODEL 1
REMARK VINA RESULT: -8.919996922      0.000      0.000
REMARK  7 active torsions:
REMARK  status: ('A' for Active; 'I' for Inactive)
REMARK    1  A    between atoms: S1_2  and  C2_3 
REMARK    2  A    between atoms: C3_6  and  S2_7 
REMARK    3  A    between atoms: S2_7  and  C4_8 
REMARK    4  A    between atoms: C4_8  and  C6_11 
REMARK    5  A    between atoms: C6_11  and  C7_13 
REMARK    6  A    between atoms: C7_13  and  C8_14 
REMARK    7  A    between atoms: C14_22  and  C15_23 
ROOT
HETATM    1  C4  UNL     1     -24.457  -4.615   9.277  1.00  0.00     0.229 C 
HETATM    2  C5  UNL     1     -25.387  -5.426  10.037  1.00  0.00     0.082 C 
HETATM    3  N2  UNL     1     -26.147  -6.065  10.634  1.00  0.00    -0.196 NA
ENDROOT
BRANCH   1   4
HETATM    4  S2  UNL     1     -24.282  -5.271   7.595  1.00  0.00    -0.085 SA
BRANCH   4   5
HETATM    5  C3  UNL     1     -24.736  -6.992   7.618  1.00  0.00     0.075 A 
HETATM    6  N1  UNL     1     -23.888  -7.965   7.992  1.00  0.00    -0.331 N 
HETATM    7  C2  UNL     1     -24.188  -9.270   8.024  1.00  0.00     0.145 A 
ATOM      8  H1  UNL     1     -22.947  -7.690   8.273  1.00  0.00     0.168 HD
HETATM    9  N5  UNL     1     -25.437  -9.634   7.653  1.00  0.00    -0.336 N 
HETATM   10  C14 UNL     1     -26.355  -8.745   7.264  1.00  0.00     0.054 A 
ATOM     11  H5  UNL     1     -25.687 -10.623   7.670  1.00  0.00     0.168 HD
HETATM   12  C13 UNL     1     -26.014  -7.416   7.243  1.00  0.00     0.068 A 
BRANCH   7  13
HETATM   13  S1  UNL     1     -22.958 -10.422   8.543  1.00  0.00    -0.098 SA
HETATM   14  C1  UNL     1     -23.732 -12.055   8.694  1.00  0.00     0.099 C 
ENDBRANCH   7  13
BRANCH  10  15
HETATM   15  C15 UNL     1     -27.718  -9.153   6.859  1.00  0.00     0.031 A 
HETATM   16  C16 UNL     1     -28.819  -8.351   6.701  1.00  0.00     0.021 A 
HETATM   17  C17 UNL     1     -29.956  -8.943   6.325  1.00  0.00     0.008 A 
HETATM   18  C18 UNL     1     -29.935 -10.295   6.128  1.00  0.00     0.050 A 
HETATM   19  S3  UNL     1     -28.316 -10.703   6.476  1.00  0.00    -0.100 SA
ENDBRANCH  10  15
ENDBRANCH   4   5
ENDBRANCH   1   4
BRANCH   1  20
HETATM   20  C6  UNL     1     -24.833  -3.183   9.272  1.00  0.00     0.156 C 
HETATM   21  O1  UNL     1     -24.312  -2.461  10.104  1.00  0.00    -0.296 OA
BRANCH  20  22
HETATM   22  C7  UNL     1     -25.793  -2.620   8.312  1.00  0.00     0.106 C 
BRANCH  22  23
HETATM   23  C8  UNL     1     -25.484  -1.182   7.956  1.00  0.00     0.102 C 
HETATM   24  C9  UNL     1     -26.557  -0.236   8.390  1.00  0.00     0.028 C 
HETATM   25  C10 UNL     1     -26.833   0.570   7.139  1.00  0.00     0.023 C 
HETATM   26  C11 UNL     1     -26.659  -0.469   6.053  1.00  0.00     0.135 C 
HETATM   27  N3  UNL     1     -25.461  -1.135   6.493  1.00  0.00    -0.315 N 
HETATM   28  C12 UNL     1     -24.466  -1.638   5.675  1.00  0.00     0.180 C 
HETATM   29  N4  UNL     1     -23.637  -2.045   4.986  1.00  0.00    -0.172 NA
ENDBRANCH  22  23
ENDBRANCH  20  22
ENDBRANCH   1  20
TORSDOF 7
ENDMDL
MODEL 2
REMARK VINA RESULT: -8.844746544      3.100      8.850
REMARK  7 active torsions:
REMARK  status: ('A' for Active; 'I' for Inactive)
REMARK    1  A    between atoms: S1_2  and  C2_3 
REMARK    2  A    between atoms: C3_6  and  S2_7 
REMARK    3  A    between atoms: S2_7  and  C4_8 
REMARK    4  A    between atoms: C4_8  and  C6_11 
REMARK    5  A    between atoms: C6_11  and  C7_13 
REMARK    6  A    between atoms: C7_13  and  C8_14 
REMARK    7  A    between atoms: C14_22  and  C15_23 
ROOT
HETATM    1  C4  UNL     1     -25.501  -6.875   7.926  1.00  0.00     0.229 C 
HETATM    2  C5  UNL     1     -26.113  -6.515   9.190  1.00  0.00     0.082 C 
HETATM    3  N2  UNL     1     -26.586  -6.236  10.209  1.00  0.00    -0.196 NA
ENDROOT
BRANCH   1   4
HETATM    4  S2  UNL     1     -24.166  -5.714   7.524  1.00  0.00    -0.085 SA
BRANCH   4   5
HETATM    5  C3  UNL     1     -24.452  -4.203   8.421  1.00  0.00     0.075 A 
HETATM    6  N1  UNL     1     -25.154  -3.175   7.916  1.00  0.00    -0.331 N 
HETATM    7  C2  UNL     1     -25.391  -2.023   8.557  1.00  0.00     0.145 A 
ATOM      8  H1  UNL     1     -25.533  -3.279   6.975  1.00  0.00     0.168 HD
HETATM    9  N5  UNL     1     -24.889  -1.886   9.805  1.00  0.00    -0.336 N 
HETATM   10  C14 UNL     1     -24.177  -2.848  10.399  1.00  0.00     0.054 A 
ATOM     11  H5  UNL     1     -25.059  -1.017  10.311  1.00  0.00     0.168 HD
HETATM   12  C13 UNL     1     -23.953  -4.015   9.713  1.00  0.00     0.068 A 
BRANCH   7  13
HETATM   13  S1  UNL     1     -26.334  -0.770   7.750  1.00  0.00    -0.098 SA
HETATM   14  C1  UNL     1     -26.064  -0.914   5.962  1.00  0.00     0.099 C 
ENDBRANCH   7  13
BRANCH  10  15
HETATM   15  C15 UNL     1     -23.632  -2.689  11.764  1.00  0.00     0.031 A 
HETATM   16  C16 UNL     1     -23.788  -3.535  12.832  1.00  0.00     0.021 A 
HETATM   17  C17 UNL     1     -23.198  -3.185  13.978  1.00  0.00     0.008 A 
HETATM   18  C18 UNL     1     -22.488  -2.019  13.999  1.00  0.00     0.050 A 
HETATM   19  S3  UNL     1     -22.666  -1.439  12.406  1.00  0.00    -0.100 SA
ENDBRANCH  10  15
ENDBRANCH   4   5
ENDBRANCH   1   4
BRANCH   1  20
HETATM   20  C6  UNL     1     -25.030  -8.279   7.908  1.00  0.00     0.156 C 
HETATM   21  O1  UNL     1     -23.877  -8.481   7.570  1.00  0.00    -0.296 OA
BRANCH  20  22
HETATM   22  C7  UNL     1     -25.895  -9.408   8.278  1.00  0.00     0.106 C 
BRANCH  22  23
HETATM   23  C8  UNL     1     -25.695 -10.610   7.380  1.00  0.00     0.102 C 
HETATM   24  C9  UNL     1     -26.981 -11.149   6.842  1.00  0.00     0.028 C 
HETATM   25  C10 UNL     1     -26.891 -12.628   7.150  1.00  0.00     0.023 C 
HETATM   26  C11 UNL     1     -26.173 -12.627   8.482  1.00  0.00     0.135 C 
HETATM   27  N3  UNL     1     -25.139 -11.656   8.240  1.00  0.00    -0.315 N 
HETATM   28  C12 UNL     1     -23.848 -11.707   8.734  1.00  0.00     0.180 C 
HETATM   29  N4  UNL     1     -22.771 -11.763   9.141  1.00  0.00    -0.172 NA
ENDBRANCH  22  23
ENDBRANCH  20  22
ENDBRANCH   1  20
TORSDOF 7
ENDMDL
MODEL 3
REMARK VINA RESULT: -8.727587070      3.001      8.598
REMARK  7 active torsions:
REMARK  status: ('A' for Active; 'I' for Inactive)
REMARK    1  A    between atoms: S1_2  and  C2_3 
REMARK    2  A    between atoms: C3_6  and  S2_7 
REMARK    3  A    between atoms: S2_7  and  C4_8 
REMARK    4  A    between atoms: C4_8  and  C6_11 
REMARK    5  A    between atoms: C6_11  and  C7_13 
REMARK    6  A    between atoms: C7_13  and  C8_14 
REMARK    7  A    between atoms: C14_22  and  C15_23 
ROOT
HETATM    1  C4  UNL     1     -25.206  -7.075   8.042  1.00  0.00     0.229 C 
HETATM    2  C5  UNL     1     -25.912  -6.640   9.232  1.00  0.00     0.082 C 
HETATM    3  N2  UNL     1     -26.459  -6.297  10.193  1.00  0.00    -0.196 NA
ENDROOT
BRANCH   1   4
HETATM    4  S2  UNL     1     -24.029  -5.802   7.511  1.00  0.00    -0.085 SA
BRANCH   4   5
HETATM    5  C3  UNL     1     -24.394  -4.301   8.396  1.00  0.00     0.075 A 
HETATM    6  N1  UNL     1     -25.135  -3.308   7.876  1.00  0.00    -0.331 N 
HETATM    7  C2  UNL     1     -25.433  -2.165   8.506  1.00  0.00     0.145 A 
ATOM      8  H1  UNL     1     -25.497  -3.435   6.931  1.00  0.00     0.168 HD
HETATM    9  N5  UNL     1     -24.953  -1.998   9.761  1.00  0.00    -0.336 N 
HETATM   10  C14 UNL     1     -24.207  -2.924  10.369  1.00  0.00     0.054 A 
ATOM     11  H5  UNL     1     -25.169  -1.135  10.259  1.00  0.00     0.168 HD
HETATM   12  C13 UNL     1     -23.921  -4.083   9.693  1.00  0.00     0.068 A 
BRANCH   7  13
HETATM   13  S1  UNL     1     -26.421  -0.960   7.680  1.00  0.00    -0.098 SA
HETATM   14  C1  UNL     1     -25.941  -0.930   5.931  1.00  0.00     0.099 C 
ENDBRANCH   7  13
BRANCH  10  15
HETATM   15  C15 UNL     1     -23.687  -2.733  11.740  1.00  0.00     0.031 A 
HETATM   16  C16 UNL     1     -23.938  -3.504  12.846  1.00  0.00     0.021 A 
HETATM   17  C17 UNL     1     -23.353  -3.139  13.989  1.00  0.00     0.008 A 
HETATM   18  C18 UNL     1     -22.553  -2.032  13.971  1.00  0.00     0.050 A 
HETATM   19  S3  UNL     1     -22.642  -1.529  12.344  1.00  0.00    -0.100 SA
ENDBRANCH  10  15
ENDBRANCH   4   5
ENDBRANCH   1   4
BRANCH   1  20
HETATM   20  C6  UNL     1     -24.548  -8.388   8.227  1.00  0.00     0.156 C 
HETATM   21  O1  UNL     1     -23.695  -8.473   9.094  1.00  0.00    -0.296 OA
BRANCH  20  22
HETATM   22  C7  UNL     1     -24.886  -9.565   7.414  1.00  0.00     0.106 C 
BRANCH  22  23
HETATM   23  C8  UNL     1     -25.902 -10.463   8.087  1.00  0.00     0.102 C 
HETATM   24  C9  UNL     1     -25.374 -11.836   8.350  1.00  0.00     0.028 C 
HETATM   25  C10 UNL     1     -26.452 -12.735   7.782  1.00  0.00     0.023 C 
HETATM   26  C11 UNL     1     -26.910 -11.947   6.573  1.00  0.00     0.135 C 
HETATM   27  N3  UNL     1     -26.990 -10.619   7.120  1.00  0.00    -0.315 N 
HETATM   28  C12 UNL     1     -27.932  -9.662   6.789  1.00  0.00     0.180 C 
HETATM   29  N4  UNL     1     -28.728  -8.874   6.516  1.00  0.00    -0.172 NA
ENDBRANCH  22  23
ENDBRANCH  20  22
ENDBRANCH   1  20
TORSDOF 7
ENDMDL
MODEL 4
REMARK VINA RESULT: -8.672259652      3.262      9.036
REMARK  7 active torsions:
REMARK  status: ('A' for Active; 'I' for Inactive)
REMARK    1  A    between atoms: S1_2  and  C2_3 
REMARK    2  A    between atoms: C3_6  and  S2_7 
REMARK    3  A    between atoms: S2_7  and  C4_8 
REMARK    4  A    between atoms: C4_8  and  C6_11 
REMARK    5  A    between atoms: C6_11  and  C7_13 
REMARK    6  A    between atoms: C7_13  and  C8_14 
REMARK    7  A    between atoms: C14_22  and  C15_23 
ROOT
HETATM    1  C4  UNL     1     -24.956  -7.144   8.360  1.00  0.00     0.229 C 
HETATM    2  C5  UNL     1     -24.376  -6.080   7.564  1.00  0.00     0.082 C 
HETATM    3  N2  UNL     1     -23.932  -5.225   6.922  1.00  0.00    -0.196 NA
ENDROOT
BRANCH   1   4
HETATM    4  S2  UNL     1     -25.753  -6.457   9.838  1.00  0.00    -0.085 SA
BRANCH   4   5
HETATM    5  C3  UNL     1     -25.268  -4.752   9.992  1.00  0.00     0.075 A 
HETATM    6  N1  UNL     1     -25.499  -3.838   9.034  1.00  0.00    -0.331 N 
HETATM    7  C2  UNL     1     -25.151  -2.547   9.109  1.00  0.00     0.145 A 
ATOM      8  H1  UNL     1     -25.975  -4.151   8.187  1.00  0.00     0.168 HD
HETATM    9  N5  UNL     1     -24.521  -2.132  10.232  1.00  0.00    -0.336 N 
HETATM   10  C14 UNL     1     -24.244  -2.960  11.243  1.00  0.00     0.054 A 
ATOM     11  H5  UNL     1     -24.248  -1.152  10.310  1.00  0.00     0.168 HD
HETATM   12  C13 UNL     1     -24.615  -4.277  11.133  1.00  0.00     0.068 A 
BRANCH   7  13
HETATM   13  S1  UNL     1     -25.530  -1.476   7.760  1.00  0.00    -0.098 SA
HETATM   14  C1  UNL     1     -26.847  -0.342   8.283  1.00  0.00     0.099 C 
ENDBRANCH   7  13
BRANCH  10  15
HETATM   15  C15 UNL     1     -23.555  -2.498  12.467  1.00  0.00     0.031 A 
HETATM   16  C16 UNL     1     -23.646  -3.027  13.729  1.00  0.00     0.021 A 
HETATM   17  C17 UNL     1     -22.925  -2.441  14.689  1.00  0.00     0.008 A 
HETATM   18  C18 UNL     1     -22.158  -1.366  14.343  1.00  0.00     0.050 A 
HETATM   19  S3  UNL     1     -22.466  -1.203  12.674  1.00  0.00    -0.100 SA
ENDBRANCH  10  15
ENDBRANCH   4   5
ENDBRANCH   1   4
BRANCH   1  20
HETATM   20  C6  UNL     1     -25.887  -7.989   7.578  1.00  0.00     0.156 C 
HETATM   21  O1  UNL     1     -26.908  -7.467   7.165  1.00  0.00    -0.296 OA
BRANCH  20  22
HETATM   22  C7  UNL     1     -25.620  -9.405   7.292  1.00  0.00     0.106 C 
BRANCH  22  23
HETATM   23  C8  UNL     1     -24.835 -10.083   8.395  1.00  0.00     0.102 C 
HETATM   24  C9  UNL     1     -23.369  -9.805   8.315  1.00  0.00     0.028 C 
HETATM   25  C10 UNL     1     -22.751 -11.183   8.406  1.00  0.00     0.023 C 
HETATM   26  C11 UNL     1     -23.752 -12.026   7.645  1.00  0.00     0.135 C 
HETATM   27  N3  UNL     1     -24.994 -11.520   8.166  1.00  0.00    -0.315 N 
HETATM   28  C12 UNL     1     -26.135 -12.264   8.408  1.00  0.00     0.180 C 
HETATM   29  N4  UNL     1     -27.077 -12.894   8.616  1.00  0.00    -0.172 NA
ENDBRANCH  22  23
ENDBRANCH  20  22
ENDBRANCH   1  20
TORSDOF 7
ENDMDL
MODEL 5
REMARK VINA RESULT: -8.655357415      1.204      1.638
REMARK  7 active torsions:
REMARK  status: ('A' for Active; 'I' for Inactive)
REMARK    1  A    between atoms: S1_2  and  C2_3 
REMARK    2  A    between atoms: C3_6  and  S2_7 
REMARK    3  A    between atoms: S2_7  and  C4_8 
REMARK    4  A    between atoms: C4_8  and  C6_11 
REMARK    5  A    between atoms: C6_11  and  C7_13 
REMARK    6  A    between atoms: C7_13  and  C8_14 
REMARK    7  A    between atoms: C14_22  and  C15_23 
ROOT
HETATM    1  C4  UNL     1     -25.014  -4.354   7.500  1.00  0.00     0.229 C 
HETATM    2  C5  UNL     1     -23.948  -4.518   6.531  1.00  0.00     0.082 C 
HETATM    3  N2  UNL     1     -23.084  -4.638   5.770  1.00  0.00    -0.196 NA
ENDROOT
BRANCH   1   4
HETATM    4  S2  UNL     1     -24.756  -5.467   8.909  1.00  0.00    -0.085 SA
BRANCH   4   5
HETATM    5  C3  UNL     1     -25.019  -7.138   8.355  1.00  0.00     0.075 A 
HETATM    6  N1  UNL     1     -24.075  -8.090   8.434  1.00  0.00    -0.331 N 
HETATM    7  C2  UNL     1     -24.231  -9.357   8.029  1.00  0.00     0.145 A 
ATOM      8  H1  UNL     1     -23.172  -7.829   8.831  1.00  0.00     0.168 HD
HETATM    9  N5  UNL     1     -25.429  -9.703   7.503  1.00  0.00    -0.336 N 
HETATM   10  C14 UNL     1     -26.434  -8.832   7.381  1.00  0.00     0.054 A 
ATOM     11  H5  UNL     1     -25.570 -10.664   7.189  1.00  0.00     0.168 HD
HETATM   12  C13 UNL     1     -26.239  -7.542   7.805  1.00  0.00     0.068 A 
BRANCH   7  13
HETATM   13  S1  UNL     1     -22.888 -10.487   8.203  1.00  0.00    -0.098 SA
HETATM   14  C1  UNL     1     -23.565 -12.125   8.588  1.00  0.00     0.099 C 
ENDBRANCH   7  13
BRANCH  10  15
HETATM   15  C15 UNL     1     -27.740  -9.219   6.805  1.00  0.00     0.031 A 
HETATM   16  C16 UNL     1     -28.767  -8.392   6.428  1.00  0.00     0.021 A 
HETATM   17  C17 UNL     1     -29.862  -8.970   5.926  1.00  0.00     0.008 A 
HETATM   18  C18 UNL     1     -29.876 -10.332   5.828  1.00  0.00     0.050 A 
HETATM   19  S3  UNL     1     -28.348 -10.771   6.443  1.00  0.00    -0.100 SA
ENDBRANCH  10  15
ENDBRANCH   4   5
ENDBRANCH   1   4
BRANCH   1  20
HETATM   20  C6  UNL     1     -25.169  -2.947   7.934  1.00  0.00     0.156 C 
HETATM   21  O1  UNL     1     -24.558  -2.594   8.927  1.00  0.00    -0.296 OA
BRANCH  20  22
HETATM   22  C7  UNL     1     -26.020  -1.987   7.217  1.00  0.00     0.106 C 
BRANCH  22  23
HETATM   23  C8  UNL     1     -25.358  -0.637   7.048  1.00  0.00     0.102 C 
HETATM   24  C9  UNL     1     -26.202   0.488   7.553  1.00  0.00     0.028 C 
HETATM   25  C10 UNL     1     -26.199   1.467   6.398  1.00  0.00     0.023 C 
HETATM   26  C11 UNL     1     -26.206   0.540   5.202  1.00  0.00     0.135 C 
HETATM   27  N3  UNL     1     -25.231  -0.439   5.602  1.00  0.00    -0.315 N 
HETATM   28  C12 UNL     1     -24.332  -1.077   4.766  1.00  0.00     0.180 C 
HETATM   29  N4  UNL     1     -23.580  -1.596   4.064  1.00  0.00    -0.172 NA
ENDBRANCH  22  23
ENDBRANCH  20  22
ENDBRANCH   1  20
TORSDOF 7
ENDMDL
