MODEL 1
REMARK VINA RESULT: -9.250441923      0.000      0.000
REMARK  8 active torsions:
REMARK  status: ('A' for Active; 'I' for Inactive)
REMARK    1  A    between atoms: C2_2  and  C3_3 
REMARK    2  A    between atoms: C3_3  and  C4_4 
REMARK    3  A    between atoms: C5_6  and  S1_7 
REMARK    4  A    between atoms: S1_7  and  C6_8 
REMARK    5  A    between atoms: C7_13  and  N2_14 
REMARK    6  A    between atoms: C12_22  and  C13_23 
REMARK    7  A    between atoms: C13_23  and  C14_25 
REMARK    8  A    between atoms: C14_25  and  C15_26 
ROOT
HETATM    1  C4  UNL     1     -25.971  -7.103   7.638  1.00  0.00     0.086 A 
HETATM    2  O1  UNL     1     -25.868  -5.824   7.352  1.00  0.00    -0.289 OA
HETATM    3  C5  UNL     1     -24.634  -5.416   7.400  1.00  0.00     0.193 A 
HETATM    4  N3  UNL     1     -23.891  -6.479   7.734  1.00  0.00    -0.326 N 
ATOM      5  H3  UNL     1     -22.878  -6.484   7.853  1.00  0.00     0.168 HD
HETATM    6  C12 UNL     1     -24.721  -7.560   7.888  1.00  0.00     0.111 A 
ENDROOT
BRANCH   3   7
HETATM    7  S1  UNL     1     -24.117  -3.730   7.067  1.00  0.00    -0.035 SA
BRANCH   7   8
HETATM    8  C6  UNL     1     -25.076  -2.464   7.570  1.00  0.00     0.102 A 
HETATM    9  S2  UNL     1     -25.773  -1.377   6.468  1.00  0.00    -0.024 SA
HETATM   10  S3  UNL     1     -26.742  -0.199   7.865  1.00  0.00     0.027 SA
HETATM   11  N1  UNL     1     -26.167  -1.134   9.117  1.00  0.00    -0.305 N 
HETATM   12  C7  UNL     1     -25.402  -2.159   8.852  1.00  0.00     0.135 A 
ATOM     13  H1  UNL     1     -26.409  -0.908  10.082  1.00  0.00     0.176 HD
BRANCH  12  14
HETATM   14  N2  UNL     1     -24.895  -2.984   9.946  1.00  0.00    -0.361 N 
HETATM   15  C8  UNL     1     -25.633  -4.126  10.393  1.00  0.00     0.150 C 
HETATM   16  C9  UNL     1     -25.825  -3.973  11.899  1.00  0.00     0.187 C 
HETATM   17  O2  UNL     1     -24.662  -3.661  12.558  1.00  0.00    -0.388 OA
HETATM   18  C10 UNL     1     -23.535  -3.640  11.772  1.00  0.00     0.187 C 
HETATM   19  C11 UNL     1     -23.643  -2.676  10.607  1.00  0.00     0.150 C 
ENDBRANCH  12  14
ENDBRANCH   7   8
ENDBRANCH   3   7
BRANCH   1  20
HETATM   20  C3  UNL     1     -27.278  -7.805   7.657  1.00  0.00     0.067 C 
BRANCH  20  21
HETATM   21  C2  UNL     1     -27.799  -8.146   6.288  1.00  0.00     0.002 C 
HETATM   22  C1  UNL     1     -28.817  -9.273   6.442  1.00  0.00     0.005 C 
ENDBRANCH  20  21
ENDBRANCH   1  20
BRANCH   6  23
HETATM   23  C13 UNL     1     -24.302  -8.905   8.230  1.00  0.00     0.178 C 
HETATM   24  O3  UNL     1     -23.369  -9.074   9.036  1.00  0.00    -0.291 OA
BRANCH  23  25
HETATM   25  C14 UNL     1     -24.975 -10.064   7.630  1.00  0.00     0.089 C 
BRANCH  25  26
HETATM   26  C15 UNL     1     -24.649 -11.358   8.336  1.00  0.00    -0.015 C 
HETATM   27  C16 UNL     1     -25.874 -12.226   8.304  1.00  0.00     0.010 C 
HETATM   28  C17 UNL     1     -23.540 -12.095   7.625  1.00  0.00     0.010 C 
ENDBRANCH  25  26
ENDBRANCH  23  25
ENDBRANCH   6  23
TORSDOF 8
ENDMDL
MODEL 2
REMARK VINA RESULT: -8.293006584      2.329      3.295
REMARK  8 active torsions:
REMARK  status: ('A' for Active; 'I' for Inactive)
REMARK    1  A    between atoms: C2_2  and  C3_3 
REMARK    2  A    between atoms: C3_3  and  C4_4 
REMARK    3  A    between atoms: C5_6  and  S1_7 
REMARK    4  A    between atoms: S1_7  and  C6_8 
REMARK    5  A    between atoms: C7_13  and  N2_14 
REMARK    6  A    between atoms: C12_22  and  C13_23 
REMARK    7  A    between atoms: C13_23  and  C14_25 
REMARK    8  A    between atoms: C14_25  and  C15_26 
ROOT
HETATM    1  C4  UNL     1     -26.274  -7.449   7.970  1.00  0.00     0.086 A 
HETATM    2  O1  UNL     1     -26.629  -6.418   8.703  1.00  0.00    -0.289 OA
HETATM    3  C5  UNL     1     -25.848  -6.265   9.733  1.00  0.00     0.193 A 
HETATM    4  N3  UNL     1     -24.936  -7.244   9.670  1.00  0.00    -0.326 N 
ATOM      5  H3  UNL     1     -24.180  -7.397  10.338  1.00  0.00     0.168 HD
HETATM    6  C12 UNL     1     -25.188  -8.004   8.558  1.00  0.00     0.111 A 
ENDROOT
BRANCH   3   7
HETATM    7  S1  UNL     1     -26.033  -4.962  10.953  1.00  0.00    -0.035 SA
BRANCH   7   8
HETATM    8  C6  UNL     1     -24.755  -3.939  11.259  1.00  0.00     0.102 A 
HETATM    9  S2  UNL     1     -24.027  -3.851  12.790  1.00  0.00    -0.024 SA
HETATM   10  S3  UNL     1     -22.614  -2.420  12.308  1.00  0.00     0.027 SA
HETATM   11  N1  UNL     1     -23.168  -2.338  10.740  1.00  0.00    -0.305 N 
HETATM   12  C7  UNL     1     -24.170  -3.094  10.374  1.00  0.00     0.135 A 
ATOM     13  H1  UNL     1     -22.731  -1.704  10.071  1.00  0.00     0.176 HD
BRANCH  12  14
HETATM   14  N2  UNL     1     -24.660  -3.027   8.999  1.00  0.00    -0.361 N 
HETATM   15  C8  UNL     1     -24.176  -3.947   8.014  1.00  0.00     0.150 C 
HETATM   16  C9  UNL     1     -23.671  -3.115   6.838  1.00  0.00     0.187 C 
HETATM   17  O2  UNL     1     -24.566  -2.155   6.437  1.00  0.00    -0.388 OA
HETATM   18  C10 UNL     1     -25.775  -2.177   7.089  1.00  0.00     0.187 C 
HETATM   19  C11 UNL     1     -25.639  -2.041   8.593  1.00  0.00     0.150 C 
ENDBRANCH  12  14
ENDBRANCH   7   8
ENDBRANCH   3   7
BRANCH   1  20
HETATM   20  C3  UNL     1     -27.013  -7.836   6.743  1.00  0.00     0.067 C 
BRANCH  20  21
HETATM   21  C2  UNL     1     -28.419  -8.300   7.007  1.00  0.00     0.002 C 
HETATM   22  C1  UNL     1     -28.544  -9.732   6.495  1.00  0.00     0.005 C 
ENDBRANCH  20  21
ENDBRANCH   1  20
BRANCH   6  23
HETATM   23  C13 UNL     1     -24.413  -9.151   8.125  1.00  0.00     0.178 C 
HETATM   24  O3  UNL     1     -23.171  -9.116   8.188  1.00  0.00    -0.291 OA
BRANCH  23  25
HETATM   25  C14 UNL     1     -25.091 -10.350   7.614  1.00  0.00     0.089 C 
BRANCH  25  26
HETATM   26  C15 UNL     1     -24.797 -11.581   8.438  1.00  0.00    -0.015 C 
HETATM   27  C16 UNL     1     -25.982 -12.499   8.340  1.00  0.00     0.010 C 
HETATM   28  C17 UNL     1     -23.595 -12.316   7.899  1.00  0.00     0.010 C 
ENDBRANCH  25  26
ENDBRANCH  23  25
ENDBRANCH   6  23
TORSDOF 8
ENDMDL
MODEL 3
REMARK VINA RESULT: -8.292130740      3.158      8.057
REMARK  8 active torsions:
REMARK  status: ('A' for Active; 'I' for Inactive)
REMARK    1  A    between atoms: C2_2  and  C3_3 
REMARK    2  A    between atoms: C3_3  and  C4_4 
REMARK    3  A    between atoms: C5_6  and  S1_7 
REMARK    4  A    between atoms: S1_7  and  C6_8 
REMARK    5  A    between atoms: C7_13  and  N2_14 
REMARK    6  A    between atoms: C12_22  and  C13_23 
REMARK    7  A    between atoms: C13_23  and  C14_25 
REMARK    8  A    between atoms: C14_25  and  C15_26 
ROOT
HETATM    1  C4  UNL     1     -24.970  -4.385   8.974  1.00  0.00     0.086 A 
HETATM    2  O1  UNL     1     -25.191  -5.292   8.049  1.00  0.00    -0.289 OA
HETATM    3  C5  UNL     1     -25.671  -6.390   8.553  1.00  0.00     0.193 A 
HETATM    4  N3  UNL     1     -25.770  -6.193   9.875  1.00  0.00    -0.326 N 
ATOM      5  H3  UNL     1     -26.114  -6.872  10.554  1.00  0.00     0.168 HD
HETATM    6  C12 UNL     1     -25.331  -4.927  10.161  1.00  0.00     0.111 A 
ENDROOT
BRANCH   3   7
HETATM    7  S1  UNL     1     -26.092  -7.843   7.588  1.00  0.00    -0.035 SA
BRANCH   7   8
HETATM    8  C6  UNL     1     -25.190  -9.232   7.761  1.00  0.00     0.102 A 
HETATM    9  S2  UNL     1     -23.564  -9.188   8.247  1.00  0.00    -0.024 SA
HETATM   10  S3  UNL     1     -23.239 -11.229   8.204  1.00  0.00     0.027 SA
HETATM   11  N1  UNL     1     -24.806 -11.513   7.719  1.00  0.00    -0.305 N 
HETATM   12  C7  UNL     1     -25.616 -10.502   7.547  1.00  0.00     0.135 A 
ATOM     13  H1  UNL     1     -25.131 -12.467   7.557  1.00  0.00     0.176 HD
BRANCH  12  14
HETATM   14  N2  UNL     1     -26.993 -10.745   7.122  1.00  0.00    -0.361 N 
HETATM   15  C8  UNL     1     -27.508 -12.080   7.067  1.00  0.00     0.150 C 
HETATM   16  C9  UNL     1     -28.075 -12.282   5.665  1.00  0.00     0.187 C 
HETATM   17  O2  UNL     1     -28.897 -11.258   5.266  1.00  0.00    -0.388 OA
HETATM   18  C10 UNL     1     -29.139 -10.300   6.221  1.00  0.00     0.187 C 
HETATM   19  C11 UNL     1     -27.871  -9.656   6.747  1.00  0.00     0.150 C 
ENDBRANCH  12  14
ENDBRANCH   7   8
ENDBRANCH   3   7
BRANCH   1  20
HETATM   20  C3  UNL     1     -24.416  -3.047   8.651  1.00  0.00     0.067 C 
BRANCH  20  21
HETATM   21  C2  UNL     1     -25.451  -1.956   8.622  1.00  0.00     0.002 C 
HETATM   22  C1  UNL     1     -25.824  -1.703   7.165  1.00  0.00     0.005 C 
ENDBRANCH  20  21
ENDBRANCH   1  20
BRANCH   6  23
HETATM   23  C13 UNL     1     -25.296  -4.322  11.478  1.00  0.00     0.178 C 
HETATM   24  O3  UNL     1     -26.349  -3.908  11.995  1.00  0.00    -0.291 OA
BRANCH  23  25
HETATM   25  C14 UNL     1     -24.023  -4.198  12.201  1.00  0.00     0.089 C 
BRANCH  25  26
HETATM   26  C15 UNL     1     -23.737  -2.782  12.641  1.00  0.00    -0.015 C 
HETATM   27  C16 UNL     1     -23.575  -2.783  14.133  1.00  0.00     0.010 C 
HETATM   28  C17 UNL     1     -22.449  -2.280  12.034  1.00  0.00     0.010 C 
ENDBRANCH  25  26
ENDBRANCH  23  25
ENDBRANCH   6  23
TORSDOF 8
ENDMDL
MODEL 4
REMARK VINA RESULT: -7.998781606      1.224      2.570
REMARK  8 active torsions:
REMARK  status: ('A' for Active; 'I' for Inactive)
REMARK    1  A    between atoms: C2_2  and  C3_3 
REMARK    2  A    between atoms: C3_3  and  C4_4 
REMARK    3  A    between atoms: C5_6  and  S1_7 
REMARK    4  A    between atoms: S1_7  and  C6_8 
REMARK    5  A    between atoms: C7_13  and  N2_14 
REMARK    6  A    between atoms: C12_22  and  C13_23 
REMARK    7  A    between atoms: C13_23  and  C14_25 
REMARK    8  A    between atoms: C14_25  and  C15_26 
ROOT
HETATM    1  C4  UNL     1     -24.791  -7.855   8.050  1.00  0.00     0.086 A 
HETATM    2  O1  UNL     1     -24.088  -6.745   8.049  1.00  0.00    -0.289 OA
HETATM    3  C5  UNL     1     -24.711  -5.778   7.442  1.00  0.00     0.193 A 
HETATM    4  N3  UNL     1     -25.882  -6.279   7.025  1.00  0.00    -0.326 N 
ATOM      5  H3  UNL     1     -26.600  -5.767   6.513  1.00  0.00     0.168 HD
HETATM    6  C12 UNL     1     -25.952  -7.594   7.402  1.00  0.00     0.111 A 
ENDROOT
BRANCH   3   7
HETATM    7  S1  UNL     1     -24.053  -4.120   7.247  1.00  0.00    -0.035 SA
BRANCH   7   8
HETATM    8  C6  UNL     1     -25.002  -2.809   7.641  1.00  0.00     0.102 A 
HETATM    9  S2  UNL     1     -25.662  -1.793   6.452  1.00  0.00    -0.024 SA
HETATM   10  S3  UNL     1     -26.640  -0.507   7.743  1.00  0.00     0.027 SA
HETATM   11  N1  UNL     1     -26.102  -1.359   9.069  1.00  0.00    -0.305 N 
HETATM   12  C7  UNL     1     -25.347  -2.411   8.891  1.00  0.00     0.135 A 
ATOM     13  H1  UNL     1     -26.360  -1.063  10.011  1.00  0.00     0.176 HD
BRANCH  12  14
HETATM   14  N2  UNL     1     -24.873  -3.163  10.051  1.00  0.00    -0.361 N 
HETATM   15  C8  UNL     1     -25.632  -4.267  10.556  1.00  0.00     0.150 C 
HETATM   16  C9  UNL     1     -25.857  -4.011  12.043  1.00  0.00     0.187 C 
HETATM   17  O2  UNL     1     -24.707  -3.664  12.707  1.00  0.00    -0.388 OA
HETATM   18  C10 UNL     1     -23.562  -3.704  11.949  1.00  0.00     0.187 C 
HETATM   19  C11 UNL     1     -23.635  -2.821  10.719  1.00  0.00     0.150 C 
ENDBRANCH  12  14
ENDBRANCH   7   8
ENDBRANCH   3   7
BRANCH   1  20
HETATM   20  C3  UNL     1     -24.293  -9.104   8.676  1.00  0.00     0.067 C 
BRANCH  20  21
HETATM   21  C2  UNL     1     -23.303  -9.852   7.826  1.00  0.00     0.002 C 
HETATM   22  C1  UNL     1     -23.580 -11.344   7.986  1.00  0.00     0.005 C 
ENDBRANCH  20  21
ENDBRANCH   1  20
BRANCH   6  23
HETATM   23  C13 UNL     1     -27.068  -8.486   7.155  1.00  0.00     0.178 C 
HETATM   24  O3  UNL     1     -28.232  -8.056   7.243  1.00  0.00    -0.291 OA
BRANCH  23  25
HETATM   25  C14 UNL     1     -26.828  -9.892   6.803  1.00  0.00     0.089 C 
BRANCH  25  26
HETATM   26  C15 UNL     1     -28.012 -10.780   7.103  1.00  0.00    -0.015 C 
HETATM   27  C16 UNL     1     -28.785 -10.969   5.830  1.00  0.00     0.010 C 
HETATM   28  C17 UNL     1     -27.559 -12.138   7.578  1.00  0.00     0.010 C 
ENDBRANCH  25  26
ENDBRANCH  23  25
ENDBRANCH   6  23
TORSDOF 8
ENDMDL
MODEL 5
REMARK VINA RESULT: -7.818054073      2.754      7.534
REMARK  8 active torsions:
REMARK  status: ('A' for Active; 'I' for Inactive)
REMARK    1  A    between atoms: C2_2  and  C3_3 
REMARK    2  A    between atoms: C3_3  and  C4_4 
REMARK    3  A    between atoms: C5_6  and  S1_7 
REMARK    4  A    between atoms: S1_7  and  C6_8 
REMARK    5  A    between atoms: C7_13  and  N2_14 
REMARK    6  A    between atoms: C12_22  and  C13_23 
REMARK    7  A    between atoms: C13_23  and  C14_25 
REMARK    8  A    between atoms: C14_25  and  C15_26 
ROOT
HETATM    1  C4  UNL     1     -25.168  -3.789   9.382  1.00  0.00     0.086 A 
HETATM    2  O1  UNL     1     -25.052  -4.677   8.420  1.00  0.00    -0.289 OA
HETATM    3  C5  UNL     1     -24.852  -5.874   8.889  1.00  0.00     0.193 A 
HETATM    4  N3  UNL     1     -24.837  -5.765  10.224  1.00  0.00    -0.326 N 
ATOM      5  H3  UNL     1     -24.699  -6.532  10.883  1.00  0.00     0.168 HD
HETATM    6  C12 UNL     1     -25.037  -4.451  10.557  1.00  0.00     0.111 A 
ENDROOT
BRANCH   3   7
HETATM    7  S1  UNL     1     -24.647  -7.335   7.867  1.00  0.00    -0.035 SA
BRANCH   7   8
HETATM    8  C6  UNL     1     -25.989  -8.208   7.407  1.00  0.00     0.102 A 
HETATM    9  S2  UNL     1     -27.454  -7.452   7.004  1.00  0.00    -0.024 SA
HETATM   10  S3  UNL     1     -28.513  -9.176   6.580  1.00  0.00     0.027 SA
HETATM   11  N1  UNL     1     -27.191 -10.126   6.929  1.00  0.00    -0.305 N 
HETATM   12  C7  UNL     1     -26.075  -9.558   7.303  1.00  0.00     0.135 A 
ATOM     13  H1  UNL     1     -27.251 -11.142   6.852  1.00  0.00     0.176 HD
BRANCH  12  14
HETATM   14  N2  UNL     1     -24.911 -10.387   7.610  1.00  0.00    -0.361 N 
HETATM   15  C8  UNL     1     -24.925 -11.789   7.320  1.00  0.00     0.150 C 
HETATM   16  C9  UNL     1     -24.558 -12.515   8.611  1.00  0.00     0.187 C 
HETATM   17  O2  UNL     1     -23.443 -11.995   9.220  1.00  0.00    -0.388 OA
HETATM   18  C10 UNL     1     -22.810 -10.996   8.521  1.00  0.00     0.187 C 
HETATM   19  C11 UNL     1     -23.719  -9.824   8.210  1.00  0.00     0.150 C 
ENDBRANCH  12  14
ENDBRANCH   7   8
ENDBRANCH   3   7
BRANCH   1  20
HETATM   20  C3  UNL     1     -25.394  -2.350   9.104  1.00  0.00     0.067 C 
BRANCH  20  21
HETATM   21  C2  UNL     1     -25.766  -2.062   7.675  1.00  0.00     0.002 C 
HETATM   22  C1  UNL     1     -26.446  -0.697   7.633  1.00  0.00     0.005 C 
ENDBRANCH  20  21
ENDBRANCH   1  20
BRANCH   6  23
HETATM   23  C13 UNL     1     -25.106  -3.921  11.904  1.00  0.00     0.178 C 
HETATM   24  O3  UNL     1     -26.206  -3.584  12.379  1.00  0.00    -0.291 OA
BRANCH  23  25
HETATM   25  C14 UNL     1     -23.884  -3.782  12.708  1.00  0.00     0.089 C 
BRANCH  25  26
HETATM   26  C15 UNL     1     -23.692  -2.383  13.242  1.00  0.00    -0.015 C 
HETATM   27  C16 UNL     1     -23.254  -2.488  14.674  1.00  0.00     0.010 C 
HETATM   28  C17 UNL     1     -22.612  -1.658  12.477  1.00  0.00     0.010 C 
ENDBRANCH  25  26
ENDBRANCH  23  25
ENDBRANCH   6  23
TORSDOF 8
ENDMDL
