MODEL 1
REMARK VINA RESULT: -5.520330485      0.000      0.000
REMARK  1 active torsions:
REMARK  status: ('A' for Active; 'I' for Inactive)
REMARK       I    between atoms: N1_2  and  C2_4 
REMARK       I    between atoms: C2_4  and  N3_10 
REMARK       I    between atoms: N2_5  and  C3_7 
REMARK    1  A    between atoms: C7_13  and  N4_15 
ROOT
HETATM    1  C1  UNL     1      19.323  36.348  44.043  1.00  0.00     0.149 C 
HETATM    2  N1  UNL     1      20.639  35.751  43.991  1.00  0.00    -0.360 N 
ATOM      3  H1  UNL     1      21.210  35.724  44.835  1.00  0.00     0.162 HD
HETATM    4  C2  UNL     1      21.148  35.202  42.788  1.00  0.00     0.285 C 
HETATM    5  N2  UNL     1      20.554  34.149  42.296  1.00  0.00    -0.293 N 
ATOM      6  H2  UNL     1      20.922  33.753  41.431  1.00  0.00     0.171 HD
HETATM    7  C3  UNL     1      19.444  33.529  42.881  1.00  0.00     0.220 C 
HETATM    8  C4  UNL     1      19.502  32.809  44.173  1.00  0.00     0.117 C 
HETATM    9  O1  UNL     1      18.328  33.571  42.297  1.00  0.00    -0.274 OA
HETATM   10  N3  UNL     1      22.265  35.742  42.106  1.00  0.00     0.029 N 
HETATM   11  C5  UNL     1      23.353  36.215  42.948  1.00  0.00     0.286 C 
HETATM   12  C6  UNL     1      22.578  35.183  40.821  1.00  0.00     0.320 A 
HETATM   13  C7  UNL     1      22.069  36.555  40.923  1.00  0.00     0.317 A 
HETATM   14  C8  UNL     1      20.656  36.917  40.620  1.00  0.00     0.082 C 
ENDROOT
BRANCH  13  15
HETATM   15  N4  UNL     1      23.031  37.607  40.630  1.00  0.00    -0.042 N 
ATOM     16  H43 UNL     1      23.397  37.975  41.508  1.00  0.00     0.277 HD
ATOM     17  H42 UNL     1      23.869  37.185  40.229  1.00  0.00     0.277 HD
ATOM     18  H41 UNL     1      22.740  38.387  40.041  1.00  0.00     0.277 HD
ENDBRANCH  13  15
TORSDOF 1
ENDMDL
MODEL 2
REMARK VINA RESULT: -5.483248530      3.276      4.832
REMARK  1 active torsions:
REMARK  status: ('A' for Active; 'I' for Inactive)
REMARK       I    between atoms: N1_2  and  C2_4 
REMARK       I    between atoms: C2_4  and  N3_10 
REMARK       I    between atoms: N2_5  and  C3_7 
REMARK    1  A    between atoms: C7_13  and  N4_15 
ROOT
HETATM    1  C1  UNL     1      16.069  35.206  45.396  1.00  0.00     0.149 C 
HETATM    2  N1  UNL     1      16.698  35.725  44.203  1.00  0.00    -0.360 N 
ATOM      3  H1  UNL     1      16.129  36.200  43.503  1.00  0.00     0.162 HD
HETATM    4  C2  UNL     1      18.092  35.587  43.989  1.00  0.00     0.285 C 
HETATM    5  N2  UNL     1      18.900  36.217  44.796  1.00  0.00    -0.293 N 
ATOM      6  H2  UNL     1      19.904  36.118  44.641  1.00  0.00     0.171 HD
HETATM    7  C3  UNL     1      18.478  37.020  45.862  1.00  0.00     0.220 C 
HETATM    8  C4  UNL     1      17.766  38.305  45.680  1.00  0.00     0.117 C 
HETATM    9  O1  UNL     1      18.702  36.651  47.046  1.00  0.00    -0.274 OA
HETATM   10  N3  UNL     1      18.637  34.803  42.944  1.00  0.00     0.029 N 
HETATM   11  C5  UNL     1      17.932  34.863  41.673  1.00  0.00     0.286 C 
HETATM   12  C6  UNL     1      20.062  34.625  42.937  1.00  0.00     0.320 A 
HETATM   13  C7  UNL     1      19.180  33.490  43.230  1.00  0.00     0.317 A 
HETATM   14  C8  UNL     1      18.945  32.985  44.611  1.00  0.00     0.082 C 
ENDROOT
BRANCH  13  15
HETATM   15  N4  UNL     1      19.111  32.465  42.199  1.00  0.00    -0.042 N 
ATOM     16  H43 UNL     1      18.178  32.051  42.206  1.00  0.00     0.277 HD
ATOM     17  H42 UNL     1      19.120  32.916  41.284  1.00  0.00     0.277 HD
ATOM     18  H41 UNL     1      19.803  31.716  42.205  1.00  0.00     0.277 HD
ENDBRANCH  13  15
TORSDOF 1
ENDMDL
MODEL 3
REMARK VINA RESULT: -5.378367089      4.451      6.340
REMARK  1 active torsions:
REMARK  status: ('A' for Active; 'I' for Inactive)
REMARK       I    between atoms: N1_2  and  C2_4 
REMARK       I    between atoms: C2_4  and  N3_10 
REMARK       I    between atoms: N2_5  and  C3_7 
REMARK    1  A    between atoms: C7_13  and  N4_15 
ROOT
HETATM    1  C1  UNL     1      27.551  35.276  40.466  1.00  0.00     0.149 C 
HETATM    2  N1  UNL     1      27.048  34.409  41.508  1.00  0.00    -0.360 N 
ATOM      3  H1  UNL     1      27.443  33.476  41.618  1.00  0.00     0.162 HD
HETATM    4  C2  UNL     1      26.015  34.835  42.380  1.00  0.00     0.285 C 
HETATM    5  N2  UNL     1      26.272  35.818  43.199  1.00  0.00    -0.293 N 
ATOM      6  H2  UNL     1      25.529  36.122  43.828  1.00  0.00     0.171 HD
HETATM    7  C3  UNL     1      27.503  36.480  43.269  1.00  0.00     0.220 C 
HETATM    8  C4  UNL     1      28.746  35.838  43.756  1.00  0.00     0.117 C 
HETATM    9  O1  UNL     1      27.585  37.683  42.905  1.00  0.00    -0.274 OA
HETATM   10  N3  UNL     1      24.730  34.241  42.401  1.00  0.00     0.029 N 
HETATM   11  C5  UNL     1      24.698  32.795  42.244  1.00  0.00     0.286 C 
HETATM   12  C6  UNL     1      23.735  34.870  43.222  1.00  0.00     0.320 A 
HETATM   13  C7  UNL     1      23.614  34.906  41.761  1.00  0.00     0.317 A 
HETATM   14  C8  UNL     1      23.961  36.108  40.951  1.00  0.00     0.082 C 
ENDROOT
BRANCH  13  15
HETATM   15  N4  UNL     1      22.546  34.094  41.197  1.00  0.00    -0.042 N 
ATOM     16  H43 UNL     1      21.711  34.200  41.773  1.00  0.00     0.277 HD
ATOM     17  H42 UNL     1      22.236  34.518  40.323  1.00  0.00     0.277 HD
ATOM     18  H41 UNL     1      22.715  33.101  41.041  1.00  0.00     0.277 HD
ENDBRANCH  13  15
TORSDOF 1
ENDMDL
MODEL 4
REMARK VINA RESULT: -5.327422193      3.558      5.533
REMARK  1 active torsions:
REMARK  status: ('A' for Active; 'I' for Inactive)
REMARK       I    between atoms: N1_2  and  C2_4 
REMARK       I    between atoms: C2_4  and  N3_10 
REMARK       I    between atoms: N2_5  and  C3_7 
REMARK    1  A    between atoms: C7_13  and  N4_15 
ROOT
HETATM    1  C1  UNL     1      26.342  37.521  42.792  1.00  0.00     0.149 C 
HETATM    2  N1  UNL     1      25.510  37.463  41.611  1.00  0.00    -0.360 N 
ATOM      3  H1  UNL     1      25.490  38.259  40.973  1.00  0.00     0.162 HD
HETATM    4  C2  UNL     1      24.722  36.321  41.324  1.00  0.00     0.285 C 
HETATM    5  N2  UNL     1      25.340  35.205  41.051  1.00  0.00    -0.293 N 
ATOM      6  H2  UNL     1      24.772  34.383  40.843  1.00  0.00     0.171 HD
HETATM    7  C3  UNL     1      26.732  35.063  41.025  1.00  0.00     0.220 C 
HETATM    8  C4  UNL     1      27.597  35.711  40.013  1.00  0.00     0.117 C 
HETATM    9  O1  UNL     1      27.302  34.355  41.897  1.00  0.00    -0.274 OA
HETATM   10  N3  UNL     1      23.307  36.343  41.319  1.00  0.00     0.029 N 
HETATM   11  C5  UNL     1      22.693  37.536  40.758  1.00  0.00     0.286 C 
HETATM   12  C6  UNL     1      22.636  35.082  41.166  1.00  0.00     0.320 A 
HETATM   13  C7  UNL     1      22.570  35.801  42.443  1.00  0.00     0.317 A 
HETATM   14  C8  UNL     1      23.390  35.422  43.627  1.00  0.00     0.082 C 
ENDROOT
BRANCH  13  15
HETATM   15  N4  UNL     1      21.275  36.378  42.774  1.00  0.00    -0.042 N 
ATOM     16  H43 UNL     1      20.852  35.833  43.526  1.00  0.00     0.277 HD
ATOM     17  H42 UNL     1      21.422  37.274  43.238  1.00  0.00     0.277 HD
ATOM     18  H41 UNL     1      20.588  36.501  42.030  1.00  0.00     0.277 HD
ENDBRANCH  13  15
TORSDOF 1
ENDMDL
MODEL 5
REMARK VINA RESULT: -5.271920554      2.122      4.664
REMARK  1 active torsions:
REMARK  status: ('A' for Active; 'I' for Inactive)
REMARK       I    between atoms: N1_2  and  C2_4 
REMARK       I    between atoms: C2_4  and  N3_10 
REMARK       I    between atoms: N2_5  and  C3_7 
REMARK    1  A    between atoms: C7_13  and  N4_15 
ROOT
HETATM    1  C1  UNL     1      22.410  34.560  44.575  1.00  0.00     0.149 C 
HETATM    2  N1  UNL     1      21.190  35.297  44.331  1.00  0.00    -0.360 N 
ATOM      3  H1  UNL     1      21.010  36.154  44.854  1.00  0.00     0.162 HD
HETATM    4  C2  UNL     1      20.241  34.850  43.379  1.00  0.00     0.285 C 
HETATM    5  N2  UNL     1      20.592  34.843  42.123  1.00  0.00    -0.293 N 
ATOM      6  H2  UNL     1      19.907  34.523  41.437  1.00  0.00     0.171 HD
HETATM    7  C3  UNL     1      21.847  35.247  41.655  1.00  0.00     0.220 C 
HETATM    8  C4  UNL     1      22.324  36.647  41.711  1.00  0.00     0.117 C 
HETATM    9  O1  UNL     1      22.631  34.394  41.159  1.00  0.00    -0.274 OA
HETATM   10  N3  UNL     1      18.940  34.419  43.732  1.00  0.00     0.029 N 
HETATM   11  C5  UNL     1      18.284  35.179  44.785  1.00  0.00     0.286 C 
HETATM   12  C6  UNL     1      18.137  33.847  42.688  1.00  0.00     0.320 A 
HETATM   13  C7  UNL     1      18.634  33.004  43.781  1.00  0.00     0.317 A 
HETATM   14  C8  UNL     1      19.799  32.089  43.628  1.00  0.00     0.082 C 
ENDROOT
BRANCH  13  15
HETATM   15  N4  UNL     1      17.627  32.537  44.723  1.00  0.00    -0.042 N 
ATOM     16  H43 UNL     1      18.013  31.761  45.262  1.00  0.00     0.277 HD
ATOM     17  H42 UNL     1      17.506  33.241  45.451  1.00  0.00     0.277 HD
ATOM     18  H41 UNL     1      16.710  32.267  44.368  1.00  0.00     0.277 HD
ENDBRANCH  13  15
TORSDOF 1
ENDMDL
