MODEL 1
REMARK VINA RESULT: -5.565383082      0.000      0.000
REMARK  0 active torsions:
REMARK  status: ('A' for Active; 'I' for Inactive)
REMARK       I    between atoms: N1_2  and  C2_4 
REMARK       I    between atoms: C2_4  and  N5_14 
REMARK       I    between atoms: N2_5  and  C3_7 
REMARK       I    between atoms: N4_9  and  C4_11 
ROOT
HETATM    1  C1  UNL     1      24.179  33.061  42.773  1.00  0.00     0.165 C 
HETATM    2  N1  UNL     1      23.445  33.497  41.586  1.00  0.00    -0.230 N 
ATOM      3  H1  UNL     1      23.338  32.847  40.807  1.00  0.00     0.177 HD
HETATM    4  C2  UNL     1      22.873  34.794  41.481  1.00  0.00     0.677 C 
HETATM    5  N2  UNL     1      21.593  34.904  41.239  1.00  0.00    -0.164 N 
ATOM      6  H2  UNL     1      21.032  34.059  41.131  1.00  0.00     0.187 HD
HETATM    7  C3  UNL     1      20.964  36.170  41.122  1.00  0.00     0.209 C 
HETATM    8  N3  UNL     1      21.515  37.285  40.441  1.00  0.00    -0.063 NA
HETATM    9  N4  UNL     1      19.810  36.328  41.673  1.00  0.00    -0.301 N 
ATOM     10  H4  UNL     1      19.360  37.239  41.588  1.00  0.00     0.171 HD
HETATM   11  C4  UNL     1      19.130  35.321  42.385  1.00  0.00     0.220 C 
HETATM   12  C5  UNL     1      17.944  34.691  41.770  1.00  0.00     0.117 C 
HETATM   13  O1  UNL     1      19.537  34.980  43.515  1.00  0.00    -0.274 OA
HETATM   14  N5  UNL     1      23.719  35.916  41.643  1.00  0.00    -0.227 N 
HETATM   15  C6  UNL     1      24.583  36.282  40.527  1.00  0.00     0.168 C 
HETATM   16  C7  UNL     1      23.792  36.725  42.828  1.00  0.00     0.168 C 
ENDROOT
TORSDOF 0
ENDMDL
MODEL 2
REMARK VINA RESULT: -5.524298249      1.863      2.133
REMARK  0 active torsions:
REMARK  status: ('A' for Active; 'I' for Inactive)
REMARK       I    between atoms: N1_2  and  C2_4 
REMARK       I    between atoms: C2_4  and  N5_14 
REMARK       I    between atoms: N2_5  and  C3_7 
REMARK       I    between atoms: N4_9  and  C4_11 
ROOT
HETATM    1  C1  UNL     1      24.653  32.606  42.406  1.00  0.00     0.165 C 
HETATM    2  N1  UNL     1      23.657  33.423  41.715  1.00  0.00    -0.230 N 
ATOM      3  H1  UNL     1      23.614  33.391  40.696  1.00  0.00     0.177 HD
HETATM    4  C2  UNL     1      22.745  34.260  42.414  1.00  0.00     0.677 C 
HETATM    5  N2  UNL     1      21.462  34.096  42.224  1.00  0.00    -0.164 N 
ATOM      6  H2  UNL     1      21.143  33.373  41.580  1.00  0.00     0.187 HD
HETATM    7  C3  UNL     1      20.502  34.899  42.891  1.00  0.00     0.209 C 
HETATM    8  N3  UNL     1      20.619  36.298  43.091  1.00  0.00    -0.063 NA
HETATM    9  N4  UNL     1      19.446  34.324  43.355  1.00  0.00    -0.301 N 
ATOM     10  H4  UNL     1      18.758  34.904  43.834  1.00  0.00     0.171 HD
HETATM   11  C4  UNL     1      19.182  32.946  43.240  1.00  0.00     0.220 C 
HETATM   12  C5  UNL     1      18.133  32.498  42.301  1.00  0.00     0.117 C 
HETATM   13  O1  UNL     1      19.833  32.132  43.927  1.00  0.00    -0.274 OA
HETATM   14  N5  UNL     1      23.268  35.240  43.290  1.00  0.00    -0.227 N 
HETATM   15  C6  UNL     1      23.821  36.453  42.699  1.00  0.00     0.168 C 
HETATM   16  C7  UNL     1      23.297  35.130  44.722  1.00  0.00     0.168 C 
ENDROOT
TORSDOF 0
ENDMDL
MODEL 3
REMARK VINA RESULT: -5.465825981      2.678      4.901
REMARK  0 active torsions:
REMARK  status: ('A' for Active; 'I' for Inactive)
REMARK       I    between atoms: N1_2  and  C2_4 
REMARK       I    between atoms: C2_4  and  N5_14 
REMARK       I    between atoms: N2_5  and  C3_7 
REMARK       I    between atoms: N4_9  and  C4_11 
ROOT
HETATM    1  C1  UNL     1      18.400  34.182  42.067  1.00  0.00     0.165 C 
HETATM    2  N1  UNL     1      19.689  33.627  42.477  1.00  0.00    -0.230 N 
ATOM      3  H1  UNL     1      20.003  32.750  42.061  1.00  0.00     0.177 HD
HETATM    4  C2  UNL     1      20.520  34.267  43.436  1.00  0.00     0.677 C 
HETATM    5  N2  UNL     1      21.748  34.574  43.105  1.00  0.00    -0.164 N 
ATOM      6  H2  UNL     1      22.082  34.349  42.169  1.00  0.00     0.187 HD
HETATM    7  C3  UNL     1      22.626  35.214  44.017  1.00  0.00     0.209 C 
HETATM    8  N3  UNL     1      22.738  34.889  45.393  1.00  0.00    -0.063 NA
HETATM    9  N4  UNL     1      23.379  36.161  43.573  1.00  0.00    -0.301 N 
ATOM     10  H4  UNL     1      24.009  36.618  44.230  1.00  0.00     0.171 HD
HETATM   11  C4  UNL     1      23.386  36.603  42.235  1.00  0.00     0.220 C 
HETATM   12  C5  UNL     1      24.543  36.264  41.380  1.00  0.00     0.117 C 
HETATM   13  O1  UNL     1      22.424  37.266  41.797  1.00  0.00    -0.274 OA
HETATM   14  N5  UNL     1      19.981  34.547  44.714  1.00  0.00    -0.227 N 
HETATM   15  C6  UNL     1      19.863  33.441  45.657  1.00  0.00     0.168 C 
HETATM   16  C7  UNL     1      19.539  35.841  45.154  1.00  0.00     0.168 C 
ENDROOT
TORSDOF 0
ENDMDL
MODEL 4
REMARK VINA RESULT: -5.460645194      2.503      3.220
REMARK  0 active torsions:
REMARK  status: ('A' for Active; 'I' for Inactive)
REMARK       I    between atoms: N1_2  and  C2_4 
REMARK       I    between atoms: C2_4  and  N5_14 
REMARK       I    between atoms: N2_5  and  C3_7 
REMARK       I    between atoms: N4_9  and  C4_11 
ROOT
HETATM    1  C1  UNL     1      25.729  33.046  42.998  1.00  0.00     0.165 C 
HETATM    2  N1  UNL     1      25.491  33.623  41.676  1.00  0.00    -0.230 N 
ATOM      3  H1  UNL     1      25.299  32.998  40.893  1.00  0.00     0.177 HD
HETATM    4  C2  UNL     1      25.517  35.025  41.445  1.00  0.00     0.677 C 
HETATM    5  N2  UNL     1      24.466  35.600  40.920  1.00  0.00    -0.164 N 
ATOM      6  H2  UNL     1      23.651  35.031  40.688  1.00  0.00     0.187 HD
HETATM    7  C3  UNL     1      24.430  36.994  40.665  1.00  0.00     0.209 C 
HETATM    8  N3  UNL     1      25.506  37.744  40.126  1.00  0.00    -0.063 NA
HETATM    9  N4  UNL     1      23.346  37.635  40.941  1.00  0.00    -0.301 N 
ATOM     10  H4  UNL     1      23.323  38.637  40.757  1.00  0.00     0.171 HD
HETATM   11  C4  UNL     1      22.191  37.037  41.481  1.00  0.00     0.220 C 
HETATM   12  C5  UNL     1      21.008  36.862  40.614  1.00  0.00     0.117 C 
HETATM   13  O1  UNL     1      22.185  36.667  42.674  1.00  0.00    -0.274 OA
HETATM   14  N5  UNL     1      26.684  35.743  41.795  1.00  0.00    -0.227 N 
HETATM   15  C6  UNL     1      27.834  35.645  40.903  1.00  0.00     0.168 C 
HETATM   16  C7  UNL     1      26.825  36.563  42.966  1.00  0.00     0.168 C 
ENDROOT
TORSDOF 0
ENDMDL
MODEL 5
REMARK VINA RESULT: -5.426137728      2.882      4.536
REMARK  0 active torsions:
REMARK  status: ('A' for Active; 'I' for Inactive)
REMARK       I    between atoms: N1_2  and  C2_4 
REMARK       I    between atoms: C2_4  and  N5_14 
REMARK       I    between atoms: N2_5  and  C3_7 
REMARK       I    between atoms: N4_9  and  C4_11 
ROOT
HETATM    1  C1  UNL     1      21.873  33.912  45.691  1.00  0.00     0.165 C 
HETATM    2  N1  UNL     1      20.885  34.919  45.306  1.00  0.00    -0.230 N 
ATOM      3  H1  UNL     1      20.811  35.772  45.858  1.00  0.00     0.177 HD
HETATM    4  C2  UNL     1      20.026  34.749  44.186  1.00  0.00     0.677 C 
HETATM    5  N2  UNL     1      20.027  35.656  43.244  1.00  0.00    -0.164 N 
ATOM      6  H2  UNL     1      20.642  36.465  43.332  1.00  0.00     0.187 HD
HETATM    7  C3  UNL     1      19.193  35.544  42.103  1.00  0.00     0.209 C 
HETATM    8  N3  UNL     1      17.842  35.112  42.129  1.00  0.00    -0.063 NA
HETATM    9  N4  UNL     1      19.689  35.852  40.954  1.00  0.00    -0.301 N 
ATOM     10  H4  UNL     1      19.087  35.771  40.136  1.00  0.00     0.171 HD
HETATM   11  C4  UNL     1      21.012  36.296  40.759  1.00  0.00     0.220 C 
HETATM   12  C5  UNL     1      21.244  37.718  40.432  1.00  0.00     0.117 C 
HETATM   13  O1  UNL     1      21.958  35.489  40.865  1.00  0.00    -0.274 OA
HETATM   14  N5  UNL     1      19.203  33.599  44.138  1.00  0.00    -0.227 N 
HETATM   15  C6  UNL     1      18.006  33.587  44.971  1.00  0.00     0.168 C 
HETATM   16  C7  UNL     1      19.458  32.440  43.330  1.00  0.00     0.168 C 
ENDROOT
TORSDOF 0
ENDMDL
