MODEL 1
REMARK VINA RESULT: -6.782715206      0.000      0.000
REMARK  11 active torsions:
REMARK  status: ('A' for Active; 'I' for Inactive)
REMARK    1  A    between atoms: C2_2  and  C3_3 
REMARK    2  A    between atoms: C3_3  and  C4_4 
REMARK    3  A    between atoms: C4_4  and  C5_5 
REMARK    4  A    between atoms: C5_5  and  C6_6 
REMARK    5  A    between atoms: C6_6  and  C7_7 
REMARK    6  A    between atoms: C8_8  and  C9_9 
REMARK    7  A    between atoms: C9_9  and  C10_10 
REMARK    8  A    between atoms: C10_10  and  C11_11 
REMARK    9  A    between atoms: C11_11  and  C12_12 
REMARK   10  A    between atoms: C12_12  and  C13_13 
REMARK   11  A    between atoms: C13_13  and  N1_14 
ROOT
HETATM    1  C9  UNL     1      -3.637  11.448  18.699  1.00  0.00     0.027 C 
ENDROOT
BRANCH   1   2
HETATM    2  C8  UNL     1      -2.228  11.735  18.969  1.00  0.00    -0.031 C 
HETATM    3  C7  UNL     1      -1.611  12.853  18.676  1.00  0.00    -0.031 C 
BRANCH   3   4
HETATM    4  C6  UNL     1      -2.248  13.999  18.027  1.00  0.00     0.027 C 
BRANCH   4   5
HETATM    5  C5  UNL     1      -1.516  15.290  18.345  1.00  0.00     0.004 C 
BRANCH   5   6
HETATM    6  C4  UNL     1      -2.389  16.447  17.947  1.00  0.00     0.004 C 
BRANCH   6   7
HETATM    7  C3  UNL     1      -3.607  16.036  17.191  1.00  0.00     0.026 C 
BRANCH   7   8
HETATM    8  C2  UNL     1      -4.378  17.268  16.838  1.00  0.00    -0.037 C 
HETATM    9  C1  UNL     1      -3.832  18.210  16.098  1.00  0.00     0.007 C 
ENDBRANCH   7   8
ENDBRANCH   6   7
ENDBRANCH   5   6
ENDBRANCH   4   5
ENDBRANCH   3   4
ENDBRANCH   1   2
BRANCH   1  10
HETATM   10  C10 UNL     1      -4.231  10.401  19.627  1.00  0.00     0.004 C 
BRANCH  10  11
HETATM   11  C11 UNL     1      -3.834  10.723  21.030  1.00  0.00     0.002 C 
BRANCH  11  12
HETATM   12  C12 UNL     1      -4.752  10.014  22.041  1.00  0.00     0.027 C 
BRANCH  12  13
HETATM   13  C13 UNL     1      -4.964  11.028  23.171  1.00  0.00     0.229 C 
BRANCH  13  14
HETATM   14  N1  UNL     1      -4.156  10.601  24.272  1.00  0.00    -0.079 N 
ATOM     15  H13 UNL     1      -4.322   9.630  24.539  1.00  0.00     0.274 HD
ATOM     16  H12 UNL     1      -3.170  10.501  24.031  1.00  0.00     0.274 HD
ATOM     17  H11 UNL     1      -4.317  11.260  25.033  1.00  0.00     0.274 HD
ENDBRANCH  13  14
ENDBRANCH  12  13
ENDBRANCH  11  12
ENDBRANCH  10  11
ENDBRANCH   1  10
TORSDOF 11
ENDMDL
MODEL 2
REMARK VINA RESULT: -6.775674313      0.844      1.277
REMARK  11 active torsions:
REMARK  status: ('A' for Active; 'I' for Inactive)
REMARK    1  A    between atoms: C2_2  and  C3_3 
REMARK    2  A    between atoms: C3_3  and  C4_4 
REMARK    3  A    between atoms: C4_4  and  C5_5 
REMARK    4  A    between atoms: C5_5  and  C6_6 
REMARK    5  A    between atoms: C6_6  and  C7_7 
REMARK    6  A    between atoms: C8_8  and  C9_9 
REMARK    7  A    between atoms: C9_9  and  C10_10 
REMARK    8  A    between atoms: C10_10  and  C11_11 
REMARK    9  A    between atoms: C11_11  and  C12_12 
REMARK   10  A    between atoms: C12_12  and  C13_13 
REMARK   11  A    between atoms: C13_13  and  N1_14 
ROOT
HETATM    1  C9  UNL     1      -2.865  10.427  19.789  1.00  0.00     0.027 C 
ENDROOT
BRANCH   1   2
HETATM    2  C8  UNL     1      -1.885  11.486  19.543  1.00  0.00    -0.031 C 
HETATM    3  C7  UNL     1      -2.030  12.472  18.694  1.00  0.00    -0.031 C 
BRANCH   3   4
HETATM    4  C6  UNL     1      -3.210  12.668  17.853  1.00  0.00     0.027 C 
BRANCH   4   5
HETATM    5  C5  UNL     1      -3.402  14.133  17.503  1.00  0.00     0.004 C 
BRANCH   5   6
HETATM    6  C4  UNL     1      -2.164  14.887  17.901  1.00  0.00     0.004 C 
BRANCH   6   7
HETATM    7  C3  UNL     1      -2.347  16.367  17.905  1.00  0.00     0.026 C 
BRANCH   7   8
HETATM    8  C2  UNL     1      -3.628  16.684  17.202  1.00  0.00    -0.037 C 
HETATM    9  C1  UNL     1      -3.749  17.788  16.495  1.00  0.00     0.007 C 
ENDBRANCH   7   8
ENDBRANCH   6   7
ENDBRANCH   5   6
ENDBRANCH   4   5
ENDBRANCH   3   4
ENDBRANCH   1   2
BRANCH   1  10
HETATM   10  C10 UNL     1      -3.858  10.765  20.889  1.00  0.00     0.004 C 
BRANCH  10  11
HETATM   11  C11 UNL     1      -4.297   9.497  21.545  1.00  0.00     0.002 C 
BRANCH  11  12
HETATM   12  C12 UNL     1      -5.309   9.777  22.669  1.00  0.00     0.027 C 
BRANCH  12  13
HETATM   13  C13 UNL     1      -4.806  11.054  23.353  1.00  0.00     0.229 C 
BRANCH  13  14
HETATM   14  N1  UNL     1      -4.219  10.656  24.597  1.00  0.00    -0.079 N 
ATOM     15  H13 UNL     1      -3.535   9.906  24.496  1.00  0.00     0.274 HD
ATOM     16  H12 UNL     1      -3.586  11.356  24.984  1.00  0.00     0.274 HD
ATOM     17  H11 UNL     1      -4.986  10.419  25.226  1.00  0.00     0.274 HD
ENDBRANCH  13  14
ENDBRANCH  12  13
ENDBRANCH  11  12
ENDBRANCH  10  11
ENDBRANCH   1  10
TORSDOF 11
ENDMDL
MODEL 3
REMARK VINA RESULT: -6.757035614      0.721      1.149
REMARK  11 active torsions:
REMARK  status: ('A' for Active; 'I' for Inactive)
REMARK    1  A    between atoms: C2_2  and  C3_3 
REMARK    2  A    between atoms: C3_3  and  C4_4 
REMARK    3  A    between atoms: C4_4  and  C5_5 
REMARK    4  A    between atoms: C5_5  and  C6_6 
REMARK    5  A    between atoms: C6_6  and  C7_7 
REMARK    6  A    between atoms: C8_8  and  C9_9 
REMARK    7  A    between atoms: C9_9  and  C10_10 
REMARK    8  A    between atoms: C10_10  and  C11_11 
REMARK    9  A    between atoms: C11_11  and  C12_12 
REMARK   10  A    between atoms: C12_12  and  C13_13 
REMARK   11  A    between atoms: C13_13  and  N1_14 
ROOT
HETATM    1  C9  UNL     1      -3.539  10.477  19.233  1.00  0.00     0.027 C 
ENDROOT
BRANCH   1   2
HETATM    2  C8  UNL     1      -4.021  11.525  18.332  1.00  0.00    -0.031 C 
HETATM    3  C7  UNL     1      -3.335  12.575  17.953  1.00  0.00    -0.031 C 
BRANCH   3   4
HETATM    4  C6  UNL     1      -1.965  12.860  18.378  1.00  0.00     0.027 C 
BRANCH   4   5
HETATM    5  C5  UNL     1      -1.678  14.352  18.352  1.00  0.00     0.004 C 
BRANCH   5   6
HETATM    6  C4  UNL     1      -2.845  15.052  17.714  1.00  0.00     0.004 C 
BRANCH   6   7
HETATM    7  C3  UNL     1      -2.711  16.537  17.704  1.00  0.00     0.026 C 
BRANCH   7   8
HETATM    8  C2  UNL     1      -3.930  17.115  17.059  1.00  0.00    -0.037 C 
HETATM    9  C1  UNL     1      -3.825  18.096  16.187  1.00  0.00     0.007 C 
ENDBRANCH   7   8
ENDBRANCH   6   7
ENDBRANCH   5   6
ENDBRANCH   4   5
ENDBRANCH   3   4
ENDBRANCH   1   2
BRANCH   1  10
HETATM   10  C10 UNL     1      -3.794  10.775  20.700  1.00  0.00     0.004 C 
BRANCH  10  11
HETATM   11  C11 UNL     1      -4.247   9.521  21.373  1.00  0.00     0.002 C 
BRANCH  11  12
HETATM   12  C12 UNL     1      -5.287   9.823  22.465  1.00  0.00     0.027 C 
BRANCH  12  13
HETATM   13  C13 UNL     1      -4.760  11.067  23.189  1.00  0.00     0.229 C 
BRANCH  13  14
HETATM   14  N1  UNL     1      -4.181  10.620  24.419  1.00  0.00    -0.079 N 
ATOM     15  H13 UNL     1      -4.326  11.271  25.191  1.00  0.00     0.274 HD
ATOM     16  H12 UNL     1      -4.672   9.825  24.828  1.00  0.00     0.274 HD
ATOM     17  H11 UNL     1      -3.196  10.430  24.233  1.00  0.00     0.274 HD
ENDBRANCH  13  14
ENDBRANCH  12  13
ENDBRANCH  11  12
ENDBRANCH  10  11
ENDBRANCH   1  10
TORSDOF 11
ENDMDL
MODEL 4
REMARK VINA RESULT: -6.570142797      3.037      6.930
REMARK  11 active torsions:
REMARK  status: ('A' for Active; 'I' for Inactive)
REMARK    1  A    between atoms: C2_2  and  C3_3 
REMARK    2  A    between atoms: C3_3  and  C4_4 
REMARK    3  A    between atoms: C4_4  and  C5_5 
REMARK    4  A    between atoms: C5_5  and  C6_6 
REMARK    5  A    between atoms: C6_6  and  C7_7 
REMARK    6  A    between atoms: C8_8  and  C9_9 
REMARK    7  A    between atoms: C9_9  and  C10_10 
REMARK    8  A    between atoms: C10_10  and  C11_11 
REMARK    9  A    between atoms: C11_11  and  C12_12 
REMARK   10  A    between atoms: C12_12  and  C13_13 
REMARK   11  A    between atoms: C13_13  and  N1_14 
ROOT
HETATM    1  C9  UNL     1      -2.229  14.234  17.944  1.00  0.00     0.027 C 
ENDROOT
BRANCH   1   2
HETATM    2  C8  UNL     1      -1.667  13.114  18.700  1.00  0.00    -0.031 C 
HETATM    3  C7  UNL     1      -2.189  11.916  18.781  1.00  0.00    -0.031 C 
BRANCH   3   4
HETATM    4  C6  UNL     1      -3.428  11.510  18.119  1.00  0.00     0.027 C 
BRANCH   4   5
HETATM    5  C5  UNL     1      -4.450  11.005  19.122  1.00  0.00     0.004 C 
BRANCH   5   6
HETATM    6  C4  UNL     1      -3.721  10.484  20.328  1.00  0.00     0.004 C 
BRANCH   6   7
HETATM    7  C3  UNL     1      -4.627  10.098  21.447  1.00  0.00     0.026 C 
BRANCH   7   8
HETATM    8  C2  UNL     1      -4.273  10.920  22.644  1.00  0.00    -0.037 C 
HETATM    9  C1  UNL     1      -5.214  11.388  23.438  1.00  0.00     0.007 C 
ENDBRANCH   7   8
ENDBRANCH   6   7
ENDBRANCH   5   6
ENDBRANCH   4   5
ENDBRANCH   3   4
ENDBRANCH   1   2
BRANCH   1  10
HETATM   10  C10 UNL     1      -1.632  15.580  18.321  1.00  0.00     0.004 C 
BRANCH  10  11
HETATM   11  C11 UNL     1      -2.568  16.659  17.885  1.00  0.00     0.002 C 
BRANCH  11  12
HETATM   12  C12 UNL     1      -3.778  16.073  17.137  1.00  0.00     0.027 C 
BRANCH  12  13
HETATM   13  C13 UNL     1      -4.600  17.287  16.689  1.00  0.00     0.229 C 
BRANCH  13  14
HETATM   14  N1  UNL     1      -3.678  18.236  16.144  1.00  0.00    -0.079 N 
ATOM     15  H13 UNL     1      -2.915  17.802  15.625  1.00  0.00     0.274 HD
ATOM     16  H12 UNL     1      -4.068  18.777  15.372  1.00  0.00     0.274 HD
ATOM     17  H11 UNL     1      -3.357  18.818  16.918  1.00  0.00     0.274 HD
ENDBRANCH  13  14
ENDBRANCH  12  13
ENDBRANCH  11  12
ENDBRANCH  10  11
ENDBRANCH   1  10
TORSDOF 11
ENDMDL
MODEL 5
REMARK VINA RESULT: -6.330066359      0.972      2.419
REMARK  11 active torsions:
REMARK  status: ('A' for Active; 'I' for Inactive)
REMARK    1  A    between atoms: C2_2  and  C3_3 
REMARK    2  A    between atoms: C3_3  and  C4_4 
REMARK    3  A    between atoms: C4_4  and  C5_5 
REMARK    4  A    between atoms: C5_5  and  C6_6 
REMARK    5  A    between atoms: C6_6  and  C7_7 
REMARK    6  A    between atoms: C8_8  and  C9_9 
REMARK    7  A    between atoms: C9_9  and  C10_10 
REMARK    8  A    between atoms: C10_10  and  C11_11 
REMARK    9  A    between atoms: C11_11  and  C12_12 
REMARK   10  A    between atoms: C12_12  and  C13_13 
REMARK   11  A    between atoms: C13_13  and  N1_14 
ROOT
HETATM    1  C9  UNL     1      -3.717  10.339  20.897  1.00  0.00     0.027 C 
ENDROOT
BRANCH   1   2
HETATM    2  C8  UNL     1      -4.378  10.820  19.683  1.00  0.00    -0.031 C 
HETATM    3  C7  UNL     1      -3.769  11.241  18.603  1.00  0.00    -0.031 C 
BRANCH   3   4
HETATM    4  C6  UNL     1      -2.315  11.294  18.445  1.00  0.00     0.027 C 
BRANCH   4   5
HETATM    5  C5  UNL     1      -1.753  12.611  18.948  1.00  0.00     0.004 C 
BRANCH   5   6
HETATM    6  C4  UNL     1      -2.297  13.722  18.094  1.00  0.00     0.004 C 
BRANCH   6   7
HETATM    7  C3  UNL     1      -1.423  14.930  18.066  1.00  0.00     0.026 C 
BRANCH   7   8
HETATM    8  C2  UNL     1      -2.297  16.139  17.969  1.00  0.00    -0.037 C 
HETATM    9  C1  UNL     1      -3.450  16.083  17.337  1.00  0.00     0.007 C 
ENDBRANCH   7   8
ENDBRANCH   6   7
ENDBRANCH   5   6
ENDBRANCH   4   5
ENDBRANCH   3   4
ENDBRANCH   1   2
BRANCH   1  10
HETATM   10  C10 UNL     1      -4.675   9.740  21.912  1.00  0.00     0.004 C 
BRANCH  10  11
HETATM   11  C11 UNL     1      -5.671  10.781  22.304  1.00  0.00     0.002 C 
BRANCH  11  12
HETATM   12  C12 UNL     1      -5.238  11.506  23.590  1.00  0.00     0.027 C 
BRANCH  12  13
HETATM   13  C13 UNL     1      -4.530  10.439  24.433  1.00  0.00     0.229 C 
BRANCH  13  14
HETATM   14  N1  UNL     1      -4.410  10.968  25.758  1.00  0.00    -0.079 N 
ATOM     15  H13 UNL     1      -3.447  11.180  26.020  1.00  0.00     0.274 HD
ATOM     16  H12 UNL     1      -4.779  11.914  25.848  1.00  0.00     0.274 HD
ATOM     17  H11 UNL     1      -4.859  10.301  26.386  1.00  0.00     0.274 HD
ENDBRANCH  13  14
ENDBRANCH  12  13
ENDBRANCH  11  12
ENDBRANCH  10  11
ENDBRANCH   1  10
TORSDOF 11
ENDMDL
