MODEL 1
REMARK VINA RESULT: -6.808987849      0.000      0.000
REMARK  9 active torsions:
REMARK  status: ('A' for Active; 'I' for Inactive)
REMARK    1  A    between atoms: C2_2  and  C3_3 
REMARK    2  A    between atoms: C3_3  and  C4_4 
REMARK    3  A    between atoms: C4_4  and  C5_5 
REMARK    4  A    between atoms: C5_5  and  C6_6 
REMARK    5  A    between atoms: C6_6  and  C7_7 
REMARK    6  A    between atoms: C7_7  and  C8_8 
REMARK    7  A    between atoms: C8_8  and  C9_9 
REMARK    8  A    between atoms: C9_9  and  N1_10 
REMARK    9  A    between atoms: N1_10  and  C10_12 
ROOT
HETATM    1  C8  UNL     1      -1.932  11.602  19.898  1.00  0.00     0.044 C 
ENDROOT
BRANCH   1   2
HETATM    2  C7  UNL     1      -1.833  12.405  18.620  1.00  0.00     0.005 C 
BRANCH   2   3
HETATM    3  C6  UNL     1      -3.149  12.687  17.970  1.00  0.00     0.000 C 
BRANCH   3   4
HETATM    4  C5  UNL     1      -3.348  14.117  17.561  1.00  0.00     0.000 C 
BRANCH   4   5
HETATM    5  C4  UNL     1      -2.097  14.908  17.895  1.00  0.00     0.004 C 
BRANCH   5   6
HETATM    6  C3  UNL     1      -2.424  16.406  17.905  1.00  0.00     0.026 C 
BRANCH   6   7
HETATM    7  C2  UNL     1      -3.675  16.687  17.182  1.00  0.00    -0.037 C 
HETATM    8  C1  UNL     1      -3.855  17.784  16.462  1.00  0.00     0.007 C 
ENDBRANCH   6   7
ENDBRANCH   5   6
ENDBRANCH   4   5
ENDBRANCH   3   4
ENDBRANCH   2   3
ENDBRANCH   1   2
BRANCH   1   9
HETATM    9  C9  UNL     1      -3.174  10.788  19.928  1.00  0.00     0.056 C 
BRANCH   9  10
HETATM   10  N1  UNL     1      -3.146   9.426  19.707  1.00  0.00    -0.398 N 
ATOM     11  H1  UNL     1      -3.985   8.900  19.951  1.00  0.00     0.159 HD
BRANCH  10  12
HETATM   12  C10 UNL     1      -2.088   8.708  19.187  1.00  0.00     0.080 C 
HETATM   13  C11 UNL     1      -1.862   7.333  19.766  1.00  0.00     0.025 C 
HETATM   14  C12 UNL     1      -1.221   6.604  18.601  1.00  0.00     0.002 C 
HETATM   15  C13 UNL     1      -2.148   7.081  17.469  1.00  0.00     0.002 C 
HETATM   16  C14 UNL     1      -2.036   8.584  17.698  1.00  0.00     0.025 C 
ENDBRANCH  10  12
ENDBRANCH   9  10
ENDBRANCH   1   9
TORSDOF 9
ENDMDL
MODEL 2
REMARK VINA RESULT: -6.694473521      0.612      1.026
REMARK  9 active torsions:
REMARK  status: ('A' for Active; 'I' for Inactive)
REMARK    1  A    between atoms: C2_2  and  C3_3 
REMARK    2  A    between atoms: C3_3  and  C4_4 
REMARK    3  A    between atoms: C4_4  and  C5_5 
REMARK    4  A    between atoms: C5_5  and  C6_6 
REMARK    5  A    between atoms: C6_6  and  C7_7 
REMARK    6  A    between atoms: C7_7  and  C8_8 
REMARK    7  A    between atoms: C8_8  and  C9_9 
REMARK    8  A    between atoms: C9_9  and  N1_10 
REMARK    9  A    between atoms: N1_10  and  C10_12 
ROOT
HETATM    1  C8  UNL     1      -4.246  11.206  18.733  1.00  0.00     0.044 C 
ENDROOT
BRANCH   1   2
HETATM    2  C7  UNL     1      -3.475  12.223  17.922  1.00  0.00     0.005 C 
BRANCH   2   3
HETATM    3  C6  UNL     1      -2.178  12.640  18.536  1.00  0.00     0.000 C 
BRANCH   3   4
HETATM    4  C5  UNL     1      -1.811  14.076  18.303  1.00  0.00     0.000 C 
BRANCH   4   5
HETATM    5  C4  UNL     1      -2.980  14.788  17.650  1.00  0.00     0.004 C 
BRANCH   5   6
HETATM    6  C3  UNL     1      -2.706  16.296  17.606  1.00  0.00     0.026 C 
BRANCH   6   7
HETATM    7  C2  UNL     1      -3.887  17.043  17.143  1.00  0.00    -0.037 C 
HETATM    8  C1  UNL     1      -3.812  18.019  16.250  1.00  0.00     0.007 C 
ENDBRANCH   6   7
ENDBRANCH   5   6
ENDBRANCH   4   5
ENDBRANCH   3   4
ENDBRANCH   2   3
ENDBRANCH   1   2
BRANCH   1   9
HETATM    9  C9  UNL     1      -3.395  10.603  19.791  1.00  0.00     0.056 C 
BRANCH   9  10
HETATM   10  N1  UNL     1      -3.146   9.245  19.827  1.00  0.00    -0.398 N 
ATOM     11  H1  UNL     1      -3.823   8.664  20.321  1.00  0.00     0.159 HD
BRANCH  10  12
HETATM   12  C10 UNL     1      -2.067   8.601  19.256  1.00  0.00     0.080 C 
HETATM   13  C11 UNL     1      -1.754   7.222  19.784  1.00  0.00     0.025 C 
HETATM   14  C12 UNL     1      -1.109   6.565  18.581  1.00  0.00     0.002 C 
HETATM   15  C13 UNL     1      -2.091   7.026  17.490  1.00  0.00     0.002 C 
HETATM   16  C14 UNL     1      -2.051   8.526  17.763  1.00  0.00     0.025 C 
ENDBRANCH  10  12
ENDBRANCH   9  10
ENDBRANCH   1   9
TORSDOF 9
ENDMDL
MODEL 3
REMARK VINA RESULT: -6.619172635      0.888      1.703
REMARK  9 active torsions:
REMARK  status: ('A' for Active; 'I' for Inactive)
REMARK    1  A    between atoms: C2_2  and  C3_3 
REMARK    2  A    between atoms: C3_3  and  C4_4 
REMARK    3  A    between atoms: C4_4  and  C5_5 
REMARK    4  A    between atoms: C5_5  and  C6_6 
REMARK    5  A    between atoms: C6_6  and  C7_7 
REMARK    6  A    between atoms: C7_7  and  C8_8 
REMARK    7  A    between atoms: C8_8  and  C9_9 
REMARK    8  A    between atoms: C9_9  and  N1_10 
REMARK    9  A    between atoms: N1_10  and  C10_12 
ROOT
HETATM    1  C8  UNL     1      -3.283  11.884  18.233  1.00  0.00     0.044 C 
ENDROOT
BRANCH   1   2
HETATM    2  C7  UNL     1      -3.061  13.333  17.858  1.00  0.00     0.005 C 
BRANCH   2   3
HETATM    3  C6  UNL     1      -1.735  13.878  18.280  1.00  0.00     0.000 C 
BRANCH   3   4
HETATM    4  C5  UNL     1      -1.652  15.376  18.290  1.00  0.00     0.000 C 
BRANCH   4   5
HETATM    5  C4  UNL     1      -2.416  15.924  17.099  1.00  0.00     0.004 C 
BRANCH   5   6
HETATM    6  C3  UNL     1      -3.289  17.102  17.547  1.00  0.00     0.026 C 
BRANCH   6   7
HETATM    7  C2  UNL     1      -4.102  17.620  16.434  1.00  0.00    -0.037 C 
HETATM    8  C1  UNL     1      -3.754  18.685  15.728  1.00  0.00     0.007 C 
ENDBRANCH   6   7
ENDBRANCH   5   6
ENDBRANCH   4   5
ENDBRANCH   3   4
ENDBRANCH   2   3
ENDBRANCH   1   2
BRANCH   1   9
HETATM    9  C9  UNL     1      -2.026  11.252  18.709  1.00  0.00     0.056 C 
BRANCH   9  10
HETATM   10  N1  UNL     1      -2.039  10.053  19.394  1.00  0.00    -0.398 N 
ATOM     11  H1  UNL     1      -1.708  10.069  20.359  1.00  0.00     0.159 HD
BRANCH  10  12
HETATM   12  C10 UNL     1      -2.458   8.837  18.896  1.00  0.00     0.080 C 
HETATM   13  C11 UNL     1      -1.905   8.437  17.551  1.00  0.00     0.025 C 
HETATM   14  C12 UNL     1      -1.928   6.924  17.639  1.00  0.00     0.002 C 
HETATM   15  C13 UNL     1      -1.354   6.749  19.056  1.00  0.00     0.002 C 
HETATM   16  C14 UNL     1      -2.317   7.660  19.809  1.00  0.00     0.025 C 
ENDBRANCH  10  12
ENDBRANCH   9  10
ENDBRANCH   1   9
TORSDOF 9
ENDMDL
MODEL 4
REMARK VINA RESULT: -6.609757666      0.848      1.511
REMARK  9 active torsions:
REMARK  status: ('A' for Active; 'I' for Inactive)
REMARK    1  A    between atoms: C2_2  and  C3_3 
REMARK    2  A    between atoms: C3_3  and  C4_4 
REMARK    3  A    between atoms: C4_4  and  C5_5 
REMARK    4  A    between atoms: C5_5  and  C6_6 
REMARK    5  A    between atoms: C6_6  and  C7_7 
REMARK    6  A    between atoms: C7_7  and  C8_8 
REMARK    7  A    between atoms: C8_8  and  C9_9 
REMARK    8  A    between atoms: C9_9  and  N1_10 
REMARK    9  A    between atoms: N1_10  and  C10_12 
ROOT
HETATM    1  C8  UNL     1      -4.257  11.165  18.654  1.00  0.00     0.044 C 
ENDROOT
BRANCH   1   2
HETATM    2  C7  UNL     1      -3.337  11.847  17.665  1.00  0.00     0.005 C 
BRANCH   2   3
HETATM    3  C6  UNL     1      -3.188  13.318  17.881  1.00  0.00     0.000 C 
BRANCH   3   4
HETATM    4  C5  UNL     1      -1.821  13.748  18.324  1.00  0.00     0.000 C 
BRANCH   4   5
HETATM    5  C4  UNL     1      -1.720  15.259  18.229  1.00  0.00     0.004 C 
BRANCH   5   6
HETATM    6  C3  UNL     1      -2.586  15.760  17.068  1.00  0.00     0.026 C 
BRANCH   6   7
HETATM    7  C2  UNL     1      -3.266  17.021  17.411  1.00  0.00    -0.037 C 
HETATM    8  C1  UNL     1      -4.275  17.506  16.703  1.00  0.00     0.007 C 
ENDBRANCH   6   7
ENDBRANCH   5   6
ENDBRANCH   4   5
ENDBRANCH   3   4
ENDBRANCH   2   3
ENDBRANCH   1   2
BRANCH   1   9
HETATM    9  C9  UNL     1      -3.506  10.668  19.835  1.00  0.00     0.056 C 
BRANCH   9  10
HETATM   10  N1  UNL     1      -2.526   9.704  19.709  1.00  0.00    -0.398 N 
ATOM     11  H1  UNL     1      -1.601   9.935  20.072  1.00  0.00     0.159 HD
BRANCH  10  12
HETATM   12  C10 UNL     1      -2.681   8.457  19.140  1.00  0.00     0.080 C 
HETATM   13  C11 UNL     1      -2.028   8.248  17.795  1.00  0.00     0.025 C 
HETATM   14  C12 UNL     1      -1.748   6.759  17.810  1.00  0.00     0.002 C 
HETATM   15  C13 UNL     1      -1.183   6.627  19.235  1.00  0.00     0.002 C 
HETATM   16  C14 UNL     1      -2.326   7.285  19.999  1.00  0.00     0.025 C 
ENDBRANCH  10  12
ENDBRANCH   9  10
ENDBRANCH   1   9
TORSDOF 9
ENDMDL
MODEL 5
REMARK VINA RESULT: -6.595601553      0.842      1.307
REMARK  9 active torsions:
REMARK  status: ('A' for Active; 'I' for Inactive)
REMARK    1  A    between atoms: C2_2  and  C3_3 
REMARK    2  A    between atoms: C3_3  and  C4_4 
REMARK    3  A    between atoms: C4_4  and  C5_5 
REMARK    4  A    between atoms: C5_5  and  C6_6 
REMARK    5  A    between atoms: C6_6  and  C7_7 
REMARK    6  A    between atoms: C7_7  and  C8_8 
REMARK    7  A    between atoms: C8_8  and  C9_9 
REMARK    8  A    between atoms: C9_9  and  N1_10 
REMARK    9  A    between atoms: N1_10  and  C10_12 
ROOT
HETATM    1  C8  UNL     1      -1.472  11.555  19.027  1.00  0.00     0.044 C 
ENDROOT
BRANCH   1   2
HETATM    2  C7  UNL     1      -1.799  12.981  18.642  1.00  0.00     0.005 C 
BRANCH   2   3
HETATM    3  C6  UNL     1      -3.075  13.132  17.878  1.00  0.00     0.000 C 
BRANCH   3   4
HETATM    4  C5  UNL     1      -3.410  14.544  17.497  1.00  0.00     0.000 C 
BRANCH   4   5
HETATM    5  C4  UNL     1      -2.219  15.435  17.796  1.00  0.00     0.004 C 
BRANCH   5   6
HETATM    6  C3  UNL     1      -2.682  16.892  17.907  1.00  0.00     0.026 C 
BRANCH   6   7
HETATM    7  C2  UNL     1      -3.839  17.155  17.036  1.00  0.00    -0.037 C 
HETATM    8  C1  UNL     1      -3.848  18.122  16.130  1.00  0.00     0.007 C 
ENDBRANCH   6   7
ENDBRANCH   5   6
ENDBRANCH   4   5
ENDBRANCH   3   4
ENDBRANCH   2   3
ENDBRANCH   1   2
BRANCH   1   9
HETATM    9  C9  UNL     1      -2.260  10.586  18.223  1.00  0.00     0.056 C 
BRANCH   9  10
HETATM   10  N1  UNL     1      -3.034   9.614  18.826  1.00  0.00    -0.398 N 
ATOM     11  H1  UNL     1      -3.778   9.934  19.446  1.00  0.00     0.159 HD
BRANCH  10  12
HETATM   12  C10 UNL     1      -2.895   8.250  18.668  1.00  0.00     0.080 C 
HETATM   13  C11 UNL     1      -1.945   7.794  17.588  1.00  0.00     0.025 C 
HETATM   14  C12 UNL     1      -1.480   6.455  18.125  1.00  0.00     0.002 C 
HETATM   15  C13 UNL     1      -1.224   6.850  19.590  1.00  0.00     0.002 C 
HETATM   16  C14 UNL     1      -2.583   7.466  19.903  1.00  0.00     0.025 C 
ENDBRANCH  10  12
ENDBRANCH   9  10
ENDBRANCH   1   9
TORSDOF 9
ENDMDL
