MODEL 1
REMARK VINA RESULT: -7.122099825      0.000      0.000
REMARK  7 active torsions:
REMARK  status: ('A' for Active; 'I' for Inactive)
REMARK    1  A    between atoms: C2_2  and  C3_3 
REMARK    2  A    between atoms: C3_3  and  C4_4 
REMARK    3  A    between atoms: C4_4  and  O1_5 
REMARK    4  A    between atoms: O1_5  and  C5_6 
REMARK    5  A    between atoms: C8_9  and  C9_10 
REMARK    6  A    between atoms: C9_10  and  C11_12 
REMARK    7  A    between atoms: C11_12  and  O2_14 
ROOT
HETATM    1  C5  UNL     1      -2.921  10.720  18.323  1.00  0.00     0.121 C 
HETATM    2  C6  UNL     1      -4.090  11.679  18.391  1.00  0.00     0.032 C 
HETATM    3  C7  UNL     1      -3.724  12.803  17.414  1.00  0.00     0.007 C 
HETATM    4  C8  UNL     1      -2.484  13.497  17.920  1.00  0.00    -0.008 C 
HETATM    5  C13 UNL     1      -1.816  12.822  19.054  1.00  0.00     0.007 C 
HETATM    6  C14 UNL     1      -1.784  11.339  19.052  1.00  0.00     0.032 C 
ENDROOT
BRANCH   4   7
HETATM    7  C9  UNL     1      -2.910  14.897  18.294  1.00  0.00     0.014 C 
HETATM    8  C10 UNL     1      -1.735  15.789  18.622  1.00  0.00     0.013 C 
BRANCH   7   9
HETATM    9  C11 UNL     1      -3.853  15.538  17.333  1.00  0.00     0.118 C 
HETATM   10  C12 UNL     1      -3.729  17.055  17.537  1.00  0.00     0.040 C 
BRANCH   9  11
HETATM   11  O2  UNL     1      -3.470  15.341  15.997  1.00  0.00    -0.396 OA
ATOM     12  H2  UNL     1      -2.612  15.703  15.811  1.00  0.00     0.210 HD
ENDBRANCH   9  11
ENDBRANCH   7   9
ENDBRANCH   4   7
BRANCH   1  13
HETATM   13  O1  UNL     1      -3.252   9.452  18.763  1.00  0.00    -0.386 OA
BRANCH  13  14
HETATM   14  C4  UNL     1      -2.258   8.854  19.524  1.00  0.00     0.168 C 
BRANCH  14  15
HETATM   15  C3  UNL     1      -1.831   7.597  18.754  1.00  0.00     0.026 C 
BRANCH  15  16
HETATM   16  C2  UNL     1      -1.316   6.631  19.833  1.00  0.00    -0.002 C 
HETATM   17  C1  UNL     1       0.007   6.098  19.403  1.00  0.00     0.005 C 
ENDBRANCH  15  16
ENDBRANCH  14  15
ENDBRANCH  13  14
ENDBRANCH   1  13
TORSDOF 7
ENDMDL
MODEL 2
REMARK VINA RESULT: -7.052958048      1.076      1.788
REMARK  7 active torsions:
REMARK  status: ('A' for Active; 'I' for Inactive)
REMARK    1  A    between atoms: C2_2  and  C3_3 
REMARK    2  A    between atoms: C3_3  and  C4_4 
REMARK    3  A    between atoms: C4_4  and  O1_5 
REMARK    4  A    between atoms: O1_5  and  C5_6 
REMARK    5  A    between atoms: C8_9  and  C9_10 
REMARK    6  A    between atoms: C9_10  and  C11_12 
REMARK    7  A    between atoms: C11_12  and  O2_14 
ROOT
HETATM    1  C5  UNL     1      -2.683  10.978  19.049  1.00  0.00     0.121 C 
HETATM    2  C6  UNL     1      -1.680  11.926  18.426  1.00  0.00     0.032 C 
HETATM    3  C7  UNL     1      -2.185  13.324  18.804  1.00  0.00     0.007 C 
HETATM    4  C8  UNL     1      -3.534  13.538  18.164  1.00  0.00    -0.008 C 
HETATM    5  C13 UNL     1      -4.125  12.332  17.546  1.00  0.00     0.007 C 
HETATM    6  C14 UNL     1      -3.926  11.035  18.237  1.00  0.00     0.032 C 
ENDROOT
BRANCH   4   7
HETATM    7  C9  UNL     1      -3.343  14.636  17.143  1.00  0.00     0.014 C 
HETATM    8  C10 UNL     1      -3.760  14.209  15.754  1.00  0.00     0.013 C 
BRANCH   7   9
HETATM    9  C11 UNL     1      -3.928  15.952  17.528  1.00  0.00     0.118 C 
HETATM   10  C12 UNL     1      -2.754  16.857  17.931  1.00  0.00     0.040 C 
BRANCH   9  11
HETATM   11  O2  UNL     1      -4.512  16.616  16.437  1.00  0.00    -0.396 OA
ATOM     12  H2  UNL     1      -4.935  17.427  16.693  1.00  0.00     0.210 HD
ENDBRANCH   9  11
ENDBRANCH   7   9
ENDBRANCH   4   7
BRANCH   1  13
HETATM   13  O1  UNL     1      -2.173   9.704  19.214  1.00  0.00    -0.386 OA
BRANCH  13  14
HETATM   14  C4  UNL     1      -2.124   8.972  18.037  1.00  0.00     0.168 C 
BRANCH  14  15
HETATM   15  C3  UNL     1      -2.371   7.511  18.433  1.00  0.00     0.026 C 
BRANCH  15  16
HETATM   16  C2  UNL     1      -1.621   7.330  19.761  1.00  0.00    -0.002 C 
HETATM   17  C1  UNL     1      -0.508   6.363  19.552  1.00  0.00     0.005 C 
ENDBRANCH  15  16
ENDBRANCH  14  15
ENDBRANCH  13  14
ENDBRANCH   1  13
TORSDOF 7
ENDMDL
MODEL 3
REMARK VINA RESULT: -6.999499560      1.620      7.106
REMARK  7 active torsions:
REMARK  status: ('A' for Active; 'I' for Inactive)
REMARK    1  A    between atoms: C2_2  and  C3_3 
REMARK    2  A    between atoms: C3_3  and  C4_4 
REMARK    3  A    between atoms: C4_4  and  O1_5 
REMARK    4  A    between atoms: O1_5  and  C5_6 
REMARK    5  A    between atoms: C8_9  and  C9_10 
REMARK    6  A    between atoms: C9_10  and  C11_12 
REMARK    7  A    between atoms: C11_12  and  O2_14 
ROOT
HETATM    1  C5  UNL     1      -3.411  13.953  18.093  1.00  0.00     0.121 C 
HETATM    2  C6  UNL     1      -3.877  12.825  17.198  1.00  0.00     0.032 C 
HETATM    3  C7  UNL     1      -4.307  11.717  18.167  1.00  0.00     0.007 C 
HETATM    4  C8  UNL     1      -3.097  11.263  18.946  1.00  0.00    -0.008 C 
HETATM    5  C13 UNL     1      -1.894  12.104  18.768  1.00  0.00     0.007 C 
HETATM    6  C14 UNL     1      -2.089  13.570  18.653  1.00  0.00     0.032 C 
ENDROOT
BRANCH   4   7
HETATM    7  C9  UNL     1      -2.834   9.838  18.519  1.00  0.00     0.014 C 
HETATM    8  C10 UNL     1      -1.627   9.721  17.616  1.00  0.00     0.013 C 
BRANCH   7   9
HETATM    9  C11 UNL     1      -2.800   8.850  19.635  1.00  0.00     0.118 C 
HETATM   10  C12 UNL     1      -3.664   7.658  19.197  1.00  0.00     0.040 C 
BRANCH   9  11
HETATM   11  O2  UNL     1      -1.522   8.296  19.819  1.00  0.00    -0.396 OA
ATOM     12  H2  UNL     1      -1.443   7.838  20.648  1.00  0.00     0.210 HD
ENDBRANCH   9  11
ENDBRANCH   7   9
ENDBRANCH   4   7
BRANCH   1  13
HETATM   13  O1  UNL     1      -3.420  15.176  17.448  1.00  0.00    -0.386 OA
BRANCH  13  14
HETATM   14  C4  UNL     1      -2.492  16.074  17.955  1.00  0.00     0.168 C 
BRANCH  14  15
HETATM   15  C3  UNL     1      -3.208  17.428  18.034  1.00  0.00     0.026 C 
BRANCH  15  16
HETATM   16  C2  UNL     1      -4.141  17.452  16.813  1.00  0.00    -0.002 C 
HETATM   17  C1  UNL     1      -3.827  18.657  15.996  1.00  0.00     0.005 C 
ENDBRANCH  15  16
ENDBRANCH  14  15
ENDBRANCH  13  14
ENDBRANCH   1  13
TORSDOF 7
ENDMDL
MODEL 4
REMARK VINA RESULT: -6.987103796      1.830      7.300
REMARK  7 active torsions:
REMARK  status: ('A' for Active; 'I' for Inactive)
REMARK    1  A    between atoms: C2_2  and  C3_3 
REMARK    2  A    between atoms: C3_3  and  C4_4 
REMARK    3  A    between atoms: C4_4  and  O1_5 
REMARK    4  A    between atoms: O1_5  and  C5_6 
REMARK    5  A    between atoms: C8_9  and  C9_10 
REMARK    6  A    between atoms: C9_10  and  C11_12 
REMARK    7  A    between atoms: C11_12  and  O2_14 
ROOT
HETATM    1  C5  UNL     1      -3.732  15.120  17.375  1.00  0.00     0.121 C 
HETATM    2  C6  UNL     1      -3.623  13.746  16.749  1.00  0.00     0.032 C 
HETATM    3  C7  UNL     1      -3.791  12.774  17.924  1.00  0.00     0.007 C 
HETATM    4  C8  UNL     1      -2.643  12.974  18.882  1.00  0.00    -0.008 C 
HETATM    5  C13 UNL     1      -1.797  14.152  18.598  1.00  0.00     0.007 C 
HETATM    6  C14 UNL     1      -2.469  15.382  18.113  1.00  0.00     0.032 C 
ENDROOT
BRANCH   4   7
HETATM    7  C9  UNL     1      -1.834  11.699  18.838  1.00  0.00     0.014 C 
HETATM    8  C10 UNL     1      -0.830  11.615  19.965  1.00  0.00     0.013 C 
BRANCH   7   9
HETATM    9  C11 UNL     1      -2.643  10.452  18.711  1.00  0.00     0.118 C 
HETATM   10  C12 UNL     1      -2.003   9.624  17.586  1.00  0.00     0.040 C 
BRANCH   9  11
HETATM   11  O2  UNL     1      -2.537   9.629  19.843  1.00  0.00    -0.396 OA
ATOM     12  H2  UNL     1      -3.329   9.634  20.368  1.00  0.00     0.210 HD
ENDBRANCH   9  11
ENDBRANCH   7   9
ENDBRANCH   4   7
BRANCH   1  13
HETATM   13  O1  UNL     1      -4.061  16.095  16.452  1.00  0.00    -0.386 OA
BRANCH  13  14
HETATM   14  C4  UNL     1      -4.935  17.052  16.948  1.00  0.00     0.168 C 
BRANCH  14  15
HETATM   15  C3  UNL     1      -4.108  18.332  17.128  1.00  0.00     0.026 C 
BRANCH  15  16
HETATM   16  C2  UNL     1      -3.404  18.539  15.778  1.00  0.00    -0.002 C 
HETATM   17  C1  UNL     1      -4.082  19.648  15.051  1.00  0.00     0.005 C 
ENDBRANCH  15  16
ENDBRANCH  14  15
ENDBRANCH  13  14
ENDBRANCH   1  13
TORSDOF 7
ENDMDL
MODEL 5
REMARK VINA RESULT: -6.978676647      0.845      1.086
REMARK  7 active torsions:
REMARK  status: ('A' for Active; 'I' for Inactive)
REMARK    1  A    between atoms: C2_2  and  C3_3 
REMARK    2  A    between atoms: C3_3  and  C4_4 
REMARK    3  A    between atoms: C4_4  and  O1_5 
REMARK    4  A    between atoms: O1_5  and  C5_6 
REMARK    5  A    between atoms: C8_9  and  C9_10 
REMARK    6  A    between atoms: C9_10  and  C11_12 
REMARK    7  A    between atoms: C11_12  and  O2_14 
ROOT
HETATM    1  C5  UNL     1      -2.994  10.792  18.345  1.00  0.00     0.121 C 
HETATM    2  C6  UNL     1      -4.143  11.769  18.461  1.00  0.00     0.032 C 
HETATM    3  C7  UNL     1      -3.809  12.877  17.455  1.00  0.00     0.007 C 
HETATM    4  C8  UNL     1      -2.535  13.557  17.891  1.00  0.00    -0.008 C 
HETATM    5  C13 UNL     1      -1.822  12.883  18.998  1.00  0.00     0.007 C 
HETATM    6  C14 UNL     1      -1.812  11.400  19.010  1.00  0.00     0.032 C 
ENDROOT
BRANCH   4   7
HETATM    7  C9  UNL     1      -2.921  14.967  18.270  1.00  0.00     0.014 C 
HETATM    8  C10 UNL     1      -1.729  15.796  18.694  1.00  0.00     0.013 C 
BRANCH   7   9
HETATM    9  C11 UNL     1      -3.769  15.671  17.267  1.00  0.00     0.118 C 
HETATM   10  C12 UNL     1      -3.662  17.173  17.573  1.00  0.00     0.040 C 
BRANCH   9  11
HETATM   11  O2  UNL     1      -3.262  15.553  15.962  1.00  0.00    -0.396 OA
ATOM     12  H2  UNL     1      -3.933  15.679  15.302  1.00  0.00     0.210 HD
ENDBRANCH   9  11
ENDBRANCH   7   9
ENDBRANCH   4   7
BRANCH   1  13
HETATM   13  O1  UNL     1      -3.322   9.534  18.816  1.00  0.00    -0.386 OA
BRANCH  13  14
HETATM   14  C4  UNL     1      -2.358   8.988  19.652  1.00  0.00     0.168 C 
BRANCH  14  15
HETATM   15  C3  UNL     1      -2.473   7.465  19.497  1.00  0.00     0.026 C 
BRANCH  15  16
HETATM   16  C2  UNL     1      -2.368   7.214  17.984  1.00  0.00    -0.002 C 
HETATM   17  C1  UNL     1      -3.104   5.961  17.657  1.00  0.00     0.005 C 
ENDBRANCH  15  16
ENDBRANCH  14  15
ENDBRANCH  13  14
ENDBRANCH   1  13
TORSDOF 7
ENDMDL
