MODEL 1
REMARK VINA RESULT: -6.109529150      0.000      0.000
REMARK  6 active torsions:
REMARK  status: ('A' for Active; 'I' for Inactive)
REMARK    1  A    between atoms: C2_2  and  C3_3 
REMARK    2  A    between atoms: C3_3  and  O1_4 
REMARK    3  A    between atoms: O1_4  and  C4_5 
REMARK    4  A    between atoms: C4_5  and  C5_6 
REMARK    5  A    between atoms: C5_6  and  O2_7 
REMARK    6  A    between atoms: O2_7  and  C6_8 
ROOT
HETATM    1  C6  UNL     1      -3.444  13.860  17.536  1.00  0.00     0.075 A 
HETATM    2  C7  UNL     1      -4.269  14.778  16.926  1.00  0.00     0.044 A 
HETATM    3  C8  UNL     1      -4.081  16.159  16.997  1.00  0.00    -0.059 A 
HETATM    4  C9  UNL     1      -5.004  17.104  16.319  1.00  0.00     0.048 C 
HETATM    5  C10 UNL     1      -2.997  16.590  17.728  1.00  0.00     0.014 A 
HETATM    6  C11 UNL     1      -2.166  15.678  18.342  1.00  0.00    -0.053 A 
HETATM    7  C12 UNL     1      -1.011  16.198  19.117  1.00  0.00     0.049 C 
HETATM    8  C13 UNL     1      -2.340  14.326  18.279  1.00  0.00    -0.023 A 
HETATM    9  C14 UNL     1      -1.443  13.351  18.940  1.00  0.00     0.052 C 
ENDROOT
BRANCH   1  10
HETATM   10  O2  UNL     1      -3.623  12.522  17.467  1.00  0.00    -0.348 OA
BRANCH  10  11
HETATM   11  C5  UNL     1      -4.189  11.570  18.283  1.00  0.00     0.201 C 
BRANCH  11  12
HETATM   12  C4  UNL     1      -3.387  10.307  18.279  1.00  0.00     0.194 C 
BRANCH  12  13
HETATM   13  O1  UNL     1      -2.651  10.100  19.413  1.00  0.00    -0.389 OA
BRANCH  13  14
HETATM   14  C3  UNL     1      -2.361   8.815  19.753  1.00  0.00     0.167 C 
BRANCH  14  15
HETATM   15  C2  UNL     1      -1.933   7.907  18.652  1.00  0.00     0.022 C 
HETATM   16  C1  UNL     1      -1.184   6.691  19.146  1.00  0.00     0.007 C 
ENDBRANCH  14  15
ENDBRANCH  13  14
ENDBRANCH  12  13
ENDBRANCH  11  12
ENDBRANCH  10  11
ENDBRANCH   1  10
TORSDOF 6
ENDMDL
MODEL 2
REMARK VINA RESULT: -5.780046672      1.422      2.054
REMARK  6 active torsions:
REMARK  status: ('A' for Active; 'I' for Inactive)
REMARK    1  A    between atoms: C2_2  and  C3_3 
REMARK    2  A    between atoms: C3_3  and  O1_4 
REMARK    3  A    between atoms: O1_4  and  C4_5 
REMARK    4  A    between atoms: C4_5  and  C5_6 
REMARK    5  A    between atoms: C5_6  and  O2_7 
REMARK    6  A    between atoms: O2_7  and  C6_8 
ROOT
HETATM    1  C6  UNL     1      -3.103  12.264  17.863  1.00  0.00     0.075 A 
HETATM    2  C7  UNL     1      -3.778  12.709  16.749  1.00  0.00     0.044 A 
HETATM    3  C8  UNL     1      -3.728  14.025  16.284  1.00  0.00    -0.059 A 
HETATM    4  C9  UNL     1      -4.479  14.450  15.076  1.00  0.00     0.048 C 
HETATM    5  C10 UNL     1      -2.947  14.897  17.007  1.00  0.00     0.014 A 
HETATM    6  C11 UNL     1      -2.266  14.460  18.123  1.00  0.00    -0.053 A 
HETATM    7  C12 UNL     1      -1.437  15.443  18.865  1.00  0.00     0.049 C 
HETATM    8  C13 UNL     1      -2.308  13.177  18.587  1.00  0.00    -0.023 A 
HETATM    9  C14 UNL     1      -1.575  12.713  19.786  1.00  0.00     0.052 C 
ENDROOT
BRANCH   1  10
HETATM   10  O2  UNL     1      -3.149  10.991  18.314  1.00  0.00    -0.348 OA
BRANCH  10  11
HETATM   11  C5  UNL     1      -2.548   9.806  17.955  1.00  0.00     0.201 C 
BRANCH  11  12
HETATM   12  C4  UNL     1      -2.452   8.873  19.121  1.00  0.00     0.194 C 
BRANCH  12  13
HETATM   13  O1  UNL     1      -1.936   7.642  18.818  1.00  0.00    -0.389 OA
BRANCH  13  14
HETATM   14  C3  UNL     1      -1.333   6.947  19.821  1.00  0.00     0.167 C 
BRANCH  14  15
HETATM   15  C2  UNL     1      -0.200   6.058  19.439  1.00  0.00     0.022 C 
HETATM   16  C1  UNL     1       0.300   5.211  20.586  1.00  0.00     0.007 C 
ENDBRANCH  14  15
ENDBRANCH  13  14
ENDBRANCH  12  13
ENDBRANCH  11  12
ENDBRANCH  10  11
ENDBRANCH   1  10
TORSDOF 6
ENDMDL
MODEL 3
REMARK VINA RESULT: -5.779517361      1.426      2.795
REMARK  6 active torsions:
REMARK  status: ('A' for Active; 'I' for Inactive)
REMARK    1  A    between atoms: C2_2  and  C3_3 
REMARK    2  A    between atoms: C3_3  and  O1_4 
REMARK    3  A    between atoms: O1_4  and  C4_5 
REMARK    4  A    between atoms: C4_5  and  C5_6 
REMARK    5  A    between atoms: C5_6  and  O2_7 
REMARK    6  A    between atoms: O2_7  and  C6_8 
ROOT
HETATM    1  C6  UNL     1      -2.701  12.814  18.710  1.00  0.00     0.075 A 
HETATM    2  C7  UNL     1      -2.030  13.954  19.091  1.00  0.00     0.044 A 
HETATM    3  C8  UNL     1      -2.034  15.140  18.355  1.00  0.00    -0.059 A 
HETATM    4  C9  UNL     1      -1.291  16.341  18.813  1.00  0.00     0.048 C 
HETATM    5  C10 UNL     1      -2.763  15.130  17.187  1.00  0.00     0.014 A 
HETATM    6  C11 UNL     1      -3.438  13.993  16.799  1.00  0.00    -0.053 A 
HETATM    7  C12 UNL     1      -4.210  14.038  15.531  1.00  0.00     0.049 C 
HETATM    8  C13 UNL     1      -3.441  12.828  17.511  1.00  0.00    -0.023 A 
HETATM    9  C14 UNL     1      -4.168  11.610  17.089  1.00  0.00     0.052 C 
ENDROOT
BRANCH   1  10
HETATM   10  O2  UNL     1      -2.699  11.665  19.423  1.00  0.00    -0.348 OA
BRANCH  10  11
HETATM   11  C5  UNL     1      -1.815  10.625  19.595  1.00  0.00     0.201 C 
BRANCH  11  12
HETATM   12  C4  UNL     1      -2.511   9.303  19.510  1.00  0.00     0.194 C 
BRANCH  12  13
HETATM   13  O1  UNL     1      -2.297   8.625  18.341  1.00  0.00    -0.389 OA
BRANCH  13  14
HETATM   14  C3  UNL     1      -1.963   7.309  18.426  1.00  0.00     0.167 C 
BRANCH  14  15
HETATM   15  C2  UNL     1      -1.373   6.845  19.714  1.00  0.00     0.022 C 
HETATM   16  C1  UNL     1      -0.117   6.027  19.529  1.00  0.00     0.007 C 
ENDBRANCH  14  15
ENDBRANCH  13  14
ENDBRANCH  12  13
ENDBRANCH  11  12
ENDBRANCH  10  11
ENDBRANCH   1  10
TORSDOF 6
ENDMDL
MODEL 4
REMARK VINA RESULT: -5.777711539      2.002      8.139
REMARK  6 active torsions:
REMARK  status: ('A' for Active; 'I' for Inactive)
REMARK    1  A    between atoms: C2_2  and  C3_3 
REMARK    2  A    between atoms: C3_3  and  O1_4 
REMARK    3  A    between atoms: O1_4  and  C4_5 
REMARK    4  A    between atoms: C4_5  and  C5_6 
REMARK    5  A    between atoms: C5_6  and  O2_7 
REMARK    6  A    between atoms: O2_7  and  C6_8 
ROOT
HETATM    1  C6  UNL     1      -2.943   7.736  19.116  1.00  0.00     0.075 A 
HETATM    2  C7  UNL     1      -1.624   7.387  19.301  1.00  0.00     0.044 A 
HETATM    3  C8  UNL     1      -1.202   6.102  19.646  1.00  0.00    -0.059 A 
HETATM    4  C9  UNL     1       0.236   5.783  19.835  1.00  0.00     0.048 C 
HETATM    5  C10 UNL     1      -2.189   5.156  19.800  1.00  0.00     0.014 A 
HETATM    6  C11 UNL     1      -3.512   5.497  19.615  1.00  0.00    -0.053 A 
HETATM    7  C12 UNL     1      -4.537   4.437  19.793  1.00  0.00     0.049 C 
HETATM    8  C13 UNL     1      -3.937   6.749  19.278  1.00  0.00    -0.023 A 
HETATM    9  C14 UNL     1      -5.359   7.109  19.082  1.00  0.00     0.052 C 
ENDROOT
BRANCH   1  10
HETATM   10  O2  UNL     1      -3.354   8.979  18.780  1.00  0.00    -0.348 OA
BRANCH  10  11
HETATM   11  C5  UNL     1      -2.732  10.133  18.363  1.00  0.00     0.201 C 
BRANCH  11  12
HETATM   12  C4  UNL     1      -2.475  11.056  19.513  1.00  0.00     0.194 C 
BRANCH  12  13
HETATM   13  O1  UNL     1      -2.370  12.376  19.166  1.00  0.00    -0.389 OA
BRANCH  13  14
HETATM   14  C3  UNL     1      -3.166  12.829  18.161  1.00  0.00     0.167 C 
BRANCH  14  15
HETATM   15  C2  UNL     1      -3.148  14.295  17.895  1.00  0.00     0.022 C 
HETATM   16  C1  UNL     1      -1.905  14.976  18.419  1.00  0.00     0.007 C 
ENDBRANCH  14  15
ENDBRANCH  13  14
ENDBRANCH  12  13
ENDBRANCH  11  12
ENDBRANCH  10  11
ENDBRANCH   1  10
TORSDOF 6
ENDMDL
MODEL 5
REMARK VINA RESULT: -5.652288815      5.566      8.455
REMARK  6 active torsions:
REMARK  status: ('A' for Active; 'I' for Inactive)
REMARK    1  A    between atoms: C2_2  and  C3_3 
REMARK    2  A    between atoms: C3_3  and  O1_4 
REMARK    3  A    between atoms: O1_4  and  C4_5 
REMARK    4  A    between atoms: C4_5  and  C5_6 
REMARK    5  A    between atoms: C5_6  and  O2_7 
REMARK    6  A    between atoms: O2_7  and  C6_8 
ROOT
HETATM    1  C6  UNL     1      -3.205   5.606  18.512  1.00  0.00     0.075 A 
HETATM    2  C7  UNL     1      -3.132   6.917  18.101  1.00  0.00     0.044 A 
HETATM    3  C8  UNL     1      -2.062   7.765  18.391  1.00  0.00    -0.059 A 
HETATM    4  C9  UNL     1      -2.037   9.173  17.921  1.00  0.00     0.048 C 
HETATM    5  C10 UNL     1      -1.038   7.221  19.134  1.00  0.00     0.014 A 
HETATM    6  C11 UNL     1      -1.102   5.909  19.549  1.00  0.00    -0.053 A 
HETATM    7  C12 UNL     1       0.030   5.373  20.348  1.00  0.00     0.049 C 
HETATM    8  C13 UNL     1      -2.144   5.071  19.271  1.00  0.00    -0.023 A 
HETATM    9  C14 UNL     1      -2.207   3.662  19.721  1.00  0.00     0.052 C 
ENDROOT
BRANCH   1  10
HETATM   10  O2  UNL     1      -4.240   4.783  18.230  1.00  0.00    -0.348 OA
BRANCH  10  11
HETATM   11  C5  UNL     1      -5.608   4.920  18.173  1.00  0.00     0.201 C 
BRANCH  11  12
HETATM   12  C4  UNL     1      -6.209   4.928  19.543  1.00  0.00     0.194 C 
BRANCH  12  13
HETATM   13  O1  UNL     1      -7.542   5.238  19.574  1.00  0.00    -0.389 OA
BRANCH  13  14
HETATM   14  C3  UNL     1      -7.885   6.517  19.884  1.00  0.00     0.167 C 
BRANCH  14  15
HETATM   15  C2  UNL     1      -9.339   6.807  20.039  1.00  0.00     0.022 C 
HETATM   16  C1  UNL     1      -9.784   6.843  21.483  1.00  0.00     0.007 C 
ENDBRANCH  14  15
ENDBRANCH  13  14
ENDBRANCH  12  13
ENDBRANCH  11  12
ENDBRANCH  10  11
ENDBRANCH   1  10
TORSDOF 6
ENDMDL
