MODEL 1
REMARK VINA RESULT: -5.544579789      0.000      0.000
REMARK  6 active torsions:
REMARK  status: ('A' for Active; 'I' for Inactive)
REMARK    1  A    between atoms: C2_2  and  C3_3 
REMARK    2  A    between atoms: C3_3  and  C4_4 
REMARK    3  A    between atoms: C10_10  and  O1_11 
REMARK    4  A    between atoms: C10_10  and  C11_13 
REMARK    5  A    between atoms: C11_13  and  C12_14 
REMARK    6  A    between atoms: C12_14  and  C13_15 
ROOT
HETATM    1  C3  UNL     1      -1.112   5.251  19.465  1.00  0.00    -0.041 C 
HETATM    2  C6  UNL     1      -2.270   4.545  18.794  1.00  0.00     0.009 C 
HETATM    3  C7  UNL     1      -3.387   5.369  18.284  1.00  0.00     0.001 C 
HETATM    4  C8  UNL     1      -4.095   6.241  19.264  1.00  0.00     0.003 C 
HETATM    5  C9  UNL     1      -3.751   7.695  19.126  1.00  0.00     0.038 C 
HETATM    6  C10 UNL     1      -2.876   8.168  20.296  1.00  0.00     0.058 C 
HETATM    7  C15 UNL     1      -1.481   7.672  20.208  1.00  0.00     0.038 C 
HETATM    8  C16 UNL     1      -1.093   6.735  19.159  1.00  0.00     0.012 C 
ENDROOT
BRANCH   6   9
HETATM    9  O1  UNL     1      -3.552   7.745  21.443  1.00  0.00    -0.390 OA
ATOM     10  H1  UNL     1      -3.322   8.381  22.110  1.00  0.00     0.210 HD
ENDBRANCH   6   9
BRANCH   6  11
HETATM   11  C11 UNL     1      -3.002   9.676  20.268  1.00  0.00     0.045 C 
BRANCH  11  12
HETATM   12  C12 UNL     1      -1.787  10.434  19.882  1.00  0.00     0.081 C 
BRANCH  12  13
HETATM   13  C13 UNL     1      -2.244  11.715  19.248  1.00  0.00     0.123 C 
HETATM   14  C14 UNL     1      -3.286  11.752  18.198  1.00  0.00     0.091 C 
HETATM   15  O2  UNL     1      -1.702  12.751  19.647  1.00  0.00    -0.298 OA
ENDBRANCH  12  13
ENDBRANCH  11  12
ENDBRANCH   6  11
BRANCH   1  16
HETATM   16  C2  UNL     1      -1.000   4.948  20.906  1.00  0.00     0.005 C 
HETATM   17  C1  UNL     1      -1.996   4.084  21.579  1.00  0.00     0.006 C 
ENDBRANCH   1  16
BRANCH   1  18
HETATM   18  C4  UNL     1       0.104   4.698  18.760  1.00  0.00     0.005 C 
HETATM   19  C5  UNL     1      -0.055   3.550  17.861  1.00  0.00     0.006 C 
ENDBRANCH   1  18
TORSDOF 6
ENDMDL
MODEL 2
REMARK VINA RESULT: -5.519422478      1.704      2.144
REMARK  6 active torsions:
REMARK  status: ('A' for Active; 'I' for Inactive)
REMARK    1  A    between atoms: C2_2  and  C3_3 
REMARK    2  A    between atoms: C3_3  and  C4_4 
REMARK    3  A    between atoms: C10_10  and  O1_11 
REMARK    4  A    between atoms: C10_10  and  C11_13 
REMARK    5  A    between atoms: C11_13  and  C12_14 
REMARK    6  A    between atoms: C12_14  and  C13_15 
ROOT
HETATM    1  C3  UNL     1      -3.656   4.814  18.820  1.00  0.00    -0.041 C 
HETATM    2  C6  UNL     1      -5.137   4.918  18.531  1.00  0.00     0.009 C 
HETATM    3  C7  UNL     1      -5.723   6.267  18.373  1.00  0.00     0.001 C 
HETATM    4  C8  UNL     1      -5.573   7.214  19.513  1.00  0.00     0.003 C 
HETATM    5  C9  UNL     1      -4.550   8.285  19.269  1.00  0.00     0.038 C 
HETATM    6  C10 UNL     1      -3.294   8.053  20.120  1.00  0.00     0.058 C 
HETATM    7  C15 UNL     1      -2.462   6.930  19.622  1.00  0.00     0.038 C 
HETATM    8  C16 UNL     1      -2.921   6.103  18.511  1.00  0.00     0.012 C 
ENDROOT
BRANCH   6   9
HETATM    9  O1  UNL     1      -3.771   7.866  21.420  1.00  0.00    -0.390 OA
ATOM     10  H1  UNL     1      -3.537   8.662  21.882  1.00  0.00     0.210 HD
ENDBRANCH   6   9
BRANCH   6  11
HETATM   11  C11 UNL     1      -2.592   9.393  20.121  1.00  0.00     0.045 C 
BRANCH  11  12
HETATM   12  C12 UNL     1      -3.241  10.480  19.347  1.00  0.00     0.081 C 
BRANCH  12  13
HETATM   13  C13 UNL     1      -2.293  11.644  19.332  1.00  0.00     0.123 C 
HETATM   14  C14 UNL     1      -1.099  11.704  20.203  1.00  0.00     0.091 C 
HETATM   15  O2  UNL     1      -2.560  12.561  18.549  1.00  0.00    -0.298 OA
ENDBRANCH  12  13
ENDBRANCH  11  12
ENDBRANCH   6  11
BRANCH   1  16
HETATM   16  C2  UNL     1      -3.359   4.277  20.164  1.00  0.00     0.005 C 
HETATM   17  C1  UNL     1      -4.438   4.088  21.160  1.00  0.00     0.006 C 
ENDBRANCH   1  16
BRANCH   1  18
HETATM   18  C4  UNL     1      -3.156   3.832  17.787  1.00  0.00     0.005 C 
HETATM   19  C5  UNL     1      -3.104   4.243  16.380  1.00  0.00     0.006 C 
ENDBRANCH   1  18
TORSDOF 6
ENDMDL
MODEL 3
REMARK VINA RESULT: -5.394760993      1.571      2.940
REMARK  6 active torsions:
REMARK  status: ('A' for Active; 'I' for Inactive)
REMARK    1  A    between atoms: C2_2  and  C3_3 
REMARK    2  A    between atoms: C3_3  and  C4_4 
REMARK    3  A    between atoms: C10_10  and  O1_11 
REMARK    4  A    between atoms: C10_10  and  C11_13 
REMARK    5  A    between atoms: C11_13  and  C12_14 
REMARK    6  A    between atoms: C12_14  and  C13_15 
ROOT
HETATM    1  C3  UNL     1      -1.973   3.949  20.844  1.00  0.00    -0.041 C 
HETATM    2  C6  UNL     1      -0.547   3.996  20.343  1.00  0.00     0.009 C 
HETATM    3  C7  UNL     1       0.114   5.316  20.245  1.00  0.00     0.001 C 
HETATM    4  C8  UNL     1      -0.538   6.344  19.387  1.00  0.00     0.003 C 
HETATM    5  C9  UNL     1      -1.233   7.420  20.169  1.00  0.00     0.038 C 
HETATM    6  C10 UNL     1      -2.759   7.280  20.067  1.00  0.00     0.058 C 
HETATM    7  C15 UNL     1      -3.287   6.145  20.864  1.00  0.00     0.038 C 
HETATM    8  C16 UNL     1      -2.376   5.232  21.545  1.00  0.00     0.012 C 
ENDROOT
BRANCH   6   9
HETATM    9  O1  UNL     1      -3.017   7.173  18.697  1.00  0.00    -0.390 OA
ATOM     10  H1  UNL     1      -3.753   7.754  18.542  1.00  0.00     0.210 HD
ENDBRANCH   6   9
BRANCH   6  11
HETATM   11  C11 UNL     1      -3.286   8.633  20.487  1.00  0.00     0.045 C 
BRANCH  11  12
HETATM   12  C12 UNL     1      -3.512   9.621  19.404  1.00  0.00     0.081 C 
BRANCH  12  13
HETATM   13  C13 UNL     1      -2.824  10.892  19.809  1.00  0.00     0.123 C 
HETATM   14  C14 UNL     1      -1.351  11.035  19.793  1.00  0.00     0.091 C 
HETATM   15  O2  UNL     1      -3.553  11.825  20.161  1.00  0.00    -0.298 OA
ENDBRANCH  12  13
ENDBRANCH  11  12
ENDBRANCH   6  11
BRANCH   1  16
HETATM   16  C2  UNL     1      -2.940   3.515  19.814  1.00  0.00     0.005 C 
HETATM   17  C1  UNL     1      -2.523   3.360  18.402  1.00  0.00     0.006 C 
ENDBRANCH   1  16
BRANCH   1  18
HETATM   18  C4  UNL     1      -1.937   2.909  21.939  1.00  0.00     0.005 C 
HETATM   19  C5  UNL     1      -3.187   2.258  22.345  1.00  0.00     0.006 C 
ENDBRANCH   1  18
TORSDOF 6
ENDMDL
MODEL 4
REMARK VINA RESULT: -5.388366592      1.191      1.466
REMARK  6 active torsions:
REMARK  status: ('A' for Active; 'I' for Inactive)
REMARK    1  A    between atoms: C2_2  and  C3_3 
REMARK    2  A    between atoms: C3_3  and  C4_4 
REMARK    3  A    between atoms: C10_10  and  O1_11 
REMARK    4  A    between atoms: C10_10  and  C11_13 
REMARK    5  A    between atoms: C11_13  and  C12_14 
REMARK    6  A    between atoms: C12_14  and  C13_15 
ROOT
HETATM    1  C3  UNL     1      -1.717   5.009  20.031  1.00  0.00    -0.041 C 
HETATM    2  C6  UNL     1      -2.238   4.237  18.840  1.00  0.00     0.009 C 
HETATM    3  C7  UNL     1      -2.881   4.995  17.744  1.00  0.00     0.001 C 
HETATM    4  C8  UNL     1      -4.060   5.834  18.095  1.00  0.00     0.003 C 
HETATM    5  C9  UNL     1      -3.759   7.304  18.128  1.00  0.00     0.038 C 
HETATM    6  C10 UNL     1      -3.749   7.833  19.569  1.00  0.00     0.058 C 
HETATM    7  C15 UNL     1      -2.546   7.412  20.328  1.00  0.00     0.038 C 
HETATM    8  C16 UNL     1      -1.582   6.490  19.737  1.00  0.00     0.012 C 
ENDROOT
BRANCH   6   9
HETATM    9  O1  UNL     1      -4.950   7.382  20.124  1.00  0.00    -0.390 OA
ATOM     10  H1  UNL     1      -4.719   6.589  20.593  1.00  0.00     0.210 HD
ENDBRANCH   6   9
BRANCH   6  11
HETATM   11  C11 UNL     1      -3.895   9.331  19.417  1.00  0.00     0.045 C 
BRANCH  11  12
HETATM   12  C12 UNL     1      -2.745  10.156  19.861  1.00  0.00     0.081 C 
BRANCH  12  13
HETATM   13  C13 UNL     1      -3.164  11.594  19.759  1.00  0.00     0.123 C 
HETATM   14  C14 UNL     1      -4.214  12.049  18.822  1.00  0.00     0.091 C 
HETATM   15  O2  UNL     1      -2.582  12.390  20.504  1.00  0.00    -0.298 OA
ENDBRANCH  12  13
ENDBRANCH  11  12
ENDBRANCH   6  11
BRANCH   1  16
HETATM   16  C2  UNL     1      -2.455   4.724  21.279  1.00  0.00     0.005 C 
HETATM   17  C1  UNL     1      -3.721   3.958  21.254  1.00  0.00     0.006 C 
ENDBRANCH   1  16
BRANCH   1  18
HETATM   18  C4  UNL     1      -0.297   4.518  20.187  1.00  0.00     0.005 C 
HETATM   19  C5  UNL     1       0.672   5.357  20.900  1.00  0.00     0.006 C 
ENDBRANCH   1  18
TORSDOF 6
ENDMDL
MODEL 5
REMARK VINA RESULT: -5.385718842      1.646      3.102
REMARK  6 active torsions:
REMARK  status: ('A' for Active; 'I' for Inactive)
REMARK    1  A    between atoms: C2_2  and  C3_3 
REMARK    2  A    between atoms: C3_3  and  C4_4 
REMARK    3  A    between atoms: C10_10  and  O1_11 
REMARK    4  A    between atoms: C10_10  and  C11_13 
REMARK    5  A    between atoms: C11_13  and  C12_14 
REMARK    6  A    between atoms: C12_14  and  C13_15 
ROOT
HETATM    1  C3  UNL     1      -4.480   5.404  18.513  1.00  0.00    -0.041 C 
HETATM    2  C6  UNL     1      -4.344   4.498  19.716  1.00  0.00     0.009 C 
HETATM    3  C7  UNL     1      -4.195   5.124  21.048  1.00  0.00     0.001 C 
HETATM    4  C8  UNL     1      -3.045   6.051  21.241  1.00  0.00     0.003 C 
HETATM    5  C9  UNL     1      -3.443   7.498  21.269  1.00  0.00     0.038 C 
HETATM    6  C10 UNL     1      -2.994   8.219  19.990  1.00  0.00     0.058 C 
HETATM    7  C15 UNL     1      -3.813   7.858  18.808  1.00  0.00     0.038 C 
HETATM    8  C16 UNL     1      -4.838   6.824  18.905  1.00  0.00     0.012 C 
ENDROOT
BRANCH   6   9
HETATM    9  O1  UNL     1      -1.640   7.899  19.855  1.00  0.00    -0.390 OA
ATOM     10  H1  UNL     1      -1.469   7.950  18.922  1.00  0.00     0.210 HD
ENDBRANCH   6   9
BRANCH   6  11
HETATM   11  C11 UNL     1      -3.042   9.687  20.354  1.00  0.00     0.045 C 
BRANCH  11  12
HETATM   12  C12 UNL     1      -3.387  10.628  19.261  1.00  0.00     0.081 C 
BRANCH  12  13
HETATM   13  C13 UNL     1      -2.359  11.722  19.274  1.00  0.00     0.123 C 
HETATM   14  C14 UNL     1      -1.140  11.654  20.109  1.00  0.00     0.091 C 
HETATM   15  O2  UNL     1      -2.582  12.695  18.546  1.00  0.00    -0.298 OA
ENDBRANCH  12  13
ENDBRANCH  11  12
ENDBRANCH   6  11
BRANCH   1  16
HETATM   16  C2  UNL     1      -3.331   5.324  17.589  1.00  0.00     0.005 C 
HETATM   17  C1  UNL     1      -2.099   4.598  17.972  1.00  0.00     0.006 C 
ENDBRANCH   1  16
BRANCH   1  18
HETATM   18  C4  UNL     1      -5.707   4.881  17.804  1.00  0.00     0.005 C 
HETATM   19  C5  UNL     1      -5.665   3.546  17.200  1.00  0.00     0.006 C 
ENDBRANCH   1  18
TORSDOF 6
ENDMDL
