MODEL 1
REMARK VINA RESULT: -6.302213845      0.000      0.000
REMARK  9 active torsions:
REMARK  status: ('A' for Active; 'I' for Inactive)
REMARK    1  A    between atoms: C2_2  and  C3_3 
REMARK    2  A    between atoms: C3_3  and  C4_4 
REMARK    3  A    between atoms: C4_4  and  C5_5 
REMARK    4  A    between atoms: C5_5  and  C6_6 
REMARK    5  A    between atoms: C10_10  and  O1_11 
REMARK    6  A    between atoms: O1_11  and  C11_12 
REMARK    7  A    between atoms: C14_15  and  C15_16 
REMARK    8  A    between atoms: C15_16  and  C16_17 
REMARK    9  A    between atoms: C16_17  and  O2_18 
ROOT
HETATM    1  C6  UNL     1      -2.355   8.385  19.984  1.00  0.00    -0.051 A 
HETATM    2  C7  UNL     1      -1.529   9.506  20.146  1.00  0.00     0.017 A 
HETATM    3  C8  UNL     1      -1.940  10.798  19.947  1.00  0.00    -0.028 A 
HETATM    4  C9  UNL     1      -0.997  11.932  20.142  1.00  0.00     0.051 C 
HETATM    5  C10 UNL     1      -3.243  10.996  19.567  1.00  0.00     0.075 A 
HETATM    6  C13 UNL     1      -4.075   9.917  19.400  1.00  0.00     0.045 A 
HETATM    7  C14 UNL     1      -3.651   8.603  19.602  1.00  0.00    -0.047 A 
ENDROOT
BRANCH   1   8
HETATM    8  C5  UNL     1      -1.788   7.056  20.312  1.00  0.00     0.039 C 
BRANCH   8   9
HETATM    9  C4  UNL     1      -1.118   6.400  19.135  1.00  0.00     0.005 C 
BRANCH   9  10
HETATM   10  C3  UNL     1       0.247   5.920  19.513  1.00  0.00    -0.000 C 
BRANCH  10  11
HETATM   11  C2  UNL     1       0.267   5.186  20.818  1.00  0.00    -0.005 C 
HETATM   12  C1  UNL     1      -0.190   3.763  20.642  1.00  0.00     0.005 C 
ENDBRANCH  10  11
ENDBRANCH   9  10
ENDBRANCH   8   9
ENDBRANCH   1   8
BRANCH   7  13
HETATM   13  C15 UNL     1      -4.556   7.472  19.334  1.00  0.00     0.065 C 
BRANCH  13  14
HETATM   14  C16 UNL     1      -5.995   7.860  19.126  1.00  0.00     0.168 C 
BRANCH  14  15
HETATM   15  O2  UNL     1      -6.826   7.023  19.903  1.00  0.00    -0.401 OA
ATOM     16  H2  UNL     1      -7.041   6.241  19.408  1.00  0.00     0.209 HD
ENDBRANCH  14  15
ENDBRANCH  13  14
ENDBRANCH   7  13
BRANCH   5  17
HETATM   17  O1  UNL     1      -3.726  12.249  19.351  1.00  0.00    -0.351 OA
BRANCH  17  18
HETATM   18  C11 UNL     1      -4.214  12.849  18.213  1.00  0.00     0.171 C 
HETATM   19  C12 UNL     1      -3.901  14.286  18.018  1.00  0.00     0.034 C 
ENDBRANCH  17  18
ENDBRANCH   5  17
TORSDOF 9
ENDMDL
MODEL 2
REMARK VINA RESULT: -6.269335042      1.900      6.888
REMARK  9 active torsions:
REMARK  status: ('A' for Active; 'I' for Inactive)
REMARK    1  A    between atoms: C2_2  and  C3_3 
REMARK    2  A    between atoms: C3_3  and  C4_4 
REMARK    3  A    between atoms: C4_4  and  C5_5 
REMARK    4  A    between atoms: C5_5  and  C6_6 
REMARK    5  A    between atoms: C10_10  and  O1_11 
REMARK    6  A    between atoms: O1_11  and  C11_12 
REMARK    7  A    between atoms: C14_15  and  C15_16 
REMARK    8  A    between atoms: C15_16  and  C16_17 
REMARK    9  A    between atoms: C16_17  and  O2_18 
ROOT
HETATM    1  C6  UNL     1      -3.263  10.747  19.544  1.00  0.00    -0.051 A 
HETATM    2  C7  UNL     1      -4.067   9.614  19.350  1.00  0.00     0.017 A 
HETATM    3  C8  UNL     1      -3.634   8.326  19.524  1.00  0.00    -0.028 A 
HETATM    4  C9  UNL     1      -4.554   7.180  19.297  1.00  0.00     0.051 C 
HETATM    5  C10 UNL     1      -2.331   8.144  19.913  1.00  0.00     0.075 A 
HETATM    6  C13 UNL     1      -1.520   9.235  20.109  1.00  0.00     0.045 A 
HETATM    7  C14 UNL     1      -1.966  10.544  19.929  1.00  0.00    -0.047 A 
ENDROOT
BRANCH   1   8
HETATM    8  C5  UNL     1      -3.897  12.078  19.393  1.00  0.00     0.039 C 
BRANCH   8   9
HETATM    9  C4  UNL     1      -3.991  12.521  17.958  1.00  0.00     0.005 C 
BRANCH   9  10
HETATM   10  C3  UNL     1      -4.033  14.014  17.876  1.00  0.00    -0.000 C 
BRANCH  10  11
HETATM   11  C2  UNL     1      -2.845  14.667  18.513  1.00  0.00    -0.005 C 
HETATM   12  C1  UNL     1      -2.917  16.163  18.378  1.00  0.00     0.005 C 
ENDBRANCH  10  11
ENDBRANCH   9  10
ENDBRANCH   8   9
ENDBRANCH   1   8
BRANCH   7  13
HETATM   13  C15 UNL     1      -1.039  11.680  20.075  1.00  0.00     0.065 C 
BRANCH  13  14
HETATM   14  C16 UNL     1      -1.042  12.317  21.438  1.00  0.00     0.168 C 
BRANCH  14  15
HETATM   15  O2  UNL     1       0.206  12.099  22.062  1.00  0.00    -0.401 OA
ATOM     16  H2  UNL     1       0.837  11.805  21.416  1.00  0.00     0.209 HD
ENDBRANCH  14  15
ENDBRANCH  13  14
ENDBRANCH   7  13
BRANCH   5  17
HETATM   17  O1  UNL     1      -1.826   6.896  20.107  1.00  0.00    -0.351 OA
BRANCH  17  18
HETATM   18  C11 UNL     1      -0.529   6.449  20.208  1.00  0.00     0.171 C 
HETATM   19  C12 UNL     1       0.156   6.066  18.948  1.00  0.00     0.034 C 
ENDBRANCH  17  18
ENDBRANCH   5  17
TORSDOF 9
ENDMDL
MODEL 3
REMARK VINA RESULT: -6.237885070      0.972      1.228
REMARK  9 active torsions:
REMARK  status: ('A' for Active; 'I' for Inactive)
REMARK    1  A    between atoms: C2_2  and  C3_3 
REMARK    2  A    between atoms: C3_3  and  C4_4 
REMARK    3  A    between atoms: C4_4  and  C5_5 
REMARK    4  A    between atoms: C5_5  and  C6_6 
REMARK    5  A    between atoms: C10_10  and  O1_11 
REMARK    6  A    between atoms: O1_11  and  C11_12 
REMARK    7  A    between atoms: C14_15  and  C15_16 
REMARK    8  A    between atoms: C15_16  and  C16_17 
REMARK    9  A    between atoms: C16_17  and  O2_18 
ROOT
HETATM    1  C6  UNL     1      -2.274   7.956  20.009  1.00  0.00    -0.051 A 
HETATM    2  C7  UNL     1      -1.514   9.124  20.161  1.00  0.00     0.017 A 
HETATM    3  C8  UNL     1      -1.997  10.388  19.947  1.00  0.00    -0.028 A 
HETATM    4  C9  UNL     1      -1.120  11.576  20.132  1.00  0.00     0.051 C 
HETATM    5  C10 UNL     1      -3.308  10.508  19.562  1.00  0.00     0.075 A 
HETATM    6  C13 UNL     1      -4.076   9.381  19.406  1.00  0.00     0.045 A 
HETATM    7  C14 UNL     1      -3.579   8.096  19.622  1.00  0.00    -0.047 A 
ENDROOT
BRANCH   1   8
HETATM    8  C5  UNL     1      -1.633   6.665  20.353  1.00  0.00     0.039 C 
BRANCH   8   9
HETATM    9  C4  UNL     1      -0.297   6.480  19.685  1.00  0.00     0.005 C 
BRANCH   9  10
HETATM   10  C3  UNL     1      -0.333   5.298  18.769  1.00  0.00    -0.000 C 
BRANCH  10  11
HETATM   11  C2  UNL     1      -1.586   4.489  18.909  1.00  0.00    -0.005 C 
HETATM   12  C1  UNL     1      -2.287   4.350  17.585  1.00  0.00     0.005 C 
ENDBRANCH  10  11
ENDBRANCH   9  10
ENDBRANCH   8   9
ENDBRANCH   1   8
BRANCH   7  13
HETATM   13  C15 UNL     1      -4.418   6.912  19.366  1.00  0.00     0.065 C 
BRANCH  13  14
HETATM   14  C16 UNL     1      -5.784   7.222  18.816  1.00  0.00     0.168 C 
BRANCH  14  15
HETATM   15  O2  UNL     1      -6.746   7.093  19.842  1.00  0.00    -0.401 OA
ATOM     16  H2  UNL     1      -6.306   6.942  20.671  1.00  0.00     0.209 HD
ENDBRANCH  14  15
ENDBRANCH  13  14
ENDBRANCH   7  13
BRANCH   5  17
HETATM   17  O1  UNL     1      -3.862  11.729  19.332  1.00  0.00    -0.351 OA
BRANCH  17  18
HETATM   18  C11 UNL     1      -4.075  12.420  18.162  1.00  0.00     0.171 C 
HETATM   19  C12 UNL     1      -3.842  13.886  18.190  1.00  0.00     0.034 C 
ENDBRANCH  17  18
ENDBRANCH   5  17
TORSDOF 9
ENDMDL
MODEL 4
REMARK VINA RESULT: -6.114027995      1.789      5.986
REMARK  9 active torsions:
REMARK  status: ('A' for Active; 'I' for Inactive)
REMARK    1  A    between atoms: C2_2  and  C3_3 
REMARK    2  A    between atoms: C3_3  and  C4_4 
REMARK    3  A    between atoms: C4_4  and  C5_5 
REMARK    4  A    between atoms: C5_5  and  C6_6 
REMARK    5  A    between atoms: C10_10  and  O1_11 
REMARK    6  A    between atoms: O1_11  and  C11_12 
REMARK    7  A    between atoms: C14_15  and  C15_16 
REMARK    8  A    between atoms: C15_16  and  C16_17 
REMARK    9  A    between atoms: C16_17  and  O2_18 
ROOT
HETATM    1  C6  UNL     1      -2.667   8.336  19.998  1.00  0.00    -0.051 A 
HETATM    2  C7  UNL     1      -1.391   7.800  20.225  1.00  0.00     0.017 A 
HETATM    3  C8  UNL     1      -1.063   6.485  20.023  1.00  0.00    -0.028 A 
HETATM    4  C9  UNL     1       0.317   5.998  20.289  1.00  0.00     0.051 C 
HETATM    5  C10 UNL     1      -2.051   5.649  19.568  1.00  0.00     0.075 A 
HETATM    6  C13 UNL     1      -3.310   6.147  19.337  1.00  0.00     0.045 A 
HETATM    7  C14 UNL     1      -3.639   7.486  19.547  1.00  0.00    -0.047 A 
ENDROOT
BRANCH   1   8
HETATM    8  C5  UNL     1      -2.847   9.795  20.188  1.00  0.00     0.039 C 
BRANCH   8   9
HETATM    9  C4  UNL     1      -1.627  10.589  19.806  1.00  0.00     0.005 C 
BRANCH   9  10
HETATM   10  C3  UNL     1      -2.023  11.825  19.063  1.00  0.00    -0.000 C 
BRANCH  10  11
HETATM   11  C2  UNL     1      -3.325  11.679  18.338  1.00  0.00    -0.005 C 
HETATM   12  C1  UNL     1      -4.118  12.956  18.392  1.00  0.00     0.005 C 
ENDBRANCH  10  11
ENDBRANCH   9  10
ENDBRANCH   8   9
ENDBRANCH   1   8
BRANCH   7  13
HETATM   13  C15 UNL     1      -5.022   7.958  19.361  1.00  0.00     0.065 C 
BRANCH  13  14
HETATM   14  C16 UNL     1      -6.066   6.875  19.427  1.00  0.00     0.168 C 
BRANCH  14  15
HETATM   15  O2  UNL     1      -7.188   7.346  20.145  1.00  0.00    -0.401 OA
ATOM     16  H2  UNL     1      -7.879   6.695  20.113  1.00  0.00     0.209 HD
ENDBRANCH  14  15
ENDBRANCH  13  14
ENDBRANCH   7  13
BRANCH   5  17
HETATM   17  O1  UNL     1      -1.804   4.331  19.342  1.00  0.00    -0.351 OA
BRANCH  17  18
HETATM   18  C11 UNL     1      -2.183   3.206  20.038  1.00  0.00     0.171 C 
HETATM   19  C12 UNL     1      -2.040   3.244  21.514  1.00  0.00     0.034 C 
ENDBRANCH  17  18
ENDBRANCH   5  17
TORSDOF 9
ENDMDL
MODEL 5
REMARK VINA RESULT: -6.108638719      1.939      5.922
REMARK  9 active torsions:
REMARK  status: ('A' for Active; 'I' for Inactive)
REMARK    1  A    between atoms: C2_2  and  C3_3 
REMARK    2  A    between atoms: C3_3  and  C4_4 
REMARK    3  A    between atoms: C4_4  and  C5_5 
REMARK    4  A    between atoms: C5_5  and  C6_6 
REMARK    5  A    between atoms: C10_10  and  O1_11 
REMARK    6  A    between atoms: O1_11  and  C11_12 
REMARK    7  A    between atoms: C14_15  and  C15_16 
REMARK    8  A    between atoms: C15_16  and  C16_17 
REMARK    9  A    between atoms: C16_17  and  O2_18 
ROOT
HETATM    1  C6  UNL     1      -2.639   8.271  19.952  1.00  0.00    -0.051 A 
HETATM    2  C7  UNL     1      -1.373   7.727  20.209  1.00  0.00     0.017 A 
HETATM    3  C8  UNL     1      -1.030   6.426  19.954  1.00  0.00    -0.028 A 
HETATM    4  C9  UNL     1       0.340   5.929  20.257  1.00  0.00     0.051 C 
HETATM    5  C10 UNL     1      -1.992   5.612  19.412  1.00  0.00     0.075 A 
HETATM    6  C13 UNL     1      -3.242   6.118  19.150  1.00  0.00     0.045 A 
HETATM    7  C14 UNL     1      -3.586   7.443  19.414  1.00  0.00    -0.047 A 
ENDROOT
BRANCH   1   8
HETATM    8  C5  UNL     1      -2.835   9.718  20.208  1.00  0.00     0.039 C 
BRANCH   8   9
HETATM    9  C4  UNL     1      -1.638  10.546  19.828  1.00  0.00     0.005 C 
BRANCH   9  10
HETATM   10  C3  UNL     1      -2.066  11.759  19.065  1.00  0.00    -0.000 C 
BRANCH  10  11
HETATM   11  C2  UNL     1      -3.376  11.574  18.362  1.00  0.00    -0.005 C 
HETATM   12  C1  UNL     1      -4.193  12.836  18.407  1.00  0.00     0.005 C 
ENDBRANCH  10  11
ENDBRANCH   9  10
ENDBRANCH   8   9
ENDBRANCH   1   8
BRANCH   7  13
HETATM   13  C15 UNL     1      -4.962   7.920  19.189  1.00  0.00     0.065 C 
BRANCH  13  14
HETATM   14  C16 UNL     1      -6.022   6.864  19.343  1.00  0.00     0.168 C 
BRANCH  14  15
HETATM   15  O2  UNL     1      -7.111   7.392  20.071  1.00  0.00    -0.401 OA
ATOM     16  H2  UNL     1      -7.886   7.400  19.521  1.00  0.00     0.209 HD
ENDBRANCH  14  15
ENDBRANCH  13  14
ENDBRANCH   7  13
BRANCH   5  17
HETATM   17  O1  UNL     1      -1.729   4.308  19.129  1.00  0.00    -0.351 OA
BRANCH  17  18
HETATM   18  C11 UNL     1      -1.497   3.669  17.933  1.00  0.00     0.171 C 
HETATM   19  C12 UNL     1      -0.083   3.397  17.573  1.00  0.00     0.034 C 
ENDBRANCH  17  18
ENDBRANCH   5  17
TORSDOF 9
ENDMDL
