MODEL 1
REMARK VINA RESULT: -6.854976068      0.000      0.000
REMARK  9 active torsions:
REMARK  status: ('A' for Active; 'I' for Inactive)
REMARK    1  A    between atoms: C2_2  and  C3_3 
REMARK    2  A    between atoms: C3_3  and  C4_4 
REMARK    3  A    between atoms: C4_4  and  C5_5 
REMARK    4  A    between atoms: C5_5  and  C6_6 
REMARK    5  A    between atoms: C6_6  and  C7_7 
REMARK    6  A    between atoms: C7_7  and  C8_8 
REMARK    7  A    between atoms: C10_10  and  C11_11 
REMARK    8  A    between atoms: C11_11  and  O1_12 
REMARK    9  A    between atoms: C15_17  and  O2_18 
ROOT
HETATM    1  C8  UNL     1      -3.102  15.247  18.092  1.00  0.00    -0.024 A 
HETATM    2  C9  UNL     1      -2.465  14.503  19.103  1.00  0.00     0.019 A 
HETATM    3  C10 UNL     1      -2.722  13.177  19.336  1.00  0.00    -0.028 A 
HETATM    4  C12 UNL     1      -3.631  12.501  18.573  1.00  0.00    -0.051 A 
HETATM    5  C13 UNL     1      -3.935  11.068  18.794  1.00  0.00     0.049 C 
HETATM    6  C14 UNL     1      -4.268  13.189  17.581  1.00  0.00     0.044 A 
HETATM    7  C15 UNL     1      -4.003  14.552  17.342  1.00  0.00     0.075 A 
ENDROOT
BRANCH   1   8
HETATM    8  C7  UNL     1      -2.775  16.683  17.959  1.00  0.00     0.041 C 
BRANCH   8   9
HETATM    9  C6  UNL     1      -3.798  17.662  18.288  1.00  0.00     0.005 C 
BRANCH   9  10
HETATM   10  C5  UNL     1      -4.555  18.455  17.337  1.00  0.00     0.001 C 
BRANCH  10  11
HETATM   11  C4  UNL     1      -4.096  18.612  15.944  1.00  0.00     0.004 C 
BRANCH  11  12
HETATM   12  C3  UNL     1      -4.572  19.943  15.332  1.00  0.00     0.026 C 
BRANCH  12  13
HETATM   13  C2  UNL     1      -5.015  19.611  13.952  1.00  0.00    -0.037 C 
HETATM   14  C1  UNL     1      -5.366  20.572  13.116  1.00  0.00     0.007 C 
ENDBRANCH  12  13
ENDBRANCH  11  12
ENDBRANCH  10  11
ENDBRANCH   9  10
ENDBRANCH   8   9
ENDBRANCH   1   8
BRANCH   7  15
HETATM   15  O2  UNL     1      -4.682  15.182  16.317  1.00  0.00    -0.355 OA
HETATM   16  C16 UNL     1      -4.884  14.519  15.092  1.00  0.00     0.210 C 
ENDBRANCH   7  15
BRANCH   3  17
HETATM   17  C11 UNL     1      -1.984  12.503  20.435  1.00  0.00     0.203 C 
BRANCH  17  18
HETATM   18  O1  UNL     1      -0.743  12.044  20.029  1.00  0.00    -0.396 OA
ATOM     19  H1  UNL     1      -0.399  11.375  20.609  1.00  0.00     0.209 HD
ENDBRANCH  17  18
ENDBRANCH   3  17
TORSDOF 9
ENDMDL
MODEL 2
REMARK VINA RESULT: -6.841897981      2.722      5.386
REMARK  9 active torsions:
REMARK  status: ('A' for Active; 'I' for Inactive)
REMARK    1  A    between atoms: C2_2  and  C3_3 
REMARK    2  A    between atoms: C3_3  and  C4_4 
REMARK    3  A    between atoms: C4_4  and  C5_5 
REMARK    4  A    between atoms: C5_5  and  C6_6 
REMARK    5  A    between atoms: C6_6  and  C7_7 
REMARK    6  A    between atoms: C7_7  and  C8_8 
REMARK    7  A    between atoms: C10_10  and  C11_11 
REMARK    8  A    between atoms: C11_11  and  O1_12 
REMARK    9  A    between atoms: C15_17  and  O2_18 
ROOT
HETATM    1  C8  UNL     1      -3.321  10.562  18.850  1.00  0.00    -0.024 A 
HETATM    2  C9  UNL     1      -4.302   9.555  18.917  1.00  0.00     0.019 A 
HETATM    3  C10 UNL     1      -4.135   8.386  19.614  1.00  0.00    -0.028 A 
HETATM    4  C12 UNL     1      -2.975   8.144  20.295  1.00  0.00    -0.051 A 
HETATM    5  C13 UNL     1      -2.757   6.894  21.059  1.00  0.00     0.049 C 
HETATM    6  C14 UNL     1      -2.001   9.099  20.254  1.00  0.00     0.044 A 
HETATM    7  C15 UNL     1      -2.174  10.299  19.538  1.00  0.00     0.075 A 
ENDROOT
BRANCH   1   8
HETATM    8  C7  UNL     1      -3.597  11.763  18.034  1.00  0.00     0.041 C 
BRANCH   8   9
HETATM    9  C6  UNL     1      -4.078  12.962  18.701  1.00  0.00     0.005 C 
BRANCH   9  10
HETATM   10  C5  UNL     1      -3.804  14.329  18.299  1.00  0.00     0.001 C 
BRANCH  10  11
HETATM   11  C4  UNL     1      -2.520  14.976  18.633  1.00  0.00     0.004 C 
BRANCH  11  12
HETATM   12  C3  UNL     1      -2.623  16.512  18.572  1.00  0.00     0.026 C 
BRANCH  12  13
HETATM   13  C2  UNL     1      -3.895  16.797  17.857  1.00  0.00    -0.037 C 
HETATM   14  C1  UNL     1      -4.172  18.026  17.458  1.00  0.00     0.007 C 
ENDBRANCH  12  13
ENDBRANCH  11  12
ENDBRANCH  10  11
ENDBRANCH   9  10
ENDBRANCH   8   9
ENDBRANCH   1   8
BRANCH   7  15
HETATM   15  O2  UNL     1      -1.146  11.222  19.547  1.00  0.00    -0.355 OA
HETATM   16  C16 UNL     1      -0.919  12.016  20.687  1.00  0.00     0.210 C 
ENDBRANCH   7  15
BRANCH   3  17
HETATM   17  C11 UNL     1      -5.246   7.401  19.607  1.00  0.00     0.203 C 
BRANCH  17  18
HETATM   18  O1  UNL     1      -6.412   7.929  19.080  1.00  0.00    -0.396 OA
ATOM     19  H1  UNL     1      -6.958   7.263  18.679  1.00  0.00     0.209 HD
ENDBRANCH  17  18
ENDBRANCH   3  17
TORSDOF 9
ENDMDL
MODEL 3
REMARK VINA RESULT: -6.512046638      4.242      7.163
REMARK  9 active torsions:
REMARK  status: ('A' for Active; 'I' for Inactive)
REMARK    1  A    between atoms: C2_2  and  C3_3 
REMARK    2  A    between atoms: C3_3  and  C4_4 
REMARK    3  A    between atoms: C4_4  and  C5_5 
REMARK    4  A    between atoms: C5_5  and  C6_6 
REMARK    5  A    between atoms: C6_6  and  C7_7 
REMARK    6  A    between atoms: C7_7  and  C8_8 
REMARK    7  A    between atoms: C10_10  and  C11_11 
REMARK    8  A    between atoms: C11_11  and  O1_12 
REMARK    9  A    between atoms: C15_17  and  O2_18 
ROOT
HETATM    1  C8  UNL     1      -2.553   8.486  19.918  1.00  0.00    -0.024 A 
HETATM    2  C9  UNL     1      -1.312   7.827  20.005  1.00  0.00     0.019 A 
HETATM    3  C10 UNL     1      -1.127   6.521  19.634  1.00  0.00    -0.028 A 
HETATM    4  C12 UNL     1      -2.168   5.782  19.148  1.00  0.00    -0.051 A 
HETATM    5  C13 UNL     1      -2.007   4.368  18.736  1.00  0.00     0.049 C 
HETATM    6  C14 UNL     1      -3.388   6.388  19.048  1.00  0.00     0.044 A 
HETATM    7  C15 UNL     1      -3.577   7.730  19.430  1.00  0.00     0.075 A 
ENDROOT
BRANCH   1   8
HETATM    8  C7  UNL     1      -2.644   9.886  20.386  1.00  0.00     0.041 C 
BRANCH   8   9
HETATM    9  C6  UNL     1      -1.833  10.894  19.723  1.00  0.00     0.005 C 
BRANCH   9  10
HETATM   10  C5  UNL     1      -2.318  11.916  18.815  1.00  0.00     0.001 C 
BRANCH  10  11
HETATM   11  C4  UNL     1      -3.759  12.055  18.529  1.00  0.00     0.004 C 
BRANCH  11  12
HETATM   12  C3  UNL     1      -4.136  13.510  18.190  1.00  0.00     0.026 C 
BRANCH  12  13
HETATM   13  C2  UNL     1      -2.955  14.326  18.577  1.00  0.00    -0.037 C 
HETATM   14  C1  UNL     1      -2.885  15.600  18.233  1.00  0.00     0.007 C 
ENDBRANCH  12  13
ENDBRANCH  11  12
ENDBRANCH  10  11
ENDBRANCH   9  10
ENDBRANCH   8   9
ENDBRANCH   1   8
BRANCH   7  15
HETATM   15  O2  UNL     1      -4.838   8.278  19.295  1.00  0.00    -0.355 OA
HETATM   16  C16 UNL     1      -5.973   7.446  19.287  1.00  0.00     0.210 C 
ENDBRANCH   7  15
BRANCH   3  17
HETATM   17  C11 UNL     1       0.232   5.939  19.773  1.00  0.00     0.203 C 
BRANCH  17  18
HETATM   18  O1  UNL     1       0.451   5.412  21.034  1.00  0.00    -0.396 OA
ATOM     19  H1  UNL     1       1.221   5.781  21.449  1.00  0.00     0.209 HD
ENDBRANCH  17  18
ENDBRANCH   3  17
TORSDOF 9
ENDMDL
MODEL 4
REMARK VINA RESULT: -6.482464483      4.191      7.610
REMARK  9 active torsions:
REMARK  status: ('A' for Active; 'I' for Inactive)
REMARK    1  A    between atoms: C2_2  and  C3_3 
REMARK    2  A    between atoms: C3_3  and  C4_4 
REMARK    3  A    between atoms: C4_4  and  C5_5 
REMARK    4  A    between atoms: C5_5  and  C6_6 
REMARK    5  A    between atoms: C6_6  and  C7_7 
REMARK    6  A    between atoms: C7_7  and  C8_8 
REMARK    7  A    between atoms: C10_10  and  C11_11 
REMARK    8  A    between atoms: C11_11  and  O1_12 
REMARK    9  A    between atoms: C15_17  and  O2_18 
ROOT
HETATM    1  C8  UNL     1      -2.498   8.241  20.006  1.00  0.00    -0.024 A 
HETATM    2  C9  UNL     1      -3.902   8.223  19.921  1.00  0.00     0.019 A 
HETATM    3  C10 UNL     1      -4.635   7.069  19.812  1.00  0.00    -0.028 A 
HETATM    4  C12 UNL     1      -4.014   5.852  19.783  1.00  0.00    -0.051 A 
HETATM    5  C13 UNL     1      -4.771   4.585  19.668  1.00  0.00     0.049 C 
HETATM    6  C14 UNL     1      -2.652   5.829  19.866  1.00  0.00     0.044 A 
HETATM    7  C15 UNL     1      -1.900   7.016  19.978  1.00  0.00     0.075 A 
ENDROOT
BRANCH   1   8
HETATM    8  C7  UNL     1      -1.811   9.548  20.080  1.00  0.00     0.041 C 
BRANCH   8   9
HETATM    9  C6  UNL     1      -2.608  10.759  19.975  1.00  0.00     0.005 C 
BRANCH   9  10
HETATM   10  C5  UNL     1      -2.588  11.699  18.870  1.00  0.00     0.001 C 
BRANCH  10  11
HETATM   11  C4  UNL     1      -3.840  12.131  18.218  1.00  0.00     0.004 C 
BRANCH  11  12
HETATM   12  C3  UNL     1      -4.006  13.662  18.260  1.00  0.00     0.026 C 
BRANCH  12  13
HETATM   13  C2  UNL     1      -2.688  14.192  18.701  1.00  0.00    -0.037 C 
HETATM   14  C1  UNL     1      -2.432  15.486  18.623  1.00  0.00     0.007 C 
ENDBRANCH  12  13
ENDBRANCH  11  12
ENDBRANCH  10  11
ENDBRANCH   9  10
ENDBRANCH   8   9
ENDBRANCH   1   8
BRANCH   7  15
HETATM   15  O2  UNL     1      -0.525   6.914  20.062  1.00  0.00    -0.355 OA
HETATM   16  C16 UNL     1       0.173   6.039  19.209  1.00  0.00     0.210 C 
ENDBRANCH   7  15
BRANCH   3  17
HETATM   17  C11 UNL     1      -6.113   7.183  19.729  1.00  0.00     0.203 C 
BRANCH  17  18
HETATM   18  O1  UNL     1      -6.514   8.268  18.969  1.00  0.00    -0.396 OA
ATOM     19  H1  UNL     1      -6.206   8.212  18.072  1.00  0.00     0.209 HD
ENDBRANCH  17  18
ENDBRANCH   3  17
TORSDOF 9
ENDMDL
MODEL 5
REMARK VINA RESULT: -6.396721110      2.575      8.188
REMARK  9 active torsions:
REMARK  status: ('A' for Active; 'I' for Inactive)
REMARK    1  A    between atoms: C2_2  and  C3_3 
REMARK    2  A    between atoms: C3_3  and  C4_4 
REMARK    3  A    between atoms: C4_4  and  C5_5 
REMARK    4  A    between atoms: C5_5  and  C6_6 
REMARK    5  A    between atoms: C6_6  and  C7_7 
REMARK    6  A    between atoms: C7_7  and  C8_8 
REMARK    7  A    between atoms: C10_10  and  C11_11 
REMARK    8  A    between atoms: C11_11  and  O1_12 
REMARK    9  A    between atoms: C15_17  and  O2_18 
ROOT
HETATM    1  C8  UNL     1      -3.766  12.569  18.776  1.00  0.00    -0.024 A 
HETATM    2  C9  UNL     1      -4.231  13.599  17.936  1.00  0.00     0.019 A 
HETATM    3  C10 UNL     1      -3.662  14.845  17.887  1.00  0.00    -0.028 A 
HETATM    4  C12 UNL     1      -2.586  15.148  18.672  1.00  0.00    -0.051 A 
HETATM    5  C13 UNL     1      -1.943  16.482  18.647  1.00  0.00     0.049 C 
HETATM    6  C14 UNL     1      -2.105  14.174  19.500  1.00  0.00     0.044 A 
HETATM    7  C15 UNL     1      -2.691  12.894  19.549  1.00  0.00     0.075 A 
ENDROOT
BRANCH   1   8
HETATM    8  C7  UNL     1      -4.485  11.278  18.775  1.00  0.00     0.041 C 
BRANCH   8   9
HETATM    9  C6  UNL     1      -3.710  10.051  18.687  1.00  0.00     0.005 C 
BRANCH   9  10
HETATM   10  C5  UNL     1      -3.998   8.810  19.383  1.00  0.00     0.001 C 
BRANCH  10  11
HETATM   11  C4  UNL     1      -3.182   8.377  20.533  1.00  0.00     0.004 C 
BRANCH  11  12
HETATM   12  C3  UNL     1      -1.691   8.261  20.164  1.00  0.00     0.026 C 
BRANCH  12  13
HETATM   13  C2  UNL     1      -1.433   6.804  20.007  1.00  0.00    -0.037 C 
HETATM   14  C1  UNL     1      -0.282   6.382  19.516  1.00  0.00     0.007 C 
ENDBRANCH  12  13
ENDBRANCH  11  12
ENDBRANCH  10  11
ENDBRANCH   9  10
ENDBRANCH   8   9
ENDBRANCH   1   8
BRANCH   7  15
HETATM   15  O2  UNL     1      -2.147  11.957  20.406  1.00  0.00    -0.355 OA
HETATM   16  C16 UNL     1      -0.752  11.880  20.575  1.00  0.00     0.210 C 
ENDBRANCH   7  15
BRANCH   3  17
HETATM   17  C11 UNL     1      -4.246  15.846  16.958  1.00  0.00     0.203 C 
BRANCH  17  18
HETATM   18  O1  UNL     1      -5.087  16.734  17.606  1.00  0.00    -0.396 OA
ATOM     19  H1  UNL     1      -5.456  17.377  17.012  1.00  0.00     0.209 HD
ENDBRANCH  17  18
ENDBRANCH   3  17
TORSDOF 9
ENDMDL
