MODEL 1
REMARK VINA RESULT: -6.951866022      0.000      0.000
REMARK  7 active torsions:
REMARK  status: ('A' for Active; 'I' for Inactive)
REMARK    1  A    between atoms: C2_2  and  C3_3 
REMARK    2  A    between atoms: C3_3  and  C4_4 
REMARK    3  A    between atoms: C4_4  and  O1_6 
REMARK    4  A    between atoms: O1_6  and  C6_7 
REMARK    5  A    between atoms: C6_7  and  C7_8 
REMARK    6  A    between atoms: C11_12  and  O2_13 
REMARK    7  A    between atoms: C12_15  and  C13_16 
ROOT
HETATM    1  C7  UNL     1      -2.293   9.182  19.986  1.00  0.00    -0.033 A 
HETATM    2  C8  UNL     1      -3.631   8.873  19.868  1.00  0.00     0.019 A 
HETATM    3  C9  UNL     1      -4.083   7.580  19.694  1.00  0.00    -0.028 A 
HETATM    4  C10 UNL     1      -5.515   7.217  19.561  1.00  0.00     0.051 C 
HETATM    5  C11 UNL     1      -3.136   6.572  19.637  1.00  0.00     0.078 A 
HETATM    6  C12 UNL     1      -1.792   6.811  19.746  1.00  0.00    -0.021 A 
HETATM    7  C16 UNL     1      -1.382   8.120  19.921  1.00  0.00     0.019 A 
ENDROOT
BRANCH   1   8
HETATM    8  C6  UNL     1      -1.860  10.573  20.155  1.00  0.00     0.206 C 
BRANCH   8   9
HETATM    9  O1  UNL     1      -2.809  11.542  20.098  1.00  0.00    -0.382 OA
BRANCH   9  10
HETATM   10  C4  UNL     1      -2.890  12.253  18.891  1.00  0.00     0.117 C 
HETATM   11  C5  UNL     1      -4.321  12.230  18.477  1.00  0.00     0.039 C 
BRANCH  10  12
HETATM   12  C3  UNL     1      -2.354  13.615  19.144  1.00  0.00     0.031 C 
BRANCH  12  13
HETATM   13  C2  UNL     1      -2.914  14.777  18.437  1.00  0.00    -0.002 C 
HETATM   14  C1  UNL     1      -2.277  16.068  18.750  1.00  0.00     0.005 C 
ENDBRANCH  12  13
ENDBRANCH  10  12
ENDBRANCH   9  10
ENDBRANCH   8   9
ENDBRANCH   1   8
BRANCH   6  15
HETATM   15  C13 UNL     1      -0.781   5.770  19.671  1.00  0.00     0.013 C 
HETATM   16  C14 UNL     1      -0.324   5.316  21.061  1.00  0.00     0.015 C 
HETATM   17  C15 UNL     1       0.451   6.139  18.896  1.00  0.00     0.015 C 
ENDBRANCH   6  15
BRANCH   5  18
HETATM   18  O2  UNL     1      -3.558   5.285  19.467  1.00  0.00    -0.360 OA
ATOM     19  H2  UNL     1      -3.599   4.713  20.225  1.00  0.00     0.217 HD
ENDBRANCH   5  18
TORSDOF 7
ENDMDL
MODEL 2
REMARK VINA RESULT: -6.787553040      0.927      1.216
REMARK  7 active torsions:
REMARK  status: ('A' for Active; 'I' for Inactive)
REMARK    1  A    between atoms: C2_2  and  C3_3 
REMARK    2  A    between atoms: C3_3  and  C4_4 
REMARK    3  A    between atoms: C4_4  and  O1_6 
REMARK    4  A    between atoms: O1_6  and  C6_7 
REMARK    5  A    between atoms: C6_7  and  C7_8 
REMARK    6  A    between atoms: C11_12  and  O2_13 
REMARK    7  A    between atoms: C12_15  and  C13_16 
ROOT
HETATM    1  C7  UNL     1      -2.964   8.662  19.934  1.00  0.00    -0.033 A 
HETATM    2  C8  UNL     1      -4.155   8.247  19.379  1.00  0.00     0.019 A 
HETATM    3  C9  UNL     1      -4.338   6.974  18.878  1.00  0.00    -0.028 A 
HETATM    4  C10 UNL     1      -5.607   6.499  18.272  1.00  0.00     0.051 C 
HETATM    5  C11 UNL     1      -3.268   6.098  18.944  1.00  0.00     0.078 A 
HETATM    6  C12 UNL     1      -2.058   6.448  19.482  1.00  0.00    -0.021 A 
HETATM    7  C16 UNL     1      -1.918   7.731  19.975  1.00  0.00     0.019 A 
ENDROOT
BRANCH   1   8
HETATM    8  C6  UNL     1      -2.812  10.029  20.441  1.00  0.00     0.206 C 
BRANCH   8   9
HETATM    9  O1  UNL     1      -3.238  11.048  19.651  1.00  0.00    -0.382 OA
BRANCH   9  10
HETATM   10  C4  UNL     1      -2.616  12.289  19.859  1.00  0.00     0.117 C 
HETATM   11  C5  UNL     1      -1.159  12.014  20.011  1.00  0.00     0.039 C 
BRANCH  10  12
HETATM   12  C3  UNL     1      -2.953  13.151  18.698  1.00  0.00     0.031 C 
BRANCH  12  13
HETATM   13  C2  UNL     1      -2.580  14.575  18.697  1.00  0.00    -0.002 C 
HETATM   14  C1  UNL     1      -3.516  15.468  17.993  1.00  0.00     0.005 C 
ENDBRANCH  12  13
ENDBRANCH  10  12
ENDBRANCH   9  10
ENDBRANCH   8   9
ENDBRANCH   1   8
BRANCH   6  15
HETATM   15  C13 UNL     1      -0.917   5.549  19.546  1.00  0.00     0.013 C 
HETATM   16  C14 UNL     1      -0.626   5.097  20.980  1.00  0.00     0.015 C 
HETATM   17  C15 UNL     1       0.360   6.108  18.987  1.00  0.00     0.015 C 
ENDBRANCH   6  15
BRANCH   5  18
HETATM   18  O2  UNL     1      -3.425   4.833  18.456  1.00  0.00    -0.360 OA
ATOM     19  H2  UNL     1      -3.764   4.159  19.034  1.00  0.00     0.217 HD
ENDBRANCH   5  18
TORSDOF 7
ENDMDL
MODEL 3
REMARK VINA RESULT: -6.760811894      0.857      2.993
REMARK  7 active torsions:
REMARK  status: ('A' for Active; 'I' for Inactive)
REMARK    1  A    between atoms: C2_2  and  C3_3 
REMARK    2  A    between atoms: C3_3  and  C4_4 
REMARK    3  A    between atoms: C4_4  and  O1_6 
REMARK    4  A    between atoms: O1_6  and  C6_7 
REMARK    5  A    between atoms: C6_7  and  C7_8 
REMARK    6  A    between atoms: C11_12  and  O2_13 
REMARK    7  A    between atoms: C12_15  and  C13_16 
ROOT
HETATM    1  C7  UNL     1      -2.711   9.173  19.966  1.00  0.00    -0.033 A 
HETATM    2  C8  UNL     1      -1.536   8.467  20.106  1.00  0.00     0.019 A 
HETATM    3  C9  UNL     1      -1.484   7.089  20.041  1.00  0.00    -0.028 A 
HETATM    4  C10 UNL     1      -0.235   6.302  20.191  1.00  0.00     0.051 C 
HETATM    5  C11 UNL     1      -2.671   6.411  19.826  1.00  0.00     0.078 A 
HETATM    6  C12 UNL     1      -3.873   7.052  19.680  1.00  0.00    -0.021 A 
HETATM    7  C16 UNL     1      -3.881   8.432  19.750  1.00  0.00     0.019 A 
ENDROOT
BRANCH   1   8
HETATM    8  C6  UNL     1      -2.720  10.636  20.057  1.00  0.00     0.206 C 
BRANCH   8   9
HETATM    9  O1  UNL     1      -2.148  11.336  19.043  1.00  0.00    -0.382 OA
BRANCH   9  10
HETATM   10  C4  UNL     1      -2.914  12.388  18.515  1.00  0.00     0.117 C 
HETATM   11  C5  UNL     1      -4.343  12.031  18.744  1.00  0.00     0.039 C 
BRANCH  10  12
HETATM   12  C3  UNL     1      -2.482  13.633  19.199  1.00  0.00     0.031 C 
BRANCH  12  13
HETATM   13  C2  UNL     1      -2.418  14.903  18.458  1.00  0.00    -0.002 C 
HETATM   14  C1  UNL     1      -3.722  15.517  18.152  1.00  0.00     0.005 C 
ENDBRANCH  12  13
ENDBRANCH  10  12
ENDBRANCH   9  10
ENDBRANCH   8   9
ENDBRANCH   1   8
BRANCH   6  15
HETATM   15  C13 UNL     1      -5.134   6.358  19.472  1.00  0.00     0.013 C 
HETATM   16  C14 UNL     1      -5.342   5.981  18.001  1.00  0.00     0.015 C 
HETATM   17  C15 UNL     1      -6.352   7.116  19.913  1.00  0.00     0.015 C 
ENDBRANCH   6  15
BRANCH   5  18
HETATM   18  O2  UNL     1      -2.646   5.048  19.756  1.00  0.00    -0.360 OA
ATOM     19  H2  UNL     1      -1.911   4.584  20.140  1.00  0.00     0.217 HD
ENDBRANCH   5  18
TORSDOF 7
ENDMDL
MODEL 4
REMARK VINA RESULT: -6.536922303      2.489      4.551
REMARK  7 active torsions:
REMARK  status: ('A' for Active; 'I' for Inactive)
REMARK    1  A    between atoms: C2_2  and  C3_3 
REMARK    2  A    between atoms: C3_3  and  C4_4 
REMARK    3  A    between atoms: C4_4  and  O1_6 
REMARK    4  A    between atoms: O1_6  and  C6_7 
REMARK    5  A    between atoms: C6_7  and  C7_8 
REMARK    6  A    between atoms: C11_12  and  O2_13 
REMARK    7  A    between atoms: C12_15  and  C13_16 
ROOT
HETATM    1  C7  UNL     1      -3.744  12.366  18.823  1.00  0.00    -0.033 A 
HETATM    2  C8  UNL     1      -2.503  12.650  19.350  1.00  0.00     0.019 A 
HETATM    3  C9  UNL     1      -1.678  11.677  19.877  1.00  0.00    -0.028 A 
HETATM    4  C10 UNL     1      -0.339  11.954  20.453  1.00  0.00     0.051 C 
HETATM    5  C11 UNL     1      -2.136  10.371  19.865  1.00  0.00     0.078 A 
HETATM    6  C12 UNL     1      -3.360  10.021  19.358  1.00  0.00    -0.021 A 
HETATM    7  C16 UNL     1      -4.154  11.026  18.839  1.00  0.00     0.019 A 
ENDROOT
BRANCH   1   8
HETATM    8  C6  UNL     1      -4.592  13.435  18.288  1.00  0.00     0.206 C 
BRANCH   8   9
HETATM    9  O1  UNL     1      -3.997  14.401  17.542  1.00  0.00    -0.382 OA
BRANCH   9  10
HETATM   10  C4  UNL     1      -4.086  15.708  18.045  1.00  0.00     0.117 C 
HETATM   11  C5  UNL     1      -2.720  16.079  18.511  1.00  0.00     0.039 C 
BRANCH  10  12
HETATM   12  C3  UNL     1      -4.608  16.567  16.952  1.00  0.00     0.031 C 
BRANCH  12  13
HETATM   13  C2  UNL     1      -4.941  17.977  17.210  1.00  0.00    -0.002 C 
HETATM   14  C1  UNL     1      -4.355  18.943  16.264  1.00  0.00     0.005 C 
ENDBRANCH  12  13
ENDBRANCH  10  12
ENDBRANCH   9  10
ENDBRANCH   8   9
ENDBRANCH   1   8
BRANCH   6  15
HETATM   15  C13 UNL     1      -3.868   8.659  19.352  1.00  0.00     0.013 C 
HETATM   16  C14 UNL     1      -5.336   8.599  18.920  1.00  0.00     0.015 C 
HETATM   17  C15 UNL     1      -3.761   7.939  20.666  1.00  0.00     0.015 C 
ENDBRANCH   6  15
BRANCH   5  18
HETATM   18  O2  UNL     1      -1.338   9.391  20.379  1.00  0.00    -0.360 OA
ATOM     19  H2  UNL     1      -0.585   9.104  19.875  1.00  0.00     0.217 HD
ENDBRANCH   5  18
TORSDOF 7
ENDMDL
MODEL 5
REMARK VINA RESULT: -6.511422344      1.196      3.125
REMARK  7 active torsions:
REMARK  status: ('A' for Active; 'I' for Inactive)
REMARK    1  A    between atoms: C2_2  and  C3_3 
REMARK    2  A    between atoms: C3_3  and  C4_4 
REMARK    3  A    between atoms: C4_4  and  O1_6 
REMARK    4  A    between atoms: O1_6  and  C6_7 
REMARK    5  A    between atoms: C6_7  and  C7_8 
REMARK    6  A    between atoms: C11_12  and  O2_13 
REMARK    7  A    between atoms: C12_15  and  C13_16 
ROOT
HETATM    1  C7  UNL     1      -2.645   8.505  20.094  1.00  0.00    -0.033 A 
HETATM    2  C8  UNL     1      -1.394   7.928  20.110  1.00  0.00     0.019 A 
HETATM    3  C9  UNL     1      -1.175   6.617  19.741  1.00  0.00    -0.028 A 
HETATM    4  C10 UNL     1       0.159   5.968  19.751  1.00  0.00     0.051 C 
HETATM    5  C11 UNL     1      -2.270   5.870  19.343  1.00  0.00     0.078 A 
HETATM    6  C12 UNL     1      -3.540   6.383  19.305  1.00  0.00    -0.021 A 
HETATM    7  C16 UNL     1      -3.716   7.701  19.681  1.00  0.00     0.019 A 
ENDROOT
BRANCH   1   8
HETATM    8  C6  UNL     1      -2.832   9.899  20.509  1.00  0.00     0.206 C 
BRANCH   8   9
HETATM    9  O1  UNL     1      -3.044  10.825  19.538  1.00  0.00    -0.382 OA
BRANCH   9  10
HETATM   10  C4  UNL     1      -2.580  12.121  19.814  1.00  0.00     0.117 C 
HETATM   11  C5  UNL     1      -1.110  12.009  20.035  1.00  0.00     0.039 C 
BRANCH  10  12
HETATM   12  C3  UNL     1      -2.957  12.979  18.662  1.00  0.00     0.031 C 
BRANCH  12  13
HETATM   13  C2  UNL     1      -2.677  14.423  18.689  1.00  0.00    -0.002 C 
HETATM   14  C1  UNL     1      -3.743  15.279  18.139  1.00  0.00     0.005 C 
ENDBRANCH  12  13
ENDBRANCH  10  12
ENDBRANCH   9  10
ENDBRANCH   8   9
ENDBRANCH   1   8
BRANCH   6  15
HETATM   15  C13 UNL     1      -4.707   5.611  18.907  1.00  0.00     0.013 C 
HETATM   16  C14 UNL     1      -5.754   6.481  18.205  1.00  0.00     0.015 C 
HETATM   17  C15 UNL     1      -5.402   4.894  20.028  1.00  0.00     0.015 C 
ENDBRANCH   6  15
BRANCH   5  18
HETATM   18  O2  UNL     1      -2.079   4.571  18.971  1.00  0.00    -0.360 OA
ATOM     19  H2  UNL     1      -2.390   4.289  18.119  1.00  0.00     0.217 HD
ENDBRANCH   5  18
TORSDOF 7
ENDMDL
