MODEL 1
REMARK VINA RESULT: -5.906447539      0.000      0.000
REMARK  7 active torsions:
REMARK  status: ('A' for Active; 'I' for Inactive)
REMARK    1  A    between atoms: C2_2  and  C3_3 
REMARK    2  A    between atoms: C3_3  and  C4_4 
REMARK    3  A    between atoms: C4_4  and  C5_5 
REMARK    4  A    between atoms: C10_11  and  C11_12 
REMARK    5  A    between atoms: C11_12  and  C12_14 
REMARK    6  A    between atoms: C12_14  and  C13_15 
REMARK    7  A    between atoms: C13_15  and  C15_17 
ROOT
HETATM    1  C5  UNL     1      -2.982   6.023  18.374  1.00  0.00    -0.012 A 
HETATM    2  C6  UNL     1      -2.366   4.904  17.911  1.00  0.00     0.056 A 
HETATM    3  C7  UNL     1      -2.794   4.039  16.792  1.00  0.00     0.077 C 
HETATM    4  O1  UNL     1      -1.256   4.635  18.615  1.00  0.00    -0.319 OA
HETATM    5  C8  UNL     1      -1.101   5.531  19.540  1.00  0.00     0.064 A 
HETATM    6  C9  UNL     1       0.020   5.596  20.550  1.00  0.00     0.077 C 
HETATM    7  C10 UNL     1      -2.147   6.435  19.450  1.00  0.00     0.048 A 
ENDROOT
BRANCH   7   8
HETATM    8  C11 UNL     1      -2.339   7.588  20.305  1.00  0.00     0.163 C 
HETATM    9  O2  UNL     1      -3.170   7.508  21.224  1.00  0.00    -0.292 OA
BRANCH   8  10
HETATM   10  C12 UNL     1      -1.550   8.797  20.060  1.00  0.00     0.088 C 
BRANCH  10  11
HETATM   11  C13 UNL     1      -2.350  10.071  20.090  1.00  0.00    -0.012 C 
HETATM   12  C14 UNL     1      -3.508  10.106  19.153  1.00  0.00     0.010 C 
BRANCH  11  13
HETATM   13  C15 UNL     1      -1.483  11.311  20.020  1.00  0.00     0.000 C 
HETATM   14  C16 UNL     1      -2.290  12.424  19.357  1.00  0.00     0.005 C 
ENDBRANCH  11  13
ENDBRANCH  10  11
ENDBRANCH   8  10
ENDBRANCH   7   8
BRANCH   1  15
HETATM   15  C4  UNL     1      -4.174   6.764  17.996  1.00  0.00     0.042 C 
BRANCH  15  16
HETATM   16  C3  UNL     1      -5.473   6.447  18.584  1.00  0.00     0.004 C 
BRANCH  16  17
HETATM   17  C2  UNL     1      -5.909   5.026  18.747  1.00  0.00    -0.004 C 
HETATM   18  C1  UNL     1      -6.360   4.385  17.451  1.00  0.00     0.005 C 
ENDBRANCH  16  17
ENDBRANCH  15  16
ENDBRANCH   1  15
TORSDOF 7
ENDMDL
MODEL 2
REMARK VINA RESULT: -5.780946326      1.677      5.862
REMARK  7 active torsions:
REMARK  status: ('A' for Active; 'I' for Inactive)
REMARK    1  A    between atoms: C2_2  and  C3_3 
REMARK    2  A    between atoms: C3_3  and  C4_4 
REMARK    3  A    between atoms: C4_4  and  C5_5 
REMARK    4  A    between atoms: C10_11  and  C11_12 
REMARK    5  A    between atoms: C11_12  and  C12_14 
REMARK    6  A    between atoms: C12_14  and  C13_15 
REMARK    7  A    between atoms: C13_15  and  C15_17 
ROOT
HETATM    1  C5  UNL     1      -3.051  10.094  19.562  1.00  0.00    -0.012 A 
HETATM    2  C6  UNL     1      -1.786  10.353  19.986  1.00  0.00     0.056 A 
HETATM    3  C7  UNL     1      -1.121  11.668  20.080  1.00  0.00     0.077 C 
HETATM    4  O1  UNL     1      -1.149   9.223  20.330  1.00  0.00    -0.319 OA
HETATM    5  C8  UNL     1      -1.938   8.209  20.153  1.00  0.00     0.064 A 
HETATM    6  C9  UNL     1      -1.612   6.759  20.419  1.00  0.00     0.077 C 
HETATM    7  C10 UNL     1      -3.150   8.679  19.673  1.00  0.00     0.048 A 
ENDROOT
BRANCH   7   8
HETATM    8  C11 UNL     1      -4.301   7.861  19.348  1.00  0.00     0.163 C 
HETATM    9  O2  UNL     1      -5.189   7.728  20.206  1.00  0.00    -0.292 OA
BRANCH   8  10
HETATM   10  C12 UNL     1      -4.378   7.230  18.029  1.00  0.00     0.088 C 
BRANCH  10  11
HETATM   11  C13 UNL     1      -4.314   5.727  18.062  1.00  0.00    -0.012 C 
HETATM   12  C14 UNL     1      -3.252   5.125  17.208  1.00  0.00     0.010 C 
BRANCH  11  13
HETATM   13  C15 UNL     1      -5.671   5.079  17.879  1.00  0.00     0.000 C 
HETATM   14  C16 UNL     1      -6.079   4.436  19.202  1.00  0.00     0.005 C 
ENDBRANCH  11  13
ENDBRANCH  10  11
ENDBRANCH   8  10
ENDBRANCH   7   8
BRANCH   1  15
HETATM   15  C4  UNL     1      -4.160  10.910  19.096  1.00  0.00     0.042 C 
BRANCH  15  16
HETATM   16  C3  UNL     1      -3.958  11.942  18.082  1.00  0.00     0.004 C 
BRANCH  16  17
HETATM   17  C2  UNL     1      -4.348  13.360  18.351  1.00  0.00    -0.004 C 
HETATM   18  C1  UNL     1      -3.170  14.310  18.379  1.00  0.00     0.005 C 
ENDBRANCH  16  17
ENDBRANCH  15  16
ENDBRANCH   1  15
TORSDOF 7
ENDMDL
MODEL 3
REMARK VINA RESULT: -5.770554707      1.827      3.640
REMARK  7 active torsions:
REMARK  status: ('A' for Active; 'I' for Inactive)
REMARK    1  A    between atoms: C2_2  and  C3_3 
REMARK    2  A    between atoms: C3_3  and  C4_4 
REMARK    3  A    between atoms: C4_4  and  C5_5 
REMARK    4  A    between atoms: C10_11  and  C11_12 
REMARK    5  A    between atoms: C11_12  and  C12_14 
REMARK    6  A    between atoms: C12_14  and  C13_15 
REMARK    7  A    between atoms: C13_15  and  C15_17 
ROOT
HETATM    1  C5  UNL     1      -3.108   5.089  20.566  1.00  0.00    -0.012 A 
HETATM    2  C6  UNL     1      -3.870   4.223  19.847  1.00  0.00     0.056 A 
HETATM    3  C7  UNL     1      -3.703   2.760  19.732  1.00  0.00     0.077 C 
HETATM    4  O1  UNL     1      -4.854   4.865  19.200  1.00  0.00    -0.319 OA
HETATM    5  C8  UNL     1      -4.784   6.136  19.455  1.00  0.00     0.064 A 
HETATM    6  C9  UNL     1      -5.704   7.210  18.926  1.00  0.00     0.077 C 
HETATM    7  C10 UNL     1      -3.713   6.350  20.307  1.00  0.00     0.048 A 
ENDROOT
BRANCH   7   8
HETATM    8  C11 UNL     1      -3.297   7.636  20.830  1.00  0.00     0.163 C 
HETATM    9  O2  UNL     1      -3.770   8.010  21.915  1.00  0.00    -0.292 OA
BRANCH   8  10
HETATM   10  C12 UNL     1      -2.339   8.440  20.068  1.00  0.00     0.088 C 
BRANCH  10  11
HETATM   11  C13 UNL     1      -2.654   9.910  20.043  1.00  0.00    -0.012 C 
HETATM   12  C14 UNL     1      -3.715  10.308  19.076  1.00  0.00     0.010 C 
BRANCH  11  13
HETATM   13  C15 UNL     1      -1.412  10.775  19.961  1.00  0.00     0.000 C 
HETATM   14  C16 UNL     1      -1.845  12.214  19.693  1.00  0.00     0.005 C 
ENDBRANCH  11  13
ENDBRANCH  10  11
ENDBRANCH   8  10
ENDBRANCH   7   8
BRANCH   1  15
HETATM   15  C4  UNL     1      -1.954   4.952  21.440  1.00  0.00     0.042 C 
BRANCH  15  16
HETATM   16  C3  UNL     1      -0.633   4.647  20.896  1.00  0.00     0.004 C 
BRANCH  16  17
HETATM   17  C2  UNL     1       0.294   5.747  20.488  1.00  0.00    -0.004 C 
HETATM   18  C1  UNL     1       0.237   6.061  19.008  1.00  0.00     0.005 C 
ENDBRANCH  16  17
ENDBRANCH  15  16
ENDBRANCH   1  15
TORSDOF 7
ENDMDL
MODEL 4
REMARK VINA RESULT: -5.655961176      1.332      3.201
REMARK  7 active torsions:
REMARK  status: ('A' for Active; 'I' for Inactive)
REMARK    1  A    between atoms: C2_2  and  C3_3 
REMARK    2  A    between atoms: C3_3  and  C4_4 
REMARK    3  A    between atoms: C4_4  and  C5_5 
REMARK    4  A    between atoms: C10_11  and  C11_12 
REMARK    5  A    between atoms: C11_12  and  C12_14 
REMARK    6  A    between atoms: C12_14  and  C13_15 
REMARK    7  A    between atoms: C13_15  and  C15_17 
ROOT
HETATM    1  C5  UNL     1      -2.049   6.009  18.955  1.00  0.00    -0.012 A 
HETATM    2  C6  UNL     1      -2.744   5.228  18.086  1.00  0.00     0.056 A 
HETATM    3  C7  UNL     1      -2.233   4.093  17.292  1.00  0.00     0.077 C 
HETATM    4  O1  UNL     1      -4.026   5.614  18.007  1.00  0.00    -0.319 OA
HETATM    5  C8  UNL     1      -4.223   6.630  18.791  1.00  0.00     0.064 A 
HETATM    6  C9  UNL     1      -5.525   7.367  18.997  1.00  0.00     0.077 C 
HETATM    7  C10 UNL     1      -3.026   6.933  19.418  1.00  0.00     0.048 A 
ENDROOT
BRANCH   7   8
HETATM    8  C11 UNL     1      -2.824   8.003  20.374  1.00  0.00     0.163 C 
HETATM    9  O2  UNL     1      -3.443   7.956  21.450  1.00  0.00    -0.292 OA
BRANCH   8  10
HETATM   10  C12 UNL     1      -1.902   9.092  20.042  1.00  0.00     0.088 C 
BRANCH  10  11
HETATM   11  C13 UNL     1      -2.538  10.455  20.032  1.00  0.00    -0.012 C 
HETATM   12  C14 UNL     1      -3.587  10.649  18.991  1.00  0.00     0.010 C 
BRANCH  11  13
HETATM   13  C15 UNL     1      -1.521  11.577  20.076  1.00  0.00     0.000 C 
HETATM   14  C16 UNL     1      -2.184  12.847  19.549  1.00  0.00     0.005 C 
ENDBRANCH  11  13
ENDBRANCH  10  11
ENDBRANCH   8  10
ENDBRANCH   7   8
BRANCH   1  15
HETATM   15  C4  UNL     1      -0.674   6.039  19.427  1.00  0.00     0.042 C 
BRANCH  15  16
HETATM   16  C3  UNL     1      -0.272   5.293  20.617  1.00  0.00     0.004 C 
BRANCH  16  17
HETATM   17  C2  UNL     1      -0.355   3.800  20.643  1.00  0.00    -0.004 C 
HETATM   18  C1  UNL     1      -1.576   3.280  21.371  1.00  0.00     0.005 C 
ENDBRANCH  16  17
ENDBRANCH  15  16
ENDBRANCH   1  15
TORSDOF 7
ENDMDL
MODEL 5
REMARK VINA RESULT: -5.420364503      1.723      5.474
REMARK  7 active torsions:
REMARK  status: ('A' for Active; 'I' for Inactive)
REMARK    1  A    between atoms: C2_2  and  C3_3 
REMARK    2  A    between atoms: C3_3  and  C4_4 
REMARK    3  A    between atoms: C4_4  and  C5_5 
REMARK    4  A    between atoms: C10_11  and  C11_12 
REMARK    5  A    between atoms: C11_12  and  C12_14 
REMARK    6  A    between atoms: C12_14  and  C13_15 
REMARK    7  A    between atoms: C13_15  and  C15_17 
ROOT
HETATM    1  C5  UNL     1      -2.465   7.443  20.133  1.00  0.00    -0.012 A 
HETATM    2  C6  UNL     1      -2.904   8.710  19.910  1.00  0.00     0.056 A 
HETATM    3  C7  UNL     1      -2.098   9.947  19.871  1.00  0.00     0.077 C 
HETATM    4  O1  UNL     1      -4.232   8.737  19.722  1.00  0.00    -0.319 OA
HETATM    5  C8  UNL     1      -4.707   7.532  19.810  1.00  0.00     0.064 A 
HETATM    6  C9  UNL     1      -6.153   7.124  19.661  1.00  0.00     0.077 C 
HETATM    7  C10 UNL     1      -3.656   6.668  20.066  1.00  0.00     0.048 A 
ENDROOT
BRANCH   7   8
HETATM    8  C11 UNL     1      -3.767   5.233  20.233  1.00  0.00     0.163 C 
HETATM    9  O2  UNL     1      -4.085   4.793  21.351  1.00  0.00    -0.292 OA
BRANCH   8  10
HETATM   10  C12 UNL     1      -3.509   4.359  19.087  1.00  0.00     0.088 C 
BRANCH  10  11
HETATM   11  C13 UNL     1      -4.081   4.861  17.790  1.00  0.00    -0.012 C 
HETATM   12  C14 UNL     1      -5.351   4.205  17.369  1.00  0.00     0.010 C 
BRANCH  11  13
HETATM   13  C15 UNL     1      -3.049   4.936  16.684  1.00  0.00     0.000 C 
HETATM   14  C16 UNL     1      -2.282   3.616  16.652  1.00  0.00     0.005 C 
ENDBRANCH  11  13
ENDBRANCH  10  11
ENDBRANCH   8  10
ENDBRANCH   7   8
BRANCH   1  15
HETATM   15  C4  UNL     1      -1.165   6.841  20.378  1.00  0.00     0.042 C 
BRANCH  15  16
HETATM   16  C3  UNL     1      -0.337   6.366  19.272  1.00  0.00     0.004 C 
BRANCH  16  17
HETATM   17  C2  UNL     1       0.083   4.933  19.196  1.00  0.00    -0.004 C 
HETATM   18  C1  UNL     1      -0.108   4.182  20.497  1.00  0.00     0.005 C 
ENDBRANCH  16  17
ENDBRANCH  15  16
ENDBRANCH   1  15
TORSDOF 7
ENDMDL
