MODEL 1
REMARK VINA RESULT: -7.383991211      0.000      0.000
REMARK  9 active torsions:
REMARK  status: ('A' for Active; 'I' for Inactive)
REMARK    1  A    between atoms: C2_2  and  C3_3 
REMARK    2  A    between atoms: C5_5  and  C6_6 
REMARK    3  A    between atoms: C6_6  and  C7_7 
REMARK    4  A    between atoms: C7_7  and  C8_8 
REMARK    5  A    between atoms: C8_8  and  O1_9 
REMARK    6  A    between atoms: C8_8  and  C9_11 
REMARK    7  A    between atoms: C9_11  and  C10_12 
REMARK    8  A    between atoms: C10_12  and  C11_13 
REMARK    9  A    between atoms: C11_13  and  O2_14 
ROOT
HETATM    1  C6  UNL     1      -3.584  12.797  18.356  1.00  0.00     0.041 C 
ENDROOT
BRANCH   1   2
HETATM    2  C5  UNL     1      -3.472  14.249  18.276  1.00  0.00    -0.057 A 
HETATM    3  C4  UNL     1      -4.471  15.001  17.687  1.00  0.00     0.019 A 
HETATM    4  C3  UNL     1      -4.384  16.375  17.623  1.00  0.00    -0.031 A 
HETATM    5  C15 UNL     1      -3.276  17.013  18.159  1.00  0.00    -0.052 A 
HETATM    6  C14 UNL     1      -2.263  16.282  18.754  1.00  0.00     0.008 A 
HETATM    7  C16 UNL     1      -3.198  18.507  18.082  1.00  0.00     0.049 C 
HETATM    8  C13 UNL     1      -2.375  14.888  18.806  1.00  0.00     0.007 A 
BRANCH   4   9
HETATM    9  C2  UNL     1      -5.436  17.189  17.002  1.00  0.00     0.002 C 
HETATM   10  C1  UNL     1      -5.647  17.268  15.715  1.00  0.00     0.012 C 
ENDBRANCH   4   9
ENDBRANCH   1   2
BRANCH   1  11
HETATM   11  C7  UNL     1      -2.352  12.023  18.596  1.00  0.00     0.036 C 
BRANCH  11  12
HETATM   12  C8  UNL     1      -2.048  11.591  19.975  1.00  0.00     0.118 C 
BRANCH  12  13
HETATM   13  O1  UNL     1      -3.022  11.769  20.919  1.00  0.00    -0.396 OA
ATOM     14  H1  UNL     1      -2.753  12.105  21.766  1.00  0.00     0.210 HD
ENDBRANCH  12  13
BRANCH  12  15
HETATM   15  C9  UNL     1      -1.541  10.168  20.074  1.00  0.00     0.034 C 
BRANCH  15  16
HETATM   16  C10 UNL     1      -2.774   9.276  20.128  1.00  0.00     0.029 C 
BRANCH  16  17
HETATM   17  C11 UNL     1      -2.429   7.830  20.179  1.00  0.00     0.167 C 
BRANCH  17  18
HETATM   18  O2  UNL     1      -1.089   7.568  20.167  1.00  0.00    -0.396 OA
HETATM   19  C12 UNL     1      -0.862   6.246  19.834  1.00  0.00     0.201 C 
ENDBRANCH  17  18
ENDBRANCH  16  17
ENDBRANCH  15  16
ENDBRANCH  12  15
ENDBRANCH  11  12
ENDBRANCH   1  11
TORSDOF 9
ENDMDL
MODEL 2
REMARK VINA RESULT: -7.205735810      3.729      8.645
REMARK  9 active torsions:
REMARK  status: ('A' for Active; 'I' for Inactive)
REMARK    1  A    between atoms: C2_2  and  C3_3 
REMARK    2  A    between atoms: C5_5  and  C6_6 
REMARK    3  A    between atoms: C6_6  and  C7_7 
REMARK    4  A    between atoms: C7_7  and  C8_8 
REMARK    5  A    between atoms: C8_8  and  O1_9 
REMARK    6  A    between atoms: C8_8  and  C9_11 
REMARK    7  A    between atoms: C9_11  and  C10_12 
REMARK    8  A    between atoms: C10_12  and  C11_13 
REMARK    9  A    between atoms: C11_13  and  O2_14 
ROOT
HETATM    1  C6  UNL     1      -3.128  15.859  18.180  1.00  0.00     0.041 C 
ENDROOT
BRANCH   1   2
HETATM    2  C5  UNL     1      -3.234  14.425  18.423  1.00  0.00    -0.057 A 
HETATM    3  C4  UNL     1      -2.206  13.737  19.040  1.00  0.00     0.019 A 
HETATM    4  C3  UNL     1      -2.303  12.386  19.291  1.00  0.00    -0.031 A 
HETATM    5  C15 UNL     1      -3.452  11.705  18.919  1.00  0.00    -0.052 A 
HETATM    6  C14 UNL     1      -4.495  12.372  18.299  1.00  0.00     0.008 A 
HETATM    7  C16 UNL     1      -3.541  10.237  19.200  1.00  0.00     0.049 C 
HETATM    8  C13 UNL     1      -4.371  13.744  18.055  1.00  0.00     0.007 A 
BRANCH   4   9
HETATM    9  C2  UNL     1      -1.222  11.641  19.947  1.00  0.00     0.002 C 
HETATM   10  C1  UNL     1      -0.591  12.044  21.019  1.00  0.00     0.012 C 
ENDBRANCH   4   9
ENDBRANCH   1   2
BRANCH   1  11
HETATM   11  C7  UNL     1      -4.366  16.600  17.878  1.00  0.00     0.036 C 
BRANCH  11  12
HETATM   12  C8  UNL     1      -4.459  17.324  16.594  1.00  0.00     0.118 C 
BRANCH  12  13
HETATM   13  O1  UNL     1      -5.536  17.054  15.796  1.00  0.00    -0.396 OA
ATOM     14  H1  UNL     1      -6.398  17.250  16.144  1.00  0.00     0.210 HD
ENDBRANCH  12  13
BRANCH  12  15
HETATM   15  C9  UNL     1      -4.328  18.827  16.727  1.00  0.00     0.034 C 
BRANCH  15  16
HETATM   16  C10 UNL     1      -4.273  19.380  15.309  1.00  0.00     0.029 C 
BRANCH  16  17
HETATM   17  C11 UNL     1      -5.034  20.650  15.163  1.00  0.00     0.167 C 
BRANCH  17  18
HETATM   18  O2  UNL     1      -5.392  20.949  13.880  1.00  0.00    -0.396 OA
HETATM   19  C12 UNL     1      -5.223  19.846  13.066  1.00  0.00     0.201 C 
ENDBRANCH  17  18
ENDBRANCH  16  17
ENDBRANCH  15  16
ENDBRANCH  12  15
ENDBRANCH  11  12
ENDBRANCH   1  11
TORSDOF 9
ENDMDL
MODEL 3
REMARK VINA RESULT: -7.195616812      1.312      1.874
REMARK  9 active torsions:
REMARK  status: ('A' for Active; 'I' for Inactive)
REMARK    1  A    between atoms: C2_2  and  C3_3 
REMARK    2  A    between atoms: C5_5  and  C6_6 
REMARK    3  A    between atoms: C6_6  and  C7_7 
REMARK    4  A    between atoms: C7_7  and  C8_8 
REMARK    5  A    between atoms: C8_8  and  O1_9 
REMARK    6  A    between atoms: C8_8  and  C9_11 
REMARK    7  A    between atoms: C9_11  and  C10_12 
REMARK    8  A    between atoms: C10_12  and  C11_13 
REMARK    9  A    between atoms: C11_13  and  O2_14 
ROOT
HETATM    1  C6  UNL     1      -2.694  14.229  18.663  1.00  0.00     0.041 C 
ENDROOT
BRANCH   1   2
HETATM    2  C5  UNL     1      -3.201  15.465  18.079  1.00  0.00    -0.057 A 
HETATM    3  C4  UNL     1      -4.089  15.431  17.020  1.00  0.00     0.019 A 
HETATM    4  C3  UNL     1      -4.589  16.593  16.472  1.00  0.00    -0.031 A 
HETATM    5  C15 UNL     1      -4.195  17.815  16.993  1.00  0.00    -0.052 A 
HETATM    6  C14 UNL     1      -3.308  17.875  18.054  1.00  0.00     0.008 A 
HETATM    7  C16 UNL     1      -4.749  19.068  16.387  1.00  0.00     0.049 C 
HETATM    8  C13 UNL     1      -2.815  16.681  18.592  1.00  0.00     0.007 A 
BRANCH   4   9
HETATM    9  C2  UNL     1      -5.532  16.574  15.348  1.00  0.00     0.002 C 
HETATM   10  C1  UNL     1      -5.648  15.590  14.495  1.00  0.00     0.012 C 
ENDBRANCH   4   9
ENDBRANCH   1   2
BRANCH   1  11
HETATM   11  C7  UNL     1      -3.340  12.964  18.268  1.00  0.00     0.036 C 
BRANCH  11  12
HETATM   12  C8  UNL     1      -3.823  12.056  19.328  1.00  0.00     0.118 C 
BRANCH  12  13
HETATM   13  O1  UNL     1      -4.415  10.888  18.934  1.00  0.00    -0.396 OA
ATOM     14  H1  UNL     1      -4.450  10.181  19.567  1.00  0.00     0.210 HD
ENDBRANCH  12  13
BRANCH  12  15
HETATM   15  C9  UNL     1      -2.783  11.734  20.379  1.00  0.00     0.034 C 
BRANCH  15  16
HETATM   16  C10 UNL     1      -1.694  10.935  19.676  1.00  0.00     0.029 C 
BRANCH  16  17
HETATM   17  C11 UNL     1      -1.577   9.547  20.198  1.00  0.00     0.167 C 
BRANCH  17  18
HETATM   18  O2  UNL     1      -2.748   8.845  20.202  1.00  0.00    -0.396 OA
HETATM   19  C12 UNL     1      -2.493   7.487  20.229  1.00  0.00     0.201 C 
ENDBRANCH  17  18
ENDBRANCH  16  17
ENDBRANCH  15  16
ENDBRANCH  12  15
ENDBRANCH  11  12
ENDBRANCH   1  11
TORSDOF 9
ENDMDL
MODEL 4
REMARK VINA RESULT: -7.063549543      3.462      8.522
REMARK  9 active torsions:
REMARK  status: ('A' for Active; 'I' for Inactive)
REMARK    1  A    between atoms: C2_2  and  C3_3 
REMARK    2  A    between atoms: C5_5  and  C6_6 
REMARK    3  A    between atoms: C6_6  and  C7_7 
REMARK    4  A    between atoms: C7_7  and  C8_8 
REMARK    5  A    between atoms: C8_8  and  O1_9 
REMARK    6  A    between atoms: C8_8  and  C9_11 
REMARK    7  A    between atoms: C9_11  and  C10_12 
REMARK    8  A    between atoms: C10_12  and  C11_13 
REMARK    9  A    between atoms: C11_13  and  O2_14 
ROOT
HETATM    1  C6  UNL     1      -3.192  15.413  18.072  1.00  0.00     0.041 C 
ENDROOT
BRANCH   1   2
HETATM    2  C5  UNL     1      -3.210  14.010  18.472  1.00  0.00    -0.057 A 
HETATM    3  C4  UNL     1      -2.134  13.454  19.138  1.00  0.00     0.019 A 
HETATM    4  C3  UNL     1      -2.149  12.135  19.538  1.00  0.00    -0.031 A 
HETATM    5  C15 UNL     1      -3.262  11.354  19.267  1.00  0.00    -0.052 A 
HETATM    6  C14 UNL     1      -4.351  11.889  18.602  1.00  0.00     0.008 A 
HETATM    7  C16 UNL     1      -3.262   9.923  19.710  1.00  0.00     0.049 C 
HETATM    8  C13 UNL     1      -4.311  13.231  18.207  1.00  0.00     0.007 A 
BRANCH   4   9
HETATM    9  C2  UNL     1      -1.016  11.529  20.248  1.00  0.00     0.002 C 
HETATM   10  C1  UNL     1      -0.444  12.044  21.304  1.00  0.00     0.012 C 
ENDBRANCH   4   9
ENDBRANCH   1   2
BRANCH   1  11
HETATM   11  C7  UNL     1      -4.380  15.948  17.382  1.00  0.00     0.036 C 
BRANCH  11  12
HETATM   12  C8  UNL     1      -4.715  17.375  17.560  1.00  0.00     0.118 C 
BRANCH  12  13
HETATM   13  O1  UNL     1      -3.790  18.166  18.185  1.00  0.00    -0.396 OA
ATOM     14  H1  UNL     1      -3.794  19.092  17.975  1.00  0.00     0.210 HD
ENDBRANCH  12  13
BRANCH  12  15
HETATM   15  C9  UNL     1      -5.151  18.066  16.285  1.00  0.00     0.034 C 
BRANCH  15  16
HETATM   16  C10 UNL     1      -4.151  19.189  16.042  1.00  0.00     0.029 C 
BRANCH  16  17
HETATM   17  C11 UNL     1      -4.595  20.127  14.976  1.00  0.00     0.167 C 
BRANCH  17  18
HETATM   18  O2  UNL     1      -5.078  19.518  13.854  1.00  0.00    -0.396 OA
HETATM   19  C12 UNL     1      -5.456  20.464  12.920  1.00  0.00     0.201 C 
ENDBRANCH  17  18
ENDBRANCH  16  17
ENDBRANCH  15  16
ENDBRANCH  12  15
ENDBRANCH  11  12
ENDBRANCH   1  11
TORSDOF 9
ENDMDL
MODEL 5
REMARK VINA RESULT: -6.791757537      2.043      8.504
REMARK  9 active torsions:
REMARK  status: ('A' for Active; 'I' for Inactive)
REMARK    1  A    between atoms: C2_2  and  C3_3 
REMARK    2  A    between atoms: C5_5  and  C6_6 
REMARK    3  A    between atoms: C6_6  and  C7_7 
REMARK    4  A    between atoms: C7_7  and  C8_8 
REMARK    5  A    between atoms: C8_8  and  O1_9 
REMARK    6  A    between atoms: C8_8  and  C9_11 
REMARK    7  A    between atoms: C9_11  and  C10_12 
REMARK    8  A    between atoms: C10_12  and  C11_13 
REMARK    9  A    between atoms: C11_13  and  O2_14 
ROOT
HETATM    1  C6  UNL     1      -1.545  11.343  19.870  1.00  0.00     0.041 C 
ENDROOT
BRANCH   1   2
HETATM    2  C5  UNL     1      -2.067   9.981  19.859  1.00  0.00    -0.057 A 
HETATM    3  C4  UNL     1      -1.222   8.901  20.033  1.00  0.00     0.019 A 
HETATM    4  C3  UNL     1      -1.708   7.611  20.043  1.00  0.00    -0.031 A 
HETATM    5  C15 UNL     1      -3.067   7.394  19.876  1.00  0.00    -0.052 A 
HETATM    6  C14 UNL     1      -3.933   8.459  19.700  1.00  0.00     0.008 A 
HETATM    7  C16 UNL     1      -3.577   5.986  19.890  1.00  0.00     0.049 C 
HETATM    8  C13 UNL     1      -3.414   9.759  19.694  1.00  0.00     0.007 A 
BRANCH   4   9
HETATM    9  C2  UNL     1      -0.824   6.453  20.228  1.00  0.00     0.002 C 
HETATM   10  C1  UNL     1       0.086   6.073  19.369  1.00  0.00     0.012 C 
ENDBRANCH   4   9
ENDBRANCH   1   2
BRANCH   1  11
HETATM   11  C7  UNL     1      -2.513  12.452  19.944  1.00  0.00     0.036 C 
BRANCH  11  12
HETATM   12  C8  UNL     1      -2.809  13.213  18.713  1.00  0.00     0.118 C 
BRANCH  12  13
HETATM   13  O1  UNL     1      -4.061  13.083  18.179  1.00  0.00    -0.396 OA
ATOM     14  H1  UNL     1      -4.753  13.616  18.554  1.00  0.00     0.210 HD
ENDBRANCH  12  13
BRANCH  12  15
HETATM   15  C9  UNL     1      -2.480  14.687  18.811  1.00  0.00     0.034 C 
BRANCH  15  16
HETATM   16  C10 UNL     1      -3.601  15.425  18.089  1.00  0.00     0.029 C 
BRANCH  16  17
HETATM   17  C11 UNL     1      -3.344  16.886  17.982  1.00  0.00     0.167 C 
BRANCH  17  18
HETATM   18  O2  UNL     1      -4.470  17.650  17.865  1.00  0.00    -0.396 OA
HETATM   19  C12 UNL     1      -4.371  18.485  16.768  1.00  0.00     0.201 C 
ENDBRANCH  17  18
ENDBRANCH  16  17
ENDBRANCH  15  16
ENDBRANCH  12  15
ENDBRANCH  11  12
ENDBRANCH   1  11
TORSDOF 9
ENDMDL
