MODEL 1
REMARK VINA RESULT: -6.437522371      0.000      0.000
REMARK  9 active torsions:
REMARK  status: ('A' for Active; 'I' for Inactive)
REMARK    1  A    between atoms: C2_2  and  C3_3 
REMARK    2  A    between atoms: C3_3  and  C4_4 
REMARK    3  A    between atoms: C6_6  and  C7_7 
REMARK    4  A    between atoms: C7_7  and  O1_8 
REMARK    5  A    between atoms: C7_7  and  C8_10 
REMARK    6  A    between atoms: C11_13  and  O2_14 
REMARK    7  A    between atoms: O2_14  and  C12_15 
REMARK    8  A    between atoms: C14_17  and  C15_18 
REMARK    9  A    between atoms: C16_19  and  C17_20 
ROOT
HETATM    1  C4  UNL     1      -1.986   9.695  19.555  1.00  0.00    -0.041 A 
HETATM    2  C5  UNL     1      -1.475   8.393  20.038  1.00  0.00     0.022 A 
HETATM    3  C6  UNL     1      -2.408   7.335  20.134  1.00  0.00     0.000 A 
HETATM    4  C10 UNL     1      -3.694   7.570  19.768  1.00  0.00     0.052 A 
HETATM    5  C11 UNL     1      -4.164   8.812  19.301  1.00  0.00     0.080 A 
HETATM    6  C14 UNL     1      -3.252   9.822  19.235  1.00  0.00     0.004 A 
ENDROOT
BRANCH   3   7
HETATM    7  C7  UNL     1      -1.970   6.184  20.712  1.00  0.00     0.075 C 
BRANCH   7   8
HETATM    8  O1  UNL     1      -2.729   5.603  21.748  1.00  0.00    -0.360 OA
ATOM      9  H1  UNL     1      -3.100   4.738  21.622  1.00  0.00     0.217 HD
ENDBRANCH   7   8
BRANCH   7  10
HETATM   10  C8  UNL     1      -0.822   5.234  20.573  1.00  0.00     0.027 C 
HETATM   11  C9  UNL     1       0.414   5.367  20.713  1.00  0.00     0.014 C 
ENDBRANCH   7  10
ENDBRANCH   3   7
BRANCH   1  12
HETATM   12  C3  UNL     1      -0.911  10.663  19.284  1.00  0.00     0.066 C 
BRANCH  12  13
HETATM   13  C2  UNL     1      -0.759  11.718  20.294  1.00  0.00    -0.032 C 
HETATM   14  C1  UNL     1      -1.526  12.532  20.892  1.00  0.00     0.007 C 
ENDBRANCH  12  13
ENDBRANCH   1  12
BRANCH   5  15
HETATM   15  O2  UNL     1      -5.517   8.972  18.925  1.00  0.00    -0.351 OA
BRANCH  15  16
HETATM   16  C12 UNL     1      -6.210   7.709  18.755  1.00  0.00     0.171 C 
HETATM   17  C13 UNL     1      -7.289   7.630  19.865  1.00  0.00     0.034 C 
ENDBRANCH  15  16
ENDBRANCH   5  15
BRANCH   6  18
HETATM   18  C15 UNL     1      -3.853  11.169  18.869  1.00  0.00     0.011 C 
HETATM   19  C16 UNL     1      -3.769  12.029  17.955  1.00  0.00    -0.026 C 
BRANCH  19  20
HETATM   20  C17 UNL     1      -4.648  13.280  18.133  1.00  0.00     0.022 C 
HETATM   21  C18 UNL     1      -3.800  14.523  18.165  1.00  0.00     0.009 C 
ENDBRANCH  19  20
ENDBRANCH   6  18
TORSDOF 9
ENDMDL
MODEL 2
REMARK VINA RESULT: -6.337055789      2.107      6.034
REMARK  9 active torsions:
REMARK  status: ('A' for Active; 'I' for Inactive)
REMARK    1  A    between atoms: C2_2  and  C3_3 
REMARK    2  A    between atoms: C3_3  and  C4_4 
REMARK    3  A    between atoms: C6_6  and  C7_7 
REMARK    4  A    between atoms: C7_7  and  O1_8 
REMARK    5  A    between atoms: C7_7  and  C8_10 
REMARK    6  A    between atoms: C11_13  and  O2_14 
REMARK    7  A    between atoms: O2_14  and  C12_15 
REMARK    8  A    between atoms: C14_17  and  C15_18 
REMARK    9  A    between atoms: C16_19  and  C17_20 
ROOT
HETATM    1  C4  UNL     1      -1.731   6.691  20.429  1.00  0.00    -0.041 A 
HETATM    2  C5  UNL     1      -1.141   7.988  20.030  1.00  0.00     0.022 A 
HETATM    3  C6  UNL     1      -2.041   9.038  19.739  1.00  0.00     0.000 A 
HETATM    4  C10 UNL     1      -3.373   8.801  19.856  1.00  0.00     0.052 A 
HETATM    5  C11 UNL     1      -3.919   7.565  20.246  1.00  0.00     0.080 A 
HETATM    6  C14 UNL     1      -3.035   6.561  20.504  1.00  0.00     0.004 A 
ENDROOT
BRANCH   3   7
HETATM    7  C7  UNL     1      -1.504  10.183  19.235  1.00  0.00     0.075 C 
BRANCH   7   8
HETATM    8  O1  UNL     1      -1.013  10.188  17.914  1.00  0.00    -0.360 OA
ATOM      9  H1  UNL     1      -0.238   9.680  17.705  1.00  0.00     0.217 HD
ENDBRANCH   7   8
BRANCH   7  10
HETATM   10  C8  UNL     1      -1.253  11.588  19.686  1.00  0.00     0.027 C 
HETATM   11  C9  UNL     1      -1.935  12.634  19.627  1.00  0.00     0.014 C 
ENDBRANCH   7  10
ENDBRANCH   3   7
BRANCH   1  12
HETATM   12  C3  UNL     1      -0.725   5.734  20.917  1.00  0.00     0.066 C 
BRANCH  12  13
HETATM   13  C2  UNL     1      -0.071   4.936  19.873  1.00  0.00    -0.032 C 
HETATM   14  C1  UNL     1      -0.401   3.982  19.106  1.00  0.00     0.007 C 
ENDBRANCH  12  13
ENDBRANCH   1  12
BRANCH   5  15
HETATM   15  O2  UNL     1      -5.319   7.403  20.359  1.00  0.00    -0.351 OA
BRANCH  15  16
HETATM   16  C12 UNL     1      -6.035   7.827  19.172  1.00  0.00     0.171 C 
HETATM   17  C13 UNL     1      -6.042   6.627  18.191  1.00  0.00     0.034 C 
ENDBRANCH  15  16
ENDBRANCH   5  15
BRANCH   6  18
HETATM   18  C15 UNL     1      -3.690   5.218  20.771  1.00  0.00     0.011 C 
HETATM   19  C16 UNL     1      -4.013   4.177  20.144  1.00  0.00    -0.026 C 
BRANCH  19  20
HETATM   20  C17 UNL     1      -4.710   3.084  20.976  1.00  0.00     0.022 C 
HETATM   21  C18 UNL     1      -3.710   2.351  21.830  1.00  0.00     0.009 C 
ENDBRANCH  19  20
ENDBRANCH   6  18
TORSDOF 9
ENDMDL
MODEL 3
REMARK VINA RESULT: -6.084595949      2.232      6.607
REMARK  9 active torsions:
REMARK  status: ('A' for Active; 'I' for Inactive)
REMARK    1  A    between atoms: C2_2  and  C3_3 
REMARK    2  A    between atoms: C3_3  and  C4_4 
REMARK    3  A    between atoms: C6_6  and  C7_7 
REMARK    4  A    between atoms: C7_7  and  O1_8 
REMARK    5  A    between atoms: C7_7  and  C8_10 
REMARK    6  A    between atoms: C11_13  and  O2_14 
REMARK    7  A    between atoms: O2_14  and  C12_15 
REMARK    8  A    between atoms: C14_17  and  C15_18 
REMARK    9  A    between atoms: C16_19  and  C17_20 
ROOT
HETATM    1  C4  UNL     1      -4.101   7.497  19.936  1.00  0.00    -0.041 A 
HETATM    2  C5  UNL     1      -3.490   8.767  19.486  1.00  0.00     0.022 A 
HETATM    3  C6  UNL     1      -2.087   8.881  19.608  1.00  0.00     0.000 A 
HETATM    4  C10 UNL     1      -1.392   7.827  20.110  1.00  0.00     0.052 A 
HETATM    5  C11 UNL     1      -1.986   6.621  20.525  1.00  0.00     0.080 A 
HETATM    6  C14 UNL     1      -3.342   6.541  20.417  1.00  0.00     0.004 A 
ENDROOT
BRANCH   3   7
HETATM    7  C7  UNL     1      -1.544  10.097  19.328  1.00  0.00     0.075 C 
BRANCH   7   8
HETATM    8  O1  UNL     1      -0.922  10.302  18.080  1.00  0.00    -0.360 OA
ATOM      9  H1  UNL     1       0.026  10.344  18.037  1.00  0.00     0.217 HD
ENDBRANCH   7   8
BRANCH   7  10
HETATM   10  C8  UNL     1      -1.393  11.429  19.994  1.00  0.00     0.027 C 
HETATM   11  C9  UNL     1      -2.219  12.259  20.434  1.00  0.00     0.014 C 
ENDBRANCH   7  10
ENDBRANCH   3   7
BRANCH   1  12
HETATM   12  C3  UNL     1      -5.523   7.389  19.572  1.00  0.00     0.066 C 
BRANCH  12  13
HETATM   13  C2  UNL     1      -5.787   6.693  18.306  1.00  0.00    -0.032 C 
HETATM   14  C1  UNL     1      -6.171   5.536  17.959  1.00  0.00     0.007 C 
ENDBRANCH  12  13
ENDBRANCH   1  12
BRANCH   5  15
HETATM   15  O2  UNL     1      -1.192   5.565  21.024  1.00  0.00    -0.351 OA
BRANCH  15  16
HETATM   16  C12 UNL     1      -0.061   5.255  20.170  1.00  0.00     0.171 C 
HETATM   17  C13 UNL     1      -0.488   4.075  19.261  1.00  0.00     0.034 C 
ENDBRANCH  15  16
ENDBRANCH   5  15
BRANCH   6  18
HETATM   18  C15 UNL     1      -3.933   5.278  21.019  1.00  0.00     0.011 C 
HETATM   19  C16 UNL     1      -4.158   4.085  20.693  1.00  0.00    -0.026 C 
BRANCH  19  20
HETATM   20  C17 UNL     1      -4.838   3.215  21.765  1.00  0.00     0.022 C 
HETATM   21  C18 UNL     1      -6.316   3.106  21.500  1.00  0.00     0.009 C 
ENDBRANCH  19  20
ENDBRANCH   6  18
TORSDOF 9
ENDMDL
MODEL 4
REMARK VINA RESULT: -6.045736380      1.303      3.791
REMARK  9 active torsions:
REMARK  status: ('A' for Active; 'I' for Inactive)
REMARK    1  A    between atoms: C2_2  and  C3_3 
REMARK    2  A    between atoms: C3_3  and  C4_4 
REMARK    3  A    between atoms: C6_6  and  C7_7 
REMARK    4  A    between atoms: C7_7  and  O1_8 
REMARK    5  A    between atoms: C7_7  and  C8_10 
REMARK    6  A    between atoms: C11_13  and  O2_14 
REMARK    7  A    between atoms: O2_14  and  C12_15 
REMARK    8  A    between atoms: C14_17  and  C15_18 
REMARK    9  A    between atoms: C16_19  and  C17_20 
ROOT
HETATM    1  C4  UNL     1      -3.919   9.077  19.141  1.00  0.00    -0.041 A 
HETATM    2  C5  UNL     1      -3.417   7.789  19.669  1.00  0.00     0.022 A 
HETATM    3  C6  UNL     1      -2.065   7.749  20.079  1.00  0.00     0.000 A 
HETATM    4  C10 UNL     1      -1.324   8.882  19.979  1.00  0.00     0.052 A 
HETATM    5  C11 UNL     1      -1.818  10.103  19.484  1.00  0.00     0.080 A 
HETATM    6  C14 UNL     1      -3.118  10.114  19.077  1.00  0.00     0.004 A 
ENDROOT
BRANCH   3   7
HETATM    7  C7  UNL     1      -1.567   6.531  20.428  1.00  0.00     0.075 C 
BRANCH   7   8
HETATM    8  O1  UNL     1      -2.405   5.609  21.087  1.00  0.00    -0.360 OA
ATOM      9  H1  UNL     1      -2.024   4.991  21.699  1.00  0.00     0.217 HD
ENDBRANCH   7   8
BRANCH   7  10
HETATM   10  C8  UNL     1      -0.278   5.780  20.312  1.00  0.00     0.027 C 
HETATM   11  C9  UNL     1       0.012   4.568  20.412  1.00  0.00     0.014 C 
ENDBRANCH   7  10
ENDBRANCH   3   7
BRANCH   1  12
HETATM   12  C3  UNL     1      -5.378   9.082  18.947  1.00  0.00     0.066 C 
BRANCH  12  13
HETATM   13  C2  UNL     1      -6.014   7.760  18.992  1.00  0.00    -0.032 C 
HETATM   14  C1  UNL     1      -6.961   7.220  19.640  1.00  0.00     0.007 C 
ENDBRANCH  12  13
ENDBRANCH   1  12
BRANCH   5  15
HETATM   15  O2  UNL     1      -0.985  11.243  19.425  1.00  0.00    -0.351 OA
BRANCH  15  16
HETATM   16  C12 UNL     1      -0.646  11.764  20.735  1.00  0.00     0.171 C 
HETATM   17  C13 UNL     1      -1.878  12.555  21.243  1.00  0.00     0.034 C 
ENDBRANCH  15  16
ENDBRANCH   5  15
BRANCH   6  18
HETATM   18  C15 UNL     1      -3.544  11.413  18.415  1.00  0.00     0.011 C 
HETATM   19  C16 UNL     1      -4.242  12.426  18.674  1.00  0.00    -0.026 C 
BRANCH  19  20
HETATM   20  C17 UNL     1      -4.340  13.476  17.552  1.00  0.00     0.022 C 
HETATM   21  C18 UNL     1      -3.897  14.826  18.050  1.00  0.00     0.009 C 
ENDBRANCH  19  20
ENDBRANCH   6  18
TORSDOF 9
ENDMDL
MODEL 5
REMARK VINA RESULT: -5.927806174      2.164      5.746
REMARK  9 active torsions:
REMARK  status: ('A' for Active; 'I' for Inactive)
REMARK    1  A    between atoms: C2_2  and  C3_3 
REMARK    2  A    between atoms: C3_3  and  C4_4 
REMARK    3  A    between atoms: C6_6  and  C7_7 
REMARK    4  A    between atoms: C7_7  and  O1_8 
REMARK    5  A    between atoms: C7_7  and  C8_10 
REMARK    6  A    between atoms: C11_13  and  O2_14 
REMARK    7  A    between atoms: O2_14  and  C12_15 
REMARK    8  A    between atoms: C14_17  and  C15_18 
REMARK    9  A    between atoms: C16_19  and  C17_20 
ROOT
HETATM    1  C4  UNL     1      -2.469   6.637  20.271  1.00  0.00    -0.041 A 
HETATM    2  C5  UNL     1      -1.723   7.910  20.163  1.00  0.00     0.022 A 
HETATM    3  C6  UNL     1      -2.328   8.944  19.413  1.00  0.00     0.000 A 
HETATM    4  C10 UNL     1      -3.545   8.715  18.857  1.00  0.00     0.052 A 
HETATM    5  C11 UNL     1      -4.247   7.501  18.976  1.00  0.00     0.080 A 
HETATM    6  C14 UNL     1      -3.637   6.512  19.687  1.00  0.00     0.004 A 
ENDROOT
BRANCH   3   7
HETATM    7  C7  UNL     1      -1.580  10.061  19.195  1.00  0.00     0.075 C 
BRANCH   7   8
HETATM    8  O1  UNL     1      -0.875  10.190  17.982  1.00  0.00    -0.360 OA
ATOM      9  H1  UNL     1      -0.180   9.575  17.782  1.00  0.00     0.217 HD
ENDBRANCH   7   8
BRANCH   7  10
HETATM   10  C8  UNL     1      -1.243  11.333  19.909  1.00  0.00     0.027 C 
HETATM   11  C9  UNL     1      -1.893  12.375  20.142  1.00  0.00     0.014 C 
ENDBRANCH   7  10
ENDBRANCH   3   7
BRANCH   1  12
HETATM   12  C3  UNL     1      -1.869   5.707  21.241  1.00  0.00     0.066 C 
BRANCH  12  13
HETATM   13  C2  UNL     1      -0.632   5.056  20.791  1.00  0.00    -0.032 C 
HETATM   14  C1  UNL     1      -0.265   4.382  19.781  1.00  0.00     0.007 C 
ENDBRANCH  12  13
ENDBRANCH   1  12
BRANCH   5  15
HETATM   15  O2  UNL     1      -5.518   7.346  18.379  1.00  0.00    -0.351 OA
BRANCH  15  16
HETATM   16  C12 UNL     1      -6.505   8.272  18.900  1.00  0.00     0.171 C 
HETATM   17  C13 UNL     1      -7.295   7.522  20.003  1.00  0.00     0.034 C 
ENDBRANCH  15  16
ENDBRANCH   5  15
BRANCH   6  18
HETATM   18  C15 UNL     1      -4.374   5.185  19.651  1.00  0.00     0.011 C 
HETATM   19  C16 UNL     1      -4.346   4.100  19.016  1.00  0.00    -0.026 C 
BRANCH  19  20
HETATM   20  C17 UNL     1      -5.410   3.062  19.418  1.00  0.00     0.022 C 
HETATM   21  C18 UNL     1      -6.793   3.645  19.292  1.00  0.00     0.009 C 
ENDBRANCH  19  20
ENDBRANCH   6  18
TORSDOF 9
ENDMDL
