MODEL 1
REMARK VINA RESULT: -8.140303912      0.000      0.000
REMARK  10 active torsions:
REMARK  status: ('A' for Active; 'I' for Inactive)
REMARK    1  A    between atoms: C2_2  and  C3_3 
REMARK    2  A    between atoms: C3_3  and  C4_4 
REMARK    3  A    between atoms: C4_4  and  C5_5 
REMARK    4  A    between atoms: C5_5  and  C6_6 
REMARK    5  A    between atoms: C6_6  and  C7_7 
REMARK    6  A    between atoms: C7_7  and  C8_9 
REMARK    7  A    between atoms: C8_9  and  C9_10 
REMARK    8  A    between atoms: C9_10  and  O2_11 
REMARK    9  A    between atoms: C9_10  and  C10_13 
REMARK   10  A    between atoms: C10_13  and  C11_14 
ROOT
HETATM    1  C9  UNL     1      -3.283  14.104  18.198  1.00  0.00     0.129 C 
ENDROOT
BRANCH   1   2
HETATM    2  C8  UNL     1      -2.360  13.470  19.191  1.00  0.00     0.110 C 
BRANCH   2   3
HETATM    3  C7  UNL     1      -2.279  12.016  18.948  1.00  0.00     0.129 C 
HETATM    4  O1  UNL     1      -3.030  11.485  18.164  1.00  0.00    -0.298 OA
BRANCH   3   5
HETATM    5  C6  UNL     1      -1.270  11.174  19.665  1.00  0.00     0.078 C 
BRANCH   5   6
HETATM    6  C5  UNL     1      -1.352   9.805  18.988  1.00  0.00     0.007 C 
BRANCH   6   7
HETATM    7  C4  UNL     1      -1.536   8.716  20.004  1.00  0.00     0.000 C 
BRANCH   7   8
HETATM    8  C3  UNL     1      -3.007   8.492  20.221  1.00  0.00    -0.000 C 
BRANCH   8   9
HETATM    9  C2  UNL     1      -3.685   8.071  18.956  1.00  0.00    -0.005 C 
HETATM   10  C1  UNL     1      -5.177   7.897  19.209  1.00  0.00     0.005 C 
ENDBRANCH   8   9
ENDBRANCH   7   8
ENDBRANCH   6   7
ENDBRANCH   5   6
ENDBRANCH   3   5
ENDBRANCH   2   3
ENDBRANCH   1   2
BRANCH   1  11
HETATM   11  O2  UNL     1      -4.615  13.649  18.488  1.00  0.00    -0.395 OA
ATOM     12  H2  UNL     1      -5.217  14.341  18.242  1.00  0.00     0.210 HD
ENDBRANCH   1  11
BRANCH   1  13
HETATM   13  C10 UNL     1      -3.279  15.600  18.326  1.00  0.00     0.070 C 
BRANCH  13  14
HETATM   14  C11 UNL     1      -3.785  16.211  17.080  1.00  0.00    -0.055 A 
HETATM   15  C12 UNL     1      -4.163  15.559  15.951  1.00  0.00     0.013 A 
HETATM   16  C13 UNL     1      -4.622  16.214  14.814  1.00  0.00    -0.061 A 
HETATM   17  C14 UNL     1      -5.026  15.461  13.597  1.00  0.00     0.048 C 
HETATM   18  C15 UNL     1      -4.693  17.586  14.841  1.00  0.00     0.013 A 
HETATM   19  C16 UNL     1      -4.315  18.296  15.978  1.00  0.00    -0.061 A 
HETATM   20  C17 UNL     1      -4.392  19.794  16.013  1.00  0.00     0.048 C 
HETATM   21  C18 UNL     1      -3.867  17.609  17.086  1.00  0.00     0.013 A 
ENDBRANCH  13  14
ENDBRANCH   1  13
TORSDOF 10
ENDMDL
MODEL 2
REMARK VINA RESULT: -8.134351439      0.970      2.307
REMARK  10 active torsions:
REMARK  status: ('A' for Active; 'I' for Inactive)
REMARK    1  A    between atoms: C2_2  and  C3_3 
REMARK    2  A    between atoms: C3_3  and  C4_4 
REMARK    3  A    between atoms: C4_4  and  C5_5 
REMARK    4  A    between atoms: C5_5  and  C6_6 
REMARK    5  A    between atoms: C6_6  and  C7_7 
REMARK    6  A    between atoms: C7_7  and  C8_9 
REMARK    7  A    between atoms: C8_9  and  C9_10 
REMARK    8  A    between atoms: C9_10  and  O2_11 
REMARK    9  A    between atoms: C9_10  and  C10_13 
REMARK   10  A    between atoms: C10_13  and  C11_14 
ROOT
HETATM    1  C9  UNL     1      -3.412  14.207  17.997  1.00  0.00     0.129 C 
ENDROOT
BRANCH   1   2
HETATM    2  C8  UNL     1      -2.278  13.535  18.707  1.00  0.00     0.110 C 
BRANCH   2   3
HETATM    3  C7  UNL     1      -2.727  12.245  19.268  1.00  0.00     0.129 C 
HETATM    4  O1  UNL     1      -3.121  12.179  20.409  1.00  0.00    -0.298 OA
BRANCH   3   5
HETATM    5  C6  UNL     1      -2.704  10.999  18.440  1.00  0.00     0.078 C 
BRANCH   5   6
HETATM    6  C5  UNL     1      -1.296  10.431  18.628  1.00  0.00     0.007 C 
BRANCH   6   7
HETATM    7  C4  UNL     1      -1.296   9.329  19.646  1.00  0.00     0.000 C 
BRANCH   7   8
HETATM    8  C3  UNL     1      -2.633   8.640  19.623  1.00  0.00    -0.000 C 
BRANCH   8   9
HETATM    9  C2  UNL     1      -2.586   7.337  20.355  1.00  0.00    -0.005 C 
HETATM   10  C1  UNL     1      -1.171   6.776  20.311  1.00  0.00     0.005 C 
ENDBRANCH   8   9
ENDBRANCH   7   8
ENDBRANCH   6   7
ENDBRANCH   5   6
ENDBRANCH   3   5
ENDBRANCH   2   3
ENDBRANCH   1   2
BRANCH   1  11
HETATM   11  O2  UNL     1      -4.634  13.613  18.468  1.00  0.00    -0.395 OA
ATOM     12  H2  UNL     1      -5.265  13.654  17.760  1.00  0.00     0.210 HD
ENDBRANCH   1  11
BRANCH   1  13
HETATM   13  C10 UNL     1      -3.467  15.671  18.322  1.00  0.00     0.070 C 
BRANCH  13  14
HETATM   14  C11 UNL     1      -3.873  16.435  17.124  1.00  0.00    -0.055 A 
HETATM   15  C12 UNL     1      -3.946  17.786  17.008  1.00  0.00     0.013 A 
HETATM   16  C13 UNL     1      -4.348  18.427  15.843  1.00  0.00    -0.061 A 
HETATM   17  C14 UNL     1      -4.415  19.910  15.759  1.00  0.00     0.048 C 
HETATM   18  C15 UNL     1      -4.686  17.651  14.760  1.00  0.00     0.013 A 
HETATM   19  C16 UNL     1      -4.625  16.262  14.833  1.00  0.00    -0.061 A 
HETATM   20  C17 UNL     1      -4.992  15.410  13.654  1.00  0.00     0.048 C 
HETATM   21  C18 UNL     1      -4.220  15.665  16.008  1.00  0.00     0.013 A 
ENDBRANCH  13  14
ENDBRANCH   1  13
TORSDOF 10
ENDMDL
MODEL 3
REMARK VINA RESULT: -8.112663068      0.887      1.351
REMARK  10 active torsions:
REMARK  status: ('A' for Active; 'I' for Inactive)
REMARK    1  A    between atoms: C2_2  and  C3_3 
REMARK    2  A    between atoms: C3_3  and  C4_4 
REMARK    3  A    between atoms: C4_4  and  C5_5 
REMARK    4  A    between atoms: C5_5  and  C6_6 
REMARK    5  A    between atoms: C6_6  and  C7_7 
REMARK    6  A    between atoms: C7_7  and  C8_9 
REMARK    7  A    between atoms: C8_9  and  C9_10 
REMARK    8  A    between atoms: C9_10  and  O2_11 
REMARK    9  A    between atoms: C9_10  and  C10_13 
REMARK   10  A    between atoms: C10_13  and  C11_14 
ROOT
HETATM    1  C9  UNL     1      -3.271  14.003  18.204  1.00  0.00     0.129 C 
ENDROOT
BRANCH   1   2
HETATM    2  C8  UNL     1      -2.367  13.337  19.195  1.00  0.00     0.110 C 
BRANCH   2   3
HETATM    3  C7  UNL     1      -2.332  11.882  18.947  1.00  0.00     0.129 C 
HETATM    4  O1  UNL     1      -3.092  11.379  18.154  1.00  0.00    -0.298 OA
BRANCH   3   5
HETATM    5  C6  UNL     1      -1.358  11.005  19.671  1.00  0.00     0.078 C 
BRANCH   5   6
HETATM    6  C5  UNL     1      -1.577   9.610  19.082  1.00  0.00     0.007 C 
BRANCH   6   7
HETATM    7  C4  UNL     1      -1.232   8.547  20.082  1.00  0.00     0.000 C 
BRANCH   7   8
HETATM    8  C3  UNL     1      -2.416   7.638  20.259  1.00  0.00    -0.000 C 
BRANCH   8   9
HETATM    9  C2  UNL     1      -1.991   6.209  20.385  1.00  0.00    -0.005 C 
HETATM   10  C1  UNL     1      -0.470   6.126  20.375  1.00  0.00     0.005 C 
ENDBRANCH   8   9
ENDBRANCH   7   8
ENDBRANCH   6   7
ENDBRANCH   5   6
ENDBRANCH   3   5
ENDBRANCH   2   3
ENDBRANCH   1   2
BRANCH   1  11
HETATM   11  O2  UNL     1      -4.617  13.595  18.501  1.00  0.00    -0.395 OA
ATOM     12  H2  UNL     1      -5.193  14.031  17.883  1.00  0.00     0.210 HD
ENDBRANCH   1  11
BRANCH   1  13
HETATM   13  C10 UNL     1      -3.214  15.498  18.332  1.00  0.00     0.070 C 
BRANCH  13  14
HETATM   14  C11 UNL     1      -3.740  16.126  17.103  1.00  0.00    -0.055 A 
HETATM   15  C12 UNL     1      -4.118  15.491  15.965  1.00  0.00     0.013 A 
HETATM   16  C13 UNL     1      -4.597  16.161  14.845  1.00  0.00    -0.061 A 
HETATM   17  C14 UNL     1      -5.000  15.426  13.617  1.00  0.00     0.048 C 
HETATM   18  C15 UNL     1      -4.688  17.531  14.899  1.00  0.00     0.013 A 
HETATM   19  C16 UNL     1      -4.311  18.224  16.046  1.00  0.00    -0.061 A 
HETATM   20  C17 UNL     1      -4.409  19.720  16.112  1.00  0.00     0.048 C 
HETATM   21  C18 UNL     1      -3.842  17.522  17.137  1.00  0.00     0.013 A 
ENDBRANCH  13  14
ENDBRANCH   1  13
TORSDOF 10
ENDMDL
MODEL 4
REMARK VINA RESULT: -8.107630923      0.999      1.200
REMARK  10 active torsions:
REMARK  status: ('A' for Active; 'I' for Inactive)
REMARK    1  A    between atoms: C2_2  and  C3_3 
REMARK    2  A    between atoms: C3_3  and  C4_4 
REMARK    3  A    between atoms: C4_4  and  C5_5 
REMARK    4  A    between atoms: C5_5  and  C6_6 
REMARK    5  A    between atoms: C6_6  and  C7_7 
REMARK    6  A    between atoms: C7_7  and  C8_9 
REMARK    7  A    between atoms: C8_9  and  C9_10 
REMARK    8  A    between atoms: C9_10  and  O2_11 
REMARK    9  A    between atoms: C9_10  and  C10_13 
REMARK   10  A    between atoms: C10_13  and  C11_14 
ROOT
HETATM    1  C9  UNL     1      -3.026  14.323  18.209  1.00  0.00     0.129 C 
ENDROOT
BRANCH   1   2
HETATM    2  C8  UNL     1      -1.999  13.923  19.222  1.00  0.00     0.110 C 
BRANCH   2   3
HETATM    3  C7  UNL     1      -2.223  12.525  19.642  1.00  0.00     0.129 C 
HETATM    4  O1  UNL     1      -3.061  12.264  20.473  1.00  0.00    -0.298 OA
BRANCH   3   5
HETATM    5  C6  UNL     1      -1.420  11.409  19.051  1.00  0.00     0.078 C 
BRANCH   5   6
HETATM    6  C5  UNL     1      -2.411  10.634  18.181  1.00  0.00     0.007 C 
BRANCH   6   7
HETATM    7  C4  UNL     1      -2.695   9.283  18.767  1.00  0.00     0.000 C 
BRANCH   7   8
HETATM    8  C3  UNL     1      -1.540   8.875  19.640  1.00  0.00    -0.000 C 
BRANCH   8   9
HETATM    9  C2  UNL     1      -1.823   7.590  20.352  1.00  0.00    -0.005 C 
HETATM   10  C1  UNL     1      -3.233   7.625  20.927  1.00  0.00     0.005 C 
ENDBRANCH   8   9
ENDBRANCH   7   8
ENDBRANCH   6   7
ENDBRANCH   5   6
ENDBRANCH   3   5
ENDBRANCH   2   3
ENDBRANCH   1   2
BRANCH   1  11
HETATM   11  O2  UNL     1      -4.212  13.551  18.462  1.00  0.00    -0.395 OA
ATOM     12  H2  UNL     1      -4.023  12.649  18.234  1.00  0.00     0.210 HD
ENDBRANCH   1  11
BRANCH   1  13
HETATM   13  C10 UNL     1      -3.392  15.772  18.346  1.00  0.00     0.070 C 
BRANCH  13  14
HETATM   14  C11 UNL     1      -3.852  16.299  17.045  1.00  0.00    -0.055 A 
HETATM   15  C12 UNL     1      -4.216  15.571  15.958  1.00  0.00     0.013 A 
HETATM   16  C13 UNL     1      -4.630  16.148  14.763  1.00  0.00    -0.061 A 
HETATM   17  C14 UNL     1      -5.019  15.313  13.595  1.00  0.00     0.048 C 
HETATM   18  C15 UNL     1      -4.672  17.519  14.685  1.00  0.00     0.013 A 
HETATM   19  C16 UNL     1      -4.308  18.304  15.775  1.00  0.00    -0.061 A 
HETATM   20  C17 UNL     1      -4.352  19.802  15.697  1.00  0.00     0.048 C 
HETATM   21  C18 UNL     1      -3.903  17.694  16.943  1.00  0.00     0.013 A 
ENDBRANCH  13  14
ENDBRANCH   1  13
TORSDOF 10
ENDMDL
MODEL 5
REMARK VINA RESULT: -7.860352244      1.110      8.491
REMARK  10 active torsions:
REMARK  status: ('A' for Active; 'I' for Inactive)
REMARK    1  A    between atoms: C2_2  and  C3_3 
REMARK    2  A    between atoms: C3_3  and  C4_4 
REMARK    3  A    between atoms: C4_4  and  C5_5 
REMARK    4  A    between atoms: C5_5  and  C6_6 
REMARK    5  A    between atoms: C6_6  and  C7_7 
REMARK    6  A    between atoms: C7_7  and  C8_9 
REMARK    7  A    between atoms: C8_9  and  C9_10 
REMARK    8  A    between atoms: C9_10  and  O2_11 
REMARK    9  A    between atoms: C9_10  and  C10_13 
REMARK   10  A    between atoms: C10_13  and  C11_14 
ROOT
HETATM    1  C9  UNL     1      -2.722  11.613  19.186  1.00  0.00     0.129 C 
ENDROOT
BRANCH   1   2
HETATM    2  C8  UNL     1      -2.390  13.062  19.364  1.00  0.00     0.110 C 
BRANCH   2   3
HETATM    3  C7  UNL     1      -3.264  13.889  18.508  1.00  0.00     0.129 C 
HETATM    4  O1  UNL     1      -4.388  13.527  18.252  1.00  0.00    -0.298 OA
BRANCH   3   5
HETATM    5  C6  UNL     1      -2.776  15.186  17.941  1.00  0.00     0.078 C 
BRANCH   5   6
HETATM    6  C5  UNL     1      -4.047  15.946  17.557  1.00  0.00     0.007 C 
BRANCH   6   7
HETATM    7  C4  UNL     1      -3.928  16.523  16.178  1.00  0.00     0.000 C 
BRANCH   7   8
HETATM    8  C3  UNL     1      -4.198  15.440  15.169  1.00  0.00    -0.000 C 
BRANCH   8   9
HETATM    9  C2  UNL     1      -5.078  15.933  14.065  1.00  0.00    -0.005 C 
HETATM   10  C1  UNL     1      -5.175  17.452  14.127  1.00  0.00     0.005 C 
ENDBRANCH   8   9
ENDBRANCH   7   8
ENDBRANCH   6   7
ENDBRANCH   5   6
ENDBRANCH   3   5
ENDBRANCH   2   3
ENDBRANCH   1   2
BRANCH   1  11
HETATM   11  O2  UNL     1      -2.798  11.353  17.774  1.00  0.00    -0.395 OA
ATOM     12  H2  UNL     1      -2.164  11.913  17.343  1.00  0.00     0.210 HD
ENDBRANCH   1  11
BRANCH   1  13
HETATM   13  C10 UNL     1      -1.645  10.733  19.750  1.00  0.00     0.070 C 
BRANCH  13  14
HETATM   14  C11 UNL     1      -2.146   9.349  19.884  1.00  0.00    -0.055 A 
HETATM   15  C12 UNL     1      -3.442   8.948  19.837  1.00  0.00     0.013 A 
HETATM   16  C13 UNL     1      -3.831   7.621  19.981  1.00  0.00    -0.061 A 
HETATM   17  C14 UNL     1      -5.263   7.224  19.925  1.00  0.00     0.048 C 
HETATM   18  C15 UNL     1      -2.853   6.677  20.180  1.00  0.00     0.013 A 
HETATM   19  C16 UNL     1      -1.511   7.044  20.235  1.00  0.00    -0.061 A 
HETATM   20  C17 UNL     1      -0.438   6.017  20.451  1.00  0.00     0.048 C 
HETATM   21  C18 UNL     1      -1.166   8.371  20.086  1.00  0.00     0.013 A 
ENDBRANCH  13  14
ENDBRANCH   1  13
TORSDOF 10
ENDMDL
