MODEL 1
REMARK VINA RESULT: -6.240830501      0.000      0.000
REMARK  9 active torsions:
REMARK  status: ('A' for Active; 'I' for Inactive)
REMARK    1  A    between atoms: C2_2  and  C3_3 
REMARK    2  A    between atoms: C4_4  and  N1_5 
REMARK    3  A    between atoms: N1_5  and  C5_6 
REMARK    4  A    between atoms: N1_5  and  S1_8 
REMARK    5  A    between atoms: S1_8  and  C7_11 
REMARK    6  A    between atoms: C7_11  and  C9_14 
REMARK    7  A    between atoms: C11_16  and  C12_17 
REMARK    8  A    between atoms: C12_17  and  O3_18 
REMARK    9  A    between atoms: C15_25  and  C16_26 
ROOT
HETATM    1  C3  UNL     1      -0.374  49.519  22.330  1.00  0.00     0.045 A 
HETATM    2  C4  UNL     1      -0.633  50.434  23.356  1.00  0.00     0.078 A 
HETATM    3  C11 UNL     1      -1.133  51.639  23.002  1.00  0.00     0.020 A 
HETATM    4  C13 UNL     1      -1.406  52.002  21.665  1.00  0.00     0.089 A 
HETATM    5 CL2  UNL     1      -2.055  53.569  21.261  1.00  0.00    -0.080 Cl
HETATM    6  C14 UNL     1      -1.138  51.066  20.694  1.00  0.00     0.135 A 
HETATM    7  N2  UNL     1      -1.296  51.133  19.354  1.00  0.00    -0.334 N 
ATOM      8  H2  UNL     1      -1.659  51.930  18.831  1.00  0.00     0.168 HD
HETATM    9  C15 UNL     1      -0.898  49.981  18.841  1.00  0.00     0.127 A 
HETATM   10  C17 UNL     1      -0.485  49.187  19.888  1.00  0.00     0.135 A 
HETATM   11  N3  UNL     1      -0.640  49.874  21.023  1.00  0.00    -0.306 N 
ENDROOT
BRANCH   2  12
HETATM   12  N1  UNL     1      -0.476  49.961  24.706  1.00  0.00    -0.272 N 
BRANCH  12  13
HETATM   13  C5  UNL     1      -1.632  49.191  25.216  1.00  0.00     0.137 C 
HETATM   14  C6  UNL     1      -2.772  49.956  25.741  1.00  0.00     0.028 C 
ENDBRANCH  12  13
BRANCH  12  15
HETATM   15  S1  UNL     1       0.866  50.102  25.700  1.00  0.00     0.255 S 
HETATM   16  O1  UNL     1       0.975  48.825  26.567  1.00  0.00    -0.203 OA
HETATM   17  O2  UNL     1       0.533  51.170  26.768  1.00  0.00    -0.203 OA
BRANCH  15  18
HETATM   18  C7  UNL     1       2.436  50.511  25.123  1.00  0.00     0.155 C 
HETATM   19  C8  UNL     1       3.260  51.351  26.113  1.00  0.00     0.052 C 
HETATM   20 CL1  UNL     1       2.600  51.289  23.567  1.00  0.00    -0.101 Cl
BRANCH  18  21
HETATM   21  C9  UNL     1       3.227  49.178  24.965  1.00  0.00     0.039 C 
HETATM   22  C10 UNL     1       4.524  49.323  24.281  1.00  0.00     0.008 C 
ENDBRANCH  18  21
ENDBRANCH  15  18
ENDBRANCH  12  15
ENDBRANCH   2  12
BRANCH   1  23
HETATM   23  C2  UNL     1       0.242  48.219  22.553  1.00  0.00     0.055 C 
HETATM   24  C1  UNL     1       1.679  48.112  22.054  1.00  0.00     0.011 C 
ENDBRANCH   1  23
BRANCH   3  25
HETATM   25  C12 UNL     1      -1.371  52.696  23.980  1.00  0.00     0.207 C 
BRANCH  25  26
HETATM   26  O3  UNL     1      -0.155  53.178  24.512  1.00  0.00    -0.396 OA
ATOM     27  H3  UNL     1      -0.276  53.512  25.392  1.00  0.00     0.209 HD
ENDBRANCH  25  26
ENDBRANCH   3  25
BRANCH   9  28
HETATM   28  C16 UNL     1      -0.910  49.654  17.425  1.00  0.00     0.228 C 
HETATM   29  O4  UNL     1      -1.212  50.495  16.558  1.00  0.00    -0.643 OA
HETATM   30  O5  UNL     1      -0.579  48.372  17.021  1.00  0.00    -0.643 OA
ENDBRANCH   9  28
TORSDOF 9
ENDMDL
MODEL 2
REMARK VINA RESULT: -6.156727246      3.183      7.145
REMARK  9 active torsions:
REMARK  status: ('A' for Active; 'I' for Inactive)
REMARK    1  A    between atoms: C2_2  and  C3_3 
REMARK    2  A    between atoms: C4_4  and  N1_5 
REMARK    3  A    between atoms: N1_5  and  C5_6 
REMARK    4  A    between atoms: N1_5  and  S1_8 
REMARK    5  A    between atoms: S1_8  and  C7_11 
REMARK    6  A    between atoms: C7_11  and  C9_14 
REMARK    7  A    between atoms: C11_16  and  C12_17 
REMARK    8  A    between atoms: C12_17  and  O3_18 
REMARK    9  A    between atoms: C15_25  and  C16_26 
ROOT
HETATM    1  C3  UNL     1       0.022  49.867  22.262  1.00  0.00     0.045 A 
HETATM    2  C4  UNL     1       1.076  49.078  21.789  1.00  0.00     0.078 A 
HETATM    3  C11 UNL     1       1.599  48.167  22.639  1.00  0.00     0.020 A 
HETATM    4  C13 UNL     1       1.129  47.977  23.957  1.00  0.00     0.089 A 
HETATM    5 CL2  UNL     1       1.836  46.784  25.013  1.00  0.00    -0.080 Cl
HETATM    6  C14 UNL     1       0.089  48.775  24.373  1.00  0.00     0.135 A 
HETATM    7  N2  UNL     1      -0.555  48.816  25.560  1.00  0.00    -0.334 N 
ATOM      8  H2  UNL     1      -0.357  48.230  26.371  1.00  0.00     0.168 HD
HETATM    9  C15 UNL     1      -1.487  49.751  25.482  1.00  0.00     0.127 A 
HETATM   10  C17 UNL     1      -1.415  50.298  24.220  1.00  0.00     0.135 A 
HETATM   11  N3  UNL     1      -0.437  49.683  23.550  1.00  0.00    -0.306 N 
ENDROOT
BRANCH   2  12
HETATM   12  N1  UNL     1       1.416  49.210  20.397  1.00  0.00    -0.272 N 
BRANCH  12  13
HETATM   13  C5  UNL     1       2.449  50.233  20.120  1.00  0.00     0.137 C 
HETATM   14  C6  UNL     1       3.799  49.754  19.793  1.00  0.00     0.028 C 
ENDBRANCH  12  13
BRANCH  12  15
HETATM   15  S1  UNL     1       0.856  48.299  19.107  1.00  0.00     0.255 S 
HETATM   16  O1  UNL     1      -0.416  47.539  19.553  1.00  0.00    -0.203 OA
HETATM   17  O2  UNL     1       1.853  47.133  18.905  1.00  0.00    -0.203 OA
BRANCH  15  18
HETATM   18  C7  UNL     1       0.588  48.945  17.533  1.00  0.00     0.155 C 
HETATM   19  C8  UNL     1      -0.331  48.077  16.656  1.00  0.00     0.052 C 
HETATM   20 CL1  UNL     1       1.960  49.367  16.536  1.00  0.00    -0.101 Cl
BRANCH  18  21
HETATM   21  C9  UNL     1      -0.175  50.290  17.715  1.00  0.00     0.039 C 
HETATM   22  C10 UNL     1      -1.436  50.375  16.957  1.00  0.00     0.008 C 
ENDBRANCH  18  21
ENDBRANCH  15  18
ENDBRANCH  12  15
ENDBRANCH   2  12
BRANCH   1  23
HETATM   23  C2  UNL     1      -0.581  50.944  21.490  1.00  0.00     0.055 C 
HETATM   24  C1  UNL     1      -1.864  50.553  20.764  1.00  0.00     0.011 C 
ENDBRANCH   1  23
BRANCH   3  25
HETATM   25  C12 UNL     1       2.748  47.342  22.278  1.00  0.00     0.207 C 
BRANCH  25  26
HETATM   26  O3  UNL     1       2.338  46.162  21.620  1.00  0.00    -0.396 OA
ATOM     27  H3  UNL     1       2.801  46.052  20.799  1.00  0.00     0.209 HD
ENDBRANCH  25  26
ENDBRANCH   3  25
BRANCH   9  28
HETATM   28  C16 UNL     1      -2.399  50.106  26.557  1.00  0.00     0.228 C 
HETATM   29  O4  UNL     1      -2.010  50.237  27.733  1.00  0.00    -0.643 OA
HETATM   30  O5  UNL     1      -3.740  50.303  26.274  1.00  0.00    -0.643 OA
ENDBRANCH   9  28
TORSDOF 9
ENDMDL
MODEL 3
REMARK VINA RESULT: -6.102838418      1.283      1.535
REMARK  9 active torsions:
REMARK  status: ('A' for Active; 'I' for Inactive)
REMARK    1  A    between atoms: C2_2  and  C3_3 
REMARK    2  A    between atoms: C4_4  and  N1_5 
REMARK    3  A    between atoms: N1_5  and  C5_6 
REMARK    4  A    between atoms: N1_5  and  S1_8 
REMARK    5  A    between atoms: S1_8  and  C7_11 
REMARK    6  A    between atoms: C7_11  and  C9_14 
REMARK    7  A    between atoms: C11_16  and  C12_17 
REMARK    8  A    between atoms: C12_17  and  O3_18 
REMARK    9  A    between atoms: C15_25  and  C16_26 
ROOT
HETATM    1  C3  UNL     1       0.039  49.740  22.618  1.00  0.00     0.045 A 
HETATM    2  C4  UNL     1      -0.310  50.709  23.567  1.00  0.00     0.078 A 
HETATM    3  C11 UNL     1      -1.017  51.776  23.133  1.00  0.00     0.020 A 
HETATM    4  C13 UNL     1      -1.416  51.946  21.789  1.00  0.00     0.089 A 
HETATM    5 CL2  UNL     1      -2.331  53.340  21.282  1.00  0.00    -0.080 Cl
HETATM    6  C14 UNL     1      -1.052  50.965  20.898  1.00  0.00     0.135 A 
HETATM    7  N2  UNL     1      -1.291  50.862  19.571  1.00  0.00    -0.334 N 
ATOM      8  H2  UNL     1      -1.805  51.533  19.000  1.00  0.00     0.168 HD
HETATM    9  C15 UNL     1      -0.739  49.738  19.147  1.00  0.00     0.127 A 
HETATM   10  C17 UNL     1      -0.147  49.135  20.235  1.00  0.00     0.135 A 
HETATM   11  N3  UNL     1      -0.351  49.907  21.305  1.00  0.00    -0.306 N 
ENDROOT
BRANCH   2  12
HETATM   12  N1  UNL     1      -0.007  50.413  24.942  1.00  0.00    -0.272 N 
BRANCH  12  13
HETATM   13  C5  UNL     1      -0.944  49.461  25.578  1.00  0.00     0.137 C 
HETATM   14  C6  UNL     1      -2.238  49.991  26.030  1.00  0.00     0.028 C 
ENDBRANCH  12  13
BRANCH  12  15
HETATM   15  S1  UNL     1       1.303  50.939  25.846  1.00  0.00     0.255 S 
HETATM   16  O1  UNL     1       0.780  51.525  27.180  1.00  0.00    -0.203 OA
HETATM   17  O2  UNL     1       1.858  52.205  25.152  1.00  0.00    -0.203 OA
BRANCH  15  18
HETATM   18  C7  UNL     1       2.681  49.961  26.177  1.00  0.00     0.155 C 
HETATM   19  C8  UNL     1       3.906  50.305  25.312  1.00  0.00     0.052 C 
HETATM   20 CL1  UNL     1       2.527  48.221  26.136  1.00  0.00    -0.101 Cl
BRANCH  18  21
HETATM   21  C9  UNL     1       3.119  50.268  27.640  1.00  0.00     0.039 C 
HETATM   22  C10 UNL     1       3.583  49.088  28.391  1.00  0.00     0.008 C 
ENDBRANCH  18  21
ENDBRANCH  15  18
ENDBRANCH  12  15
ENDBRANCH   2  12
BRANCH   1  23
HETATM   23  C2  UNL     1       0.869  48.584  22.924  1.00  0.00     0.055 C 
HETATM   24  C1  UNL     1       2.328  48.732  22.506  1.00  0.00     0.011 C 
ENDBRANCH   1  23
BRANCH   3  25
HETATM   25  C12 UNL     1      -1.371  52.882  24.018  1.00  0.00     0.207 C 
BRANCH  25  26
HETATM   26  O3  UNL     1      -0.249  53.697  24.284  1.00  0.00    -0.396 OA
ATOM     27  H3  UNL     1       0.530  53.171  24.417  1.00  0.00     0.209 HD
ENDBRANCH  25  26
ENDBRANCH   3  25
BRANCH   9  28
HETATM   28  C16 UNL     1      -0.773  49.264  17.773  1.00  0.00     0.228 C 
HETATM   29  O4  UNL     1      -1.182  49.979  16.840  1.00  0.00    -0.643 OA
HETATM   30  O5  UNL     1      -0.341  47.980  17.487  1.00  0.00    -0.643 OA
ENDBRANCH   9  28
TORSDOF 9
ENDMDL
MODEL 4
REMARK VINA RESULT: -5.965982194      3.074      5.937
REMARK  9 active torsions:
REMARK  status: ('A' for Active; 'I' for Inactive)
REMARK    1  A    between atoms: C2_2  and  C3_3 
REMARK    2  A    between atoms: C4_4  and  N1_5 
REMARK    3  A    between atoms: N1_5  and  C5_6 
REMARK    4  A    between atoms: N1_5  and  S1_8 
REMARK    5  A    between atoms: S1_8  and  C7_11 
REMARK    6  A    between atoms: C7_11  and  C9_14 
REMARK    7  A    between atoms: C11_16  and  C12_17 
REMARK    8  A    between atoms: C12_17  and  O3_18 
REMARK    9  A    between atoms: C15_25  and  C16_26 
ROOT
HETATM    1  C3  UNL     1       0.071  49.189  21.843  1.00  0.00     0.045 A 
HETATM    2  C4  UNL     1       0.126  49.842  20.606  1.00  0.00     0.078 A 
HETATM    3  C11 UNL     1      -0.495  51.037  20.507  1.00  0.00     0.020 A 
HETATM    4  C13 UNL     1      -1.181  51.646  21.582  1.00  0.00     0.089 A 
HETATM    5 CL2  UNL     1      -1.964  53.193  21.402  1.00  0.00    -0.080 Cl
HETATM    6  C14 UNL     1      -1.203  50.966  22.776  1.00  0.00     0.135 A 
HETATM    7  N2  UNL     1      -1.773  51.298  23.956  1.00  0.00    -0.334 N 
ATOM      8  H2  UNL     1      -2.299  52.150  24.150  1.00  0.00     0.168 HD
HETATM    9  C15 UNL     1      -1.525  50.323  24.814  1.00  0.00     0.127 A 
HETATM   10  C17 UNL     1      -0.787  49.369  24.148  1.00  0.00     0.135 A 
HETATM   11  N3  UNL     1      -0.599  49.783  22.893  1.00  0.00    -0.306 N 
ENDROOT
BRANCH   2  12
HETATM   12  N1  UNL     1       0.959  49.249  19.594  1.00  0.00    -0.272 N 
BRANCH  12  13
HETATM   13  C5  UNL     1       0.247  48.314  18.695  1.00  0.00     0.137 C 
HETATM   14  C6  UNL     1      -0.252  48.851  17.422  1.00  0.00     0.028 C 
ENDBRANCH  12  13
BRANCH  12  15
HETATM   15  S1  UNL     1       2.574  49.563  19.271  1.00  0.00     0.255 S 
HETATM   16  O1  UNL     1       3.137  50.465  20.395  1.00  0.00    -0.203 OA
HETATM   17  O2  UNL     1       2.618  50.521  18.057  1.00  0.00    -0.203 OA
BRANCH  15  18
HETATM   18  C7  UNL     1       3.728  48.333  18.922  1.00  0.00     0.155 C 
HETATM   19  C8  UNL     1       4.132  48.267  17.439  1.00  0.00     0.052 C 
HETATM   20 CL1  UNL     1       3.402  46.688  19.414  1.00  0.00    -0.101 Cl
BRANCH  18  21
HETATM   21  C9  UNL     1       5.035  48.704  19.683  1.00  0.00     0.039 C 
HETATM   22  C10 UNL     1       5.412  47.746  20.738  1.00  0.00     0.008 C 
ENDBRANCH  18  21
ENDBRANCH  15  18
ENDBRANCH  12  15
ENDBRANCH   2  12
BRANCH   1  23
HETATM   23  C2  UNL     1       0.621  47.861  22.073  1.00  0.00     0.055 C 
HETATM   24  C1  UNL     1       2.040  47.858  22.631  1.00  0.00     0.011 C 
ENDBRANCH   1  23
BRANCH   3  25
HETATM   25  C12 UNL     1      -0.565  51.772  19.247  1.00  0.00     0.207 C 
BRANCH  25  26
HETATM   26  O3  UNL     1       0.547  52.629  19.099  1.00  0.00    -0.396 OA
ATOM     27  H3  UNL     1       1.304  52.153  18.782  1.00  0.00     0.209 HD
ENDBRANCH  25  26
ENDBRANCH   3  25
BRANCH   9  28
HETATM   28  C16 UNL     1      -1.969  50.302  26.198  1.00  0.00     0.228 C 
HETATM   29  O4  UNL     1      -1.176  50.120  27.141  1.00  0.00    -0.643 OA
HETATM   30  O5  UNL     1      -3.311  50.487  26.484  1.00  0.00    -0.643 OA
ENDBRANCH   9  28
TORSDOF 9
ENDMDL
MODEL 5
REMARK VINA RESULT: -5.888954438      1.669      2.154
REMARK  9 active torsions:
REMARK  status: ('A' for Active; 'I' for Inactive)
REMARK    1  A    between atoms: C2_2  and  C3_3 
REMARK    2  A    between atoms: C4_4  and  N1_5 
REMARK    3  A    between atoms: N1_5  and  C5_6 
REMARK    4  A    between atoms: N1_5  and  S1_8 
REMARK    5  A    between atoms: S1_8  and  C7_11 
REMARK    6  A    between atoms: C7_11  and  C9_14 
REMARK    7  A    between atoms: C11_16  and  C12_17 
REMARK    8  A    between atoms: C12_17  and  O3_18 
REMARK    9  A    between atoms: C15_25  and  C16_26 
ROOT
HETATM    1  C3  UNL     1       0.132  49.310  22.158  1.00  0.00     0.045 A 
HETATM    2  C4  UNL     1      -0.460  50.381  22.837  1.00  0.00     0.078 A 
HETATM    3  C11 UNL     1      -1.231  51.223  22.115  1.00  0.00     0.020 A 
HETATM    4  C13 UNL     1      -1.465  51.066  20.731  1.00  0.00     0.089 A 
HETATM    5 CL2  UNL     1      -2.472  52.180  19.846  1.00  0.00    -0.080 Cl
HETATM    6  C14 UNL     1      -0.864  49.996  20.111  1.00  0.00     0.135 A 
HETATM    7  N2  UNL     1      -0.908  49.602  18.820  1.00  0.00    -0.334 N 
ATOM      8  H2  UNL     1      -1.421  50.062  18.068  1.00  0.00     0.168 HD
HETATM    9  C15 UNL     1      -0.167  48.513  18.704  1.00  0.00     0.127 A 
HETATM   10  C17 UNL     1       0.345  48.230  19.951  1.00  0.00     0.135 A 
HETATM   11  N3  UNL     1      -0.096  49.156  20.806  1.00  0.00    -0.306 N 
ENDROOT
BRANCH   2  12
HETATM   12  N1  UNL     1      -0.309  50.409  24.268  1.00  0.00    -0.272 N 
BRANCH  12  13
HETATM   13  C5  UNL     1      -1.272  49.552  24.995  1.00  0.00     0.137 C 
HETATM   14  C6  UNL     1      -2.480  50.198  25.526  1.00  0.00     0.028 C 
ENDBRANCH  12  13
BRANCH  12  15
HETATM   15  S1  UNL     1       0.859  51.206  25.167  1.00  0.00     0.255 S 
HETATM   16  O1  UNL     1       0.207  52.430  25.853  1.00  0.00    -0.203 OA
HETATM   17  O2  UNL     1       1.818  51.891  24.165  1.00  0.00    -0.203 OA
BRANCH  15  18
HETATM   18  C7  UNL     1       1.882  50.417  26.307  1.00  0.00     0.155 C 
HETATM   19  C8  UNL     1       3.357  50.846  26.214  1.00  0.00     0.052 C 
HETATM   20 CL1  UNL     1       1.884  48.672  26.391  1.00  0.00    -0.101 Cl
BRANCH  18  21
HETATM   21  C9  UNL     1       1.417  50.864  27.724  1.00  0.00     0.039 C 
HETATM   22  C10 UNL     1       0.400  49.987  28.330  1.00  0.00     0.008 C 
ENDBRANCH  18  21
ENDBRANCH  15  18
ENDBRANCH  12  15
ENDBRANCH   2  12
BRANCH   1  23
HETATM   23  C2  UNL     1       1.053  48.374  22.787  1.00  0.00     0.055 C 
HETATM   24  C1  UNL     1       2.519  48.786  22.705  1.00  0.00     0.011 C 
ENDBRANCH   1  23
BRANCH   3  25
HETATM   25  C12 UNL     1      -1.837  52.415  22.703  1.00  0.00     0.207 C 
BRANCH  25  26
HETATM   26  O3  UNL     1      -0.853  53.263  23.256  1.00  0.00    -0.396 OA
ATOM     27  H3  UNL     1      -1.016  53.416  24.179  1.00  0.00     0.209 HD
ENDBRANCH  25  26
ENDBRANCH   3  25
BRANCH   9  28
HETATM   28  C16 UNL     1       0.044  47.779  17.466  1.00  0.00     0.228 C 
HETATM   29  O4  UNL     1      -0.642  47.995  16.449  1.00  0.00    -0.643 OA
HETATM   30  O5  UNL     1       1.032  46.811  17.409  1.00  0.00    -0.643 OA
ENDBRANCH   9  28
TORSDOF 9
ENDMDL
