MODEL 1
REMARK VINA RESULT: -6.919422873      0.000      0.000
REMARK  12 active torsions:
REMARK  status: ('A' for Active; 'I' for Inactive)
REMARK       I    between atoms: C2_2  and  N1_4 
REMARK    1  A    between atoms: N1_4  and  C4_6 
REMARK    2  A    between atoms: C4_6  and  C5_7 
REMARK    3  A    between atoms: C5_7  and  N2_8 
REMARK    4  A    between atoms: N2_8  and  C7_10 
REMARK    5  A    between atoms: C7_10  and  O2_11 
REMARK    6  A    between atoms: C7_10  and  C8_13 
REMARK    7  A    between atoms: C9_14  and  C10_15 
REMARK    8  A    between atoms: C10_15  and  C11_17 
REMARK    9  A    between atoms: C17_23  and  O4_24 
REMARK   10  A    between atoms: C18_26  and  O5_27 
REMARK   11  A    between atoms: N3_29  and  C19_30 
REMARK   12  A    between atoms: C19_30  and  C20_31 
ROOT
HETATM    1  C8  UNL     1      -0.345  51.152  21.576  1.00  0.00     0.105 A 
HETATM    2  C9  UNL     1      -1.094  52.129  22.162  1.00  0.00     0.084 A 
HETATM    3  C17 UNL     1      -1.725  52.812  21.079  1.00  0.00     0.133 A 
HETATM    4  C18 UNL     1      -1.349  52.223  19.915  1.00  0.00     0.178 A 
HETATM    5  N3  UNL     1      -0.514  51.212  20.185  1.00  0.00    -0.320 N 
ENDROOT
BRANCH   1   6
HETATM    6  C7  UNL     1       0.751  50.356  22.085  1.00  0.00     0.166 C 
BRANCH   6   7
HETATM    7  N2  UNL     1       2.107  50.651  22.177  1.00  0.00    -0.363 N 
HETATM    8  C6  UNL     1       3.134  50.064  21.345  1.00  0.00     0.152 C 
BRANCH   7   9
HETATM    9  C5  UNL     1       2.599  51.488  23.315  1.00  0.00     0.144 C 
BRANCH   9  10
HETATM   10  C4  UNL     1       3.776  50.816  23.959  1.00  0.00     0.145 C 
BRANCH  10  11
HETATM   11  N1  UNL     1       3.421  49.970  25.073  1.00  0.00    -0.355 N 
HETATM   12  C2  UNL     1       3.148  50.577  26.323  1.00  0.00     0.215 C 
HETATM   13  C1  UNL     1       2.770  49.814  27.545  1.00  0.00     0.117 C 
HETATM   14  O1  UNL     1       3.220  51.834  26.447  1.00  0.00    -0.274 OA
HETATM   15  C3  UNL     1       3.335  48.549  24.964  1.00  0.00     0.152 C 
ENDBRANCH  10  11
ENDBRANCH   9  10
ENDBRANCH   7   9
ENDBRANCH   6   7
BRANCH   6  16
HETATM   16  O2  UNL     1       0.457  49.161  22.517  1.00  0.00    -0.344 OA
ATOM     17  H2  UNL     1      -0.353  49.132  23.012  1.00  0.00     0.219 HD
ENDBRANCH   6  16
ENDBRANCH   1   6
BRANCH   2  18
HETATM   18  C10 UNL     1      -1.370  52.492  23.534  1.00  0.00     0.197 C 
HETATM   19  O3  UNL     1      -1.468  53.737  23.824  1.00  0.00    -0.286 OA
BRANCH  18  20
HETATM   20  C11 UNL     1      -1.572  51.598  24.647  1.00  0.00     0.015 A 
HETATM   21  C12 UNL     1      -2.802  51.110  25.016  1.00  0.00     0.015 A 
HETATM   22  C13 UNL     1      -2.998  50.259  26.071  1.00  0.00     0.001 A 
HETATM   23  C14 UNL     1      -1.911  49.853  26.826  1.00  0.00     0.000 A 
HETATM   24  C15 UNL     1      -0.675  50.335  26.468  1.00  0.00     0.001 A 
HETATM   25  C16 UNL     1      -0.476  51.184  25.416  1.00  0.00     0.015 A 
ENDBRANCH  18  20
ENDBRANCH   2  18
BRANCH   5  26
HETATM   26  C19 UNL     1       0.075  50.364  19.198  1.00  0.00     0.146 C 
BRANCH  26  27
HETATM   27  C20 UNL     1      -0.925  49.289  18.737  1.00  0.00     0.135 C 
HETATM   28 CL1  UNL     1      -0.755  47.888  19.809  1.00  0.00    -0.129 Cl
ENDBRANCH  26  27
ENDBRANCH   5  26
BRANCH   3  29
HETATM   29  O4  UNL     1      -2.579  53.902  21.279  1.00  0.00    -0.356 OA
ATOM     30  H4  UNL     1      -3.158  53.962  22.030  1.00  0.00     0.218 HD
ENDBRANCH   3  29
BRANCH   4  31
HETATM   31  O5  UNL     1      -1.794  52.649  18.648  1.00  0.00    -0.344 OA
ATOM     32  H5  UNL     1      -1.440  53.405  18.194  1.00  0.00     0.219 HD
ENDBRANCH   4  31
TORSDOF 12
ENDMDL
MODEL 2
REMARK VINA RESULT: -6.739383379      0.987      1.509
REMARK  12 active torsions:
REMARK  status: ('A' for Active; 'I' for Inactive)
REMARK       I    between atoms: C2_2  and  N1_4 
REMARK    1  A    between atoms: N1_4  and  C4_6 
REMARK    2  A    between atoms: C4_6  and  C5_7 
REMARK    3  A    between atoms: C5_7  and  N2_8 
REMARK    4  A    between atoms: N2_8  and  C7_10 
REMARK    5  A    between atoms: C7_10  and  O2_11 
REMARK    6  A    between atoms: C7_10  and  C8_13 
REMARK    7  A    between atoms: C9_14  and  C10_15 
REMARK    8  A    between atoms: C10_15  and  C11_17 
REMARK    9  A    between atoms: C17_23  and  O4_24 
REMARK   10  A    between atoms: C18_26  and  O5_27 
REMARK   11  A    between atoms: N3_29  and  C19_30 
REMARK   12  A    between atoms: C19_30  and  C20_31 
ROOT
HETATM    1  C8  UNL     1      -0.285  51.190  21.475  1.00  0.00     0.105 A 
HETATM    2  C9  UNL     1      -1.034  52.140  22.101  1.00  0.00     0.084 A 
HETATM    3  C17 UNL     1      -1.734  52.813  21.054  1.00  0.00     0.133 A 
HETATM    4  C18 UNL     1      -1.393  52.243  19.870  1.00  0.00     0.178 A 
HETATM    5  N3  UNL     1      -0.519  51.255  20.093  1.00  0.00    -0.320 N 
ENDROOT
BRANCH   1   6
HETATM    6  C7  UNL     1       0.855  50.423  21.927  1.00  0.00     0.166 C 
BRANCH   6   7
HETATM    7  N2  UNL     1       2.212  50.729  21.896  1.00  0.00    -0.363 N 
HETATM    8  C6  UNL     1       3.140  50.249  20.897  1.00  0.00     0.152 C 
BRANCH   7   9
HETATM    9  C5  UNL     1       2.827  51.450  23.054  1.00  0.00     0.144 C 
BRANCH   9  10
HETATM   10  C4  UNL     1       3.910  50.603  23.654  1.00  0.00     0.145 C 
BRANCH  10  11
HETATM   11  N1  UNL     1       3.507  49.912  24.856  1.00  0.00    -0.355 N 
HETATM   12  C2  UNL     1       3.112  48.556  24.756  1.00  0.00     0.215 C 
HETATM   13  C1  UNL     1       2.678  47.736  25.921  1.00  0.00     0.117 C 
HETATM   14  O1  UNL     1       3.115  47.976  23.631  1.00  0.00    -0.274 OA
HETATM   15  C3  UNL     1       3.491  50.541  26.137  1.00  0.00     0.152 C 
ENDBRANCH  10  11
ENDBRANCH   9  10
ENDBRANCH   7   9
ENDBRANCH   6   7
BRANCH   6  16
HETATM   16  O2  UNL     1       0.608  49.246  22.432  1.00  0.00    -0.344 OA
ATOM     17  H2  UNL     1      -0.065  49.262  23.103  1.00  0.00     0.219 HD
ENDBRANCH   6  16
ENDBRANCH   1   6
BRANCH   2  18
HETATM   18  C10 UNL     1      -1.259  52.486  23.487  1.00  0.00     0.197 C 
HETATM   19  O3  UNL     1      -1.500  53.711  23.776  1.00  0.00    -0.286 OA
BRANCH  18  20
HETATM   20  C11 UNL     1      -1.263  51.589  24.618  1.00  0.00     0.015 A 
HETATM   21  C12 UNL     1      -0.139  51.274  25.342  1.00  0.00     0.015 A 
HETATM   22  C13 UNL     1      -0.140  50.426  26.417  1.00  0.00     0.001 A 
HETATM   23  C14 UNL     1      -1.328  49.839  26.817  1.00  0.00     0.000 A 
HETATM   24  C15 UNL     1      -2.459  50.145  26.100  1.00  0.00     0.001 A 
HETATM   25  C16 UNL     1      -2.462  50.991  25.027  1.00  0.00     0.015 A 
ENDBRANCH  18  20
ENDBRANCH   2  18
BRANCH   5  26
HETATM   26  C19 UNL     1       0.050  50.432  19.073  1.00  0.00     0.146 C 
BRANCH  26  27
HETATM   27  C20 UNL     1      -0.935  49.326  18.655  1.00  0.00     0.135 C 
HETATM   28 CL1  UNL     1      -0.701  47.945  19.741  1.00  0.00    -0.129 Cl
ENDBRANCH  26  27
ENDBRANCH   5  26
BRANCH   3  29
HETATM   29  O4  UNL     1      -2.609  53.876  21.302  1.00  0.00    -0.356 OA
ATOM     30  H4  UNL     1      -3.062  54.333  20.604  1.00  0.00     0.218 HD
ENDBRANCH   3  29
BRANCH   4  31
HETATM   31  O5  UNL     1      -1.908  52.664  18.627  1.00  0.00    -0.344 OA
ATOM     32  H5  UNL     1      -1.363  52.866  17.875  1.00  0.00     0.219 HD
ENDBRANCH   4  31
TORSDOF 12
ENDMDL
MODEL 3
REMARK VINA RESULT: -6.544832396      1.472      1.685
REMARK  12 active torsions:
REMARK  status: ('A' for Active; 'I' for Inactive)
REMARK       I    between atoms: C2_2  and  N1_4 
REMARK    1  A    between atoms: N1_4  and  C4_6 
REMARK    2  A    between atoms: C4_6  and  C5_7 
REMARK    3  A    between atoms: C5_7  and  N2_8 
REMARK    4  A    between atoms: N2_8  and  C7_10 
REMARK    5  A    between atoms: C7_10  and  O2_11 
REMARK    6  A    between atoms: C7_10  and  C8_13 
REMARK    7  A    between atoms: C9_14  and  C10_15 
REMARK    8  A    between atoms: C10_15  and  C11_17 
REMARK    9  A    between atoms: C17_23  and  O4_24 
REMARK   10  A    between atoms: C18_26  and  O5_27 
REMARK   11  A    between atoms: N3_29  and  C19_30 
REMARK   12  A    between atoms: C19_30  and  C20_31 
ROOT
HETATM    1  C8  UNL     1      -0.861  50.801  21.439  1.00  0.00     0.105 A 
HETATM    2  C9  UNL     1      -1.255  51.937  22.080  1.00  0.00     0.084 A 
HETATM    3  C17 UNL     1      -1.878  52.735  21.073  1.00  0.00     0.133 A 
HETATM    4  C18 UNL     1      -1.843  52.055  19.898  1.00  0.00     0.178 A 
HETATM    5  N3  UNL     1      -1.235  50.878  20.090  1.00  0.00    -0.320 N 
ENDROOT
BRANCH   1   6
HETATM    6  C7  UNL     1       0.087  49.774  21.815  1.00  0.00     0.166 C 
BRANCH   6   7
HETATM    7  N2  UNL     1       1.382  49.539  21.363  1.00  0.00    -0.363 N 
HETATM    8  C6  UNL     1       1.868  48.263  20.890  1.00  0.00     0.152 C 
BRANCH   7   9
HETATM    9  C5  UNL     1       2.420  50.604  21.530  1.00  0.00     0.144 C 
BRANCH   9  10
HETATM   10  C4  UNL     1       2.573  50.930  22.987  1.00  0.00     0.145 C 
BRANCH  10  11
HETATM   11  N1  UNL     1       3.639  50.202  23.633  1.00  0.00    -0.355 N 
HETATM   12  C2  UNL     1       3.307  49.070  24.416  1.00  0.00     0.215 C 
HETATM   13  C1  UNL     1       4.315  48.237  25.130  1.00  0.00     0.117 C 
HETATM   14  O1  UNL     1       2.098  48.717  24.540  1.00  0.00    -0.274 OA
HETATM   15  C3  UNL     1       5.011  50.579  23.514  1.00  0.00     0.152 C 
ENDBRANCH  10  11
ENDBRANCH   9  10
ENDBRANCH   7   9
ENDBRANCH   6   7
BRANCH   6  16
HETATM   16  O2  UNL     1      -0.310  48.905  22.703  1.00  0.00    -0.344 OA
ATOM     17  H2  UNL     1      -0.584  48.080  22.320  1.00  0.00     0.219 HD
ENDBRANCH   6  16
ENDBRANCH   1   6
BRANCH   2  18
HETATM   18  C10 UNL     1      -1.213  52.377  23.457  1.00  0.00     0.197 C 
HETATM   19  O3  UNL     1      -1.130  53.635  23.690  1.00  0.00    -0.286 OA
BRANCH  18  20
HETATM   20  C11 UNL     1      -1.272  51.549  24.638  1.00  0.00     0.015 A 
HETATM   21  C12 UNL     1      -2.419  50.935  25.078  1.00  0.00     0.015 A 
HETATM   22  C13 UNL     1      -2.478  50.148  26.196  1.00  0.00     0.001 A 
HETATM   23  C14 UNL     1      -1.331  49.943  26.945  1.00  0.00     0.000 A 
HETATM   24  C15 UNL     1      -0.178  50.554  26.515  1.00  0.00     0.001 A 
HETATM   25  C16 UNL     1      -0.114  51.340  25.399  1.00  0.00     0.015 A 
ENDBRANCH  18  20
ENDBRANCH   2  18
BRANCH   5  26
HETATM   26  C19 UNL     1      -1.028  49.899  19.070  1.00  0.00     0.146 C 
BRANCH  26  27
HETATM   27  C20 UNL     1       0.052  50.366  18.079  1.00  0.00     0.135 C 
HETATM   28 CL1  UNL     1      -0.636  50.295  16.446  1.00  0.00    -0.129 Cl
ENDBRANCH  26  27
ENDBRANCH   5  26
BRANCH   3  29
HETATM   29  O4  UNL     1      -2.410  54.000  21.344  1.00  0.00    -0.356 OA
ATOM     30  H4  UNL     1      -2.104  54.784  20.904  1.00  0.00     0.218 HD
ENDBRANCH   3  29
BRANCH   4  31
HETATM   31  O5  UNL     1      -2.377  52.555  18.694  1.00  0.00    -0.344 OA
ATOM     32  H5  UNL     1      -2.591  52.007  17.948  1.00  0.00     0.219 HD
ENDBRANCH   4  31
TORSDOF 12
ENDMDL
MODEL 4
REMARK VINA RESULT: -6.536121638      2.375      5.616
REMARK  12 active torsions:
REMARK  status: ('A' for Active; 'I' for Inactive)
REMARK       I    between atoms: C2_2  and  N1_4 
REMARK    1  A    between atoms: N1_4  and  C4_6 
REMARK    2  A    between atoms: C4_6  and  C5_7 
REMARK    3  A    between atoms: C5_7  and  N2_8 
REMARK    4  A    between atoms: N2_8  and  C7_10 
REMARK    5  A    between atoms: C7_10  and  O2_11 
REMARK    6  A    between atoms: C7_10  and  C8_13 
REMARK    7  A    between atoms: C9_14  and  C10_15 
REMARK    8  A    between atoms: C10_15  and  C11_17 
REMARK    9  A    between atoms: C17_23  and  O4_24 
REMARK   10  A    between atoms: C18_26  and  O5_27 
REMARK   11  A    between atoms: N3_29  and  C19_30 
REMARK   12  A    between atoms: C19_30  and  C20_31 
ROOT
HETATM    1  C8  UNL     1       2.477  50.807  22.815  1.00  0.00     0.105 A 
HETATM    2  C9  UNL     1       2.144  51.273  24.052  1.00  0.00     0.084 A 
HETATM    3  C17 UNL     1       3.355  51.222  24.806  1.00  0.00     0.133 A 
HETATM    4  C18 UNL     1       4.345  50.751  24.006  1.00  0.00     0.178 A 
HETATM    5  N3  UNL     1       3.844  50.493  22.793  1.00  0.00    -0.320 N 
ENDROOT
BRANCH   1   6
HETATM    6  C7  UNL     1       1.657  50.316  21.728  1.00  0.00     0.166 C 
BRANCH   6   7
HETATM    7  N2  UNL     1       1.183  49.033  21.471  1.00  0.00    -0.363 N 
HETATM    8  C6  UNL     1       1.077  47.984  22.460  1.00  0.00     0.152 C 
BRANCH   7   9
HETATM    9  C5  UNL     1       0.928  48.617  20.057  1.00  0.00     0.144 C 
BRANCH   9  10
HETATM   10  C4  UNL     1      -0.551  48.512  19.825  1.00  0.00     0.145 C 
BRANCH  10  11
HETATM   11  N1  UNL     1      -1.095  49.608  19.060  1.00  0.00    -0.355 N 
HETATM   12  C2  UNL     1      -1.720  50.673  19.754  1.00  0.00     0.215 C 
HETATM   13  C1  UNL     1      -2.316  51.859  19.079  1.00  0.00     0.117 C 
HETATM   14  O1  UNL     1      -1.793  50.649  21.017  1.00  0.00    -0.274 OA
HETATM   15  C3  UNL     1      -1.030  49.660  17.635  1.00  0.00     0.152 C 
ENDBRANCH  10  11
ENDBRANCH   9  10
ENDBRANCH   7   9
ENDBRANCH   6   7
BRANCH   6  16
HETATM   16  O2  UNL     1       1.305  51.183  20.820  1.00  0.00    -0.344 OA
ATOM     17  H2  UNL     1       1.886  51.934  20.776  1.00  0.00     0.219 HD
ENDBRANCH   6  16
ENDBRANCH   1   6
BRANCH   2  18
HETATM   18  C10 UNL     1       0.930  51.809  24.628  1.00  0.00     0.197 C 
HETATM   19  O3  UNL     1       0.913  53.045  24.965  1.00  0.00    -0.286 OA
BRANCH  18  20
HETATM   20  C11 UNL     1      -0.308  51.105  24.859  1.00  0.00     0.015 A 
HETATM   21  C12 UNL     1      -0.372  49.802  25.289  1.00  0.00     0.015 A 
HETATM   22  C13 UNL     1      -1.545  49.132  25.512  1.00  0.00     0.001 A 
HETATM   23  C14 UNL     1      -2.749  49.781  25.297  1.00  0.00     0.000 A 
HETATM   24  C15 UNL     1      -2.698  51.084  24.865  1.00  0.00     0.001 A 
HETATM   25  C16 UNL     1      -1.529  51.756  24.642  1.00  0.00     0.015 A 
ENDBRANCH  18  20
ENDBRANCH   2  18
BRANCH   5  26
HETATM   26  C19 UNL     1       4.604  49.991  21.693  1.00  0.00     0.146 C 
BRANCH  26  27
HETATM   27  C20 UNL     1       4.912  48.495  21.882  1.00  0.00     0.135 C 
HETATM   28 CL1  UNL     1       6.672  48.304  21.971  1.00  0.00    -0.129 Cl
ENDBRANCH  26  27
ENDBRANCH   5  26
BRANCH   3  29
HETATM   29  O4  UNL     1       3.417  51.616  26.147  1.00  0.00    -0.356 OA
ATOM     30  H4  UNL     1       2.725  52.116  26.562  1.00  0.00     0.218 HD
ENDBRANCH   3  29
BRANCH   4  31
HETATM   31  O5  UNL     1       5.676  50.578  24.436  1.00  0.00    -0.344 OA
ATOM     32  H5  UNL     1       6.078  51.098  25.122  1.00  0.00     0.219 HD
ENDBRANCH   4  31
TORSDOF 12
ENDMDL
MODEL 5
REMARK VINA RESULT: -6.475437214      1.264      1.608
REMARK  12 active torsions:
REMARK  status: ('A' for Active; 'I' for Inactive)
REMARK       I    between atoms: C2_2  and  N1_4 
REMARK    1  A    between atoms: N1_4  and  C4_6 
REMARK    2  A    between atoms: C4_6  and  C5_7 
REMARK    3  A    between atoms: C5_7  and  N2_8 
REMARK    4  A    between atoms: N2_8  and  C7_10 
REMARK    5  A    between atoms: C7_10  and  O2_11 
REMARK    6  A    between atoms: C7_10  and  C8_13 
REMARK    7  A    between atoms: C9_14  and  C10_15 
REMARK    8  A    between atoms: C10_15  and  C11_17 
REMARK    9  A    between atoms: C17_23  and  O4_24 
REMARK   10  A    between atoms: C18_26  and  O5_27 
REMARK   11  A    between atoms: N3_29  and  C19_30 
REMARK   12  A    between atoms: C19_30  and  C20_31 
ROOT
HETATM    1  C8  UNL     1      -0.193  51.281  21.497  1.00  0.00     0.105 A 
HETATM    2  C9  UNL     1      -1.000  52.193  22.110  1.00  0.00     0.084 A 
HETATM    3  C17 UNL     1      -1.722  52.821  21.051  1.00  0.00     0.133 A 
HETATM    4  C18 UNL     1      -1.337  52.265  19.874  1.00  0.00     0.178 A 
HETATM    5  N3  UNL     1      -0.414  51.326  20.113  1.00  0.00    -0.320 N 
ENDROOT
BRANCH   1   6
HETATM    6  C7  UNL     1       0.981  50.577  21.966  1.00  0.00     0.166 C 
BRANCH   6   7
HETATM    7  N2  UNL     1       1.131  49.257  22.379  1.00  0.00    -0.363 N 
HETATM    8  C6  UNL     1       0.164  48.529  23.169  1.00  0.00     0.152 C 
BRANCH   7   9
HETATM    9  C5  UNL     1       2.443  48.569  22.169  1.00  0.00     0.144 C 
BRANCH   9  10
HETATM   10  C4  UNL     1       2.846  47.863  23.430  1.00  0.00     0.145 C 
BRANCH  10  11
HETATM   11  N1  UNL     1       3.411  48.740  24.428  1.00  0.00    -0.355 N 
HETATM   12  C2  UNL     1       2.935  48.647  25.758  1.00  0.00     0.215 C 
HETATM   13  C1  UNL     1       3.439  49.493  26.876  1.00  0.00     0.117 C 
HETATM   14  O1  UNL     1       2.032  47.810  26.051  1.00  0.00    -0.274 OA
HETATM   15  C3  UNL     1       4.429  49.695  24.127  1.00  0.00     0.152 C 
ENDBRANCH  10  11
ENDBRANCH   9  10
ENDBRANCH   7   9
ENDBRANCH   6   7
BRANCH   6  16
HETATM   16  O2  UNL     1       2.087  51.266  22.042  1.00  0.00    -0.344 OA
ATOM     17  H2  UNL     1       2.804  50.778  22.430  1.00  0.00     0.219 HD
ENDBRANCH   6  16
ENDBRANCH   1   6
BRANCH   2  18
HETATM   18  C10 UNL     1      -1.258  52.532  23.492  1.00  0.00     0.197 C 
HETATM   19  O3  UNL     1      -1.548  53.748  23.774  1.00  0.00    -0.286 OA
BRANCH  18  20
HETATM   20  C11 UNL     1      -1.247  51.638  24.625  1.00  0.00     0.015 A 
HETATM   21  C12 UNL     1      -2.338  50.908  25.027  1.00  0.00     0.015 A 
HETATM   22  C13 UNL     1      -2.331  50.058  26.100  1.00  0.00     0.001 A 
HETATM   23  C14 UNL     1      -1.170  49.907  26.839  1.00  0.00     0.000 A 
HETATM   24  C15 UNL     1      -0.071  50.633  26.447  1.00  0.00     0.001 A 
HETATM   25  C16 UNL     1      -0.075  51.483  25.376  1.00  0.00     0.015 A 
ENDBRANCH  18  20
ENDBRANCH   2  18
BRANCH   5  26
HETATM   26  C19 UNL     1       0.209  50.530  19.104  1.00  0.00     0.146 C 
BRANCH  26  27
HETATM   27  C20 UNL     1      -0.756  49.447  18.592  1.00  0.00     0.135 C 
HETATM   28 CL1  UNL     1      -0.686  48.076  19.713  1.00  0.00    -0.129 Cl
ENDBRANCH  26  27
ENDBRANCH   5  26
BRANCH   3  29
HETATM   29  O4  UNL     1      -2.655  53.837  21.283  1.00  0.00    -0.356 OA
ATOM     30  H4  UNL     1      -3.178  54.215  20.587  1.00  0.00     0.218 HD
ENDBRANCH   3  29
BRANCH   4  31
HETATM   31  O5  UNL     1      -1.860  52.653  18.624  1.00  0.00    -0.344 OA
ATOM     32  H5  UNL     1      -2.702  53.080  18.517  1.00  0.00     0.219 HD
ENDBRANCH   4  31
TORSDOF 12
ENDMDL
