MODEL 1
REMARK VINA RESULT: -7.134541025      0.000      0.000
REMARK  9 active torsions:
REMARK  status: ('A' for Active; 'I' for Inactive)
REMARK    1  A    between atoms: C2_2  and  C3_5 
REMARK    2  A    between atoms: C3_5  and  N1_6 
REMARK    3  A    between atoms: C3_5  and  C4_10 
REMARK    4  A    between atoms: C6_17  and  C7_18 
REMARK    5  A    between atoms: C7_18  and  C8_19 
REMARK    6  A    between atoms: C8_19  and  C9_20 
REMARK       I    between atoms: C9_20  and  N5_22 
REMARK    7  A    between atoms: N5_22  and  C10_24 
REMARK    8  A    between atoms: C10_24  and  C11_25 
REMARK    9  A    between atoms: N6_29  and  C15_30 
ROOT
HETATM    1  C4  UNL     1       1.970  50.807  25.259  1.00  0.00     0.088 A 
HETATM    2  N2  UNL     1       2.030  52.134  25.518  1.00  0.00    -0.286 N 
ATOM      3  H2  UNL     1       2.850  52.633  25.862  1.00  0.00     0.188 HD
HETATM    4  N3  UNL     1       0.876  52.672  25.258  1.00  0.00    -0.240 N 
ATOM      5  H3  UNL     1       0.634  53.657  25.362  1.00  0.00     0.208 HD
HETATM    6  N4  UNL     1       0.053  51.685  24.824  1.00  0.00    -0.279 N 
HETATM    7  C5  UNL     1       0.709  50.541  24.819  1.00  0.00     0.064 A 
HETATM    8  C6  UNL     1       0.073  49.268  24.398  1.00  0.00     0.062 C 
HETATM    9  C21 UNL     1      -1.352  49.385  24.810  1.00  0.00     0.016 C 
HETATM   10  C22 UNL     1      -2.088  50.619  24.449  1.00  0.00     0.023 C 
HETATM   11  C23 UNL     1      -1.314  51.869  24.431  1.00  0.00     0.150 C 
ENDROOT
BRANCH   8  12
HETATM   12  C7  UNL     1       0.320  48.934  22.991  1.00  0.00    -0.010 C 
BRANCH  12  13
HETATM   13  C8  UNL     1       1.416  48.076  22.546  1.00  0.00     0.071 C 
BRANCH  13  14
HETATM   14  C9  UNL     1       2.105  48.165  21.293  1.00  0.00     0.240 C 
HETATM   15  O1  UNL     1       3.098  48.879  21.083  1.00  0.00    -0.269 OA
HETATM   16  N5  UNL     1       1.658  47.396  20.161  1.00  0.00    -0.357 N 
ATOM     17  H5  UNL     1       0.849  46.787  20.275  1.00  0.00     0.162 HD
BRANCH  16  18
HETATM   18  C10 UNL     1       2.295  47.448  18.896  1.00  0.00     0.127 C 
BRANCH  18  19
HETATM   19  C11 UNL     1       1.530  48.106  17.786  1.00  0.00     0.005 C 
HETATM   20  C12 UNL     1       0.034  48.088  18.088  1.00  0.00     0.008 C 
HETATM   21  C13 UNL     1      -0.648  48.857  16.983  1.00  0.00     0.031 C 
HETATM   22  C14 UNL     1      -0.556  50.351  17.195  1.00  0.00     0.273 C 
HETATM   23  N6  UNL     1       0.020  50.591  18.487  1.00  0.00     0.093 N 
HETATM   24  C19 UNL     1       1.439  50.523  18.488  1.00  0.00     0.273 C 
HETATM   25  C20 UNL     1       2.006  49.514  17.517  1.00  0.00     0.036 C 
BRANCH  23  26
HETATM   26  C15 UNL     1      -0.473  51.735  19.171  1.00  0.00     0.223 C 
HETATM   27  C16 UNL     1      -1.941  51.877  19.367  1.00  0.00     0.036 C 
HETATM   28  C17 UNL     1      -1.818  51.318  20.738  1.00  0.00     0.004 C 
HETATM   29  C18 UNL     1      -0.315  51.609  20.666  1.00  0.00     0.036 C 
ENDBRANCH  23  26
ENDBRANCH  18  19
ENDBRANCH  16  18
ENDBRANCH  13  14
ENDBRANCH  12  13
ENDBRANCH   8  12
BRANCH   1  30
HETATM   30  C3  UNL     1       3.099  49.914  25.446  1.00  0.00     0.307 C 
BRANCH  30  31
HETATM   31  C2  UNL     1       4.191  50.153  24.392  1.00  0.00     0.273 C 
HETATM   32  C1  UNL     1       4.899  48.861  24.063  1.00  0.00     0.093 C 
HETATM   33  F1  UNL     1       5.107  51.080  24.788  1.00  0.00    -0.204 F 
HETATM   34  F2  UNL     1       3.568  50.638  23.247  1.00  0.00    -0.204 F 
ENDBRANCH  30  31
BRANCH  30  35
HETATM   35  N1  UNL     1       3.746  49.958  26.709  1.00  0.00    -0.064 N 
ATOM     36  H13 UNL     1       4.302  49.126  26.908  1.00  0.00     0.275 HD
ATOM     37  H12 UNL     1       4.512  50.631  26.749  1.00  0.00     0.275 HD
ATOM     38  H11 UNL     1       3.017  50.133  27.400  1.00  0.00     0.275 HD
ENDBRANCH  30  35
ENDBRANCH   1  30
TORSDOF 9
ENDMDL
MODEL 2
REMARK VINA RESULT: -7.003101345      2.333      7.004
REMARK  9 active torsions:
REMARK  status: ('A' for Active; 'I' for Inactive)
REMARK    1  A    between atoms: C2_2  and  C3_5 
REMARK    2  A    between atoms: C3_5  and  N1_6 
REMARK    3  A    between atoms: C3_5  and  C4_10 
REMARK    4  A    between atoms: C6_17  and  C7_18 
REMARK    5  A    between atoms: C7_18  and  C8_19 
REMARK    6  A    between atoms: C8_19  and  C9_20 
REMARK       I    between atoms: C9_20  and  N5_22 
REMARK    7  A    between atoms: N5_22  and  C10_24 
REMARK    8  A    between atoms: C10_24  and  C11_25 
REMARK    9  A    between atoms: N6_29  and  C15_30 
ROOT
HETATM    1  C4  UNL     1      -1.513  51.082  18.008  1.00  0.00     0.088 A 
HETATM    2  N2  UNL     1      -2.308  52.004  17.417  1.00  0.00    -0.286 N 
ATOM      3  H2  UNL     1      -2.856  52.712  17.906  1.00  0.00     0.188 HD
HETATM    4  N3  UNL     1      -2.262  51.844  16.128  1.00  0.00    -0.240 N 
ATOM      5  H3  UNL     1      -2.763  52.399  15.434  1.00  0.00     0.208 HD
HETATM    6  N4  UNL     1      -1.428  50.805  15.875  1.00  0.00    -0.279 N 
HETATM    7  C5  UNL     1      -0.963  50.331  17.013  1.00  0.00     0.064 A 
HETATM    8  C6  UNL     1      -0.026  49.182  17.066  1.00  0.00     0.062 C 
HETATM    9  C21 UNL     1      -0.404  48.313  15.919  1.00  0.00     0.016 C 
HETATM   10  C22 UNL     1      -0.572  48.941  14.588  1.00  0.00     0.023 C 
HETATM   11  C23 UNL     1      -1.106  50.310  14.567  1.00  0.00     0.150 C 
ENDROOT
BRANCH   8  12
HETATM   12  C7  UNL     1       1.382  49.584  17.143  1.00  0.00    -0.010 C 
BRANCH  12  13
HETATM   13  C8  UNL     1       1.977  50.219  18.317  1.00  0.00     0.071 C 
BRANCH  13  14
HETATM   14  C9  UNL     1       3.126  49.757  19.038  1.00  0.00     0.240 C 
HETATM   15  O1  UNL     1       3.870  48.837  18.665  1.00  0.00    -0.269 OA
HETATM   16  N5  UNL     1       3.491  50.364  20.291  1.00  0.00    -0.357 N 
ATOM     17  H5  UNL     1       2.919  51.129  20.647  1.00  0.00     0.162 HD
BRANCH  16  18
HETATM   18  C10 UNL     1       4.611  49.945  21.052  1.00  0.00     0.127 C 
BRANCH  18  19
HETATM   19  C11 UNL     1       4.478  50.027  22.544  1.00  0.00     0.005 C 
HETATM   20  C12 UNL     1       3.447  51.083  22.929  1.00  0.00     0.008 C 
HETATM   21  C13 UNL     1       3.298  51.027  24.429  1.00  0.00     0.031 C 
HETATM   22  C14 UNL     1       2.396  49.894  24.865  1.00  0.00     0.273 C 
HETATM   23  N6  UNL     1       1.814  49.302  23.695  1.00  0.00     0.093 N 
HETATM   24  C19 UNL     1       2.665  48.357  23.063  1.00  0.00     0.273 C 
HETATM   25  C20 UNL     1       4.136  48.692  23.163  1.00  0.00     0.036 C 
BRANCH  23  26
HETATM   26  C15 UNL     1       0.486  48.822  23.850  1.00  0.00     0.223 C 
HETATM   27  C16 UNL     1      -0.441  49.555  24.755  1.00  0.00     0.036 C 
HETATM   28  C17 UNL     1      -1.017  50.276  23.591  1.00  0.00     0.004 C 
HETATM   29  C18 UNL     1      -0.393  49.208  22.686  1.00  0.00     0.036 C 
ENDBRANCH  23  26
ENDBRANCH  18  19
ENDBRANCH  16  18
ENDBRANCH  13  14
ENDBRANCH  12  13
ENDBRANCH   8  12
BRANCH   1  30
HETATM   30  C3  UNL     1      -1.343  50.991  19.446  1.00  0.00     0.307 C 
BRANCH  30  31
HETATM   31  C2  UNL     1      -0.583  52.204  20.004  1.00  0.00     0.273 C 
HETATM   32  C1  UNL     1      -1.503  53.070  20.831  1.00  0.00     0.093 C 
HETATM   33  F1  UNL     1      -0.013  52.961  19.025  1.00  0.00    -0.204 F 
HETATM   34  F2  UNL     1       0.440  51.721  20.813  1.00  0.00    -0.204 F 
ENDBRANCH  30  31
BRANCH  30  35
HETATM   35  N1  UNL     1      -2.524  50.868  20.224  1.00  0.00    -0.064 N 
ATOM     36  H13 UNL     1      -2.679  49.923  20.578  1.00  0.00     0.275 HD
ATOM     37  H12 UNL     1      -2.463  51.332  21.130  1.00  0.00     0.275 HD
ATOM     38  H11 UNL     1      -3.288  51.213  19.643  1.00  0.00     0.275 HD
ENDBRANCH  30  35
ENDBRANCH   1  30
TORSDOF 9
ENDMDL
MODEL 3
REMARK VINA RESULT: -6.889023066      2.206      3.842
REMARK  9 active torsions:
REMARK  status: ('A' for Active; 'I' for Inactive)
REMARK    1  A    between atoms: C2_2  and  C3_5 
REMARK    2  A    between atoms: C3_5  and  N1_6 
REMARK    3  A    between atoms: C3_5  and  C4_10 
REMARK    4  A    between atoms: C6_17  and  C7_18 
REMARK    5  A    between atoms: C7_18  and  C8_19 
REMARK    6  A    between atoms: C8_19  and  C9_20 
REMARK       I    between atoms: C9_20  and  N5_22 
REMARK    7  A    between atoms: N5_22  and  C10_24 
REMARK    8  A    between atoms: C10_24  and  C11_25 
REMARK    9  A    between atoms: N6_29  and  C15_30 
ROOT
HETATM    1  C4  UNL     1       2.754  49.584  26.402  1.00  0.00     0.088 A 
HETATM    2  N2  UNL     1       3.355  49.613  27.614  1.00  0.00    -0.286 N 
ATOM      3  H2  UNL     1       4.344  49.434  27.788  1.00  0.00     0.188 HD
HETATM    4  N3  UNL     1       2.472  49.906  28.521  1.00  0.00    -0.240 N 
ATOM      5  H3  UNL     1       2.644  49.996  29.523  1.00  0.00     0.208 HD
HETATM    6  N4  UNL     1       1.280  50.069  27.894  1.00  0.00    -0.279 N 
HETATM    7  C5  UNL     1       1.439  49.877  26.600  1.00  0.00     0.064 A 
HETATM    8  C6  UNL     1       0.310  49.980  25.642  1.00  0.00     0.062 C 
HETATM    9  C21 UNL     1      -0.887  49.511  26.392  1.00  0.00     0.016 C 
HETATM   10  C22 UNL     1      -1.136  50.075  27.739  1.00  0.00     0.023 C 
HETATM   11  C23 UNL     1       0.047  50.404  28.547  1.00  0.00     0.150 C 
ENDROOT
BRANCH   8  12
HETATM   12  C7  UNL     1       0.207  51.298  25.007  1.00  0.00    -0.010 C 
BRANCH  12  13
HETATM   13  C8  UNL     1      -1.066  51.943  24.691  1.00  0.00     0.071 C 
BRANCH  13  14
HETATM   14  C9  UNL     1      -1.407  52.582  23.454  1.00  0.00     0.240 C 
HETATM   15  O1  UNL     1      -1.844  53.739  23.355  1.00  0.00    -0.269 OA
HETATM   16  N5  UNL     1      -1.254  51.879  22.207  1.00  0.00    -0.357 N 
ATOM     17  H5  UNL     1      -0.895  50.925  22.226  1.00  0.00     0.162 HD
BRANCH  16  18
HETATM   18  C10 UNL     1      -1.581  52.456  20.954  1.00  0.00     0.127 C 
BRANCH  18  19
HETATM   19  C11 UNL     1      -1.990  51.509  19.866  1.00  0.00     0.005 C 
HETATM   20  C12 UNL     1      -1.251  51.834  18.571  1.00  0.00     0.008 C 
HETATM   21  C13 UNL     1      -1.636  50.778  17.566  1.00  0.00     0.031 C 
HETATM   22  C14 UNL     1      -0.857  49.497  17.765  1.00  0.00     0.273 C 
HETATM   23  N6  UNL     1       0.146  49.727  18.765  1.00  0.00     0.093 N 
HETATM   24  C19 UNL     1      -0.348  49.612  20.091  1.00  0.00     0.273 C 
HETATM   25  C20 UNL     1      -1.781  50.064  20.254  1.00  0.00     0.036 C 
BRANCH  23  26
HETATM   26  C15 UNL     1       1.369  49.029  18.574  1.00  0.00     0.223 C 
HETATM   27  C16 UNL     1       2.474  49.701  17.839  1.00  0.00     0.036 C 
HETATM   28  C17 UNL     1       3.096  50.099  19.128  1.00  0.00     0.004 C 
HETATM   29  C18 UNL     1       2.226  49.042  19.816  1.00  0.00     0.036 C 
ENDBRANCH  23  26
ENDBRANCH  18  19
ENDBRANCH  16  18
ENDBRANCH  13  14
ENDBRANCH  12  13
ENDBRANCH   8  12
BRANCH   1  30
HETATM   30  C3  UNL     1       3.467  49.286  25.174  1.00  0.00     0.307 C 
BRANCH  30  31
HETATM   31  C2  UNL     1       3.958  50.565  24.480  1.00  0.00     0.273 C 
HETATM   32  C1  UNL     1       3.331  50.699  23.113  1.00  0.00     0.093 C 
HETATM   33  F1  UNL     1       5.314  50.608  24.358  1.00  0.00    -0.204 F 
HETATM   34  F2  UNL     1       3.571  51.644  25.267  1.00  0.00    -0.204 F 
ENDBRANCH  30  31
BRANCH  30  35
HETATM   35  N1  UNL     1       4.596  48.432  25.281  1.00  0.00    -0.064 N 
ATOM     36  H13 UNL     1       4.376  47.516  25.672  1.00  0.00     0.275 HD
ATOM     37  H12 UNL     1       4.942  48.103  24.380  1.00  0.00     0.275 HD
ATOM     38  H11 UNL     1       5.294  48.944  25.820  1.00  0.00     0.275 HD
ENDBRANCH  30  35
ENDBRANCH   1  30
TORSDOF 9
ENDMDL
MODEL 4
REMARK VINA RESULT: -6.885297800      2.170      6.868
REMARK  9 active torsions:
REMARK  status: ('A' for Active; 'I' for Inactive)
REMARK    1  A    between atoms: C2_2  and  C3_5 
REMARK    2  A    between atoms: C3_5  and  N1_6 
REMARK    3  A    between atoms: C3_5  and  C4_10 
REMARK    4  A    between atoms: C6_17  and  C7_18 
REMARK    5  A    between atoms: C7_18  and  C8_19 
REMARK    6  A    between atoms: C8_19  and  C9_20 
REMARK       I    between atoms: C9_20  and  N5_22 
REMARK    7  A    between atoms: N5_22  and  C10_24 
REMARK    8  A    between atoms: C10_24  and  C11_25 
REMARK    9  A    between atoms: N6_29  and  C15_30 
ROOT
HETATM    1  C4  UNL     1       0.860  48.343  19.262  1.00  0.00     0.088 A 
HETATM    2  N2  UNL     1       0.607  47.524  18.214  1.00  0.00    -0.286 N 
ATOM      3  H2  UNL     1       1.012  46.598  18.077  1.00  0.00     0.188 HD
HETATM    4  N3  UNL     1      -0.234  48.105  17.412  1.00  0.00    -0.240 N 
ATOM      5  H3  UNL     1      -0.602  47.720  16.542  1.00  0.00     0.208 HD
HETATM    6  N4  UNL     1      -0.534  49.318  17.941  1.00  0.00    -0.279 N 
HETATM    7  C5  UNL     1       0.127  49.475  19.072  1.00  0.00     0.064 A 
HETATM    8  C6  UNL     1       0.013  50.709  19.887  1.00  0.00     0.062 C 
HETATM    9  C21 UNL     1      -0.195  51.810  18.908  1.00  0.00     0.016 C 
HETATM   10  C22 UNL     1      -1.231  51.635  17.864  1.00  0.00     0.023 C 
HETATM   11  C23 UNL     1      -1.434  50.270  17.357  1.00  0.00     0.150 C 
ENDROOT
BRANCH   8  12
HETATM   12  C7  UNL     1      -0.974  50.602  20.967  1.00  0.00    -0.010 C 
BRANCH  12  13
HETATM   13  C8  UNL     1      -1.379  51.729  21.804  1.00  0.00     0.071 C 
BRANCH  13  14
HETATM   14  C9  UNL     1      -1.433  51.743  23.236  1.00  0.00     0.240 C 
HETATM   15  O1  UNL     1      -1.173  52.730  23.942  1.00  0.00    -0.269 OA
HETATM   16  N5  UNL     1      -1.808  50.558  23.962  1.00  0.00    -0.357 N 
ATOM     17  H5  UNL     1      -2.037  49.716  23.435  1.00  0.00     0.162 HD
BRANCH  16  18
HETATM   18  C10 UNL     1      -1.872  50.510  25.377  1.00  0.00     0.127 C 
BRANCH  18  19
HETATM   19  C11 UNL     1      -0.776  49.759  26.073  1.00  0.00     0.005 C 
HETATM   20  C12 UNL     1      -0.024  48.874  25.083  1.00  0.00     0.008 C 
HETATM   21  C13 UNL     1       1.119  48.242  25.837  1.00  0.00     0.031 C 
HETATM   22  C14 UNL     1       2.291  49.185  25.983  1.00  0.00     0.273 C 
HETATM   23  N6  UNL     1       2.023  50.364  25.209  1.00  0.00     0.093 N 
HETATM   24  C19 UNL     1       1.204  51.305  25.887  1.00  0.00     0.273 C 
HETATM   25  C20 UNL     1       0.177  50.679  26.801  1.00  0.00     0.036 C 
BRANCH  23  26
HETATM   26  C15 UNL     1       3.158  50.964  24.601  1.00  0.00     0.223 C 
HETATM   27  C16 UNL     1       4.307  50.101  24.214  1.00  0.00     0.036 C 
HETATM   28  C17 UNL     1       3.800  50.043  22.819  1.00  0.00     0.004 C 
HETATM   29  C18 UNL     1       2.926  51.260  23.140  1.00  0.00     0.036 C 
ENDBRANCH  23  26
ENDBRANCH  18  19
ENDBRANCH  16  18
ENDBRANCH  13  14
ENDBRANCH  12  13
ENDBRANCH   8  12
BRANCH   1  30
HETATM   30  C3  UNL     1       1.762  47.988  20.341  1.00  0.00     0.307 C 
BRANCH  30  31
HETATM   31  C2  UNL     1       0.996  47.576  21.607  1.00  0.00     0.273 C 
HETATM   32  C1  UNL     1       1.750  46.504  22.356  1.00  0.00     0.093 C 
HETATM   33  F1  UNL     1      -0.264  47.135  21.337  1.00  0.00    -0.204 F 
HETATM   34  F2  UNL     1       0.884  48.704  22.414  1.00  0.00    -0.204 F 
ENDBRANCH  30  31
BRANCH  30  35
HETATM   35  N1  UNL     1       2.693  46.948  20.081  1.00  0.00    -0.064 N 
ATOM     36  H13 UNL     1       3.097  46.546  20.927  1.00  0.00     0.275 HD
ATOM     37  H12 UNL     1       2.259  46.094  19.732  1.00  0.00     0.275 HD
ATOM     38  H11 UNL     1       3.389  47.338  19.446  1.00  0.00     0.275 HD
ENDBRANCH  30  35
ENDBRANCH   1  30
TORSDOF 9
ENDMDL
MODEL 5
REMARK VINA RESULT: -6.867319096      2.817      5.907
REMARK  9 active torsions:
REMARK  status: ('A' for Active; 'I' for Inactive)
REMARK    1  A    between atoms: C2_2  and  C3_5 
REMARK    2  A    between atoms: C3_5  and  N1_6 
REMARK    3  A    between atoms: C3_5  and  C4_10 
REMARK    4  A    between atoms: C6_17  and  C7_18 
REMARK    5  A    between atoms: C7_18  and  C8_19 
REMARK    6  A    between atoms: C8_19  and  C9_20 
REMARK       I    between atoms: C9_20  and  N5_22 
REMARK    7  A    between atoms: N5_22  and  C10_24 
REMARK    8  A    between atoms: C10_24  and  C11_25 
REMARK    9  A    between atoms: N6_29  and  C15_30 
ROOT
HETATM    1  C4  UNL     1      -1.133  52.354  21.015  1.00  0.00     0.088 A 
HETATM    2  N2  UNL     1      -2.016  53.353  21.249  1.00  0.00    -0.286 N 
ATOM      3  H2  UNL     1      -2.454  53.934  20.533  1.00  0.00     0.188 HD
HETATM    4  N3  UNL     1      -2.217  53.455  22.528  1.00  0.00    -0.240 N 
ATOM      5  H3  UNL     1      -2.834  54.123  22.990  1.00  0.00     0.208 HD
HETATM    6  N4  UNL     1      -1.456  52.512  23.138  1.00  0.00    -0.279 N 
HETATM    7  C5  UNL     1      -0.790  51.832  22.226  1.00  0.00     0.064 A 
HETATM    8  C6  UNL     1       0.137  50.731  22.583  1.00  0.00     0.062 C 
HETATM    9  C21 UNL     1       0.723  51.119  23.895  1.00  0.00     0.016 C 
HETATM   10  C22 UNL     1      -0.196  51.558  24.971  1.00  0.00     0.023 C 
HETATM   11  C23 UNL     1      -1.397  52.294  24.555  1.00  0.00     0.150 C 
ENDROOT
BRANCH   8  12
HETATM   12  C7  UNL     1      -0.484  49.404  22.514  1.00  0.00    -0.010 C 
BRANCH  12  13
HETATM   13  C8  UNL     1      -0.122  48.394  21.521  1.00  0.00     0.071 C 
BRANCH  13  14
HETATM   14  C9  UNL     1       1.197  48.124  21.031  1.00  0.00     0.240 C 
HETATM   15  O1  UNL     1       1.742  47.009  21.050  1.00  0.00    -0.269 OA
HETATM   16  N5  UNL     1       1.995  49.181  20.468  1.00  0.00    -0.357 N 
ATOM     17  H5  UNL     1       1.598  50.119  20.421  1.00  0.00     0.162 HD
BRANCH  16  18
HETATM   18  C10 UNL     1       3.308  48.975  19.975  1.00  0.00     0.127 C 
BRANCH  18  19
HETATM   19  C11 UNL     1       4.431  49.503  20.816  1.00  0.00     0.005 C 
HETATM   20  C12 UNL     1       3.899  50.470  21.870  1.00  0.00     0.008 C 
HETATM   21  C13 UNL     1       5.069  50.868  22.734  1.00  0.00     0.031 C 
HETATM   22  C14 UNL     1       5.392  49.815  23.769  1.00  0.00     0.273 C 
HETATM   23  N6  UNL     1       4.372  48.807  23.724  1.00  0.00     0.093 N 
HETATM   24  C19 UNL     1       4.582  47.842  22.704  1.00  0.00     0.273 C 
HETATM   25  C20 UNL     1       5.236  48.398  21.459  1.00  0.00     0.036 C 
BRANCH  23  26
HETATM   26  C15 UNL     1       4.043  48.217  24.974  1.00  0.00     0.223 C 
HETATM   27  C16 UNL     1       3.084  48.920  25.870  1.00  0.00     0.036 C 
HETATM   28  C17 UNL     1       1.979  48.066  25.366  1.00  0.00     0.004 C 
HETATM   29  C18 UNL     1       3.039  47.101  24.825  1.00  0.00     0.036 C 
ENDBRANCH  23  26
ENDBRANCH  18  19
ENDBRANCH  16  18
ENDBRANCH  13  14
ENDBRANCH  12  13
ENDBRANCH   8  12
BRANCH   1  30
HETATM   30  C3  UNL     1      -0.695  51.983  19.683  1.00  0.00     0.307 C 
BRANCH  30  31
HETATM   31  C2  UNL     1      -1.700  51.044  18.998  1.00  0.00     0.273 C 
HETATM   32  C1  UNL     1      -0.977  49.982  18.205  1.00  0.00     0.093 C 
HETATM   33  F1  UNL     1      -2.562  51.709  18.178  1.00  0.00    -0.204 F 
HETATM   34  F2  UNL     1      -2.453  50.436  19.996  1.00  0.00    -0.204 F 
ENDBRANCH  30  31
BRANCH  30  35
HETATM   35  N1  UNL     1      -0.452  53.043  18.771  1.00  0.00    -0.064 N 
ATOM     36  H13 UNL     1       0.495  53.418  18.829  1.00  0.00     0.275 HD
ATOM     37  H12 UNL     1      -0.406  52.738  17.798  1.00  0.00     0.275 HD
ATOM     38  H11 UNL     1      -1.175  53.741  18.942  1.00  0.00     0.275 HD
ENDBRANCH  30  35
ENDBRANCH   1  30
TORSDOF 9
ENDMDL
