MODEL 1
REMARK VINA RESULT: -6.480465121      0.000      0.000
REMARK  10 active torsions:
REMARK  status: ('A' for Active; 'I' for Inactive)
REMARK    1  A    between atoms: C4_5  and  C5_6 
REMARK    2  A    between atoms: C6_7  and  C7_8 
REMARK    3  A    between atoms: C9_11  and  O3_12 
REMARK    4  A    between atoms: O3_12  and  C10_13 
REMARK    5  A    between atoms: C10_13  and  C11_15 
REMARK    6  A    between atoms: C13_19  and  C14_20 
REMARK    7  A    between atoms: C15_21  and  C16_22 
REMARK    8  A    between atoms: C16_22  and  C18_24 
REMARK    9  A    between atoms: C18_24  and  O5_25 
REMARK   10  A    between atoms: C18_24  and  C19_27 
ROOT
HETATM    1  C1  UNL     1      -3.317  50.453  26.201  1.00  0.00     0.012 C 
HETATM    2  C2  UNL     1      -2.062  49.813  25.645  1.00  0.00     0.009 C 
HETATM    3  C3  UNL     1      -0.923  50.152  26.566  1.00  0.00     0.173 C 
HETATM    4  O1  UNL     1       0.277  49.588  26.223  1.00  0.00    -0.377 OA
HETATM    5  C4  UNL     1       0.340  49.069  24.944  1.00  0.00     0.173 C 
HETATM    6  C12 UNL     1      -0.372  49.893  23.937  1.00  0.00    -0.047 C 
HETATM    7  C13 UNL     1       0.177  50.324  22.825  1.00  0.00     0.005 C 
HETATM    8  C20 UNL     1      -1.788  50.243  24.218  1.00  0.00     0.043 C 
ENDROOT
BRANCH   5   9
HETATM    9  C5  UNL     1       1.729  48.765  24.565  1.00  0.00     0.010 C 
HETATM   10  C6  UNL     1       2.713  49.511  25.020  1.00  0.00     0.032 C 
BRANCH  10  11
HETATM   11  C7  UNL     1       4.146  49.266  24.680  1.00  0.00     0.287 C 
HETATM   12  O2  UNL     1       4.773  50.482  24.581  1.00  0.00    -0.353 OA
HETATM   13  C8  UNL     1       4.693  50.763  23.204  1.00  0.00     0.232 C 
HETATM   14  C9  UNL     1       5.056  49.407  22.638  1.00  0.00     0.289 C 
HETATM   15  O4  UNL     1       4.302  48.578  23.504  1.00  0.00    -0.326 OA
BRANCH  14  16
HETATM   16  O3  UNL     1       6.373  49.103  22.872  1.00  0.00    -0.338 OA
BRANCH  16  17
HETATM   17  C10 UNL     1       7.126  48.838  21.760  1.00  0.00     0.234 C 
HETATM   18 CL1  UNL     1       6.009  48.926  20.352  1.00  0.00    -0.094 Cl
BRANCH  17  19
HETATM   19  C11 UNL     1       7.691  47.442  21.757  1.00  0.00     0.162 C 
HETATM   20 CL2  UNL     1       8.851  47.133  20.476  1.00  0.00    -0.127 Cl
ENDBRANCH  17  19
ENDBRANCH  16  17
ENDBRANCH  14  16
ENDBRANCH  10  11
ENDBRANCH   5   9
BRANCH   7  21
HETATM   21  C14 UNL     1      -0.566  51.128  21.876  1.00  0.00    -0.003 C 
HETATM   22  C15 UNL     1      -1.208  50.602  20.816  1.00  0.00    -0.019 C 
BRANCH  22  23
HETATM   23  C16 UNL     1      -1.942  51.461  19.892  1.00  0.00     0.043 C 
HETATM   24  C17 UNL     1      -2.311  52.797  20.511  1.00  0.00     0.017 C 
BRANCH  23  25
HETATM   25  C18 UNL     1      -1.217  51.625  18.594  1.00  0.00     0.226 C 
BRANCH  25  26
HETATM   26  O5  UNL     1      -0.314  52.705  18.709  1.00  0.00    -0.384 OA
ATOM     27  H5  UNL     1      -0.093  53.015  17.838  1.00  0.00     0.210 HD
ENDBRANCH  25  26
BRANCH  25  28
HETATM   28  C19 UNL     1      -0.464  50.437  18.169  1.00  0.00     0.203 C 
HETATM   29  O6  UNL     1      -1.059  49.452  17.686  1.00  0.00    -0.646 OA
HETATM   30  O7  UNL     1       0.931  50.395  18.298  1.00  0.00    -0.646 OA
ENDBRANCH  25  28
ENDBRANCH  23  25
ENDBRANCH  22  23
ENDBRANCH   7  21
TORSDOF 10
ENDMDL
MODEL 2
REMARK VINA RESULT: -6.383208178      5.213      8.558
REMARK  10 active torsions:
REMARK  status: ('A' for Active; 'I' for Inactive)
REMARK    1  A    between atoms: C4_5  and  C5_6 
REMARK    2  A    between atoms: C6_7  and  C7_8 
REMARK    3  A    between atoms: C9_11  and  O3_12 
REMARK    4  A    between atoms: O3_12  and  C10_13 
REMARK    5  A    between atoms: C10_13  and  C11_15 
REMARK    6  A    between atoms: C13_19  and  C14_20 
REMARK    7  A    between atoms: C15_21  and  C16_22 
REMARK    8  A    between atoms: C16_22  and  C18_24 
REMARK    9  A    between atoms: C18_24  and  O5_25 
REMARK   10  A    between atoms: C18_24  and  C19_27 
ROOT
HETATM    1  C1  UNL     1       0.338  48.942  13.933  1.00  0.00     0.012 C 
HETATM    2  C2  UNL     1      -0.045  49.677  15.200  1.00  0.00     0.009 C 
HETATM    3  C3  UNL     1      -0.170  48.662  16.303  1.00  0.00     0.173 C 
HETATM    4  O1  UNL     1      -0.456  49.189  17.535  1.00  0.00    -0.377 OA
HETATM    5  C4  UNL     1      -0.892  50.500  17.529  1.00  0.00     0.173 C 
HETATM    6  C12 UNL     1      -1.793  50.816  16.393  1.00  0.00    -0.047 C 
HETATM    7  C13 UNL     1      -2.979  51.362  16.532  1.00  0.00     0.005 C 
HETATM    8  C20 UNL     1      -1.312  50.489  15.027  1.00  0.00     0.043 C 
ENDROOT
BRANCH   5   9
HETATM    9  C5  UNL     1      -1.454  50.876  18.835  1.00  0.00     0.010 C 
HETATM   10  C6  UNL     1      -1.100  50.217  19.918  1.00  0.00     0.032 C 
BRANCH  10  11
HETATM   11  C7  UNL     1      -1.626  50.539  21.277  1.00  0.00     0.287 C 
HETATM   12  O2  UNL     1      -1.059  51.719  21.684  1.00  0.00    -0.353 OA
HETATM   13  C8  UNL     1       0.056  51.291  22.427  1.00  0.00     0.232 C 
HETATM   14  C9  UNL     1      -0.572  50.165  23.218  1.00  0.00     0.289 C 
HETATM   15  O4  UNL     1      -1.348  49.562  22.199  1.00  0.00    -0.326 OA
BRANCH  14  16
HETATM   16  O3  UNL     1      -1.465  50.642  24.144  1.00  0.00    -0.338 OA
BRANCH  16  17
HETATM   17  C10 UNL     1      -1.817  49.763  25.134  1.00  0.00     0.234 C 
HETATM   18 CL1  UNL     1      -3.370  50.360  25.821  1.00  0.00    -0.094 Cl
BRANCH  17  19
HETATM   19  C11 UNL     1      -0.834  49.749  26.276  1.00  0.00     0.162 C 
HETATM   20 CL2  UNL     1      -1.527  50.174  27.832  1.00  0.00    -0.127 Cl
ENDBRANCH  17  19
ENDBRANCH  16  17
ENDBRANCH  14  16
ENDBRANCH  10  11
ENDBRANCH   5   9
BRANCH   7  21
HETATM   21  C14 UNL     1      -3.819  51.649  15.388  1.00  0.00    -0.003 C 
HETATM   22  C15 UNL     1      -5.114  51.287  15.322  1.00  0.00    -0.019 C 
BRANCH  22  23
HETATM   23  C16 UNL     1      -5.913  51.604  14.142  1.00  0.00     0.043 C 
HETATM   24  C17 UNL     1      -5.985  53.097  13.873  1.00  0.00     0.017 C 
BRANCH  23  25
HETATM   25  C18 UNL     1      -5.456  50.838  12.941  1.00  0.00     0.226 C 
BRANCH  25  26
HETATM   26  O5  UNL     1      -5.628  49.458  13.187  1.00  0.00    -0.384 OA
ATOM     27  H5  UNL     1      -4.805  49.096  13.495  1.00  0.00     0.210 HD
ENDBRANCH  25  26
BRANCH  25  28
HETATM   28  C19 UNL     1      -6.167  51.178  11.701  1.00  0.00     0.203 C 
HETATM   29  O6  UNL     1      -5.560  51.716  10.753  1.00  0.00    -0.646 OA
HETATM   30  O7  UNL     1      -7.535  50.900  11.567  1.00  0.00    -0.646 OA
ENDBRANCH  25  28
ENDBRANCH  23  25
ENDBRANCH  22  23
ENDBRANCH   7  21
TORSDOF 10
ENDMDL
MODEL 3
REMARK VINA RESULT: -6.277471439      3.732      6.687
REMARK  10 active torsions:
REMARK  status: ('A' for Active; 'I' for Inactive)
REMARK    1  A    between atoms: C4_5  and  C5_6 
REMARK    2  A    between atoms: C6_7  and  C7_8 
REMARK    3  A    between atoms: C9_11  and  O3_12 
REMARK    4  A    between atoms: O3_12  and  C10_13 
REMARK    5  A    between atoms: C10_13  and  C11_15 
REMARK    6  A    between atoms: C13_19  and  C14_20 
REMARK    7  A    between atoms: C15_21  and  C16_22 
REMARK    8  A    between atoms: C16_22  and  C18_24 
REMARK    9  A    between atoms: C18_24  and  O5_25 
REMARK   10  A    between atoms: C18_24  and  C19_27 
ROOT
HETATM    1  C1  UNL     1      -1.938  51.252  16.816  1.00  0.00     0.012 C 
HETATM    2  C2  UNL     1      -1.745  50.890  18.274  1.00  0.00     0.009 C 
HETATM    3  C3  UNL     1      -2.180  52.066  19.104  1.00  0.00     0.173 C 
HETATM    4  O1  UNL     1      -2.120  51.864  20.458  1.00  0.00    -0.377 OA
HETATM    5  C4  UNL     1      -1.387  50.762  20.857  1.00  0.00     0.173 C 
HETATM    6  C12 UNL     1      -0.162  50.544  20.050  1.00  0.00    -0.047 C 
HETATM    7  C13 UNL     1       1.038  50.409  20.565  1.00  0.00     0.005 C 
HETATM    8  C20 UNL     1      -0.319  50.477  18.574  1.00  0.00     0.043 C 
ENDROOT
BRANCH   5   9
HETATM    9  C5  UNL     1      -1.128  50.797  22.305  1.00  0.00     0.010 C 
HETATM   10  C6  UNL     1      -1.139  51.945  22.947  1.00  0.00     0.032 C 
BRANCH  10  11
HETATM   11  C7  UNL     1      -0.885  52.061  24.414  1.00  0.00     0.287 C 
HETATM   12  O2  UNL     1       0.165  52.925  24.596  1.00  0.00    -0.353 OA
HETATM   13  C8  UNL     1       1.272  52.059  24.667  1.00  0.00     0.232 C 
HETATM   14  C9  UNL     1       0.706  50.979  25.562  1.00  0.00     0.289 C 
HETATM   15  O4  UNL     1      -0.587  50.856  24.998  1.00  0.00    -0.326 OA
BRANCH  14  16
HETATM   16  O3  UNL     1       0.519  51.437  26.842  1.00  0.00    -0.338 OA
BRANCH  16  17
HETATM   17  C10 UNL     1       1.125  50.704  27.828  1.00  0.00     0.234 C 
HETATM   18 CL1  UNL     1       1.920  49.310  27.013  1.00  0.00    -0.094 Cl
BRANCH  17  19
HETATM   19  C11 UNL     1       0.141  50.113  28.802  1.00  0.00     0.162 C 
HETATM   20 CL2  UNL     1      -1.534  50.198  28.281  1.00  0.00    -0.127 Cl
ENDBRANCH  17  19
ENDBRANCH  16  17
ENDBRANCH  14  16
ENDBRANCH  10  11
ENDBRANCH   5   9
BRANCH   7  21
HETATM   21  C14 UNL     1       2.202  50.198  19.729  1.00  0.00    -0.003 C 
HETATM   22  C15 UNL     1       2.892  49.043  19.713  1.00  0.00    -0.019 C 
BRANCH  22  23
HETATM   23  C16 UNL     1       4.058  48.888  18.849  1.00  0.00     0.043 C 
HETATM   24  C17 UNL     1       5.197  48.156  19.537  1.00  0.00     0.017 C 
BRANCH  23  25
HETATM   25  C18 UNL     1       3.698  48.261  17.540  1.00  0.00     0.226 C 
BRANCH  25  26
HETATM   26  O5  UNL     1       4.859  47.692  16.971  1.00  0.00    -0.384 OA
ATOM     27  H5  UNL     1       5.556  48.337  16.985  1.00  0.00     0.210 HD
ENDBRANCH  25  26
BRANCH  25  28
HETATM   28  C19 UNL     1       2.670  47.216  17.633  1.00  0.00     0.203 C 
HETATM   29  O6  UNL     1       1.506  47.439  17.240  1.00  0.00    -0.646 OA
HETATM   30  O7  UNL     1       2.981  45.956  18.162  1.00  0.00    -0.646 OA
ENDBRANCH  25  28
ENDBRANCH  23  25
ENDBRANCH  22  23
ENDBRANCH   7  21
TORSDOF 10
ENDMDL
MODEL 4
REMARK VINA RESULT: -6.253044731      3.344      7.084
REMARK  10 active torsions:
REMARK  status: ('A' for Active; 'I' for Inactive)
REMARK    1  A    between atoms: C4_5  and  C5_6 
REMARK    2  A    between atoms: C6_7  and  C7_8 
REMARK    3  A    between atoms: C9_11  and  O3_12 
REMARK    4  A    between atoms: O3_12  and  C10_13 
REMARK    5  A    between atoms: C10_13  and  C11_15 
REMARK    6  A    between atoms: C13_19  and  C14_20 
REMARK    7  A    between atoms: C15_21  and  C16_22 
REMARK    8  A    between atoms: C16_22  and  C18_24 
REMARK    9  A    between atoms: C18_24  and  O5_25 
REMARK   10  A    between atoms: C18_24  and  C19_27 
ROOT
HETATM    1  C1  UNL     1      -1.411  50.650  16.725  1.00  0.00     0.012 C 
HETATM    2  C2  UNL     1      -1.443  50.380  18.214  1.00  0.00     0.009 C 
HETATM    3  C3  UNL     1      -1.749  51.676  18.913  1.00  0.00     0.173 C 
HETATM    4  O1  UNL     1      -1.871  51.577  20.274  1.00  0.00    -0.377 OA
HETATM    5  C4  UNL     1      -1.393  50.403  20.825  1.00  0.00     0.173 C 
HETATM    6  C12 UNL     1      -0.147  49.916  20.185  1.00  0.00    -0.047 C 
HETATM    7  C13 UNL     1       0.948  49.623  20.847  1.00  0.00     0.005 C 
HETATM    8  C20 UNL     1      -0.153  49.757  18.708  1.00  0.00     0.043 C 
ENDROOT
BRANCH   5   9
HETATM    9  C5  UNL     1      -1.288  50.511  22.289  1.00  0.00     0.010 C 
HETATM   10  C6  UNL     1      -0.957  51.659  22.841  1.00  0.00     0.032 C 
BRANCH  10  11
HETATM   11  C7  UNL     1      -0.830  51.846  24.317  1.00  0.00     0.287 C 
HETATM   12  O2  UNL     1       0.127  52.802  24.543  1.00  0.00    -0.353 OA
HETATM   13  C8  UNL     1       1.293  52.038  24.733  1.00  0.00     0.232 C 
HETATM   14  C9  UNL     1       0.749  50.945  25.626  1.00  0.00     0.289 C 
HETATM   15  O4  UNL     1      -0.481  50.692  24.970  1.00  0.00    -0.326 OA
BRANCH  14  16
HETATM   16  O3  UNL     1       0.424  51.428  26.868  1.00  0.00    -0.338 OA
BRANCH  16  17
HETATM   17  C10 UNL     1       1.032  50.804  27.924  1.00  0.00     0.234 C 
HETATM   18 CL1  UNL     1       2.012  49.463  27.231  1.00  0.00    -0.094 Cl
BRANCH  17  19
HETATM   19  C11 UNL     1       0.049  50.159  28.865  1.00  0.00     0.162 C 
HETATM   20 CL2  UNL     1      -1.607  50.142  28.281  1.00  0.00    -0.127 Cl
ENDBRANCH  17  19
ENDBRANCH  16  17
ENDBRANCH  14  16
ENDBRANCH  10  11
ENDBRANCH   5   9
BRANCH   7  21
HETATM   21  C14 UNL     1       2.139  49.151  20.171  1.00  0.00    -0.003 C 
HETATM   22  C15 UNL     1       3.306  48.939  20.807  1.00  0.00    -0.019 C 
BRANCH  22  23
HETATM   23  C16 UNL     1       4.475  48.462  20.073  1.00  0.00     0.043 C 
HETATM   24  C17 UNL     1       4.197  48.286  18.591  1.00  0.00     0.017 C 
BRANCH  23  25
HETATM   25  C18 UNL     1       5.674  49.321  20.322  1.00  0.00     0.226 C 
BRANCH  25  26
HETATM   26  O5  UNL     1       5.383  50.217  21.375  1.00  0.00    -0.384 OA
ATOM     27  H5  UNL     1       5.149  49.717  22.148  1.00  0.00     0.210 HD
ENDBRANCH  25  26
BRANCH  25  28
HETATM   28  C19 UNL     1       6.889  48.574  20.674  1.00  0.00     0.203 C 
HETATM   29  O6  UNL     1       7.506  47.927  19.803  1.00  0.00    -0.646 OA
HETATM   30  O7  UNL     1       7.372  48.580  21.990  1.00  0.00    -0.646 OA
ENDBRANCH  25  28
ENDBRANCH  23  25
ENDBRANCH  22  23
ENDBRANCH   7  21
TORSDOF 10
ENDMDL
MODEL 5
REMARK VINA RESULT: -6.242966960      3.305      7.871
REMARK  10 active torsions:
REMARK  status: ('A' for Active; 'I' for Inactive)
REMARK    1  A    between atoms: C4_5  and  C5_6 
REMARK    2  A    between atoms: C6_7  and  C7_8 
REMARK    3  A    between atoms: C9_11  and  O3_12 
REMARK    4  A    between atoms: O3_12  and  C10_13 
REMARK    5  A    between atoms: C10_13  and  C11_15 
REMARK    6  A    between atoms: C13_19  and  C14_20 
REMARK    7  A    between atoms: C15_21  and  C16_22 
REMARK    8  A    between atoms: C16_22  and  C18_24 
REMARK    9  A    between atoms: C18_24  and  O5_25 
REMARK   10  A    between atoms: C18_24  and  C19_27 
ROOT
HETATM    1  C1  UNL     1      -1.844  50.122  28.097  1.00  0.00     0.012 C 
HETATM    2  C2  UNL     1      -1.404  50.355  26.667  1.00  0.00     0.009 C 
HETATM    3  C3  UNL     1      -2.617  50.247  25.785  1.00  0.00     0.173 C 
HETATM    4  O1  UNL     1      -2.385  50.496  24.459  1.00  0.00    -0.377 OA
HETATM    5  C4  UNL     1      -1.055  50.493  24.083  1.00  0.00     0.173 C 
HETATM    6  C12 UNL     1      -0.253  49.446  24.762  1.00  0.00    -0.047 C 
HETATM    7  C13 UNL     1       0.493  48.571  24.128  1.00  0.00     0.005 C 
HETATM    8  C20 UNL     1      -0.307  49.398  26.245  1.00  0.00     0.043 C 
ENDROOT
BRANCH   5   9
HETATM    9  C5  UNL     1      -0.920  50.466  22.618  1.00  0.00     0.010 C 
HETATM   10  C6  UNL     1      -0.445  51.516  21.982  1.00  0.00     0.032 C 
BRANCH  10  11
HETATM   11  C7  UNL     1      -0.280  51.564  20.499  1.00  0.00     0.287 C 
HETATM   12  O2  UNL     1      -0.779  52.762  20.054  1.00  0.00    -0.353 OA
HETATM   13  C8  UNL     1      -2.103  52.438  19.704  1.00  0.00     0.232 C 
HETATM   14  C9  UNL     1      -1.871  51.128  18.983  1.00  0.00     0.289 C 
HETATM   15  O4  UNL     1      -0.927  50.538  19.859  1.00  0.00    -0.326 OA
BRANCH  14  16
HETATM   16  O3  UNL     1      -1.216  51.321  17.793  1.00  0.00    -0.338 OA
BRANCH  16  17
HETATM   17  C10 UNL     1      -1.436  50.368  16.835  1.00  0.00     0.234 C 
HETATM   18 CL1  UNL     1       0.175  49.690  16.407  1.00  0.00    -0.094 Cl
BRANCH  17  19
HETATM   19  C11 UNL     1      -2.000  50.941  15.561  1.00  0.00     0.162 C 
HETATM   20 CL2  UNL     1      -3.622  51.594  15.718  1.00  0.00    -0.127 Cl
ENDBRANCH  17  19
ENDBRANCH  16  17
ENDBRANCH  14  16
ENDBRANCH  10  11
ENDBRANCH   5   9
BRANCH   7  21
HETATM   21  C14 UNL     1       1.257  47.568  24.841  1.00  0.00    -0.003 C 
HETATM   22  C15 UNL     1       2.588  47.651  25.019  1.00  0.00    -0.019 C 
BRANCH  22  23
HETATM   23  C16 UNL     1       3.306  46.610  25.747  1.00  0.00     0.043 C 
HETATM   24  C17 UNL     1       3.476  45.342  24.930  1.00  0.00     0.017 C 
BRANCH  23  25
HETATM   25  C18 UNL     1       4.609  47.109  26.287  1.00  0.00     0.226 C 
BRANCH  25  26
HETATM   26  O5  UNL     1       4.971  48.284  25.592  1.00  0.00    -0.384 OA
ATOM     27  H5  UNL     1       5.004  49.007  26.206  1.00  0.00     0.210 HD
ENDBRANCH  25  26
BRANCH  25  28
HETATM   28  C19 UNL     1       4.591  47.411  27.725  1.00  0.00     0.203 C 
HETATM   29  O6  UNL     1       5.398  46.854  28.497  1.00  0.00    -0.646 OA
HETATM   30  O7  UNL     1       3.669  48.328  28.248  1.00  0.00    -0.646 OA
ENDBRANCH  25  28
ENDBRANCH  23  25
ENDBRANCH  22  23
ENDBRANCH   7  21
TORSDOF 10
ENDMDL
