MODEL 1
REMARK VINA RESULT: -5.846036354      0.000      0.000
REMARK  10 active torsions:
REMARK  status: ('A' for Active; 'I' for Inactive)
REMARK    1  A    between atoms: C4_8  and  C5_9 
REMARK    2  A    between atoms: C5_9  and  C6_10 
REMARK    3  A    between atoms: C5_9  and  N4_23 
REMARK    4  A    between atoms: C6_10  and  C7_11 
REMARK       I    between atoms: C7_11  and  N3_13 
REMARK    5  A    between atoms: N3_13  and  C8_15 
REMARK    6  A    between atoms: C8_15  and  C9_16 
REMARK    7  A    between atoms: C9_16  and  C10_18 
REMARK    8  A    between atoms: C10_18  and  O2_21 
REMARK    9  A    between atoms: N4_23  and  C13_25 
REMARK   10  A    between atoms: C13_25  and  C14_26 
ROOT
HETATM    1  C5  UNL     1      -0.071  50.460  20.675  1.00  0.00     0.044 C 
ENDROOT
BRANCH   1   2
HETATM    2  C4  UNL     1      -0.891  50.993  19.597  1.00  0.00     0.091 A 
HETATM    3  N1  UNL     1      -1.668  52.083  19.543  1.00  0.00    -0.294 N 
HETATM    4  C1  UNL     1      -1.845  53.094  20.567  1.00  0.00     0.178 C 
HETATM    5  N2  UNL     1      -2.289  52.170  18.341  1.00  0.00    -0.308 N 
HETATM    6  C2  UNL     1      -1.944  51.151  17.576  1.00  0.00     0.129 A 
ATOM      7  H2  UNL     1      -2.930  52.915  18.067  1.00  0.00     0.186 HD
HETATM    8  C3  UNL     1      -1.073  50.401  18.329  1.00  0.00     0.058 A 
HETATM    9 BR1  UNL     1      -0.234  48.793  17.748  1.00  0.00    -0.047 Br
ENDBRANCH   1   2
BRANCH   1  10
HETATM   10  C6  UNL     1      -0.540  49.674  21.807  1.00  0.00     0.161 C 
BRANCH  10  11
HETATM   11  C7  UNL     1      -0.671  50.421  23.090  1.00  0.00     0.223 C 
HETATM   12  O1  UNL     1      -0.080  51.499  23.189  1.00  0.00    -0.273 OA
HETATM   13  N3  UNL     1      -1.439  49.905  24.131  1.00  0.00    -0.359 N 
ATOM     14  H3  UNL     1      -1.865  49.001  23.924  1.00  0.00     0.162 HD
BRANCH  13  15
HETATM   15  C8  UNL     1      -1.739  50.400  25.423  1.00  0.00     0.145 C 
BRANCH  15  16
HETATM   16  C9  UNL     1      -1.092  49.842  26.618  1.00  0.00     0.133 C 
HETATM   17 CL1  UNL     1      -1.896  50.234  28.127  1.00  0.00    -0.120 Cl
BRANCH  16  18
HETATM   18  C10 UNL     1       0.362  50.259  26.773  1.00  0.00     0.069 C 
HETATM   19  C11 UNL     1       1.314  49.199  26.300  1.00  0.00     0.047 C 
HETATM   20  C12 UNL     1       0.678  50.527  28.231  1.00  0.00     0.047 C 
BRANCH  18  21
HETATM   21  O2  UNL     1       0.645  51.431  26.073  1.00  0.00    -0.389 OA
ATOM     22  H2  UNL     1       1.081  51.254  25.248  1.00  0.00     0.210 HD
ENDBRANCH  18  21
ENDBRANCH  16  18
ENDBRANCH  15  16
ENDBRANCH  13  15
ENDBRANCH  10  11
ENDBRANCH   1  10
BRANCH   1  23
HETATM   23  N4  UNL     1       1.224  50.698  20.517  1.00  0.00    -0.385 N 
ATOM     24  H4  UNL     1       1.535  51.608  20.178  1.00  0.00     0.159 HD
BRANCH  23  25
HETATM   25  C13 UNL     1       2.197  49.671  20.824  1.00  0.00     0.184 C 
BRANCH  25  26
HETATM   26  C14 UNL     1       3.108  50.100  21.913  1.00  0.00     0.070 A 
HETATM   27  C15 UNL     1       4.415  50.577  21.753  1.00  0.00     0.036 A 
HETATM   28  C16 UNL     1       4.913  50.863  23.001  1.00  0.00     0.027 A 
HETATM   29  C17 UNL     1       3.906  50.554  23.883  1.00  0.00     0.142 A 
HETATM   30  O3  UNL     1       2.896  50.122  23.207  1.00  0.00    -0.325 OA
ENDBRANCH  25  26
ENDBRANCH  23  25
ENDBRANCH   1  23
TORSDOF 10
ENDMDL
MODEL 2
REMARK VINA RESULT: -5.827414981      3.660      7.033
REMARK  10 active torsions:
REMARK  status: ('A' for Active; 'I' for Inactive)
REMARK    1  A    between atoms: C4_8  and  C5_9 
REMARK    2  A    between atoms: C5_9  and  C6_10 
REMARK    3  A    between atoms: C5_9  and  N4_23 
REMARK    4  A    between atoms: C6_10  and  C7_11 
REMARK       I    between atoms: C7_11  and  N3_13 
REMARK    5  A    between atoms: N3_13  and  C8_15 
REMARK    6  A    between atoms: C8_15  and  C9_16 
REMARK    7  A    between atoms: C9_16  and  C10_18 
REMARK    8  A    between atoms: C10_18  and  O2_21 
REMARK    9  A    between atoms: N4_23  and  C13_25 
REMARK   10  A    between atoms: C13_25  and  C14_26 
ROOT
HETATM    1  C5  UNL     1       1.222  49.541  25.289  1.00  0.00     0.044 C 
ENDROOT
BRANCH   1   2
HETATM    2  C4  UNL     1       0.920  49.802  26.688  1.00  0.00     0.091 A 
HETATM    3  N1  UNL     1       1.718  49.842  27.765  1.00  0.00    -0.294 N 
HETATM    4  C1  UNL     1       3.160  49.698  27.801  1.00  0.00     0.178 C 
HETATM    5  N2  UNL     1       0.997  50.081  28.887  1.00  0.00    -0.308 N 
HETATM    6  C2  UNL     1      -0.283  50.203  28.588  1.00  0.00     0.129 A 
ATOM      7  H2  UNL     1       1.386  50.156  29.828  1.00  0.00     0.186 HD
HETATM    8  C3  UNL     1      -0.363  50.036  27.227  1.00  0.00     0.058 A 
HETATM    9 BR1  UNL     1      -1.973  50.107  26.212  1.00  0.00    -0.047 Br
ENDBRANCH   1   2
BRANCH   1  10
HETATM   10  C6  UNL     1       0.821  48.368  24.525  1.00  0.00     0.161 C 
BRANCH  10  11
HETATM   11  C7  UNL     1       1.124  48.424  23.067  1.00  0.00     0.223 C 
HETATM   12  O1  UNL     1       2.308  48.387  22.726  1.00  0.00    -0.273 OA
HETATM   13  N3  UNL     1       0.092  48.515  22.136  1.00  0.00    -0.359 N 
ATOM     14  H3  UNL     1      -0.839  48.549  22.550  1.00  0.00     0.162 HD
BRANCH  13  15
HETATM   15  C8  UNL     1       0.095  48.569  20.721  1.00  0.00     0.145 C 
BRANCH  15  16
HETATM   16  C9  UNL     1      -0.323  49.783  20.008  1.00  0.00     0.133 C 
HETATM   17 CL1  UNL     1      -1.018  49.491  18.423  1.00  0.00    -0.120 Cl
BRANCH  16  18
HETATM   18  C10 UNL     1       0.797  50.793  19.817  1.00  0.00     0.069 C 
HETATM   19  C11 UNL     1       0.291  52.132  19.364  1.00  0.00     0.047 C 
HETATM   20  C12 UNL     1       1.772  50.303  18.765  1.00  0.00     0.047 C 
BRANCH  18  21
HETATM   21  O2  UNL     1       1.527  50.987  20.989  1.00  0.00    -0.389 OA
ATOM     22  H2  UNL     1       1.472  51.884  21.296  1.00  0.00     0.210 HD
ENDBRANCH  18  21
ENDBRANCH  16  18
ENDBRANCH  15  16
ENDBRANCH  13  15
ENDBRANCH  10  11
ENDBRANCH   1  10
BRANCH   1  23
HETATM   23  N4  UNL     1       1.873  50.533  24.698  1.00  0.00    -0.385 N 
ATOM     24  H4  UNL     1       2.674  50.330  24.100  1.00  0.00     0.159 HD
BRANCH  23  25
HETATM   25  C13 UNL     1       1.451  51.903  24.896  1.00  0.00     0.184 C 
BRANCH  25  26
HETATM   26  C14 UNL     1       0.206  52.199  24.147  1.00  0.00     0.070 A 
HETATM   27  C15 UNL     1      -0.694  53.236  24.422  1.00  0.00     0.036 A 
HETATM   28  C16 UNL     1      -1.711  53.165  23.501  1.00  0.00     0.027 A 
HETATM   29  C17 UNL     1      -1.408  52.094  22.694  1.00  0.00     0.142 A 
HETATM   30  O3  UNL     1      -0.300  51.577  23.109  1.00  0.00    -0.325 OA
ENDBRANCH  25  26
ENDBRANCH  23  25
ENDBRANCH   1  23
TORSDOF 10
ENDMDL
MODEL 3
REMARK VINA RESULT: -5.795864265      3.361      6.291
REMARK  10 active torsions:
REMARK  status: ('A' for Active; 'I' for Inactive)
REMARK    1  A    between atoms: C4_8  and  C5_9 
REMARK    2  A    between atoms: C5_9  and  C6_10 
REMARK    3  A    between atoms: C5_9  and  N4_23 
REMARK    4  A    between atoms: C6_10  and  C7_11 
REMARK       I    between atoms: C7_11  and  N3_13 
REMARK    5  A    between atoms: N3_13  and  C8_15 
REMARK    6  A    between atoms: C8_15  and  C9_16 
REMARK    7  A    between atoms: C9_16  and  C10_18 
REMARK    8  A    between atoms: C10_18  and  O2_21 
REMARK    9  A    between atoms: N4_23  and  C13_25 
REMARK   10  A    between atoms: C13_25  and  C14_26 
ROOT
HETATM    1  C5  UNL     1       0.379  49.768  24.958  1.00  0.00     0.044 C 
ENDROOT
BRANCH   1   2
HETATM    2  C4  UNL     1      -0.101  49.944  26.320  1.00  0.00     0.091 A 
HETATM    3  N1  UNL     1       0.555  49.945  27.489  1.00  0.00    -0.294 N 
HETATM    4  C1  UNL     1       1.986  49.836  27.698  1.00  0.00     0.178 C 
HETATM    5  N2  UNL     1      -0.307  50.103  28.523  1.00  0.00    -0.308 N 
HETATM    6  C2  UNL     1      -1.543  50.209  28.073  1.00  0.00     0.129 A 
ATOM      7  H2  UNL     1      -0.039  50.135  29.507  1.00  0.00     0.186 HD
HETATM    8  C3  UNL     1      -1.448  50.115  26.705  1.00  0.00     0.058 A 
HETATM    9 BR1  UNL     1      -2.922  50.201  25.501  1.00  0.00    -0.047 Br
ENDBRANCH   1   2
BRANCH   1  10
HETATM   10  C6  UNL     1       0.618  48.500  24.286  1.00  0.00     0.161 C 
BRANCH  10  11
HETATM   11  C7  UNL     1       0.760  48.582  22.804  1.00  0.00     0.223 C 
HETATM   12  O1  UNL     1       1.890  48.454  22.328  1.00  0.00    -0.273 OA
HETATM   13  N3  UNL     1      -0.356  48.796  22.000  1.00  0.00    -0.359 N 
ATOM     14  H3  UNL     1      -1.229  48.896  22.519  1.00  0.00     0.162 HD
BRANCH  13  15
HETATM   15  C8  UNL     1      -0.507  48.901  20.596  1.00  0.00     0.145 C 
BRANCH  15  16
HETATM   16  C9  UNL     1      -1.112  50.092  19.985  1.00  0.00     0.133 C 
HETATM   17 CL1  UNL     1      -1.104  50.091  18.231  1.00  0.00    -0.120 Cl
BRANCH  16  18
HETATM   18  C10 UNL     1      -0.469  51.397  20.427  1.00  0.00     0.069 C 
HETATM   19  C11 UNL     1      -1.338  52.172  21.374  1.00  0.00     0.047 C 
HETATM   20  C12 UNL     1      -0.207  52.285  19.228  1.00  0.00     0.047 C 
BRANCH  18  21
HETATM   21  O2  UNL     1       0.760  51.184  21.052  1.00  0.00    -0.389 OA
ATOM     22  H2  UNL     1       0.798  50.337  21.479  1.00  0.00     0.210 HD
ENDBRANCH  18  21
ENDBRANCH  16  18
ENDBRANCH  15  16
ENDBRANCH  13  15
ENDBRANCH  10  11
ENDBRANCH   1  10
BRANCH   1  23
HETATM   23  N4  UNL     1       0.535  50.911  24.304  1.00  0.00    -0.385 N 
ATOM     24  H4  UNL     1      -0.121  51.168  23.567  1.00  0.00     0.159 HD
BRANCH  23  25
HETATM   25  C13 UNL     1       1.631  51.796  24.633  1.00  0.00     0.184 C 
BRANCH  25  26
HETATM   26  C14 UNL     1       2.900  51.335  24.018  1.00  0.00     0.070 A 
HETATM   27  C15 UNL     1       3.969  50.730  24.691  1.00  0.00     0.036 A 
HETATM   28  C16 UNL     1       4.947  50.456  23.766  1.00  0.00     0.027 A 
HETATM   29  C17 UNL     1       4.454  50.899  22.561  1.00  0.00     0.142 A 
HETATM   30  O3  UNL     1       3.278  51.392  22.764  1.00  0.00    -0.325 OA
ENDBRANCH  25  26
ENDBRANCH  23  25
ENDBRANCH   1  23
TORSDOF 10
ENDMDL
MODEL 4
REMARK VINA RESULT: -5.768990298      2.234      4.781
REMARK  10 active torsions:
REMARK  status: ('A' for Active; 'I' for Inactive)
REMARK    1  A    between atoms: C4_8  and  C5_9 
REMARK    2  A    between atoms: C5_9  and  C6_10 
REMARK    3  A    between atoms: C5_9  and  N4_23 
REMARK    4  A    between atoms: C6_10  and  C7_11 
REMARK       I    between atoms: C7_11  and  N3_13 
REMARK    5  A    between atoms: N3_13  and  C8_15 
REMARK    6  A    between atoms: C8_15  and  C9_16 
REMARK    7  A    between atoms: C9_16  and  C10_18 
REMARK    8  A    between atoms: C10_18  and  O2_21 
REMARK    9  A    between atoms: N4_23  and  C13_25 
REMARK   10  A    between atoms: C13_25  and  C14_26 
ROOT
HETATM    1  C5  UNL     1       2.527  49.744  20.613  1.00  0.00     0.044 C 
ENDROOT
BRANCH   1   2
HETATM    2  C4  UNL     1       3.961  49.497  20.658  1.00  0.00     0.091 A 
HETATM    3  N1  UNL     1       4.919  50.030  21.428  1.00  0.00    -0.294 N 
HETATM    4  C1  UNL     1       4.755  50.981  22.510  1.00  0.00     0.178 C 
HETATM    5  N2  UNL     1       6.135  49.532  21.094  1.00  0.00    -0.308 N 
HETATM    6  C2  UNL     1       6.016  48.667  20.105  1.00  0.00     0.129 A 
ATOM      7  H2  UNL     1       7.015  49.789  21.542  1.00  0.00     0.186 HD
HETATM    8  C3  UNL     1       4.674  48.622  19.811  1.00  0.00     0.058 A 
HETATM    9 BR1  UNL     1       3.890  47.537  18.456  1.00  0.00    -0.047 Br
ENDBRANCH   1   2
BRANCH   1  10
HETATM   10  C6  UNL     1       1.510  49.059  21.397  1.00  0.00     0.161 C 
BRANCH  10  11
HETATM   11  C7  UNL     1       0.790  49.909  22.386  1.00  0.00     0.223 C 
HETATM   12  O1  UNL     1       1.426  50.807  22.942  1.00  0.00    -0.273 OA
HETATM   13  N3  UNL     1      -0.557  49.684  22.662  1.00  0.00    -0.359 N 
ATOM     14  H3  UNL     1      -0.962  48.904  22.142  1.00  0.00     0.162 HD
BRANCH  13  15
HETATM   15  C8  UNL     1      -1.469  50.335  23.527  1.00  0.00     0.145 C 
BRANCH  15  16
HETATM   16  C9  UNL     1      -1.777  49.788  24.855  1.00  0.00     0.133 C 
HETATM   17 CL1  UNL     1      -3.263  50.393  25.563  1.00  0.00    -0.120 Cl
BRANCH  16  18
HETATM   18  C10 UNL     1      -0.676  50.020  25.878  1.00  0.00     0.069 C 
HETATM   19  C11 UNL     1       0.299  48.881  25.940  1.00  0.00     0.047 C 
HETATM   20  C12 UNL     1      -1.272  50.176  27.263  1.00  0.00     0.047 C 
BRANCH  18  21
HETATM   21  O2  UNL     1       0.044  51.185  25.612  1.00  0.00    -0.389 OA
ATOM     22  H2  UNL     1       0.981  51.033  25.628  1.00  0.00     0.210 HD
ENDBRANCH  18  21
ENDBRANCH  16  18
ENDBRANCH  15  16
ENDBRANCH  13  15
ENDBRANCH  10  11
ENDBRANCH   1  10
BRANCH   1  23
HETATM   23  N4  UNL     1       2.191  50.742  19.808  1.00  0.00    -0.385 N 
ATOM     24  H4  UNL     1       2.654  51.645  19.898  1.00  0.00     0.159 HD
BRANCH  23  25
HETATM   25  C13 UNL     1       1.168  50.554  18.801  1.00  0.00     0.184 C 
BRANCH  25  26
HETATM   26  C14 UNL     1      -0.123  51.149  19.225  1.00  0.00     0.070 A 
HETATM   27  C15 UNL     1      -0.396  52.517  19.353  1.00  0.00     0.036 A 
HETATM   28  C16 UNL     1      -1.700  52.647  19.767  1.00  0.00     0.027 A 
HETATM   29  C17 UNL     1      -2.184  51.366  19.882  1.00  0.00     0.142 A 
HETATM   30  O3  UNL     1      -1.239  50.548  19.559  1.00  0.00    -0.325 OA
ENDBRANCH  25  26
ENDBRANCH  23  25
ENDBRANCH   1  23
TORSDOF 10
ENDMDL
MODEL 5
REMARK VINA RESULT: -5.727970750      1.437      1.629
REMARK  10 active torsions:
REMARK  status: ('A' for Active; 'I' for Inactive)
REMARK    1  A    between atoms: C4_8  and  C5_9 
REMARK    2  A    between atoms: C5_9  and  C6_10 
REMARK    3  A    between atoms: C5_9  and  N4_23 
REMARK    4  A    between atoms: C6_10  and  C7_11 
REMARK       I    between atoms: C7_11  and  N3_13 
REMARK    5  A    between atoms: N3_13  and  C8_15 
REMARK    6  A    between atoms: C8_15  and  C9_16 
REMARK    7  A    between atoms: C9_16  and  C10_18 
REMARK    8  A    between atoms: C10_18  and  O2_21 
REMARK    9  A    between atoms: N4_23  and  C13_25 
REMARK   10  A    between atoms: C13_25  and  C14_26 
ROOT
HETATM    1  C5  UNL     1      -0.059  50.333  20.910  1.00  0.00     0.044 C 
ENDROOT
BRANCH   1   2
HETATM    2  C4  UNL     1      -0.840  50.978  19.865  1.00  0.00     0.091 A 
HETATM    3  N1  UNL     1      -1.585  52.092  19.888  1.00  0.00    -0.294 N 
HETATM    4  C1  UNL     1      -1.754  53.020  20.990  1.00  0.00     0.178 C 
HETATM    5  N2  UNL     1      -2.177  52.298  18.686  1.00  0.00    -0.308 N 
HETATM    6  C2  UNL     1      -1.845  51.337  17.845  1.00  0.00     0.129 A 
ATOM      7  H2  UNL     1      -2.791  53.083  18.463  1.00  0.00     0.186 HD
HETATM    8  C3  UNL     1      -1.013  50.500  18.548  1.00  0.00     0.058 A 
HETATM    9 BR1  UNL     1      -0.209  48.921  17.850  1.00  0.00    -0.047 Br
ENDBRANCH   1   2
BRANCH   1  10
HETATM   10  C6  UNL     1      -0.430  49.133  21.646  1.00  0.00     0.161 C 
BRANCH  10  11
HETATM   11  C7  UNL     1      -0.137  49.168  23.107  1.00  0.00     0.223 C 
HETATM   12  O1  UNL     1       0.920  48.663  23.492  1.00  0.00    -0.273 OA
HETATM   13  N3  UNL     1      -1.038  49.753  23.993  1.00  0.00    -0.359 N 
ATOM     14  H3  UNL     1      -1.877  50.123  23.547  1.00  0.00     0.162 HD
BRANCH  13  15
HETATM   15  C8  UNL     1      -1.005  49.932  25.397  1.00  0.00     0.145 C 
BRANCH  15  16
HETATM   16  C9  UNL     1      -0.040  50.844  26.024  1.00  0.00     0.133 C 
HETATM   17 CL1  UNL     1       0.713  51.976  24.915  1.00  0.00    -0.120 Cl
BRANCH  16  18
HETATM   18  C10 UNL     1       1.085  50.130  26.755  1.00  0.00     0.069 C 
HETATM   19  C11 UNL     1       0.934  50.200  28.247  1.00  0.00     0.047 C 
HETATM   20  C12 UNL     1       2.419  50.762  26.410  1.00  0.00     0.047 C 
BRANCH  18  21
HETATM   21  O2  UNL     1       1.167  48.785  26.397  1.00  0.00    -0.389 OA
ATOM     22  H2  UNL     1       1.914  48.613  25.835  1.00  0.00     0.210 HD
ENDBRANCH  18  21
ENDBRANCH  16  18
ENDBRANCH  15  16
ENDBRANCH  13  15
ENDBRANCH  10  11
ENDBRANCH   1  10
BRANCH   1  23
HETATM   23  N4  UNL     1       1.117  50.908  21.117  1.00  0.00    -0.385 N 
ATOM     24  H4  UNL     1       1.177  51.748  21.692  1.00  0.00     0.159 HD
BRANCH  23  25
HETATM   25  C13 UNL     1       2.316  50.350  20.531  1.00  0.00     0.184 C 
BRANCH  25  26
HETATM   26  C14 UNL     1       3.426  50.303  21.514  1.00  0.00     0.070 A 
HETATM   27  C15 UNL     1       3.477  50.992  22.732  1.00  0.00     0.036 A 
HETATM   28  C16 UNL     1       4.668  50.679  23.342  1.00  0.00     0.027 A 
HETATM   29  C17 UNL     1       5.309  49.816  22.485  1.00  0.00     0.142 A 
HETATM   30  O3  UNL     1       4.553  49.635  21.455  1.00  0.00    -0.325 OA
ENDBRANCH  25  26
ENDBRANCH  23  25
ENDBRANCH   1  23
TORSDOF 10
ENDMDL
