MODEL 1
REMARK VINA RESULT: -8.504101698      0.000      0.000
REMARK  5 active torsions:
REMARK  status: ('A' for Active; 'I' for Inactive)
REMARK    1  A    between atoms: C2_2  and  C3_4 
REMARK    2  A    between atoms: C6_7  and  C7_8 
REMARK       I    between atoms: C7_8  and  N1_10 
REMARK    3  A    between atoms: N1_10  and  C8_12 
REMARK    4  A    between atoms: C13_17  and  S1_18 
REMARK    5  A    between atoms: S1_18  and  N2_19 
ROOT
HETATM    1  C7  UNL     1       6.521  10.468  44.928  1.00  0.00     0.239 C 
HETATM    2  O2  UNL     1       7.369  10.851  44.104  1.00  0.00    -0.272 OA
HETATM    3  N1  UNL     1       5.306  11.126  45.121  1.00  0.00    -0.325 N 
ATOM      4  H1  UNL     1       4.690  10.719  45.825  1.00  0.00     0.169 HD
ENDROOT
BRANCH   3   5
HETATM    5  C8  UNL     1       4.815  12.275  44.477  1.00  0.00     0.058 A 
HETATM    6  C9  UNL     1       4.768  12.398  43.107  1.00  0.00     0.031 A 
HETATM    7  C10 UNL     1       4.276  13.553  42.522  1.00  0.00     0.002 A 
HETATM    8  C11 UNL     1       3.830  14.589  43.327  1.00  0.00     0.002 A 
HETATM    9  C12 UNL     1       3.881  14.456  44.695  1.00  0.00     0.027 A 
HETATM   10  C13 UNL     1       4.362  13.327  45.297  1.00  0.00     0.105 A 
BRANCH  10  11
HETATM   11  S1  UNL     1       4.411  13.190  47.058  1.00  0.00     0.259 S 
HETATM   12  O3  UNL     1       3.433  12.187  47.549  1.00  0.00    -0.201 OA
HETATM   13  O4  UNL     1       5.772  12.916  47.577  1.00  0.00    -0.201 OA
BRANCH  11  14
HETATM   14  N2  UNL     1       3.934  14.754  47.690  1.00  0.00    -0.324 N 
ATOM     15  H22 UNL     1       3.250  15.386  47.274  1.00  0.00     0.169 HD
ATOM     16  H21 UNL     1       4.475  14.896  48.542  1.00  0.00     0.169 HD
ENDBRANCH  11  14
ENDBRANCH  10  11
ENDBRANCH   3   5
BRANCH   1  17
HETATM   17  C6  UNL     1       6.897   9.239  45.708  1.00  0.00     0.084 A 
HETATM   18  C5  UNL     1       6.372   7.977  45.179  1.00  0.00    -0.006 A 
HETATM   19  C4  UNL     1       7.307   7.042  45.128  1.00  0.00    -0.016 A 
HETATM   20  C3  UNL     1       8.602   7.532  45.616  1.00  0.00     0.086 A 
HETATM   21  C16 UNL     1       8.350   8.999  45.906  1.00  0.00     0.048 A 
HETATM   22  C15 UNL     1       8.159   9.211  47.376  1.00  0.00    -0.022 A 
HETATM   23  C14 UNL     1       6.867   9.420  47.166  1.00  0.00    -0.006 A 
BRANCH  20  24
HETATM   24  C2  UNL     1       9.722   7.334  44.680  1.00  0.00     0.131 C 
HETATM   25  C1  UNL     1       9.547   7.604  43.241  1.00  0.00     0.091 C 
HETATM   26  O1  UNL     1      10.788   6.948  45.091  1.00  0.00    -0.298 OA
ENDBRANCH  20  24
ENDBRANCH   1  17
TORSDOF 5
ENDMDL
MODEL 2
REMARK VINA RESULT: -8.065035074      3.454      7.220
REMARK  5 active torsions:
REMARK  status: ('A' for Active; 'I' for Inactive)
REMARK    1  A    between atoms: C2_2  and  C3_4 
REMARK    2  A    between atoms: C6_7  and  C7_8 
REMARK       I    between atoms: C7_8  and  N1_10 
REMARK    3  A    between atoms: N1_10  and  C8_12 
REMARK    4  A    between atoms: C13_17  and  S1_18 
REMARK    5  A    between atoms: S1_18  and  N2_19 
ROOT
HETATM    1  C7  UNL     1       7.715   8.507  44.635  1.00  0.00     0.239 C 
HETATM    2  O2  UNL     1       6.806   7.713  44.930  1.00  0.00    -0.272 OA
HETATM    3  N1  UNL     1       8.611   8.275  43.590  1.00  0.00    -0.325 N 
ATOM      4  H1  UNL     1       9.314   8.999  43.443  1.00  0.00     0.169 HD
ENDROOT
BRANCH   3   5
HETATM    5  C8  UNL     1       8.676   7.178  42.714  1.00  0.00     0.058 A 
HETATM    6  C9  UNL     1       7.708   6.920  41.771  1.00  0.00     0.031 A 
HETATM    7  C10 UNL     1       7.819   5.822  40.933  1.00  0.00     0.002 A 
HETATM    8  C11 UNL     1       8.914   4.982  41.050  1.00  0.00     0.002 A 
HETATM    9  C12 UNL     1       9.876   5.250  41.996  1.00  0.00     0.027 A 
HETATM   10  C13 UNL     1       9.791   6.324  42.836  1.00  0.00     0.105 A 
BRANCH  10  11
HETATM   11  S1  UNL     1      11.046   6.639  44.039  1.00  0.00     0.259 S 
HETATM   12  O3  UNL     1      11.842   7.841  43.687  1.00  0.00    -0.201 OA
HETATM   13  O4  UNL     1      10.513   6.728  45.418  1.00  0.00    -0.201 OA
BRANCH  11  14
HETATM   14  N2  UNL     1      12.123   5.256  44.001  1.00  0.00    -0.324 N 
ATOM     15  H22 UNL     1      13.124   5.279  43.806  1.00  0.00     0.169 HD
ATOM     16  H21 UNL     1      11.550   4.439  44.211  1.00  0.00     0.169 HD
ENDBRANCH  11  14
ENDBRANCH  10  11
ENDBRANCH   3   5
BRANCH   1  17
HETATM   17  C6  UNL     1       7.783   9.745  45.486  1.00  0.00     0.084 A 
HETATM   18  C5  UNL     1       8.407  10.908  44.849  1.00  0.00    -0.006 A 
HETATM   19  C4  UNL     1       7.689  12.006  45.027  1.00  0.00    -0.016 A 
HETATM   20  C3  UNL     1       6.475  11.747  45.812  1.00  0.00     0.086 A 
HETATM   21  C16 UNL     1       6.494  10.247  46.028  1.00  0.00     0.048 A 
HETATM   22  C15 UNL     1       6.981   9.929  47.408  1.00  0.00    -0.022 A 
HETATM   23  C14 UNL     1       8.119   9.489  46.893  1.00  0.00    -0.006 A 
BRANCH  20  24
HETATM   24  C2  UNL     1       5.227  12.202  45.173  1.00  0.00     0.131 C 
HETATM   25  C1  UNL     1       5.129  12.283  43.705  1.00  0.00     0.091 C 
HETATM   26  O1  UNL     1       4.281  12.510  45.855  1.00  0.00    -0.298 OA
ENDBRANCH  20  24
ENDBRANCH   1  17
TORSDOF 5
ENDMDL
MODEL 3
REMARK VINA RESULT: -7.923351047      3.334      6.998
REMARK  5 active torsions:
REMARK  status: ('A' for Active; 'I' for Inactive)
REMARK    1  A    between atoms: C2_2  and  C3_4 
REMARK    2  A    between atoms: C6_7  and  C7_8 
REMARK       I    between atoms: C7_8  and  N1_10 
REMARK    3  A    between atoms: N1_10  and  C8_12 
REMARK    4  A    between atoms: C13_17  and  S1_18 
REMARK    5  A    between atoms: S1_18  and  N2_19 
ROOT
HETATM    1  C7  UNL     1       8.006  11.129  44.227  1.00  0.00     0.239 C 
HETATM    2  O2  UNL     1       8.808  12.065  44.381  1.00  0.00    -0.272 OA
HETATM    3  N1  UNL     1       8.364   9.917  43.634  1.00  0.00    -0.325 N 
ATOM      4  H1  UNL     1       7.620   9.224  43.564  1.00  0.00     0.169 HD
ENDROOT
BRANCH   3   5
HETATM    5  C8  UNL     1       9.612   9.524  43.121  1.00  0.00     0.058 A 
HETATM    6  C9  UNL     1      10.357  10.321  42.283  1.00  0.00     0.031 A 
HETATM    7  C10 UNL     1      11.581   9.885  41.802  1.00  0.00     0.002 A 
HETATM    8  C11 UNL     1      12.053   8.636  42.172  1.00  0.00     0.002 A 
HETATM    9  C12 UNL     1      11.300   7.847  43.010  1.00  0.00     0.027 A 
HETATM   10  C13 UNL     1      10.090   8.253  43.498  1.00  0.00     0.105 A 
BRANCH  10  11
HETATM   11  S1  UNL     1       9.150   7.214  44.574  1.00  0.00     0.259 S 
HETATM   12  O3  UNL     1       9.178   7.717  45.970  1.00  0.00    -0.201 OA
HETATM   13  O4  UNL     1       7.761   7.003  44.104  1.00  0.00    -0.201 OA
BRANCH  11  14
HETATM   14  N2  UNL     1       9.934   5.646  44.556  1.00  0.00    -0.324 N 
ATOM     15  H22 UNL     1      10.247   5.141  43.727  1.00  0.00     0.169 HD
ATOM     16  H21 UNL     1      10.010   5.352  45.530  1.00  0.00     0.169 HD
ENDBRANCH  11  14
ENDBRANCH  10  11
ENDBRANCH   3   5
BRANCH   1  17
HETATM   17  C6  UNL     1       6.613  11.391  44.729  1.00  0.00     0.084 A 
HETATM   18  C5  UNL     1       6.493  12.482  45.700  1.00  0.00    -0.006 A 
HETATM   19  C4  UNL     1       5.489  13.293  45.403  1.00  0.00    -0.016 A 
HETATM   20  C3  UNL     1       4.782  12.869  44.188  1.00  0.00     0.086 A 
HETATM   21  C16 UNL     1       5.581  11.677  43.699  1.00  0.00     0.048 A 
HETATM   22  C15 UNL     1       4.892  10.402  44.073  1.00  0.00    -0.022 A 
HETATM   23  C14 UNL     1       5.827  10.176  44.983  1.00  0.00    -0.006 A 
BRANCH  20  24
HETATM   24  C2  UNL     1       4.655  13.915  43.159  1.00  0.00     0.131 C 
HETATM   25  C1  UNL     1       4.518  13.549  41.737  1.00  0.00     0.091 C 
HETATM   26  O1  UNL     1       4.664  15.078  43.479  1.00  0.00    -0.298 OA
ENDBRANCH  20  24
ENDBRANCH   1  17
TORSDOF 5
ENDMDL
MODEL 4
REMARK VINA RESULT: -7.896035117      3.604      7.411
REMARK  5 active torsions:
REMARK  status: ('A' for Active; 'I' for Inactive)
REMARK    1  A    between atoms: C2_2  and  C3_4 
REMARK    2  A    between atoms: C6_7  and  C7_8 
REMARK       I    between atoms: C7_8  and  N1_10 
REMARK    3  A    between atoms: N1_10  and  C8_12 
REMARK    4  A    between atoms: C13_17  and  S1_18 
REMARK    5  A    between atoms: S1_18  and  N2_19 
ROOT
HETATM    1  C7  UNL     1       8.720   9.212  43.422  1.00  0.00     0.239 C 
HETATM    2  O2  UNL     1       9.250   9.942  42.568  1.00  0.00    -0.272 OA
HETATM    3  N1  UNL     1       8.608   7.829  43.269  1.00  0.00    -0.325 N 
ATOM      4  H1  UNL     1       8.155   7.335  44.037  1.00  0.00     0.169 HD
ENDROOT
BRANCH   3   5
HETATM    5  C8  UNL     1       9.035   7.025  42.198  1.00  0.00     0.058 A 
HETATM    6  C9  UNL     1       8.386   6.993  40.986  1.00  0.00     0.031 A 
HETATM    7  C10 UNL     1       8.847   6.180  39.963  1.00  0.00     0.002 A 
HETATM    8  C11 UNL     1       9.971   5.397  40.168  1.00  0.00     0.002 A 
HETATM    9  C12 UNL     1      10.612   5.436  41.385  1.00  0.00     0.027 A 
HETATM   10  C13 UNL     1      10.178   6.228  42.410  1.00  0.00     0.105 A 
BRANCH  10  11
HETATM   11  S1  UNL     1      11.028   6.255  43.959  1.00  0.00     0.259 S 
HETATM   12  O3  UNL     1      11.639   7.582  44.216  1.00  0.00    -0.201 OA
HETATM   13  O4  UNL     1      10.175   5.824  45.092  1.00  0.00    -0.201 OA
BRANCH  11  14
HETATM   14  N2  UNL     1      12.327   5.085  43.830  1.00  0.00    -0.324 N 
ATOM     15  H22 UNL     1      12.394   4.203  44.338  1.00  0.00     0.169 HD
ATOM     16  H21 UNL     1      12.988   5.464  43.153  1.00  0.00     0.169 HD
ENDBRANCH  11  14
ENDBRANCH  10  11
ENDBRANCH   3   5
BRANCH   1  17
HETATM   17  C6  UNL     1       8.206   9.924  44.642  1.00  0.00     0.084 A 
HETATM   18  C5  UNL     1       8.620  11.324  44.771  1.00  0.00    -0.006 A 
HETATM   19  C4  UNL     1       7.600  12.109  45.080  1.00  0.00    -0.016 A 
HETATM   20  C3  UNL     1       6.346  11.356  45.208  1.00  0.00     0.086 A 
HETATM   21  C16 UNL     1       6.731   9.940  44.827  1.00  0.00     0.048 A 
HETATM   22  C15 UNL     1       6.903   9.102  46.056  1.00  0.00    -0.022 A 
HETATM   23  C14 UNL     1       8.213   9.107  45.864  1.00  0.00    -0.006 A 
BRANCH  20  24
HETATM   24  C2  UNL     1       5.238  11.872  44.386  1.00  0.00     0.131 C 
HETATM   25  C1  UNL     1       5.126  11.494  42.965  1.00  0.00     0.091 C 
HETATM   26  O1  UNL     1       4.417  12.607  44.876  1.00  0.00    -0.298 OA
ENDBRANCH  20  24
ENDBRANCH   1  17
TORSDOF 5
ENDMDL
MODEL 5
REMARK VINA RESULT: -7.858732143      2.948      4.017
REMARK  5 active torsions:
REMARK  status: ('A' for Active; 'I' for Inactive)
REMARK    1  A    between atoms: C2_2  and  C3_4 
REMARK    2  A    between atoms: C6_7  and  C7_8 
REMARK       I    between atoms: C7_8  and  N1_10 
REMARK    3  A    between atoms: N1_10  and  C8_12 
REMARK    4  A    between atoms: C13_17  and  S1_18 
REMARK    5  A    between atoms: S1_18  and  N2_19 
ROOT
HETATM    1  C7  UNL     1       8.103   9.424  42.838  1.00  0.00     0.239 C 
HETATM    2  O2  UNL     1       8.987  10.294  42.767  1.00  0.00    -0.272 OA
HETATM    3  N1  UNL     1       6.894   9.628  43.504  1.00  0.00    -0.325 N 
ATOM      4  H1  UNL     1       6.246   8.840  43.494  1.00  0.00     0.169 HD
ENDROOT
BRANCH   3   5
HETATM    5  C8  UNL     1       6.448  10.772  44.187  1.00  0.00     0.058 A 
HETATM    6  C9  UNL     1       5.859  11.838  43.549  1.00  0.00     0.031 A 
HETATM    7  C10 UNL     1       5.439  12.945  44.269  1.00  0.00     0.002 A 
HETATM    8  C11 UNL     1       5.616  12.971  45.643  1.00  0.00     0.002 A 
HETATM    9  C12 UNL     1       6.206  11.899  46.272  1.00  0.00     0.027 A 
HETATM   10  C13 UNL     1       6.630  10.797  45.585  1.00  0.00     0.105 A 
BRANCH  10  11
HETATM   11  S1  UNL     1       7.382   9.437  46.426  1.00  0.00     0.259 S 
HETATM   12  O3  UNL     1       6.646   8.173  46.174  1.00  0.00    -0.201 OA
HETATM   13  O4  UNL     1       8.823   9.293  46.115  1.00  0.00    -0.201 OA
BRANCH  11  14
HETATM   14  N2  UNL     1       7.266   9.790  48.139  1.00  0.00    -0.324 N 
ATOM     15  H22 UNL     1       6.507  10.295  48.598  1.00  0.00     0.169 HD
ATOM     16  H21 UNL     1       8.099   9.392  48.571  1.00  0.00     0.169 HD
ENDBRANCH  11  14
ENDBRANCH  10  11
ENDBRANCH   3   5
BRANCH   1  17
HETATM   17  C6  UNL     1       8.427   8.126  42.151  1.00  0.00     0.084 A 
HETATM   18  C5  UNL     1       8.997   8.255  40.807  1.00  0.00    -0.006 A 
HETATM   19  C4  UNL     1      10.056   7.477  40.648  1.00  0.00    -0.016 A 
HETATM   20  C3  UNL     1      10.359   6.707  41.861  1.00  0.00     0.086 A 
HETATM   21  C16 UNL     1       9.346   7.206  42.872  1.00  0.00     0.048 A 
HETATM   22  C15 UNL     1       8.220   6.228  43.004  1.00  0.00    -0.022 A 
HETATM   23  C14 UNL     1       7.427   7.070  42.358  1.00  0.00    -0.006 A 
BRANCH  20  24
HETATM   24  C2  UNL     1      11.743   6.847  42.344  1.00  0.00     0.131 C 
HETATM   25  C1  UNL     1      12.713   5.754  42.153  1.00  0.00     0.091 C 
HETATM   26  O1  UNL     1      12.086   7.862  42.899  1.00  0.00    -0.298 OA
ENDBRANCH  20  24
ENDBRANCH   1  17
TORSDOF 5
ENDMDL
