MODEL 1
REMARK VINA RESULT: -7.302426363      0.000      0.000
REMARK  6 active torsions:
REMARK  status: ('A' for Active; 'I' for Inactive)
REMARK    1  A    between atoms: C2_2  and  C3_3 
REMARK    2  A    between atoms: C3_3  and  C4_4 
REMARK    3  A    between atoms: C7_7  and  C8_8 
REMARK    4  A    between atoms: C11_12  and  O2_13 
REMARK    5  A    between atoms: C18_22  and  C19_23 
REMARK    6  A    between atoms: C19_23  and  O3_24 
ROOT
HETATM    1  C4  UNL     1       8.422  10.899  44.643  1.00  0.00     0.009 C 
HETATM    2  C5  UNL     1       6.924  10.892  44.896  1.00  0.00     0.026 C 
HETATM    3  C6  UNL     1       6.377  12.158  45.532  1.00  0.00     0.015 C 
HETATM    4  C7  UNL     1       5.755  12.928  44.377  1.00  0.00     0.020 C 
HETATM    5  C10 UNL     1       5.414  11.905  43.319  1.00  0.00     0.045 C 
HETATM    6  C11 UNL     1       5.950  10.581  43.831  1.00  0.00     0.067 C 
HETATM    7  C12 UNL     1       6.392   9.630  42.803  1.00  0.00     0.032 A 
HETATM    8  C13 UNL     1       7.009   9.634  41.513  1.00  0.00     0.027 A 
HETATM    9  C14 UNL     1       8.172   8.737  41.107  1.00  0.00     0.278 C 
HETATM   10  N1  UNL     1       9.435   9.256  41.339  1.00  0.00     0.094 N 
HETATM   11  C15 UNL     1      10.594   8.492  41.284  1.00  0.00     0.275 C 
HETATM   12  C16 UNL     1      10.707   8.594  42.791  1.00  0.00     0.067 C 
HETATM   13  C17 UNL     1       9.788   9.762  42.683  1.00  0.00     0.236 C 
HETATM   14  C18 UNL     1       8.599   9.902  43.486  1.00  0.00     0.021 C 
HETATM   15  C20 UNL     1       7.612  10.418  42.540  1.00  0.00     0.012 A 
ENDROOT
BRANCH   1  16
HETATM   16  C3  UNL     1       8.926  12.276  44.352  1.00  0.00     0.032 C 
BRANCH  16  17
HETATM   17  C2  UNL     1      10.388  12.489  44.399  1.00  0.00    -0.036 C 
HETATM   18  C1  UNL     1      11.010  13.607  44.118  1.00  0.00     0.007 C 
ENDBRANCH  16  17
ENDBRANCH   1  16
BRANCH  14  19
HETATM   19  C19 UNL     1       8.344   8.605  44.179  1.00  0.00     0.176 C 
BRANCH  19  20
HETATM   20  O3  UNL     1       9.002   8.724  45.438  1.00  0.00    -0.400 OA
ATOM     21  H3  UNL     1       9.617   8.001  45.464  1.00  0.00     0.209 HD
ENDBRANCH  19  20
ENDBRANCH  14  19
BRANCH   6  22
HETATM   22  O2  UNL     1       4.826  10.004  44.491  1.00  0.00    -0.389 OA
ATOM     23  H2  UNL     1       4.064  10.447  44.136  1.00  0.00     0.210 HD
ENDBRANCH   6  22
BRANCH   4  24
HETATM   24  C8  UNL     1       4.518  13.671  44.810  1.00  0.00     0.149 A 
HETATM   25  C9  UNL     1       4.311  15.069  44.639  1.00  0.00     0.200 A 
HETATM   26  O1  UNL     1       3.649  14.169  43.805  1.00  0.00    -0.381 OA
ENDBRANCH   4  24
TORSDOF 6
ENDMDL
MODEL 2
REMARK VINA RESULT: -7.133164813      2.093      3.614
REMARK  6 active torsions:
REMARK  status: ('A' for Active; 'I' for Inactive)
REMARK    1  A    between atoms: C2_2  and  C3_3 
REMARK    2  A    between atoms: C3_3  and  C4_4 
REMARK    3  A    between atoms: C7_7  and  C8_8 
REMARK    4  A    between atoms: C11_12  and  O2_13 
REMARK    5  A    between atoms: C18_22  and  C19_23 
REMARK    6  A    between atoms: C19_23  and  O3_24 
ROOT
HETATM    1  C4  UNL     1       9.625   9.193  42.391  1.00  0.00     0.009 C 
HETATM    2  C5  UNL     1       9.181   9.755  43.731  1.00  0.00     0.026 C 
HETATM    3  C6  UNL     1       8.548  11.133  43.667  1.00  0.00     0.015 C 
HETATM    4  C7  UNL     1       7.052  10.871  43.754  1.00  0.00     0.020 C 
HETATM    5  C10 UNL     1       6.893   9.538  44.447  1.00  0.00     0.045 C 
HETATM    6  C11 UNL     1       8.299   9.000  44.643  1.00  0.00     0.067 C 
HETATM    7  C12 UNL     1       8.432   7.538  44.618  1.00  0.00     0.032 A 
HETATM    8  C13 UNL     1       7.851   6.405  43.965  1.00  0.00     0.027 A 
HETATM    9  C14 UNL     1       8.645   5.269  43.333  1.00  0.00     0.278 C 
HETATM   10  N1  UNL     1       8.975   5.442  41.999  1.00  0.00     0.094 N 
HETATM   11  C15 UNL     1       9.908   4.653  41.338  1.00  0.00     0.275 C 
HETATM   12  C16 UNL     1      10.858   5.832  41.316  1.00  0.00     0.067 C 
HETATM   13  C17 UNL     1       9.658   6.680  41.564  1.00  0.00     0.236 C 
HETATM   14  C18 UNL     1       9.598   7.670  42.609  1.00  0.00     0.021 C 
HETATM   15  C20 UNL     1       8.251   7.506  43.153  1.00  0.00     0.012 A 
ENDROOT
BRANCH   1  16
HETATM   16  C3  UNL     1       8.754   9.672  41.275  1.00  0.00     0.032 C 
BRANCH  16  17
HETATM   17  C2  UNL     1       9.388   9.873  39.955  1.00  0.00    -0.036 C 
HETATM   18  C1  UNL     1       8.771  10.215  38.852  1.00  0.00     0.007 C 
ENDBRANCH  16  17
ENDBRANCH   1  16
BRANCH  14  19
HETATM   19  C19 UNL     1      10.779   7.484  43.501  1.00  0.00     0.176 C 
BRANCH  19  20
HETATM   20  O3  UNL     1      11.824   8.238  42.893  1.00  0.00    -0.400 OA
ATOM     21  H3  UNL     1      12.236   7.638  42.282  1.00  0.00     0.209 HD
ENDBRANCH  19  20
ENDBRANCH  14  19
BRANCH   6  22
HETATM   22  O2  UNL     1       8.637   9.437  45.957  1.00  0.00    -0.389 OA
ATOM     23  H2  UNL     1       7.823   9.435  46.447  1.00  0.00     0.210 HD
ENDBRANCH   6  22
BRANCH   4  24
HETATM   24  C8  UNL     1       6.344  11.955  44.527  1.00  0.00     0.149 A 
HETATM   25  C9  UNL     1       5.257  12.727  44.028  1.00  0.00     0.200 A 
HETATM   26  O1  UNL     1       5.014  11.713  44.953  1.00  0.00    -0.381 OA
ENDBRANCH   4  24
TORSDOF 6
ENDMDL
MODEL 3
REMARK VINA RESULT: -7.131271608      2.428      6.118
REMARK  6 active torsions:
REMARK  status: ('A' for Active; 'I' for Inactive)
REMARK    1  A    between atoms: C2_2  and  C3_3 
REMARK    2  A    between atoms: C3_3  and  C4_4 
REMARK    3  A    between atoms: C7_7  and  C8_8 
REMARK    4  A    between atoms: C11_12  and  O2_13 
REMARK    5  A    between atoms: C18_22  and  C19_23 
REMARK    6  A    between atoms: C19_23  and  O3_24 
ROOT
HETATM    1  C4  UNL     1       8.145   9.595  43.275  1.00  0.00     0.009 C 
HETATM    2  C5  UNL     1       8.145   8.099  43.539  1.00  0.00     0.026 C 
HETATM    3  C6  UNL     1       9.312   7.343  42.930  1.00  0.00     0.015 C 
HETATM    4  C7  UNL     1      10.273   7.124  44.089  1.00  0.00     0.020 C 
HETATM    5  C10 UNL     1       9.440   7.179  45.348  1.00  0.00     0.045 C 
HETATM    6  C11 UNL     1       8.036   7.544  44.903  1.00  0.00     0.067 C 
HETATM    7  C12 UNL     1       7.244   8.324  45.862  1.00  0.00     0.032 A 
HETATM    8  C13 UNL     1       7.431   9.337  46.855  1.00  0.00     0.027 A 
HETATM    9  C14 UNL     1       6.573  10.589  46.988  1.00  0.00     0.278 C 
HETATM   10  N1  UNL     1       7.009  11.690  46.269  1.00  0.00     0.094 N 
HETATM   11  C15 UNL     1       6.227  12.818  46.055  1.00  0.00     0.275 C 
HETATM   12  C16 UNL     1       6.088  12.419  44.601  1.00  0.00     0.067 C 
HETATM   13  C17 UNL     1       7.287  11.562  44.822  1.00  0.00     0.236 C 
HETATM   14  C18 UNL     1       7.336  10.171  44.450  1.00  0.00     0.021 C 
HETATM   15  C20 UNL     1       8.025   9.544  45.576  1.00  0.00     0.012 A 
ENDROOT
BRANCH   1  16
HETATM   16  C3  UNL     1       9.534  10.135  43.159  1.00  0.00     0.032 C 
BRANCH  16  17
HETATM   17  C2  UNL     1      10.127  10.201  41.806  1.00  0.00    -0.036 C 
HETATM   18  C1  UNL     1      11.403  10.109  41.523  1.00  0.00     0.007 C 
ENDBRANCH  16  17
ENDBRANCH   1  16
BRANCH  14  19
HETATM   19  C19 UNL     1       5.956   9.730  44.095  1.00  0.00     0.176 C 
BRANCH  19  20
HETATM   20  O3  UNL     1       5.827  10.003  42.702  1.00  0.00    -0.400 OA
ATOM     21  H3  UNL     1       5.494   9.198  42.323  1.00  0.00     0.209 HD
ENDBRANCH  19  20
ENDBRANCH  14  19
BRANCH   6  22
HETATM   22  O2  UNL     1       7.398   6.278  44.755  1.00  0.00    -0.389 OA
ATOM     23  H2  UNL     1       7.194   5.988  45.636  1.00  0.00     0.210 HD
ENDBRANCH   6  22
BRANCH   4  24
HETATM   24  C8  UNL     1      10.977   5.796  43.981  1.00  0.00     0.149 A 
HETATM   25  C9  UNL     1      12.220   5.590  43.316  1.00  0.00     0.200 A 
HETATM   26  O1  UNL     1      12.180   5.614  44.709  1.00  0.00    -0.381 OA
ENDBRANCH   4  24
TORSDOF 6
ENDMDL
MODEL 4
REMARK VINA RESULT: -7.086476064      2.343      3.587
REMARK  6 active torsions:
REMARK  status: ('A' for Active; 'I' for Inactive)
REMARK    1  A    between atoms: C2_2  and  C3_3 
REMARK    2  A    between atoms: C3_3  and  C4_4 
REMARK    3  A    between atoms: C7_7  and  C8_8 
REMARK    4  A    between atoms: C11_12  and  O2_13 
REMARK    5  A    between atoms: C18_22  and  C19_23 
REMARK    6  A    between atoms: C19_23  and  O3_24 
ROOT
HETATM    1  C4  UNL     1       6.583  10.836  42.970  1.00  0.00     0.009 C 
HETATM    2  C5  UNL     1       6.779  11.956  43.978  1.00  0.00     0.026 C 
HETATM    3  C6  UNL     1       5.810  13.117  43.840  1.00  0.00     0.015 C 
HETATM    4  C7  UNL     1       4.775  12.883  44.929  1.00  0.00     0.020 C 
HETATM    5  C10 UNL     1       5.450  12.038  45.984  1.00  0.00     0.045 C 
HETATM    6  C11 UNL     1       6.824  11.702  45.432  1.00  0.00     0.067 C 
HETATM    7  C12 UNL     1       7.382  10.411  45.851  1.00  0.00     0.032 A 
HETATM    8  C13 UNL     1       6.940   9.087  46.165  1.00  0.00     0.027 A 
HETATM    9  C14 UNL     1       7.582   7.811  45.633  1.00  0.00     0.278 C 
HETATM   10  N1  UNL     1       7.065   7.336  44.439  1.00  0.00     0.094 N 
HETATM   11  C15 UNL     1       7.688   6.356  43.677  1.00  0.00     0.275 C 
HETATM   12  C16 UNL     1       8.040   7.410  42.649  1.00  0.00     0.067 C 
HETATM   13  C17 UNL     1       6.966   8.236  43.270  1.00  0.00     0.236 C 
HETATM   14  C18 UNL     1       7.166   9.602  43.680  1.00  0.00     0.021 C 
HETATM   15  C20 UNL     1       6.462   9.677  44.959  1.00  0.00     0.012 A 
ENDROOT
BRANCH   1  16
HETATM   16  C3  UNL     1       5.149  10.698  42.571  1.00  0.00     0.032 C 
BRANCH  16  17
HETATM   17  C2  UNL     1       4.834  10.782  41.129  1.00  0.00    -0.036 C 
HETATM   18  C1  UNL     1       4.797  11.880  40.414  1.00  0.00     0.007 C 
ENDBRANCH  16  17
ENDBRANCH   1  16
BRANCH  14  19
HETATM   19  C19 UNL     1       8.627   9.901  43.627  1.00  0.00     0.176 C 
BRANCH  19  20
HETATM   20  O3  UNL     1       8.870  10.321  42.287  1.00  0.00    -0.400 OA
ATOM     21  H3  UNL     1       8.160  10.920  42.084  1.00  0.00     0.209 HD
ENDBRANCH  19  20
ENDBRANCH  14  19
BRANCH   6  22
HETATM   22  O2  UNL     1       7.655  12.723  45.977  1.00  0.00    -0.389 OA
ATOM     23  H2  UNL     1       7.602  12.623  46.920  1.00  0.00     0.210 HD
ENDBRANCH   6  22
BRANCH   4  24
HETATM   24  C8  UNL     1       4.293  14.182  45.523  1.00  0.00     0.149 A 
HETATM   25  C9  UNL     1       3.013  14.758  45.280  1.00  0.00     0.200 A 
HETATM   26  O1  UNL     1       3.266  14.131  46.499  1.00  0.00    -0.381 OA
ENDBRANCH   4  24
TORSDOF 6
ENDMDL
MODEL 5
REMARK VINA RESULT: -7.078513465      2.016      3.031
REMARK  6 active torsions:
REMARK  status: ('A' for Active; 'I' for Inactive)
REMARK    1  A    between atoms: C2_2  and  C3_3 
REMARK    2  A    between atoms: C3_3  and  C4_4 
REMARK    3  A    between atoms: C7_7  and  C8_8 
REMARK    4  A    between atoms: C11_12  and  O2_13 
REMARK    5  A    between atoms: C18_22  and  C19_23 
REMARK    6  A    between atoms: C19_23  and  O3_24 
ROOT
HETATM    1  C4  UNL     1      10.004   9.009  43.282  1.00  0.00     0.009 C 
HETATM    2  C5  UNL     1       8.892   9.289  44.278  1.00  0.00     0.026 C 
HETATM    3  C6  UNL     1       8.535  10.756  44.441  1.00  0.00     0.015 C 
HETATM    4  C7  UNL     1       7.270  10.936  43.614  1.00  0.00     0.020 C 
HETATM    5  C10 UNL     1       6.623   9.574  43.526  1.00  0.00     0.045 C 
HETATM    6  C11 UNL     1       7.582   8.611  44.202  1.00  0.00     0.067 C 
HETATM    7  C12 UNL     1       7.588   7.241  43.676  1.00  0.00     0.032 A 
HETATM    8  C13 UNL     1       7.427   6.553  42.432  1.00  0.00     0.027 A 
HETATM    9  C14 UNL     1       8.348   5.450  41.925  1.00  0.00     0.278 C 
HETATM   10  N1  UNL     1       9.424   5.875  41.164  1.00  0.00     0.094 N 
HETATM   11  C15 UNL     1      10.501   5.057  40.846  1.00  0.00     0.275 C 
HETATM   12  C16 UNL     1      11.364   5.861  41.796  1.00  0.00     0.067 C 
HETATM   13  C17 UNL     1      10.327   6.925  41.684  1.00  0.00     0.236 C 
HETATM   14  C18 UNL     1       9.731   7.564  42.830  1.00  0.00     0.021 C 
HETATM   15  C20 UNL     1       8.320   7.664  42.466  1.00  0.00     0.012 A 
ENDROOT
BRANCH   1  16
HETATM   16  C3  UNL     1      10.016  10.010  42.172  1.00  0.00     0.032 C 
BRANCH  16  17
HETATM   17  C2  UNL     1      11.318  10.304  41.536  1.00  0.00    -0.036 C 
HETATM   18  C1  UNL     1      12.491   9.927  41.978  1.00  0.00     0.007 C 
ENDBRANCH  16  17
ENDBRANCH   1  16
BRANCH  14  19
HETATM   19  C19 UNL     1      10.123   6.800  44.051  1.00  0.00     0.176 C 
BRANCH  19  20
HETATM   20  O3  UNL     1      11.406   7.307  44.408  1.00  0.00    -0.400 OA
ATOM     21  H3  UNL     1      11.391   7.368  45.356  1.00  0.00     0.209 HD
ENDBRANCH  19  20
ENDBRANCH  14  19
BRANCH   6  22
HETATM   22  O2  UNL     1       7.099   8.552  45.541  1.00  0.00    -0.389 OA
ATOM     23  H2  UNL     1       6.247   8.137  45.490  1.00  0.00     0.210 HD
ENDBRANCH   6  22
BRANCH   4  24
HETATM   24  C8  UNL     1       6.329  11.926  44.251  1.00  0.00     0.149 A 
HETATM   25  C9  UNL     1       5.561  12.889  43.535  1.00  0.00     0.200 A 
HETATM   26  O1  UNL     1       4.937  11.752  44.048  1.00  0.00    -0.381 OA
ENDBRANCH   4  24
TORSDOF 6
ENDMDL
