MODEL 1
REMARK VINA RESULT: -4.008450573      0.000      0.000
REMARK  10 active torsions:
REMARK  status: ('A' for Active; 'I' for Inactive)
REMARK    1  A    between atoms: C2_2  and  C3_3 
REMARK    2  A    between atoms: C3_3  and  C4_4 
REMARK    3  A    between atoms: C4_4  and  C5_5 
REMARK    4  A    between atoms: C5_5  and  C6_6 
REMARK    5  A    between atoms: C6_6  and  C7_7 
REMARK    6  A    between atoms: C7_7  and  C8_8 
REMARK    7  A    between atoms: C8_8  and  C9_9 
REMARK    8  A    between atoms: C9_9  and  C10_10 
REMARK    9  A    between atoms: C10_10  and  C11_11 
REMARK   10  A    between atoms: C11_11  and  N1_12 
ROOT
HETATM    1  C9  UNL     1     -31.825 -22.981 -38.481  1.00  0.00    -0.039 A 
HETATM    2  C12 UNL     1     -33.278 -23.304 -38.140  1.00  0.00     0.010 A 
HETATM    3  C13 UNL     1     -32.745 -23.679 -39.468  1.00  0.00     0.010 A 
ENDROOT
BRANCH   1   4
HETATM    4  C8  UNL     1     -30.839 -23.916 -37.849  1.00  0.00     0.009 C 
BRANCH   4   5
HETATM    5  C7  UNL     1     -30.266 -24.933 -38.788  1.00  0.00     0.001 C 
BRANCH   5   6
HETATM    6  C6  UNL     1     -30.018 -26.185 -37.971  1.00  0.00     0.000 C 
BRANCH   6   7
HETATM    7  C5  UNL     1     -31.143 -27.180 -38.109  1.00  0.00     0.000 C 
BRANCH   7   8
HETATM    8  C4  UNL     1     -31.928 -27.181 -36.813  1.00  0.00     0.004 C 
BRANCH   8   9
HETATM    9  C3  UNL     1     -33.383 -26.826 -37.081  1.00  0.00     0.026 C 
BRANCH   9  10
HETATM   10  C2  UNL     1     -33.612 -27.029 -38.540  1.00  0.00    -0.037 C 
HETATM   11  C1  UNL     1     -34.807 -26.855 -39.081  1.00  0.00     0.007 C 
ENDBRANCH   9  10
ENDBRANCH   8   9
ENDBRANCH   7   8
ENDBRANCH   6   7
ENDBRANCH   5   6
ENDBRANCH   4   5
ENDBRANCH   1   4
BRANCH   1  12
HETATM   12  C10 UNL     1     -31.467 -21.580 -38.803  1.00  0.00     0.036 C 
BRANCH  12  13
HETATM   13  C11 UNL     1     -31.083 -21.387 -40.224  1.00  0.00     0.230 C 
BRANCH  13  14
HETATM   14  N1  UNL     1     -31.052 -19.956 -40.592  1.00  0.00    -0.079 N 
ATOM     15  H13 UNL     1     -31.959 -19.514 -40.442  1.00  0.00     0.274 HD
ATOM     16  H12 UNL     1     -30.499 -19.414 -39.929  1.00  0.00     0.274 HD
ATOM     17  H11 UNL     1     -30.726 -19.821 -41.548  1.00  0.00     0.274 HD
ENDBRANCH  13  14
ENDBRANCH  12  13
ENDBRANCH   1  12
TORSDOF 10
ENDMDL
MODEL 2
REMARK VINA RESULT: -3.988978737      2.325      2.871
REMARK  10 active torsions:
REMARK  status: ('A' for Active; 'I' for Inactive)
REMARK    1  A    between atoms: C2_2  and  C3_3 
REMARK    2  A    between atoms: C3_3  and  C4_4 
REMARK    3  A    between atoms: C4_4  and  C5_5 
REMARK    4  A    between atoms: C5_5  and  C6_6 
REMARK    5  A    between atoms: C6_6  and  C7_7 
REMARK    6  A    between atoms: C7_7  and  C8_8 
REMARK    7  A    between atoms: C8_8  and  C9_9 
REMARK    8  A    between atoms: C9_9  and  C10_10 
REMARK    9  A    between atoms: C10_10  and  C11_11 
REMARK   10  A    between atoms: C11_11  and  N1_12 
ROOT
HETATM    1  C9  UNL     1     -31.764 -23.078 -41.669  1.00  0.00    -0.039 A 
HETATM    2  C12 UNL     1     -32.891 -22.050 -41.754  1.00  0.00     0.010 A 
HETATM    3  C13 UNL     1     -33.223 -23.473 -41.526  1.00  0.00     0.010 A 
ENDROOT
BRANCH   1   4
HETATM    4  C8  UNL     1     -31.037 -23.063 -40.359  1.00  0.00     0.009 C 
BRANCH   4   5
HETATM    5  C7  UNL     1     -31.413 -24.179 -39.434  1.00  0.00     0.001 C 
BRANCH   5   6
HETATM    6  C6  UNL     1     -30.146 -24.968 -39.171  1.00  0.00     0.000 C 
BRANCH   6   7
HETATM    7  C5  UNL     1     -30.210 -25.718 -37.864  1.00  0.00     0.000 C 
BRANCH   7   8
HETATM    8  C4  UNL     1     -31.095 -26.930 -38.062  1.00  0.00     0.004 C 
BRANCH   8   9
HETATM    9  C3  UNL     1     -32.016 -27.110 -36.865  1.00  0.00     0.026 C 
BRANCH   9  10
HETATM   10  C2  UNL     1     -33.394 -26.788 -37.331  1.00  0.00    -0.037 C 
HETATM   11  C1  UNL     1     -33.739 -26.916 -38.603  1.00  0.00     0.007 C 
ENDBRANCH   9  10
ENDBRANCH   8   9
ENDBRANCH   7   8
ENDBRANCH   6   7
ENDBRANCH   5   6
ENDBRANCH   4   5
ENDBRANCH   1   4
BRANCH   1  12
HETATM   12  C10 UNL     1     -31.094 -23.500 -42.921  1.00  0.00     0.036 C 
BRANCH  12  13
HETATM   13  C11 UNL     1     -29.696 -23.954 -42.710  1.00  0.00     0.230 C 
BRANCH  13  14
HETATM   14  N1  UNL     1     -28.803 -23.493 -43.793  1.00  0.00    -0.079 N 
ATOM     15  H13 UNL     1     -27.980 -24.088 -43.875  1.00  0.00     0.274 HD
ATOM     16  H12 UNL     1     -29.214 -23.662 -44.712  1.00  0.00     0.274 HD
ATOM     17  H11 UNL     1     -28.545 -22.513 -43.676  1.00  0.00     0.274 HD
ENDBRANCH  13  14
ENDBRANCH  12  13
ENDBRANCH   1  12
TORSDOF 10
ENDMDL
MODEL 3
REMARK VINA RESULT: -3.968186284      1.679      1.810
REMARK  10 active torsions:
REMARK  status: ('A' for Active; 'I' for Inactive)
REMARK    1  A    between atoms: C2_2  and  C3_3 
REMARK    2  A    between atoms: C3_3  and  C4_4 
REMARK    3  A    between atoms: C4_4  and  C5_5 
REMARK    4  A    between atoms: C5_5  and  C6_6 
REMARK    5  A    between atoms: C6_6  and  C7_7 
REMARK    6  A    between atoms: C7_7  and  C8_8 
REMARK    7  A    between atoms: C8_8  and  C9_9 
REMARK    8  A    between atoms: C9_9  and  C10_10 
REMARK    9  A    between atoms: C10_10  and  C11_11 
REMARK   10  A    between atoms: C11_11  and  N1_12 
ROOT
HETATM    1  C9  UNL     1     -31.648 -23.266 -39.944  1.00  0.00    -0.039 A 
HETATM    2  C12 UNL     1     -32.769 -22.309 -39.544  1.00  0.00     0.010 A 
HETATM    3  C13 UNL     1     -33.110 -23.593 -40.194  1.00  0.00     0.010 A 
ENDROOT
BRANCH   1   4
HETATM    4  C8  UNL     1     -31.073 -24.031 -38.790  1.00  0.00     0.009 C 
BRANCH   4   5
HETATM    5  C7  UNL     1     -30.084 -25.085 -39.183  1.00  0.00     0.001 C 
BRANCH   5   6
HETATM    6  C6  UNL     1     -30.017 -26.067 -38.030  1.00  0.00     0.000 C 
BRANCH   6   7
HETATM    7  C5  UNL     1     -31.060 -27.150 -38.150  1.00  0.00     0.000 C 
BRANCH   7   8
HETATM    8  C4  UNL     1     -31.883 -27.149 -36.879  1.00  0.00     0.004 C 
BRANCH   8   9
HETATM    9  C3  UNL     1     -33.284 -26.628 -37.162  1.00  0.00     0.026 C 
BRANCH   9  10
HETATM   10  C2  UNL     1     -33.569 -26.924 -38.596  1.00  0.00    -0.037 C 
HETATM   11  C1  UNL     1     -34.810 -26.977 -39.054  1.00  0.00     0.007 C 
ENDBRANCH   9  10
ENDBRANCH   8   9
ENDBRANCH   7   8
ENDBRANCH   6   7
ENDBRANCH   5   6
ENDBRANCH   4   5
ENDBRANCH   1   4
BRANCH   1  12
HETATM   12  C10 UNL     1     -30.837 -22.947 -41.142  1.00  0.00     0.036 C 
BRANCH  12  13
HETATM   13  C11 UNL     1     -31.410 -23.493 -42.397  1.00  0.00     0.230 C 
BRANCH  13  14
HETATM   14  N1  UNL     1     -30.415 -23.512 -43.489  1.00  0.00    -0.079 N 
ATOM     15  H13 UNL     1     -29.470 -23.643 -43.129  1.00  0.00     0.274 HD
ATOM     16  H12 UNL     1     -30.492 -24.362 -44.048  1.00  0.00     0.274 HD
ATOM     17  H11 UNL     1     -30.479 -22.677 -44.071  1.00  0.00     0.274 HD
ENDBRANCH  13  14
ENDBRANCH  12  13
ENDBRANCH   1  12
TORSDOF 10
ENDMDL
MODEL 4
REMARK VINA RESULT: -3.961235153      2.807      4.053
REMARK  10 active torsions:
REMARK  status: ('A' for Active; 'I' for Inactive)
REMARK    1  A    between atoms: C2_2  and  C3_3 
REMARK    2  A    between atoms: C3_3  and  C4_4 
REMARK    3  A    between atoms: C4_4  and  C5_5 
REMARK    4  A    between atoms: C5_5  and  C6_6 
REMARK    5  A    between atoms: C6_6  and  C7_7 
REMARK    6  A    between atoms: C7_7  and  C8_8 
REMARK    7  A    between atoms: C8_8  and  C9_9 
REMARK    8  A    between atoms: C9_9  and  C10_10 
REMARK    9  A    between atoms: C10_10  and  C11_11 
REMARK   10  A    between atoms: C11_11  and  N1_12 
ROOT
HETATM    1  C9  UNL     1     -30.838 -24.959 -38.024  1.00  0.00    -0.039 A 
HETATM    2  C12 UNL     1     -30.759 -23.638 -37.262  1.00  0.00     0.010 A 
HETATM    3  C13 UNL     1     -30.945 -23.618 -38.729  1.00  0.00     0.010 A 
ENDROOT
BRANCH   1   4
HETATM    4  C8  UNL     1     -32.162 -25.649 -37.890  1.00  0.00     0.009 C 
BRANCH   4   5
HETATM    5  C7  UNL     1     -32.068 -27.136 -37.731  1.00  0.00     0.001 C 
BRANCH   5   6
HETATM    6  C6  UNL     1     -32.219 -27.422 -36.250  1.00  0.00     0.000 C 
BRANCH   6   7
HETATM    7  C5  UNL     1     -33.330 -26.613 -35.630  1.00  0.00     0.000 C 
BRANCH   7   8
HETATM    8  C4  UNL     1     -32.893 -26.210 -34.237  1.00  0.00     0.004 C 
BRANCH   8   9
HETATM    9  C3  UNL     1     -32.505 -24.739 -34.213  1.00  0.00     0.026 C 
BRANCH   9  10
HETATM   10  C2  UNL     1     -33.654 -23.984 -34.789  1.00  0.00    -0.037 C 
HETATM   11  C1  UNL     1     -33.671 -22.661 -34.804  1.00  0.00     0.007 C 
ENDBRANCH   9  10
ENDBRANCH   8   9
ENDBRANCH   7   8
ENDBRANCH   6   7
ENDBRANCH   5   6
ENDBRANCH   4   5
ENDBRANCH   1   4
BRANCH   1  12
HETATM   12  C10 UNL     1     -29.589 -25.720 -38.256  1.00  0.00     0.036 C 
BRANCH  12  13
HETATM   13  C11 UNL     1     -29.181 -25.753 -39.683  1.00  0.00     0.230 C 
BRANCH  13  14
HETATM   14  N1  UNL     1     -27.911 -26.483 -39.872  1.00  0.00    -0.079 N 
ATOM     15  H13 UNL     1     -27.293 -25.994 -40.518  1.00  0.00     0.274 HD
ATOM     16  H12 UNL     1     -27.331 -26.443 -39.034  1.00  0.00     0.274 HD
ATOM     17  H11 UNL     1     -28.071 -27.446 -40.167  1.00  0.00     0.274 HD
ENDBRANCH  13  14
ENDBRANCH  12  13
ENDBRANCH   1  12
TORSDOF 10
ENDMDL
MODEL 5
REMARK VINA RESULT: -3.910089435      1.319      1.675
REMARK  10 active torsions:
REMARK  status: ('A' for Active; 'I' for Inactive)
REMARK    1  A    between atoms: C2_2  and  C3_3 
REMARK    2  A    between atoms: C3_3  and  C4_4 
REMARK    3  A    between atoms: C4_4  and  C5_5 
REMARK    4  A    between atoms: C5_5  and  C6_6 
REMARK    5  A    between atoms: C6_6  and  C7_7 
REMARK    6  A    between atoms: C7_7  and  C8_8 
REMARK    7  A    between atoms: C8_8  and  C9_9 
REMARK    8  A    between atoms: C9_9  and  C10_10 
REMARK    9  A    between atoms: C10_10  and  C11_11 
REMARK   10  A    between atoms: C11_11  and  N1_12 
ROOT
HETATM    1  C9  UNL     1     -31.784 -23.498 -39.123  1.00  0.00    -0.039 A 
HETATM    2  C12 UNL     1     -32.752 -23.619 -40.298  1.00  0.00     0.010 A 
HETATM    3  C13 UNL     1     -31.757 -22.524 -40.288  1.00  0.00     0.010 A 
ENDROOT
BRANCH   1   4
HETATM    4  C8  UNL     1     -30.658 -24.487 -39.169  1.00  0.00     0.009 C 
BRANCH   4   5
HETATM    5  C7  UNL     1     -30.234 -24.999 -37.826  1.00  0.00     0.001 C 
BRANCH   5   6
HETATM    6  C6  UNL     1     -30.023 -26.492 -37.980  1.00  0.00     0.000 C 
BRANCH   6   7
HETATM    7  C5  UNL     1     -31.329 -27.243 -38.034  1.00  0.00     0.000 C 
BRANCH   7   8
HETATM    8  C4  UNL     1     -32.133 -26.873 -36.805  1.00  0.00     0.004 C 
BRANCH   8   9
HETATM    9  C3  UNL     1     -33.576 -26.583 -37.190  1.00  0.00     0.026 C 
BRANCH   9  10
HETATM   10  C2  UNL     1     -33.713 -26.934 -38.633  1.00  0.00    -0.037 C 
HETATM   11  C1  UNL     1     -34.791 -26.599 -39.324  1.00  0.00     0.007 C 
ENDBRANCH   9  10
ENDBRANCH   8   9
ENDBRANCH   7   8
ENDBRANCH   6   7
ENDBRANCH   5   6
ENDBRANCH   4   5
ENDBRANCH   1   4
BRANCH   1  12
HETATM   12  C10 UNL     1     -32.292 -22.963 -37.838  1.00  0.00     0.036 C 
BRANCH  12  13
HETATM   13  C11 UNL     1     -31.866 -21.565 -37.578  1.00  0.00     0.230 C 
BRANCH  13  14
HETATM   14  N1  UNL     1     -30.525 -21.509 -36.962  1.00  0.00    -0.079 N 
ATOM     15  H13 UNL     1     -30.014 -20.677 -37.258  1.00  0.00     0.274 HD
ATOM     16  H12 UNL     1     -30.583 -21.313 -35.962  1.00  0.00     0.274 HD
ATOM     17  H11 UNL     1     -29.991 -22.358 -37.144  1.00  0.00     0.274 HD
ENDBRANCH  13  14
ENDBRANCH  12  13
ENDBRANCH   1  12
TORSDOF 10
ENDMDL
