MODEL 1
REMARK VINA RESULT: -4.139180184      0.000      0.000
REMARK  10 active torsions:
REMARK  status: ('A' for Active; 'I' for Inactive)
REMARK    1  A    between atoms: C2_2  and  C3_3 
REMARK    2  A    between atoms: C3_3  and  C4_4 
REMARK    3  A    between atoms: C4_4  and  C5_5 
REMARK    4  A    between atoms: C5_5  and  C6_6 
REMARK    5  A    between atoms: C6_6  and  C7_7 
REMARK    6  A    between atoms: C7_7  and  C8_8 
REMARK    7  A    between atoms: C8_8  and  C9_9 
REMARK    8  A    between atoms: C9_9  and  C10_10 
REMARK    9  A    between atoms: C10_10  and  C11_11 
REMARK   10  A    between atoms: C11_11  and  N1_12 
ROOT
HETATM    1  C9  UNL     1     -31.648 -23.144 -38.683  1.00  0.00    -0.039 C 
HETATM    2  C12 UNL     1     -32.914 -23.612 -39.448  1.00  0.00     0.010 C 
HETATM    3  C13 UNL     1     -33.737 -23.072 -38.329  1.00  0.00     0.002 C 
HETATM    4  C14 UNL     1     -32.534 -23.235 -37.434  1.00  0.00     0.010 C 
ENDROOT
BRANCH   1   5
HETATM    5  C8  UNL     1     -30.671 -24.241 -38.768  1.00  0.00     0.009 C 
BRANCH   5   6
HETATM    6  C7  UNL     1     -30.270 -24.990 -37.568  1.00  0.00     0.001 C 
BRANCH   6   7
HETATM    7  C6  UNL     1     -29.999 -26.439 -38.065  1.00  0.00     0.000 C 
BRANCH   7   8
HETATM    8  C5  UNL     1     -31.297 -27.208 -38.034  1.00  0.00     0.000 C 
BRANCH   8   9
HETATM    9  C4  UNL     1     -32.046 -26.915 -36.761  1.00  0.00     0.004 C 
BRANCH   9  10
HETATM   10  C3  UNL     1     -33.518 -26.781 -37.092  1.00  0.00     0.026 C 
BRANCH  10  11
HETATM   11  C2  UNL     1     -33.662 -26.951 -38.578  1.00  0.00    -0.037 C 
HETATM   12  C1  UNL     1     -34.865 -26.975 -39.089  1.00  0.00     0.007 C 
ENDBRANCH  10  11
ENDBRANCH   9  10
ENDBRANCH   8   9
ENDBRANCH   7   8
ENDBRANCH   6   7
ENDBRANCH   5   6
ENDBRANCH   1   5
BRANCH   1  13
HETATM   13  C10 UNL     1     -31.363 -21.762 -39.086  1.00  0.00     0.036 C 
BRANCH  13  14
HETATM   14  C11 UNL     1     -31.305 -21.383 -40.506  1.00  0.00     0.230 C 
BRANCH  14  15
HETATM   15  N1  UNL     1     -30.936 -19.939 -40.517  1.00  0.00    -0.079 N 
ATOM     16  H13 UNL     1     -31.499 -19.367 -39.887  1.00  0.00     0.274 HD
ATOM     17  H12 UNL     1     -30.033 -19.743 -40.085  1.00  0.00     0.274 HD
ATOM     18  H11 UNL     1     -30.994 -19.651 -41.494  1.00  0.00     0.274 HD
ENDBRANCH  14  15
ENDBRANCH  13  14
ENDBRANCH   1  13
TORSDOF 10
ENDMDL
MODEL 2
REMARK VINA RESULT: -4.117744554      2.016      2.530
REMARK  10 active torsions:
REMARK  status: ('A' for Active; 'I' for Inactive)
REMARK    1  A    between atoms: C2_2  and  C3_3 
REMARK    2  A    between atoms: C3_3  and  C4_4 
REMARK    3  A    between atoms: C4_4  and  C5_5 
REMARK    4  A    between atoms: C5_5  and  C6_6 
REMARK    5  A    between atoms: C6_6  and  C7_7 
REMARK    6  A    between atoms: C7_7  and  C8_8 
REMARK    7  A    between atoms: C8_8  and  C9_9 
REMARK    8  A    between atoms: C9_9  and  C10_10 
REMARK    9  A    between atoms: C10_10  and  C11_11 
REMARK   10  A    between atoms: C11_11  and  N1_12 
ROOT
HETATM    1  C9  UNL     1     -31.134 -23.284 -40.740  1.00  0.00    -0.039 C 
HETATM    2  C12 UNL     1     -32.676 -23.120 -40.790  1.00  0.00     0.010 C 
HETATM    3  C13 UNL     1     -32.471 -21.658 -40.996  1.00  0.00     0.002 C 
HETATM    4  C14 UNL     1     -31.125 -21.806 -40.330  1.00  0.00     0.010 C 
ENDROOT
BRANCH   1   5
HETATM    5  C8  UNL     1     -30.839 -24.188 -39.618  1.00  0.00     0.009 C 
BRANCH   5   6
HETATM    6  C7  UNL     1     -30.877 -23.705 -38.229  1.00  0.00     0.001 C 
BRANCH   6   7
HETATM    7  C6  UNL     1     -30.621 -24.964 -37.354  1.00  0.00     0.000 C 
BRANCH   7   8
HETATM    8  C5  UNL     1     -30.487 -26.162 -38.261  1.00  0.00     0.000 C 
BRANCH   8   9
HETATM    9  C4  UNL     1     -31.300 -27.313 -37.728  1.00  0.00     0.004 C 
BRANCH   9  10
HETATM   10  C3  UNL     1     -32.661 -26.790 -37.320  1.00  0.00     0.026 C 
BRANCH  10  11
HETATM   11  C2  UNL     1     -33.569 -26.922 -38.510  1.00  0.00    -0.037 C 
HETATM   12  C1  UNL     1     -34.238 -25.871 -38.906  1.00  0.00     0.007 C 
ENDBRANCH  10  11
ENDBRANCH   9  10
ENDBRANCH   8   9
ENDBRANCH   7   8
ENDBRANCH   6   7
ENDBRANCH   5   6
ENDBRANCH   1   5
BRANCH   1  13
HETATM   13  C10 UNL     1     -30.660 -23.502 -42.113  1.00  0.00     0.036 C 
BRANCH  13  14
HETATM   14  C11 UNL     1     -29.327 -24.063 -42.375  1.00  0.00     0.230 C 
BRANCH  14  15
HETATM   15  N1  UNL     1     -28.908 -23.497 -43.688  1.00  0.00    -0.079 N 
ATOM     16  H13 UNL     1     -29.555 -22.801 -44.060  1.00  0.00     0.274 HD
ATOM     17  H12 UNL     1     -28.093 -22.886 -43.631  1.00  0.00     0.274 HD
ATOM     18  H11 UNL     1     -28.776 -24.301 -44.302  1.00  0.00     0.274 HD
ENDBRANCH  14  15
ENDBRANCH  13  14
ENDBRANCH   1  13
TORSDOF 10
ENDMDL
MODEL 3
REMARK VINA RESULT: -4.089048752      1.714      1.872
REMARK  10 active torsions:
REMARK  status: ('A' for Active; 'I' for Inactive)
REMARK    1  A    between atoms: C2_2  and  C3_3 
REMARK    2  A    between atoms: C3_3  and  C4_4 
REMARK    3  A    between atoms: C4_4  and  C5_5 
REMARK    4  A    between atoms: C5_5  and  C6_6 
REMARK    5  A    between atoms: C6_6  and  C7_7 
REMARK    6  A    between atoms: C7_7  and  C8_8 
REMARK    7  A    between atoms: C8_8  and  C9_9 
REMARK    8  A    between atoms: C9_9  and  C10_10 
REMARK    9  A    between atoms: C10_10  and  C11_11 
REMARK   10  A    between atoms: C11_11  and  N1_12 
ROOT
HETATM    1  C9  UNL     1     -31.037 -23.627 -39.934  1.00  0.00    -0.039 C 
HETATM    2  C12 UNL     1     -32.561 -23.870 -39.771  1.00  0.00     0.010 C 
HETATM    3  C13 UNL     1     -32.700 -22.444 -39.359  1.00  0.00     0.002 C 
HETATM    4  C14 UNL     1     -31.251 -22.477 -38.941  1.00  0.00     0.010 C 
ENDROOT
BRANCH   1   5
HETATM    5  C8  UNL     1     -30.356 -24.782 -39.328  1.00  0.00     0.009 C 
BRANCH   5   6
HETATM    6  C7  UNL     1     -30.443 -25.037 -37.883  1.00  0.00     0.001 C 
BRANCH   6   7
HETATM    7  C6  UNL     1     -30.262 -26.574 -37.729  1.00  0.00     0.000 C 
BRANCH   7   8
HETATM    8  C5  UNL     1     -31.609 -27.235 -37.886  1.00  0.00     0.000 C 
BRANCH   8   9
HETATM    9  C4  UNL     1     -32.502 -26.880 -36.727  1.00  0.00     0.004 C 
BRANCH   9  10
HETATM   10  C3  UNL     1     -33.873 -26.531 -37.268  1.00  0.00     0.026 C 
BRANCH  10  11
HETATM   11  C2  UNL     1     -33.907 -26.950 -38.710  1.00  0.00    -0.037 C 
HETATM   12  C1  UNL     1     -35.063 -26.992 -39.321  1.00  0.00     0.007 C 
ENDBRANCH  10  11
ENDBRANCH   9  10
ENDBRANCH   8   9
ENDBRANCH   7   8
ENDBRANCH   6   7
ENDBRANCH   5   6
ENDBRANCH   1   5
BRANCH   1  13
HETATM   13  C10 UNL     1     -30.799 -23.165 -41.307  1.00  0.00     0.036 C 
BRANCH  13  14
HETATM   14  C11 UNL     1     -29.910 -23.906 -42.213  1.00  0.00     0.230 C 
BRANCH  14  15
HETATM   15  N1  UNL     1     -30.371 -23.565 -43.589  1.00  0.00    -0.079 N 
ATOM     16  H13 UNL     1     -30.231 -24.315 -44.266  1.00  0.00     0.274 HD
ATOM     17  H12 UNL     1     -31.385 -23.508 -43.680  1.00  0.00     0.274 HD
ATOM     18  H11 UNL     1     -29.888 -22.700 -43.831  1.00  0.00     0.274 HD
ENDBRANCH  14  15
ENDBRANCH  13  14
ENDBRANCH   1  13
TORSDOF 10
ENDMDL
MODEL 4
REMARK VINA RESULT: -4.014152950      1.744      3.161
REMARK  10 active torsions:
REMARK  status: ('A' for Active; 'I' for Inactive)
REMARK    1  A    between atoms: C2_2  and  C3_3 
REMARK    2  A    between atoms: C3_3  and  C4_4 
REMARK    3  A    between atoms: C4_4  and  C5_5 
REMARK    4  A    between atoms: C5_5  and  C6_6 
REMARK    5  A    between atoms: C6_6  and  C7_7 
REMARK    6  A    between atoms: C7_7  and  C8_8 
REMARK    7  A    between atoms: C8_8  and  C9_9 
REMARK    8  A    between atoms: C9_9  and  C10_10 
REMARK    9  A    between atoms: C10_10  and  C11_11 
REMARK   10  A    between atoms: C11_11  and  N1_12 
ROOT
HETATM    1  C9  UNL     1     -32.152 -23.266 -40.042  1.00  0.00    -0.039 C 
HETATM    2  C12 UNL     1     -32.764 -21.852 -39.857  1.00  0.00     0.010 C 
HETATM    3  C13 UNL     1     -31.575 -21.493 -39.032  1.00  0.00     0.002 C 
HETATM    4  C14 UNL     1     -31.398 -22.963 -38.741  1.00  0.00     0.010 C 
ENDROOT
BRANCH   1   5
HETATM    5  C8  UNL     1     -33.247 -24.231 -39.854  1.00  0.00     0.009 C 
BRANCH   5   6
HETATM    6  C7  UNL     1     -33.572 -24.753 -38.518  1.00  0.00     0.001 C 
BRANCH   6   7
HETATM    7  C6  UNL     1     -33.624 -26.298 -38.687  1.00  0.00     0.000 C 
BRANCH   7   8
HETATM    8  C5  UNL     1     -33.051 -26.937 -37.447  1.00  0.00     0.000 C 
BRANCH   8   9
HETATM    9  C4  UNL     1     -31.674 -26.394 -37.169  1.00  0.00     0.004 C 
BRANCH   9  10
HETATM   10  C3  UNL     1     -30.711 -26.996 -38.170  1.00  0.00     0.026 C 
BRANCH  10  11
HETATM   11  C2  UNL     1     -29.619 -25.991 -38.405  1.00  0.00    -0.037 C 
HETATM   12  C1  UNL     1     -29.127 -25.873 -39.610  1.00  0.00     0.007 C 
ENDBRANCH  10  11
ENDBRANCH   9  10
ENDBRANCH   8   9
ENDBRANCH   7   8
ENDBRANCH   6   7
ENDBRANCH   5   6
ENDBRANCH   1   5
BRANCH   1  13
HETATM   13  C10 UNL     1     -31.289 -23.231 -41.229  1.00  0.00     0.036 C 
BRANCH  13  14
HETATM   14  C11 UNL     1     -31.860 -23.131 -42.580  1.00  0.00     0.230 C 
BRANCH  14  15
HETATM   15  N1  UNL     1     -30.736 -23.432 -43.511  1.00  0.00    -0.079 N 
ATOM     16  H13 UNL     1     -30.207 -22.607 -43.796  1.00  0.00     0.274 HD
ATOM     17  H12 UNL     1     -29.960 -23.927 -43.070  1.00  0.00     0.274 HD
ATOM     18  H11 UNL     1     -31.156 -23.939 -44.290  1.00  0.00     0.274 HD
ENDBRANCH  14  15
ENDBRANCH  13  14
ENDBRANCH   1  13
TORSDOF 10
ENDMDL
MODEL 5
REMARK VINA RESULT: -4.007443884      2.664      4.111
REMARK  10 active torsions:
REMARK  status: ('A' for Active; 'I' for Inactive)
REMARK    1  A    between atoms: C2_2  and  C3_3 
REMARK    2  A    between atoms: C3_3  and  C4_4 
REMARK    3  A    between atoms: C4_4  and  C5_5 
REMARK    4  A    between atoms: C5_5  and  C6_6 
REMARK    5  A    between atoms: C6_6  and  C7_7 
REMARK    6  A    between atoms: C7_7  and  C8_8 
REMARK    7  A    between atoms: C8_8  and  C9_9 
REMARK    8  A    between atoms: C9_9  and  C10_10 
REMARK    9  A    between atoms: C10_10  and  C11_11 
REMARK   10  A    between atoms: C11_11  and  N1_12 
ROOT
HETATM    1  C9  UNL     1     -31.740 -22.829 -41.803  1.00  0.00    -0.039 C 
HETATM    2  C12 UNL     1     -33.121 -23.490 -41.549  1.00  0.00     0.010 C 
HETATM    3  C13 UNL     1     -33.729 -22.461 -42.439  1.00  0.00     0.002 C 
HETATM    4  C14 UNL     1     -32.553 -21.568 -42.125  1.00  0.00     0.010 C 
ENDROOT
BRANCH   1   5
HETATM    5  C8  UNL     1     -31.061 -22.750 -40.500  1.00  0.00     0.009 C 
BRANCH   5   6
HETATM    6  C7  UNL     1     -31.472 -21.762 -39.493  1.00  0.00     0.001 C 
BRANCH   6   7
HETATM    7  C6  UNL     1     -31.172 -22.430 -38.121  1.00  0.00     0.000 C 
BRANCH   7   8
HETATM    8  C5  UNL     1     -31.237 -23.928 -38.291  1.00  0.00     0.000 C 
BRANCH   8   9
HETATM    9  C4  UNL     1     -30.316 -24.604 -37.309  1.00  0.00     0.004 C 
BRANCH   9  10
HETATM   10  C3  UNL     1     -29.868 -25.922 -37.903  1.00  0.00     0.026 C 
BRANCH  10  11
HETATM   11  C2  UNL     1     -29.515 -25.671 -39.342  1.00  0.00    -0.037 C 
HETATM   12  C1  UNL     1     -28.317 -25.990 -39.757  1.00  0.00     0.007 C 
ENDBRANCH  10  11
ENDBRANCH   9  10
ENDBRANCH   8   9
ENDBRANCH   7   8
ENDBRANCH   6   7
ENDBRANCH   5   6
ENDBRANCH   1   5
BRANCH   1  13
HETATM   13  C10 UNL     1     -31.154 -23.454 -42.995  1.00  0.00     0.036 C 
BRANCH  13  14
HETATM   14  C11 UNL     1     -29.863 -24.155 -42.927  1.00  0.00     0.230 C 
BRANCH  14  15
HETATM   15  N1  UNL     1     -28.957 -23.409 -43.846  1.00  0.00    -0.079 N 
ATOM     16  H13 UNL     1     -28.465 -22.636 -43.398  1.00  0.00     0.274 HD
ATOM     17  H12 UNL     1     -28.128 -23.937 -44.121  1.00  0.00     0.274 HD
ATOM     18  H11 UNL     1     -29.541 -23.124 -44.631  1.00  0.00     0.274 HD
ENDBRANCH  14  15
ENDBRANCH  13  14
ENDBRANCH   1  13
TORSDOF 10
ENDMDL
