MODEL 1
REMARK VINA RESULT: -5.913773046      0.000      0.000
REMARK  5 active torsions:
REMARK  status: ('A' for Active; 'I' for Inactive)
REMARK    1  A    between atoms: N1_1  and  C1_5 
REMARK    2  A    between atoms: C1_5  and  C2_6 
REMARK    3  A    between atoms: C1_5  and  C3_8 
REMARK    4  A    between atoms: C3_8  and  C4_9 
REMARK       I    between atoms: C4_9  and  N2_11 
REMARK    5  A    between atoms: N2_11  and  C5_12 
ROOT
HETATM    1  C4  UNL     1      18.048  13.449  20.118  1.00  0.00     0.294 C 
HETATM    2  O2  UNL     1      19.222  13.197  20.437  1.00  0.00    -0.257 OA
HETATM    3  N2  UNL     1      17.046  12.548  19.765  1.00  0.00    -0.368 NA
ENDROOT
BRANCH   1   4
HETATM    4  C3  UNL     1      17.732  14.933  20.143  1.00  0.00     0.159 C 
BRANCH   4   5
HETATM    5  C1  UNL     1      17.624  15.494  18.760  1.00  0.00     0.254 C 
BRANCH   5   6
HETATM    6  N1  UNL     1      18.352  14.731  17.783  1.00  0.00    -0.068 N 
ATOM      7  H13 UNL     1      18.093  13.745  17.785  1.00  0.00     0.275 HD
ATOM      8  H12 UNL     1      18.070  14.949  16.827  1.00  0.00     0.275 HD
ATOM      9  H11 UNL     1      19.351  14.873  17.937  1.00  0.00     0.275 HD
ENDBRANCH   5   6
BRANCH   5  10
HETATM   10  C2  UNL     1      16.192  15.548  18.352  1.00  0.00     0.264 C 
HETATM   11  O1  UNL     1      15.464  16.313  18.962  1.00  0.00    -0.305 OA
ENDBRANCH   5  10
ENDBRANCH   4   5
ENDBRANCH   1   4
BRANCH   3  12
HETATM   12  C5  UNL     1      16.104  11.701  19.433  1.00  0.00     0.144 A 
HETATM   13  C6  UNL     1      15.203  11.801  18.343  1.00  0.00     0.153 A 
HETATM   14  N3  UNL     1      14.406  10.731  18.307  1.00  0.00    -0.309 N 
HETATM   15  N4  UNL     1      14.729   9.917  19.319  1.00  0.00    -0.309 N 
ATOM     16  H3  UNL     1      13.671  10.563  17.621  1.00  0.00     0.186 HD
HETATM   17  C7  UNL     1      15.740  10.471  20.009  1.00  0.00     0.153 A 
ATOM     18  H4  UNL     1      14.282   9.025  19.530  1.00  0.00     0.186 HD
ENDBRANCH   3  12
TORSDOF 5
ENDMDL
MODEL 2
REMARK VINA RESULT: -5.773098939      2.985      6.334
REMARK  5 active torsions:
REMARK  status: ('A' for Active; 'I' for Inactive)
REMARK    1  A    between atoms: N1_1  and  C1_5 
REMARK    2  A    between atoms: C1_5  and  C2_6 
REMARK    3  A    between atoms: C1_5  and  C3_8 
REMARK    4  A    between atoms: C3_8  and  C4_9 
REMARK       I    between atoms: C4_9  and  N2_11 
REMARK    5  A    between atoms: N2_11  and  C5_12 
ROOT
HETATM    1  C4  UNL     1      18.679  14.458  17.725  1.00  0.00     0.294 C 
HETATM    2  O2  UNL     1      18.616  13.349  17.168  1.00  0.00    -0.257 OA
HETATM    3  N2  UNL     1      19.648  15.445  17.556  1.00  0.00    -0.368 NA
ENDROOT
BRANCH   1   4
HETATM    4  C3  UNL     1      17.533  14.706  18.688  1.00  0.00     0.159 C 
BRANCH   4   5
HETATM    5  C1  UNL     1      17.618  13.812  19.884  1.00  0.00     0.254 C 
BRANCH   5   6
HETATM    6  N1  UNL     1      17.339  12.434  19.580  1.00  0.00    -0.068 N 
ATOM      7  H13 UNL     1      18.151  11.832  19.718  1.00  0.00     0.275 HD
ATOM      8  H12 UNL     1      16.724  11.999  20.267  1.00  0.00     0.275 HD
ATOM      9  H11 UNL     1      16.968  12.378  18.632  1.00  0.00     0.275 HD
ENDBRANCH   5   6
BRANCH   5  10
HETATM   10  C2  UNL     1      18.980  13.902  20.481  1.00  0.00     0.264 C 
HETATM   11  O1  UNL     1      19.665  12.893  20.468  1.00  0.00    -0.305 OA
ENDBRANCH   5  10
ENDBRANCH   4   5
ENDBRANCH   1   4
BRANCH   3  12
HETATM   12  C5  UNL     1      20.559  16.372  17.396  1.00  0.00     0.144 A 
HETATM   13  C6  UNL     1      20.349  17.734  17.065  1.00  0.00     0.153 A 
HETATM   14  N3  UNL     1      21.516  18.379  17.019  1.00  0.00    -0.309 N 
HETATM   15  N4  UNL     1      22.499  17.518  17.305  1.00  0.00    -0.309 N 
ATOM     16  H3  UNL     1      21.639  19.368  16.801  1.00  0.00     0.186 HD
HETATM   17  C7  UNL     1      21.956  16.310  17.534  1.00  0.00     0.153 A 
ATOM     18  H4  UNL     1      23.494  17.741  17.342  1.00  0.00     0.186 HD
ENDBRANCH   3  12
TORSDOF 5
ENDMDL
MODEL 3
REMARK VINA RESULT: -5.752742204      3.025      5.549
REMARK  5 active torsions:
REMARK  status: ('A' for Active; 'I' for Inactive)
REMARK    1  A    between atoms: N1_1  and  C1_5 
REMARK    2  A    between atoms: C1_5  and  C2_6 
REMARK    3  A    between atoms: C1_5  and  C3_8 
REMARK    4  A    between atoms: C3_8  and  C4_9 
REMARK       I    between atoms: C4_9  and  N2_11 
REMARK    5  A    between atoms: N2_11  and  C5_12 
ROOT
HETATM    1  C4  UNL     1      18.450  13.664  17.683  1.00  0.00     0.294 C 
HETATM    2  O2  UNL     1      18.757  12.461  17.686  1.00  0.00    -0.257 OA
HETATM    3  N2  UNL     1      19.301  14.764  17.597  1.00  0.00    -0.368 NA
ENDROOT
BRANCH   1   4
HETATM    4  C3  UNL     1      16.953  13.896  17.782  1.00  0.00     0.159 C 
BRANCH   4   5
HETATM    5  C1  UNL     1      16.592  14.625  19.037  1.00  0.00     0.254 C 
BRANCH   5   6
HETATM    6  N1  UNL     1      17.668  14.675  19.990  1.00  0.00    -0.068 N 
ATOM      7  H13 UNL     1      18.556  14.368  19.593  1.00  0.00     0.275 HD
ATOM      8  H12 UNL     1      17.941  15.630  20.222  1.00  0.00     0.275 HD
ATOM      9  H11 UNL     1      17.399  14.135  20.813  1.00  0.00     0.275 HD
ENDBRANCH   5   6
BRANCH   5  10
HETATM   10  C2  UNL     1      16.184  16.019  18.706  1.00  0.00     0.264 C 
HETATM   11  O1  UNL     1      14.996  16.286  18.774  1.00  0.00    -0.305 OA
ENDBRANCH   5  10
ENDBRANCH   4   5
ENDBRANCH   1   4
BRANCH   3  12
HETATM   12  C5  UNL     1      20.102  15.797  17.516  1.00  0.00     0.144 A 
HETATM   13  C6  UNL     1      19.736  17.159  17.382  1.00  0.00     0.153 A 
HETATM   14  N3  UNL     1      20.827  17.927  17.363  1.00  0.00    -0.309 N 
HETATM   15  N4  UNL     1      21.907  17.147  17.479  1.00  0.00    -0.309 N 
ATOM     16  H3  UNL     1      20.835  18.943  17.273  1.00  0.00     0.186 HD
HETATM   17  C7  UNL     1      21.505  15.869  17.572  1.00  0.00     0.153 A 
ATOM     18  H4  UNL     1      22.875  17.469  17.494  1.00  0.00     0.186 HD
ENDBRANCH   3  12
TORSDOF 5
ENDMDL
MODEL 4
REMARK VINA RESULT: -5.677985586      4.481      7.226
REMARK  5 active torsions:
REMARK  status: ('A' for Active; 'I' for Inactive)
REMARK    1  A    between atoms: N1_1  and  C1_5 
REMARK    2  A    between atoms: C1_5  and  C2_6 
REMARK    3  A    between atoms: C1_5  and  C3_8 
REMARK    4  A    between atoms: C3_8  and  C4_9 
REMARK       I    between atoms: C4_9  and  N2_11 
REMARK    5  A    between atoms: N2_11  and  C5_12 
ROOT
HETATM    1  C4  UNL     1      20.250  16.073  17.419  1.00  0.00     0.294 C 
HETATM    2  O2  UNL     1      19.573  17.114  17.444  1.00  0.00    -0.257 OA
HETATM    3  N2  UNL     1      21.634  15.956  17.317  1.00  0.00    -0.368 NA
ENDROOT
BRANCH   1   4
HETATM    4  C3  UNL     1      19.408  14.815  17.520  1.00  0.00     0.159 C 
BRANCH   4   5
HETATM    5  C1  UNL     1      18.459  14.881  18.675  1.00  0.00     0.254 C 
BRANCH   5   6
HETATM    6  N1  UNL     1      17.263  15.624  18.382  1.00  0.00    -0.068 N 
ATOM      7  H13 UNL     1      16.584  15.586  19.142  1.00  0.00     0.275 HD
ATOM      8  H12 UNL     1      17.420  16.632  18.383  1.00  0.00     0.275 HD
ATOM      9  H11 UNL     1      16.880  15.289  17.498  1.00  0.00     0.275 HD
ENDBRANCH   5   6
BRANCH   5  10
HETATM   10  C2  UNL     1      18.074  13.502  19.087  1.00  0.00     0.264 C 
HETATM   11  O1  UNL     1      18.929  12.819  19.625  1.00  0.00    -0.305 OA
ENDBRANCH   5  10
ENDBRANCH   4   5
ENDBRANCH   1   4
BRANCH   3  12
HETATM   12  C5  UNL     1      22.936  15.846  17.221  1.00  0.00     0.144 A 
HETATM   13  C6  UNL     1      23.914  16.562  17.955  1.00  0.00     0.153 A 
HETATM   14  N3  UNL     1      25.137  16.158  17.605  1.00  0.00    -0.309 N 
HETATM   15  N4  UNL     1      25.027  15.204  16.673  1.00  0.00    -0.309 N 
ATOM     16  H3  UNL     1      26.012  16.517  17.986  1.00  0.00     0.186 HD
HETATM   17  C7  UNL     1      23.723  14.997  16.424  1.00  0.00     0.153 A 
ATOM     18  H4  UNL     1      25.803  14.716  16.227  1.00  0.00     0.186 HD
ENDBRANCH   3  12
TORSDOF 5
ENDMDL
MODEL 5
REMARK VINA RESULT: -5.639686570      3.137      6.209
REMARK  5 active torsions:
REMARK  status: ('A' for Active; 'I' for Inactive)
REMARK    1  A    between atoms: N1_1  and  C1_5 
REMARK    2  A    between atoms: C1_5  and  C2_6 
REMARK    3  A    between atoms: C1_5  and  C3_8 
REMARK    4  A    between atoms: C3_8  and  C4_9 
REMARK       I    between atoms: C4_9  and  N2_11 
REMARK    5  A    between atoms: N2_11  and  C5_12 
ROOT
HETATM    1  C4  UNL     1      18.806  13.990  17.491  1.00  0.00     0.294 C 
HETATM    2  O2  UNL     1      18.345  13.341  16.537  1.00  0.00    -0.257 OA
HETATM    3  N2  UNL     1      19.590  15.141  17.441  1.00  0.00    -0.368 NA
ENDROOT
BRANCH   1   4
HETATM    4  C3  UNL     1      18.428  13.411  18.842  1.00  0.00     0.159 C 
BRANCH   4   5
HETATM    5  C1  UNL     1      16.954  13.493  19.080  1.00  0.00     0.254 C 
BRANCH   5   6
HETATM    6  N1  UNL     1      16.312  14.520  18.304  1.00  0.00    -0.068 N 
ATOM      7  H13 UNL     1      15.524  14.166  17.763  1.00  0.00     0.275 HD
ATOM      8  H12 UNL     1      15.798  15.184  18.884  1.00  0.00     0.275 HD
ATOM      9  H11 UNL     1      17.015  14.974  17.720  1.00  0.00     0.275 HD
ENDBRANCH   5   6
BRANCH   5  10
HETATM   10  C2  UNL     1      16.320  12.185  18.755  1.00  0.00     0.264 C 
HETATM   11  O1  UNL     1      16.852  11.180  19.196  1.00  0.00    -0.305 OA
ENDBRANCH   5  10
ENDBRANCH   4   5
ENDBRANCH   1   4
BRANCH   3  12
HETATM   12  C5  UNL     1      20.327  16.222  17.394  1.00  0.00     0.144 A 
HETATM   13  C6  UNL     1      21.731  16.313  17.561  1.00  0.00     0.153 A 
HETATM   14  N3  UNL     1      22.130  17.578  17.415  1.00  0.00    -0.309 N 
HETATM   15  N4  UNL     1      21.063  18.341  17.156  1.00  0.00    -0.309 N 
ATOM     16  H3  UNL     1      23.092  17.909  17.489  1.00  0.00     0.186 HD
HETATM   17  C7  UNL     1      19.971  17.558  17.138  1.00  0.00     0.153 A 
ATOM     18  H4  UNL     1      21.075  19.349  16.999  1.00  0.00     0.186 HD
ENDBRANCH   3  12
TORSDOF 5
ENDMDL
