MODEL 1
REMARK VINA RESULT: -6.704677882      0.000      0.000
REMARK  4 active torsions:
REMARK  status: ('A' for Active; 'I' for Inactive)
REMARK    1  A    between atoms: C1_4  and  C2_5 
REMARK    2  A    between atoms: C2_5  and  C3_6 
REMARK    3  A    between atoms: C3_6  and  C4_8 
REMARK    4  A    between atoms: C6_12  and  C7_13 
ROOT
HETATM    1  C4  UNL     1      17.226  13.307  18.998  1.00  0.00     0.153 A 
HETATM    2  N2  UNL     1      16.280  13.369  18.060  1.00  0.00    -0.347 N 
ATOM      3  H2  UNL     1      16.198  14.084  17.338  1.00  0.00     0.167 HD
HETATM    4  C5  UNL     1      15.442  12.306  18.238  1.00  0.00     0.124 A 
HETATM    5  C6  UNL     1      15.900  11.583  19.318  1.00  0.00     0.115 A 
HETATM    6  N4  UNL     1      16.996  12.229  19.756  1.00  0.00    -0.334 N 
ATOM      7  H4  UNL     1      17.567  11.940  20.551  1.00  0.00     0.168 HD
ENDROOT
BRANCH   1   8
HETATM    8  C3  UNL     1      18.352  14.237  19.211  1.00  0.00     0.197 C 
HETATM    9  O1  UNL     1      19.234  13.980  20.064  1.00  0.00    -0.289 OA
BRANCH   8  10
HETATM   10  C2  UNL     1      18.458  15.480  18.423  1.00  0.00     0.131 C 
BRANCH  10  11
HETATM   11  C1  UNL     1      19.670  15.403  17.568  1.00  0.00     0.060 C 
HETATM   12  N1  UNL     1      20.831  15.623  18.055  1.00  0.00    -0.411 N 
ATOM     13  H12 UNL     1      20.908  15.853  19.045  1.00  0.00     0.155 HD
ATOM     14  H11 UNL     1      21.664  15.569  17.468  1.00  0.00     0.155 HD
ENDBRANCH  10  11
ENDBRANCH   8  10
ENDBRANCH   1   8
BRANCH   5  15
HETATM   15  C7  UNL     1      15.296  10.366  19.852  1.00  0.00     0.282 C 
HETATM   16  N3  UNL     1      14.154   9.781  19.240  1.00  0.00    -0.056 NA
HETATM   17  O2  UNL     1      15.787   9.822  20.870  1.00  0.00    -0.269 OA
ENDBRANCH   5  15
TORSDOF 4
ENDMDL
MODEL 2
REMARK VINA RESULT: -6.549099795      1.143      1.234
REMARK  4 active torsions:
REMARK  status: ('A' for Active; 'I' for Inactive)
REMARK    1  A    between atoms: C1_4  and  C2_5 
REMARK    2  A    between atoms: C2_5  and  C3_6 
REMARK    3  A    between atoms: C3_6  and  C4_8 
REMARK    4  A    between atoms: C6_12  and  C7_13 
ROOT
HETATM    1  C4  UNL     1      16.761  12.629  19.201  1.00  0.00     0.153 A 
HETATM    2  N2  UNL     1      15.915  12.929  18.216  1.00  0.00    -0.347 N 
ATOM      3  H2  UNL     1      15.976  13.738  17.598  1.00  0.00     0.167 HD
HETATM    4  C5  UNL     1      14.953  11.961  18.180  1.00  0.00     0.124 A 
HETATM    5  C6  UNL     1      15.231  11.051  19.176  1.00  0.00     0.115 A 
HETATM    6  N4  UNL     1      16.348  11.496  19.780  1.00  0.00    -0.334 N 
ATOM      7  H4  UNL     1      16.811  11.038  20.565  1.00  0.00     0.168 HD
ENDROOT
BRANCH   1   8
HETATM    8  C3  UNL     1      17.959  13.380  19.625  1.00  0.00     0.197 C 
HETATM    9  O1  UNL     1      19.023  12.775  19.895  1.00  0.00    -0.289 OA
BRANCH   8  10
HETATM   10  C2  UNL     1      17.922  14.851  19.737  1.00  0.00     0.131 C 
BRANCH  10  11
HETATM   11  C1  UNL     1      18.428  15.439  18.469  1.00  0.00     0.060 C 
HETATM   12  N1  UNL     1      19.100  14.734  17.642  1.00  0.00    -0.411 N 
ATOM     13  H12 UNL     1      19.283  13.757  17.870  1.00  0.00     0.155 HD
ATOM     14  H11 UNL     1      19.447  15.137  16.771  1.00  0.00     0.155 HD
ENDBRANCH  10  11
ENDBRANCH   8  10
ENDBRANCH   1   8
BRANCH   5  15
HETATM   15  C7  UNL     1      14.453   9.856  19.487  1.00  0.00     0.282 C 
HETATM   16  N3  UNL     1      14.081   8.934  18.470  1.00  0.00    -0.056 NA
HETATM   17  O2  UNL     1      14.100   9.632  20.670  1.00  0.00    -0.269 OA
ENDBRANCH   5  15
TORSDOF 4
ENDMDL
MODEL 3
REMARK VINA RESULT: -6.305406323      2.237      3.041
REMARK  4 active torsions:
REMARK  status: ('A' for Active; 'I' for Inactive)
REMARK    1  A    between atoms: C1_4  and  C2_5 
REMARK    2  A    between atoms: C2_5  and  C3_6 
REMARK    3  A    between atoms: C3_6  and  C4_8 
REMARK    4  A    between atoms: C6_12  and  C7_13 
ROOT
HETATM    1  C4  UNL     1      19.177  14.820  18.408  1.00  0.00     0.153 A 
HETATM    2  N2  UNL     1      19.260  14.560  19.713  1.00  0.00    -0.347 N 
ATOM      3  H2  UNL     1      19.913  14.987  20.369  1.00  0.00     0.167 HD
HETATM    4  C5  UNL     1      18.315  13.623  20.015  1.00  0.00     0.124 A 
HETATM    5  C6  UNL     1      17.643  13.310  18.853  1.00  0.00     0.115 A 
HETATM    6  N4  UNL     1      18.203  14.065  17.890  1.00  0.00    -0.334 N 
ATOM      7  H4  UNL     1      17.924  14.063  16.908  1.00  0.00     0.168 HD
ENDROOT
BRANCH   1   8
HETATM    8  C3  UNL     1      19.994  15.764  17.620  1.00  0.00     0.197 C 
HETATM    9  O1  UNL     1      21.113  15.415  17.175  1.00  0.00    -0.289 OA
BRANCH   8  10
HETATM   10  C2  UNL     1      19.507  17.129  17.344  1.00  0.00     0.131 C 
BRANCH  10  11
HETATM   11  C1  UNL     1      20.633  17.939  16.811  1.00  0.00     0.060 C 
HETATM   12  N1  UNL     1      21.563  18.356  17.582  1.00  0.00    -0.411 N 
ATOM     13  H12 UNL     1      21.517  18.120  18.573  1.00  0.00     0.155 HD
ATOM     14  H11 UNL     1      22.336  18.912  17.216  1.00  0.00     0.155 HD
ENDBRANCH  10  11
ENDBRANCH   8  10
ENDBRANCH   1   8
BRANCH   5  15
HETATM   15  C7  UNL     1      16.552  12.350  18.726  1.00  0.00     0.282 C 
HETATM   16  N3  UNL     1      16.654  11.042  19.276  1.00  0.00    -0.056 NA
HETATM   17  O2  UNL     1      15.502  12.675  18.122  1.00  0.00    -0.269 OA
ENDBRANCH   5  15
TORSDOF 4
ENDMDL
MODEL 4
REMARK VINA RESULT: -6.238096141      3.436      6.790
REMARK  4 active torsions:
REMARK  status: ('A' for Active; 'I' for Inactive)
REMARK    1  A    between atoms: C1_4  and  C2_5 
REMARK    2  A    between atoms: C2_5  and  C3_6 
REMARK    3  A    between atoms: C3_6  and  C4_8 
REMARK    4  A    between atoms: C6_12  and  C7_13 
ROOT
HETATM    1  C4  UNL     1      19.510  15.687  17.815  1.00  0.00     0.153 A 
HETATM    2  N2  UNL     1      19.220  16.959  17.540  1.00  0.00    -0.347 N 
ATOM      3  H2  UNL     1      18.293  17.383  17.571  1.00  0.00     0.167 HD
HETATM    4  C5  UNL     1      20.383  17.592  17.210  1.00  0.00     0.124 A 
HETATM    5  C6  UNL     1      21.404  16.670  17.290  1.00  0.00     0.115 A 
HETATM    6  N4  UNL     1      20.827  15.514  17.663  1.00  0.00    -0.334 N 
ATOM      7  H4  UNL     1      21.322  14.633  17.809  1.00  0.00     0.168 HD
ENDROOT
BRANCH   1   8
HETATM    8  C3  UNL     1      18.580  14.614  18.218  1.00  0.00     0.197 C 
HETATM    9  O1  UNL     1      18.549  13.531  17.587  1.00  0.00    -0.289 OA
BRANCH   8  10
HETATM   10  C2  UNL     1      17.675  14.798  19.369  1.00  0.00     0.131 C 
BRANCH  10  11
HETATM   11  C1  UNL     1      18.198  14.016  20.519  1.00  0.00     0.060 C 
HETATM   12  N1  UNL     1      19.303  13.379  20.430  1.00  0.00    -0.411 N 
ATOM     13  H12 UNL     1      19.819  13.420  19.551  1.00  0.00     0.155 HD
ATOM     14  H11 UNL     1      19.662  12.842  21.219  1.00  0.00     0.155 HD
ENDBRANCH  10  11
ENDBRANCH   8  10
ENDBRANCH   1   8
BRANCH   5  15
HETATM   15  C7  UNL     1      22.814  16.929  17.018  1.00  0.00     0.282 C 
HETATM   16  N3  UNL     1      23.821  16.591  17.964  1.00  0.00    -0.056 NA
HETATM   17  O2  UNL     1      23.153  17.459  15.932  1.00  0.00    -0.269 OA
ENDBRANCH   5  15
TORSDOF 4
ENDMDL
MODEL 5
REMARK VINA RESULT: -6.220848495      6.274      8.038
REMARK  4 active torsions:
REMARK  status: ('A' for Active; 'I' for Inactive)
REMARK    1  A    between atoms: C1_4  and  C2_5 
REMARK    2  A    between atoms: C2_5  and  C3_6 
REMARK    3  A    between atoms: C3_6  and  C4_8 
REMARK    4  A    between atoms: C6_12  and  C7_13 
ROOT
HETATM    1  C4  UNL     1      21.671  17.062  17.419  1.00  0.00     0.153 A 
HETATM    2  N2  UNL     1      20.386  16.872  17.716  1.00  0.00    -0.347 N 
ATOM      3  H2  UNL     1      20.012  16.145  18.326  1.00  0.00     0.167 HD
HETATM    4  C5  UNL     1      19.658  17.822  17.060  1.00  0.00     0.124 A 
HETATM    5  C6  UNL     1      20.536  18.608  16.345  1.00  0.00     0.115 A 
HETATM    6  N4  UNL     1      21.761  18.109  16.592  1.00  0.00    -0.334 N 
ATOM      7  H4  UNL     1      22.631  18.476  16.205  1.00  0.00     0.168 HD
ENDROOT
BRANCH   1   8
HETATM    8  C3  UNL     1      22.834  16.284  17.890  1.00  0.00     0.197 C 
HETATM    9  O1  UNL     1      22.666  15.203  18.503  1.00  0.00    -0.289 OA
BRANCH   8  10
HETATM   10  C2  UNL     1      24.208  16.764  17.646  1.00  0.00     0.131 C 
BRANCH  10  11
HETATM   11  C1  UNL     1      25.107  15.589  17.509  1.00  0.00     0.060 C 
HETATM   12  N1  UNL     1      25.103  14.882  16.444  1.00  0.00    -0.411 N 
ATOM     13  H12 UNL     1      24.469  15.141  15.689  1.00  0.00     0.155 HD
ATOM     14  H11 UNL     1      25.721  14.075  16.350  1.00  0.00     0.155 HD
ENDBRANCH  10  11
ENDBRANCH   8  10
ENDBRANCH   1   8
BRANCH   5  15
HETATM   15  C7  UNL     1      20.178  19.744  15.502  1.00  0.00     0.282 C 
HETATM   16  N3  UNL     1      19.572  19.554  14.229  1.00  0.00    -0.056 NA
HETATM   17  O2  UNL     1      20.405  20.912  15.900  1.00  0.00    -0.269 OA
ENDBRANCH   5  15
TORSDOF 4
ENDMDL
