MODEL 1
REMARK VINA RESULT: -6.068583674      0.000      0.000
REMARK  7 active torsions:
REMARK  status: ('A' for Active; 'I' for Inactive)
REMARK    1  A    between atoms: N1_1  and  C1_4 
REMARK    2  A    between atoms: C1_4  and  C2_5 
REMARK    3  A    between atoms: C2_5  and  C3_6 
REMARK    4  A    between atoms: C3_6  and  N2_7 
REMARK    5  A    between atoms: N2_7  and  C4_9 
REMARK    6  A    between atoms: C6_15  and  N5_16 
REMARK    7  A    between atoms: C7_19  and  C8_20 
ROOT
HETATM    1  C4  UNL     1      20.223  15.962  17.920  1.00  0.00     0.119 A 
HETATM    2  N3  UNL     1      19.474  16.950  17.334  1.00  0.00    -0.338 N 
ATOM      3  H3  UNL     1      18.458  16.886  17.407  1.00  0.00     0.168 HD
HETATM    4  C5  UNL     1      19.983  17.977  16.682  1.00  0.00     0.183 A 
HETATM    5  N4  UNL     1      21.311  18.067  16.583  1.00  0.00    -0.338 N 
ATOM      6  H4  UNL     1      21.726  18.854  16.084  1.00  0.00     0.168 HD
HETATM    7  C6  UNL     1      22.126  17.118  17.144  1.00  0.00     0.116 A 
HETATM    8  C7  UNL     1      21.584  16.028  17.836  1.00  0.00     0.089 A 
ENDROOT
BRANCH   1   9
HETATM    9  N2  UNL     1      19.563  14.909  18.593  1.00  0.00    -0.374 N 
ATOM     10  H2  UNL     1      20.104  14.134  18.976  1.00  0.00     0.161 HD
BRANCH   9  11
HETATM   11  C3  UNL     1      18.102  14.926  18.742  1.00  0.00     0.134 C 
BRANCH  11  12
HETATM   12  C2  UNL     1      17.713  13.887  19.710  1.00  0.00     0.123 C 
BRANCH  12  13
HETATM   13  C1  UNL     1      17.326  12.707  19.343  1.00  0.00    -0.076 C 
BRANCH  13  14
HETATM   14  N1  UNL     1      17.157  11.505  18.973  1.00  0.00    -0.370 N 
ATOM     15  H12 UNL     1      17.878  11.654  18.266  1.00  0.00     0.165 HD
ATOM     16  H11 UNL     1      16.902  10.533  18.800  1.00  0.00     0.165 HD
ENDBRANCH  13  14
ENDBRANCH  12  13
ENDBRANCH  11  12
ENDBRANCH   9  11
ENDBRANCH   1   9
BRANCH   8  17
HETATM   17  C8  UNL     1      22.509  15.071  18.397  1.00  0.00     0.277 C 
HETATM   18  O1  UNL     1      22.478  14.520  19.502  1.00  0.00    -0.301 OA
ENDBRANCH   8  17
BRANCH   7  19
HETATM   19  N5  UNL     1      23.376  17.319  16.980  1.00  0.00    -0.385 N 
ATOM     20  H52 UNL     1      23.873  17.165  16.103  1.00  0.00     0.157 HD
ATOM     21  H51 UNL     1      23.868  17.656  17.807  1.00  0.00     0.157 HD
ENDBRANCH   7  19
TORSDOF 7
ENDMDL
MODEL 2
REMARK VINA RESULT: -5.909357229      1.311      1.560
REMARK  7 active torsions:
REMARK  status: ('A' for Active; 'I' for Inactive)
REMARK    1  A    between atoms: N1_1  and  C1_4 
REMARK    2  A    between atoms: C1_4  and  C2_5 
REMARK    3  A    between atoms: C2_5  and  C3_6 
REMARK    4  A    between atoms: C3_6  and  N2_7 
REMARK    5  A    between atoms: N2_7  and  C4_9 
REMARK    6  A    between atoms: C6_15  and  N5_16 
REMARK    7  A    between atoms: C7_19  and  C8_20 
ROOT
HETATM    1  C4  UNL     1      20.284  15.967  17.975  1.00  0.00     0.119 A 
HETATM    2  N3  UNL     1      19.498  16.932  17.399  1.00  0.00    -0.338 N 
ATOM      3  H3  UNL     1      18.488  16.864  17.526  1.00  0.00     0.168 HD
HETATM    4  C5  UNL     1      19.966  17.942  16.692  1.00  0.00     0.183 A 
HETATM    5  N4  UNL     1      21.286  18.038  16.523  1.00  0.00    -0.338 N 
ATOM      6  H4  UNL     1      21.668  18.812  15.980  1.00  0.00     0.168 HD
HETATM    7  C6  UNL     1      22.136  17.111  17.069  1.00  0.00     0.116 A 
HETATM    8  C7  UNL     1      21.638  16.038  17.820  1.00  0.00     0.089 A 
ENDROOT
BRANCH   1   9
HETATM    9  N2  UNL     1      19.667  14.930  18.712  1.00  0.00    -0.374 N 
ATOM     10  H2  UNL     1      20.074  14.625  19.596  1.00  0.00     0.161 HD
BRANCH   9  11
HETATM   11  C3  UNL     1      18.443  14.292  18.211  1.00  0.00     0.134 C 
BRANCH  11  12
HETATM   12  C2  UNL     1      17.357  14.529  19.175  1.00  0.00     0.123 C 
BRANCH  12  13
HETATM   13  C1  UNL     1      16.383  15.348  18.935  1.00  0.00    -0.076 C 
BRANCH  13  14
HETATM   14  N1  UNL     1      15.357  16.095  18.895  1.00  0.00    -0.370 N 
ATOM     15  H12 UNL     1      15.240  15.828  17.917  1.00  0.00     0.165 HD
ATOM     16  H11 UNL     1      14.569  16.728  19.029  1.00  0.00     0.165 HD
ENDBRANCH  13  14
ENDBRANCH  12  13
ENDBRANCH  11  12
ENDBRANCH   9  11
ENDBRANCH   1   9
BRANCH   8  17
HETATM   17  C8  UNL     1      22.598  15.105  18.361  1.00  0.00     0.277 C 
HETATM   18  O1  UNL     1      22.544  14.462  19.415  1.00  0.00    -0.301 OA
ENDBRANCH   8  17
BRANCH   7  19
HETATM   19  N5  UNL     1      23.374  17.315  16.836  1.00  0.00    -0.385 N 
ATOM     20  H52 UNL     1      23.844  18.211  16.960  1.00  0.00     0.157 HD
ATOM     21  H51 UNL     1      23.887  16.498  16.504  1.00  0.00     0.157 HD
ENDBRANCH   7  19
TORSDOF 7
ENDMDL
MODEL 3
REMARK VINA RESULT: -5.631228175      2.481      5.564
REMARK  7 active torsions:
REMARK  status: ('A' for Active; 'I' for Inactive)
REMARK    1  A    between atoms: N1_1  and  C1_4 
REMARK    2  A    between atoms: C1_4  and  C2_5 
REMARK    3  A    between atoms: C2_5  and  C3_6 
REMARK    4  A    between atoms: C3_6  and  N2_7 
REMARK    5  A    between atoms: N2_7  and  C4_9 
REMARK    6  A    between atoms: C6_15  and  N5_16 
REMARK    7  A    between atoms: C7_19  and  C8_20 
ROOT
HETATM    1  C4  UNL     1      20.515  17.676  17.143  1.00  0.00     0.119 A 
HETATM    2  N3  UNL     1      19.271  17.206  17.476  1.00  0.00    -0.338 N 
ATOM      3  H3  UNL     1      18.464  17.788  17.252  1.00  0.00     0.168 HD
HETATM    4  C5  UNL     1      19.052  16.047  18.067  1.00  0.00     0.183 A 
HETATM    5  N4  UNL     1      20.103  15.279  18.362  1.00  0.00    -0.338 N 
ATOM      6  H4  UNL     1      19.955  14.379  18.819  1.00  0.00     0.168 HD
HETATM    7  C6  UNL     1      21.377  15.682  18.059  1.00  0.00     0.116 A 
HETATM    8  C7  UNL     1      21.609  16.913  17.432  1.00  0.00     0.089 A 
ENDROOT
BRANCH   1   9
HETATM    9  N2  UNL     1      20.625  18.936  16.511  1.00  0.00    -0.374 N 
ATOM     10  H2  UNL     1      20.805  19.770  17.069  1.00  0.00     0.161 HD
BRANCH   9  11
HETATM   11  C3  UNL     1      20.482  19.048  15.053  1.00  0.00     0.134 C 
BRANCH  11  12
HETATM   12  C2  UNL     1      20.078  20.423  14.722  1.00  0.00     0.123 C 
BRANCH  12  13
HETATM   13  C1  UNL     1      19.756  20.781  13.520  1.00  0.00    -0.076 C 
BRANCH  13  14
HETATM   14  N1  UNL     1      19.650  21.108  12.298  1.00  0.00    -0.370 N 
ATOM     15  H12 UNL     1      19.086  21.906  12.593  1.00  0.00     0.165 HD
ATOM     16  H11 UNL     1      19.662  21.231  11.285  1.00  0.00     0.165 HD
ENDBRANCH  13  14
ENDBRANCH  12  13
ENDBRANCH  11  12
ENDBRANCH   9  11
ENDBRANCH   1   9
BRANCH   8  17
HETATM   17  C8  UNL     1      22.981  17.265  17.147  1.00  0.00     0.277 C 
HETATM   18  O1  UNL     1      24.000  16.990  17.790  1.00  0.00    -0.301 OA
ENDBRANCH   8  17
BRANCH   7  19
HETATM   19  N5  UNL     1      22.294  14.859  18.392  1.00  0.00    -0.385 N 
ATOM     20  H52 UNL     1      23.013  14.510  17.759  1.00  0.00     0.157 HD
ATOM     21  H51 UNL     1      22.267  14.558  19.366  1.00  0.00     0.157 HD
ENDBRANCH   7  19
TORSDOF 7
ENDMDL
MODEL 4
REMARK VINA RESULT: -5.367586388      1.722      2.035
REMARK  7 active torsions:
REMARK  status: ('A' for Active; 'I' for Inactive)
REMARK    1  A    between atoms: N1_1  and  C1_4 
REMARK    2  A    between atoms: C1_4  and  C2_5 
REMARK    3  A    between atoms: C2_5  and  C3_6 
REMARK    4  A    between atoms: C3_6  and  N2_7 
REMARK    5  A    between atoms: N2_7  and  C4_9 
REMARK    6  A    between atoms: C6_15  and  N5_16 
REMARK    7  A    between atoms: C7_19  and  C8_20 
ROOT
HETATM    1  C4  UNL     1      21.417  15.862  17.982  1.00  0.00     0.119 A 
HETATM    2  N3  UNL     1      21.161  16.829  17.044  1.00  0.00    -0.338 N 
ATOM      3  H3  UNL     1      20.188  17.007  16.794  1.00  0.00     0.168 HD
HETATM    4  C5  UNL     1      22.093  17.543  16.444  1.00  0.00     0.183 A 
HETATM    5  N4  UNL     1      23.368  17.316  16.767  1.00  0.00    -0.338 N 
ATOM      6  H4  UNL     1      24.105  17.858  16.315  1.00  0.00     0.168 HD
HETATM    7  C6  UNL     1      23.702  16.365  17.696  1.00  0.00     0.116 A 
HETATM    8  C7  UNL     1      22.711  15.607  18.332  1.00  0.00     0.089 A 
ENDROOT
BRANCH   1   9
HETATM    9  N2  UNL     1      20.332  15.160  18.556  1.00  0.00    -0.374 N 
ATOM     10  H2  UNL     1      20.476  14.610  19.404  1.00  0.00     0.161 HD
BRANCH   9  11
HETATM   11  C3  UNL     1      19.001  15.219  17.939  1.00  0.00     0.134 C 
BRANCH  11  12
HETATM   12  C2  UNL     1      18.000  14.789  18.929  1.00  0.00     0.123 C 
BRANCH  12  13
HETATM   13  C1  UNL     1      16.799  15.271  18.955  1.00  0.00    -0.076 C 
BRANCH  13  14
HETATM   14  N1  UNL     1      15.718  15.936  18.966  1.00  0.00    -0.370 N 
ATOM     15  H12 UNL     1      15.597  15.664  19.942  1.00  0.00     0.165 HD
ATOM     16  H11 UNL     1      14.886  16.505  18.809  1.00  0.00     0.165 HD
ENDBRANCH  13  14
ENDBRANCH  12  13
ENDBRANCH  11  12
ENDBRANCH   9  11
ENDBRANCH   1   9
BRANCH   8  17
HETATM   17  C8  UNL     1      23.145  14.625  19.298  1.00  0.00     0.277 C 
HETATM   18  O1  UNL     1      22.458  13.889  20.016  1.00  0.00    -0.301 OA
ENDBRANCH   8  17
BRANCH   7  19
HETATM   19  N5  UNL     1      24.954  16.245  17.915  1.00  0.00    -0.385 N 
ATOM     20  H52 UNL     1      25.660  16.911  17.603  1.00  0.00     0.157 HD
ATOM     21  H51 UNL     1      25.219  15.413  18.442  1.00  0.00     0.157 HD
ENDBRANCH   7  19
TORSDOF 7
ENDMDL
MODEL 5
REMARK VINA RESULT: -5.274645581      1.767      5.777
REMARK  7 active torsions:
REMARK  status: ('A' for Active; 'I' for Inactive)
REMARK    1  A    between atoms: N1_1  and  C1_4 
REMARK    2  A    between atoms: C1_4  and  C2_5 
REMARK    3  A    between atoms: C2_5  and  C3_6 
REMARK    4  A    between atoms: C3_6  and  N2_7 
REMARK    5  A    between atoms: N2_7  and  C4_9 
REMARK    6  A    between atoms: C6_15  and  N5_16 
REMARK    7  A    between atoms: C7_19  and  C8_20 
ROOT
HETATM    1  C4  UNL     1      18.549  14.266  18.350  1.00  0.00     0.119 A 
HETATM    2  N3  UNL     1      18.298  13.879  17.059  1.00  0.00    -0.338 N 
ATOM      3  H3  UNL     1      18.775  14.380  16.309  1.00  0.00     0.168 HD
HETATM    4  C5  UNL     1      17.480  12.900  16.726  1.00  0.00     0.183 A 
HETATM    5  N4  UNL     1      16.853  12.240  17.702  1.00  0.00    -0.338 N 
ATOM      6  H4  UNL     1      16.217  11.479  17.466  1.00  0.00     0.168 HD
HETATM    7  C6  UNL     1      17.054  12.569  19.018  1.00  0.00     0.116 A 
HETATM    8  C7  UNL     1      17.923  13.609  19.371  1.00  0.00     0.089 A 
ENDROOT
BRANCH   1   9
HETATM    9  N2  UNL     1      19.448  15.332  18.584  1.00  0.00    -0.374 N 
ATOM     10  H2  UNL     1      19.564  15.699  19.529  1.00  0.00     0.161 HD
BRANCH   9  11
HETATM   11  C3  UNL     1      20.214  15.912  17.474  1.00  0.00     0.134 C 
BRANCH  11  12
HETATM   12  C2  UNL     1      21.643  15.897  17.826  1.00  0.00     0.123 C 
BRANCH  12  13
HETATM   13  C1  UNL     1      22.521  16.609  17.194  1.00  0.00    -0.076 C 
BRANCH  13  14
HETATM   14  N1  UNL     1      23.284  17.236  16.397  1.00  0.00    -0.370 N 
ATOM     15  H12 UNL     1      23.826  16.378  16.292  1.00  0.00     0.165 HD
ATOM     16  H11 UNL     1      23.793  17.875  15.786  1.00  0.00     0.165 HD
ENDBRANCH  13  14
ENDBRANCH  12  13
ENDBRANCH  11  12
ENDBRANCH   9  11
ENDBRANCH   1   9
BRANCH   8  17
HETATM   17  C8  UNL     1      18.080  13.895  20.777  1.00  0.00     0.277 C 
HETATM   18  O1  UNL     1      17.934  14.970  21.370  1.00  0.00    -0.301 OA
ENDBRANCH   8  17
BRANCH   7  19
HETATM   19  N5  UNL     1      16.398  11.863  19.854  1.00  0.00    -0.385 N 
ATOM     20  H52 UNL     1      16.760  11.027  20.312  1.00  0.00     0.157 HD
ATOM     21  H51 UNL     1      15.453  12.195  20.047  1.00  0.00     0.157 HD
ENDBRANCH   7  19
TORSDOF 7
ENDMDL
