MODEL 1
REMARK VINA RESULT: -5.256028296      0.000      0.000
REMARK  4 active torsions:
REMARK  status: ('A' for Active; 'I' for Inactive)
REMARK    1  A    between atoms: C5_7  and  N2_8 
REMARK    2  A    between atoms: C6_10  and  N3_11 
REMARK    3  A    between atoms: N3_11  and  N4_13 
REMARK    4  A    between atoms: C7_16  and  C8_17 
ROOT
HETATM    1  C1  UNL     1      18.910   4.121  14.936  1.00  0.00     0.069 C 
HETATM    2  C2  UNL     1      17.670   4.872  14.634  1.00  0.00     0.022 A 
HETATM    3  N1  UNL     1      17.331   5.095  13.334  1.00  0.00    -0.369 N 
ATOM      4  H1  UNL     1      17.947   4.735  12.605  1.00  0.00     0.165 HD
HETATM    5  C3  UNL     1      16.230   5.763  12.960  1.00  0.00     0.090 A 
HETATM    6  C4  UNL     1      15.359   6.273  13.900  1.00  0.00     0.047 A 
HETATM    7  C5  UNL     1      15.671   6.066  15.220  1.00  0.00     0.051 A 
HETATM    8  C7  UNL     1      16.829   5.364  15.596  1.00  0.00     0.078 A 
ENDROOT
BRANCH   7   9
HETATM    9  N2  UNL     1      14.787   6.583  16.210  1.00  0.00    -0.350 N 
HETATM   10  C6  UNL     1      13.822   5.851  16.690  1.00  0.00     0.197 C 
ATOM     11  H2  UNL     1      14.910   7.538  16.546  1.00  0.00     0.166 HD
BRANCH  10  12
HETATM   12  N3  UNL     1      13.672   4.524  16.204  1.00  0.00    -0.303 N 
ATOM     13  H3  UNL     1      13.542   4.366  15.205  1.00  0.00     0.187 HD
BRANCH  12  14
HETATM   14  N4  UNL     1      13.701   3.431  17.080  1.00  0.00    -0.344 N 
ATOM     15  H42 UNL     1      12.831   2.934  17.268  1.00  0.00     0.176 HD
ATOM     16  H41 UNL     1      14.573   3.138  17.520  1.00  0.00     0.176 HD
ENDBRANCH  12  14
ENDBRANCH  10  12
ENDBRANCH   7   9
BRANCH   8  17
HETATM   17  C8  UNL     1      17.109   5.173  17.011  1.00  0.00     0.269 C 
HETATM   18  N5  UNL     1      16.664   4.101  17.799  1.00  0.00    -0.057 NA
HETATM   19  O1  UNL     1      17.827   6.066  17.573  1.00  0.00    -0.271 OA
ENDBRANCH   8  17
TORSDOF 4
ENDMDL
MODEL 2
REMARK VINA RESULT: -5.178016537      1.936      3.903
REMARK  4 active torsions:
REMARK  status: ('A' for Active; 'I' for Inactive)
REMARK    1  A    between atoms: C5_7  and  N2_8 
REMARK    2  A    between atoms: C6_10  and  N3_11 
REMARK    3  A    between atoms: N3_11  and  N4_13 
REMARK    4  A    between atoms: C7_16  and  C8_17 
ROOT
HETATM    1  C1  UNL     1      13.553   5.901  16.321  1.00  0.00     0.069 C 
HETATM    2  C2  UNL     1      14.324   5.071  15.368  1.00  0.00     0.022 A 
HETATM    3  N1  UNL     1      13.776   4.773  14.156  1.00  0.00    -0.369 N 
ATOM      4  H1  UNL     1      12.846   5.134  13.945  1.00  0.00     0.165 HD
HETATM    5  C3  UNL     1      14.394   4.031  13.227  1.00  0.00     0.090 A 
HETATM    6  C4  UNL     1      15.652   3.515  13.456  1.00  0.00     0.047 A 
HETATM    7  C5  UNL     1      16.234   3.797  14.667  1.00  0.00     0.051 A 
HETATM    8  C7  UNL     1      15.573   4.577  15.630  1.00  0.00     0.078 A 
ENDROOT
BRANCH   7   9
HETATM    9  N2  UNL     1      17.533   3.276  14.926  1.00  0.00    -0.350 N 
HETATM   10  C6  UNL     1      18.598   3.893  14.496  1.00  0.00     0.197 C 
ATOM     11  H2  UNL     1      17.633   2.409  15.455  1.00  0.00     0.166 HD
BRANCH  10  12
HETATM   12  N3  UNL     1      18.431   5.098  13.761  1.00  0.00    -0.303 N 
ATOM     13  H3  UNL     1      18.234   5.054  12.761  1.00  0.00     0.187 HD
BRANCH  12  14
HETATM   14  N4  UNL     1      18.536   6.343  14.392  1.00  0.00    -0.344 N 
ATOM     15  H42 UNL     1      17.723   6.960  14.394  1.00  0.00     0.176 HD
ATOM     16  H41 UNL     1      19.406   6.629  14.842  1.00  0.00     0.176 HD
ENDBRANCH  12  14
ENDBRANCH  10  12
ENDBRANCH   7   9
BRANCH   8  17
HETATM   17  C8  UNL     1      16.238   4.845  16.897  1.00  0.00     0.269 C 
HETATM   18  N5  UNL     1      17.122   5.903  17.153  1.00  0.00    -0.057 NA
HETATM   19  O1  UNL     1      15.983   4.039  17.854  1.00  0.00    -0.271 OA
ENDBRANCH   8  17
TORSDOF 4
ENDMDL
MODEL 3
REMARK VINA RESULT: -5.166234895      1.033      1.033
REMARK  4 active torsions:
REMARK  status: ('A' for Active; 'I' for Inactive)
REMARK    1  A    between atoms: C5_7  and  N2_8 
REMARK    2  A    between atoms: C6_10  and  N3_11 
REMARK    3  A    between atoms: N3_11  and  N4_13 
REMARK    4  A    between atoms: C7_16  and  C8_17 
ROOT
HETATM    1  C1  UNL     1      18.428   3.438  14.974  1.00  0.00     0.069 C 
HETATM    2  C2  UNL     1      17.248   4.265  14.633  1.00  0.00     0.022 A 
HETATM    3  N1  UNL     1      16.800   4.281  13.346  1.00  0.00    -0.369 N 
ATOM      4  H1  UNL     1      17.296   3.718  12.655  1.00  0.00     0.165 HD
HETATM    5  C3  UNL     1      15.743   4.996  12.939  1.00  0.00     0.090 A 
HETATM    6  C4  UNL     1      15.032   5.776  13.827  1.00  0.00     0.047 A 
HETATM    7  C5  UNL     1      15.456   5.783  15.133  1.00  0.00     0.051 A 
HETATM    8  C7  UNL     1      16.568   5.027  15.543  1.00  0.00     0.078 A 
ENDROOT
BRANCH   7   9
HETATM    9  N2  UNL     1      14.739   6.581  16.069  1.00  0.00    -0.350 N 
HETATM   10  C6  UNL     1      13.735   6.085  16.737  1.00  0.00     0.197 C 
ATOM     11  H2  UNL     1      15.013   7.552  16.219  1.00  0.00     0.166 HD
BRANCH  10  12
HETATM   12  N3  UNL     1      13.374   4.730  16.509  1.00  0.00    -0.303 N 
ATOM     13  H3  UNL     1      13.073   4.439  15.579  1.00  0.00     0.187 HD
BRANCH  12  14
HETATM   14  N4  UNL     1      13.424   3.790  17.545  1.00  0.00    -0.344 N 
ATOM     15  H42 UNL     1      13.664   2.825  17.318  1.00  0.00     0.176 HD
ATOM     16  H41 UNL     1      13.226   4.063  18.508  1.00  0.00     0.176 HD
ENDBRANCH  12  14
ENDBRANCH  10  12
ENDBRANCH   7   9
BRANCH   8  17
HETATM   17  C8  UNL     1      16.973   5.072  16.941  1.00  0.00     0.269 C 
HETATM   18  N5  UNL     1      17.917   5.948  17.495  1.00  0.00    -0.057 NA
HETATM   19  O1  UNL     1      16.408   4.235  17.722  1.00  0.00    -0.271 OA
ENDBRANCH   8  17
TORSDOF 4
ENDMDL
MODEL 4
REMARK VINA RESULT: -5.063507706      1.486      3.653
REMARK  4 active torsions:
REMARK  status: ('A' for Active; 'I' for Inactive)
REMARK    1  A    between atoms: C5_7  and  N2_8 
REMARK    2  A    between atoms: C6_10  and  N3_11 
REMARK    3  A    between atoms: N3_11  and  N4_13 
REMARK    4  A    between atoms: C7_16  and  C8_17 
ROOT
HETATM    1  C1  UNL     1      14.264   5.870  16.693  1.00  0.00     0.069 C 
HETATM    2  C2  UNL     1      15.244   6.071  15.600  1.00  0.00     0.022 A 
HETATM    3  N1  UNL     1      14.822   6.611  14.423  1.00  0.00    -0.369 N 
ATOM      4  H1  UNL     1      13.837   6.861  14.332  1.00  0.00     0.165 HD
HETATM    5  C3  UNL     1      15.630   6.831  13.377  1.00  0.00     0.090 A 
HETATM    6  C4  UNL     1      16.970   6.514  13.441  1.00  0.00     0.047 A 
HETATM    7  C5  UNL     1      17.430   5.968  14.613  1.00  0.00     0.051 A 
HETATM    8  C7  UNL     1      16.569   5.743  15.701  1.00  0.00     0.078 A 
ENDROOT
BRANCH   7   9
HETATM    9  N2  UNL     1      18.811   5.632  14.704  1.00  0.00    -0.350 N 
HETATM   10  C6  UNL     1      19.259   4.513  14.206  1.00  0.00     0.197 C 
ATOM     11  H2  UNL     1      19.457   6.273  15.163  1.00  0.00     0.166 HD
BRANCH  10  12
HETATM   12  N3  UNL     1      18.337   3.637  13.573  1.00  0.00    -0.303 N 
ATOM     13  H3  UNL     1      17.601   3.196  14.124  1.00  0.00     0.187 HD
BRANCH  12  14
HETATM   14  N4  UNL     1      18.427   3.371  12.201  1.00  0.00    -0.344 N 
ATOM     15  H42 UNL     1      19.316   3.041  11.825  1.00  0.00     0.176 HD
ATOM     16  H41 UNL     1      17.622   3.505  11.589  1.00  0.00     0.176 HD
ENDBRANCH  12  14
ENDBRANCH  10  12
ENDBRANCH   7   9
BRANCH   8  17
HETATM   17  C8  UNL     1      17.111   5.163  16.921  1.00  0.00     0.269 C 
HETATM   18  N5  UNL     1      16.904   3.850  17.368  1.00  0.00    -0.057 NA
HETATM   19  O1  UNL     1      17.842   5.927  17.637  1.00  0.00    -0.271 OA
ENDBRANCH   8  17
TORSDOF 4
ENDMDL
MODEL 5
REMARK VINA RESULT: -4.888519761      1.805      3.357
REMARK  4 active torsions:
REMARK  status: ('A' for Active; 'I' for Inactive)
REMARK    1  A    between atoms: C5_7  and  N2_8 
REMARK    2  A    between atoms: C6_10  and  N3_11 
REMARK    3  A    between atoms: N3_11  and  N4_13 
REMARK    4  A    between atoms: C7_16  and  C8_17 
ROOT
HETATM    1  C1  UNL     1      19.119   4.700  17.746  1.00  0.00     0.069 C 
HETATM    2  C2  UNL     1      18.707   4.251  16.396  1.00  0.00     0.022 A 
HETATM    3  N1  UNL     1      19.642   3.711  15.565  1.00  0.00    -0.369 N 
ATOM      4  H1  UNL     1      20.601   3.632  15.903  1.00  0.00     0.165 HD
HETATM    5  C3  UNL     1      19.369   3.276  14.327  1.00  0.00     0.090 A 
HETATM    6  C4  UNL     1      18.091   3.356  13.816  1.00  0.00     0.047 A 
HETATM    7  C5  UNL     1      17.124   3.896  14.627  1.00  0.00     0.051 A 
HETATM    8  C7  UNL     1      17.427   4.347  15.923  1.00  0.00     0.078 A 
ENDROOT
BRANCH   7   9
HETATM    9  N2  UNL     1      15.796   3.989  14.121  1.00  0.00    -0.350 N 
HETATM   10  C6  UNL     1      15.476   4.907  13.252  1.00  0.00     0.197 C 
ATOM     11  H2  UNL     1      15.086   3.331  14.443  1.00  0.00     0.166 HD
BRANCH  10  12
HETATM   12  N3  UNL     1      16.484   5.812  12.821  1.00  0.00    -0.303 N 
ATOM     13  H3  UNL     1      17.178   5.505  12.140  1.00  0.00     0.187 HD
BRANCH  12  14
HETATM   14  N4  UNL     1      16.536   7.119  13.321  1.00  0.00    -0.344 N 
ATOM     15  H42 UNL     1      15.774   7.759  13.096  1.00  0.00     0.176 HD
ATOM     16  H41 UNL     1      17.318   7.426  13.899  1.00  0.00     0.176 HD
ENDBRANCH  12  14
ENDBRANCH  10  12
ENDBRANCH   7   9
BRANCH   8  17
HETATM   17  C8  UNL     1      16.362   4.910  16.740  1.00  0.00     0.269 C 
HETATM   18  N5  UNL     1      15.601   4.214  17.691  1.00  0.00    -0.057 NA
HETATM   19  O1  UNL     1      16.109   6.150  16.568  1.00  0.00    -0.271 OA
ENDBRANCH   8  17
TORSDOF 4
ENDMDL
