MODEL 1
REMARK VINA RESULT: -6.680766055      0.000      0.000
REMARK  5 active torsions:
REMARK  status: ('A' for Active; 'I' for Inactive)
REMARK    1  A    between atoms: C1_2  and  C2_4 
REMARK    2  A    between atoms: C5_7  and  C6_8 
REMARK    3  A    between atoms: C6_8  and  C7_9 
REMARK    4  A    between atoms: C7_9  and  N2_10 
REMARK    5  A    between atoms: C7_9  and  C8_14 
ROOT
HETATM    1  C2  UNL     1      15.877  11.306  19.427  1.00  0.00     0.140 A 
HETATM    2  C3  UNL     1      15.501  11.713  18.164  1.00  0.00     0.045 A 
HETATM    3  C4  UNL     1      16.240  12.825  17.849  1.00  0.00     0.036 A 
HETATM    4  C5  UNL     1      17.056  13.064  18.945  1.00  0.00     0.056 A 
HETATM    5  O3  UNL     1      16.795  12.148  19.823  1.00  0.00    -0.310 OA
ENDROOT
BRANCH   4   6
HETATM    6  C6  UNL     1      18.039  14.181  19.054  1.00  0.00     0.105 C 
BRANCH   6   7
HETATM    7  C7  UNL     1      17.511  15.418  18.353  1.00  0.00     0.250 C 
BRANCH   7   8
HETATM    8  N2  UNL     1      18.559  16.401  18.163  1.00  0.00    -0.069 N 
ATOM      9  H23 UNL     1      19.460  16.057  18.492  1.00  0.00     0.275 HD
ATOM     10  H22 UNL     1      18.788  16.519  17.176  1.00  0.00     0.275 HD
ATOM     11  H21 UNL     1      18.314  17.291  18.600  1.00  0.00     0.275 HD
ENDBRANCH   7   8
BRANCH   7  12
HETATM   12  C8  UNL     1      16.417  16.034  19.145  1.00  0.00     0.264 C 
HETATM   13  O2  UNL     1      15.285  16.054  18.701  1.00  0.00    -0.305 OA
ENDBRANCH   7  12
ENDBRANCH   6   7
ENDBRANCH   4   6
BRANCH   1  14
HETATM   14  C1  UNL     1      15.321  10.155  20.127  1.00  0.00     0.288 C 
HETATM   15  N1  UNL     1      14.084   9.587  19.727  1.00  0.00    -0.055 NA
HETATM   16  O1  UNL     1      15.904   9.621  21.104  1.00  0.00    -0.269 OA
ENDBRANCH   1  14
TORSDOF 5
ENDMDL
MODEL 2
REMARK VINA RESULT: -6.193408685      1.650      1.859
REMARK  5 active torsions:
REMARK  status: ('A' for Active; 'I' for Inactive)
REMARK    1  A    between atoms: C1_2  and  C2_4 
REMARK    2  A    between atoms: C5_7  and  C6_8 
REMARK    3  A    between atoms: C6_8  and  C7_9 
REMARK    4  A    between atoms: C7_9  and  N2_10 
REMARK    5  A    between atoms: C7_9  and  C8_14 
ROOT
HETATM    1  C2  UNL     1      15.656  11.078  19.255  1.00  0.00     0.140 A 
HETATM    2  C3  UNL     1      14.835  11.755  18.377  1.00  0.00     0.045 A 
HETATM    3  C4  UNL     1      15.606  12.675  17.714  1.00  0.00     0.036 A 
HETATM    4  C5  UNL     1      16.891  12.529  18.215  1.00  0.00     0.056 A 
HETATM    5  O3  UNL     1      16.851  11.587  19.103  1.00  0.00    -0.310 OA
ENDROOT
BRANCH   4   6
HETATM    6  C6  UNL     1      18.076  13.327  17.783  1.00  0.00     0.105 C 
BRANCH   6   7
HETATM    7  C7  UNL     1      18.280  14.508  18.711  1.00  0.00     0.250 C 
BRANCH   7   8
HETATM    8  N2  UNL     1      19.458  15.269  18.341  1.00  0.00    -0.069 N 
ATOM      9  H23 UNL     1      19.484  15.455  17.338  1.00  0.00     0.275 HD
ATOM     10  H22 UNL     1      19.405  16.230  18.677  1.00  0.00     0.275 HD
ATOM     11  H21 UNL     1      20.311  14.806  18.658  1.00  0.00     0.275 HD
ENDBRANCH   7   8
BRANCH   7  12
HETATM   12  C8  UNL     1      18.433  14.046  20.112  1.00  0.00     0.264 C 
HETATM   13  O2  UNL     1      19.382  13.349  20.420  1.00  0.00    -0.305 OA
ENDBRANCH   7  12
ENDBRANCH   6   7
ENDBRANCH   4   6
BRANCH   1  14
HETATM   14  C1  UNL     1      15.217  10.014  20.149  1.00  0.00     0.288 C 
HETATM   15  N1  UNL     1      13.963   9.376  19.961  1.00  0.00    -0.055 NA
HETATM   16  O1  UNL     1      15.918   9.620  21.115  1.00  0.00    -0.269 OA
ENDBRANCH   1  14
TORSDOF 5
ENDMDL
MODEL 3
REMARK VINA RESULT: -6.136478534      1.569      1.612
REMARK  5 active torsions:
REMARK  status: ('A' for Active; 'I' for Inactive)
REMARK    1  A    between atoms: C1_2  and  C2_4 
REMARK    2  A    between atoms: C5_7  and  C6_8 
REMARK    3  A    between atoms: C6_8  and  C7_9 
REMARK    4  A    between atoms: C7_9  and  N2_10 
REMARK    5  A    between atoms: C7_9  and  C8_14 
ROOT
HETATM    1  C2  UNL     1      16.060  11.583  19.325  1.00  0.00     0.140 A 
HETATM    2  C3  UNL     1      15.761  12.172  18.113  1.00  0.00     0.045 A 
HETATM    3  C4  UNL     1      16.449  13.357  18.047  1.00  0.00     0.036 A 
HETATM    4  C5  UNL     1      17.156  13.455  19.236  1.00  0.00     0.056 A 
HETATM    5  O3  UNL     1      16.886  12.396  19.931  1.00  0.00    -0.310 OA
ENDROOT
BRANCH   4   6
HETATM    6  C6  UNL     1      18.052  14.589  19.609  1.00  0.00     0.105 C 
BRANCH   6   7
HETATM    7  C7  UNL     1      18.842  15.054  18.401  1.00  0.00     0.250 C 
BRANCH   7   8
HETATM    8  N2  UNL     1      20.269  14.999  18.655  1.00  0.00    -0.069 N 
ATOM      9  H23 UNL     1      20.630  14.050  18.564  1.00  0.00     0.275 HD
ATOM     10  H22 UNL     1      20.800  15.441  17.905  1.00  0.00     0.275 HD
ATOM     11  H21 UNL     1      20.498  15.402  19.564  1.00  0.00     0.275 HD
ENDBRANCH   7   8
BRANCH   7  12
HETATM   12  C8  UNL     1      18.475  16.447  18.046  1.00  0.00     0.264 C 
HETATM   13  O2  UNL     1      19.263  17.145  17.437  1.00  0.00    -0.305 OA
ENDBRANCH   7  12
ENDBRANCH   6   7
ENDBRANCH   4   6
BRANCH   1  14
HETATM   14  C1  UNL     1      15.527  10.306  19.781  1.00  0.00     0.288 C 
HETATM   15  N1  UNL     1      14.527   9.627  19.036  1.00  0.00    -0.055 NA
HETATM   16  O1  UNL     1      15.922   9.755  20.839  1.00  0.00    -0.269 OA
ENDBRANCH   1  14
TORSDOF 5
ENDMDL
MODEL 4
REMARK VINA RESULT: -5.873297924      2.161      5.204
REMARK  5 active torsions:
REMARK  status: ('A' for Active; 'I' for Inactive)
REMARK    1  A    between atoms: C1_2  and  C2_4 
REMARK    2  A    between atoms: C5_7  and  C6_8 
REMARK    3  A    between atoms: C6_8  and  C7_9 
REMARK    4  A    between atoms: C7_9  and  N2_10 
REMARK    5  A    between atoms: C7_9  and  C8_14 
ROOT
HETATM    1  C2  UNL     1      17.446  13.141  19.504  1.00  0.00     0.140 A 
HETATM    2  C3  UNL     1      17.283  13.360  18.151  1.00  0.00     0.045 A 
HETATM    3  C4  UNL     1      16.295  12.516  17.711  1.00  0.00     0.036 A 
HETATM    4  C5  UNL     1      15.881  11.799  18.823  1.00  0.00     0.056 A 
HETATM    5  O3  UNL     1      16.587  12.210  19.829  1.00  0.00    -0.310 OA
ENDROOT
BRANCH   4   6
HETATM    6  C6  UNL     1      14.814  10.756  18.822  1.00  0.00     0.105 C 
BRANCH   6   7
HETATM    7  C7  UNL     1      14.574  10.247  20.230  1.00  0.00     0.250 C 
BRANCH   7   8
HETATM    8  N2  UNL     1      15.823   9.909  20.886  1.00  0.00    -0.069 N 
ATOM      9  H23 UNL     1      15.900   8.907  21.053  1.00  0.00     0.275 HD
ATOM     10  H22 UNL     1      16.619  10.024  20.258  1.00  0.00     0.275 HD
ATOM     11  H21 UNL     1      15.944  10.444  21.747  1.00  0.00     0.275 HD
ENDBRANCH   7   8
BRANCH   7  12
HETATM   12  C8  UNL     1      13.709   9.042  20.206  1.00  0.00     0.264 C 
HETATM   13  O2  UNL     1      13.265   8.637  19.148  1.00  0.00    -0.305 OA
ENDBRANCH   7  12
ENDBRANCH   6   7
ENDBRANCH   4   6
BRANCH   1  14
HETATM   14  C1  UNL     1      18.405  13.842  20.348  1.00  0.00     0.288 C 
HETATM   15  N1  UNL     1      19.758  13.421  20.417  1.00  0.00    -0.055 NA
HETATM   16  O1  UNL     1      18.081  14.838  21.043  1.00  0.00    -0.269 OA
ENDBRANCH   1  14
TORSDOF 5
ENDMDL
MODEL 5
REMARK VINA RESULT: -5.777968847      1.727      1.879
REMARK  5 active torsions:
REMARK  status: ('A' for Active; 'I' for Inactive)
REMARK    1  A    between atoms: C1_2  and  C2_4 
REMARK    2  A    between atoms: C5_7  and  C6_8 
REMARK    3  A    between atoms: C6_8  and  C7_9 
REMARK    4  A    between atoms: C7_9  and  N2_10 
REMARK    5  A    between atoms: C7_9  and  C8_14 
ROOT
HETATM    1  C2  UNL     1      15.631  11.063  19.345  1.00  0.00     0.140 A 
HETATM    2  C3  UNL     1      14.775  11.568  18.389  1.00  0.00     0.045 A 
HETATM    3  C4  UNL     1      15.474  12.490  17.652  1.00  0.00     0.036 A 
HETATM    4  C5  UNL     1      16.752  12.519  18.188  1.00  0.00     0.056 A 
HETATM    5  O3  UNL     1      16.776  11.669  19.166  1.00  0.00    -0.310 OA
ENDROOT
BRANCH   4   6
HETATM    6  C6  UNL     1      17.867  13.383  17.701  1.00  0.00     0.105 C 
BRANCH   6   7
HETATM    7  C7  UNL     1      18.229  14.415  18.751  1.00  0.00     0.250 C 
BRANCH   7   8
HETATM    8  N2  UNL     1      17.043  14.967  19.376  1.00  0.00    -0.069 N 
ATOM      9  H23 UNL     1      17.108  15.979  19.477  1.00  0.00     0.275 HD
ATOM     10  H22 UNL     1      16.236  14.924  18.753  1.00  0.00     0.275 HD
ATOM     11  H21 UNL     1      16.851  14.512  20.269  1.00  0.00     0.275 HD
ENDBRANCH   7   8
BRANCH   7  12
HETATM   12  C8  UNL     1      19.005  15.523  18.142  1.00  0.00     0.264 C 
HETATM   13  O2  UNL     1      20.005  15.278  17.494  1.00  0.00    -0.305 OA
ENDBRANCH   7  12
ENDBRANCH   6   7
ENDBRANCH   4   6
BRANCH   1  14
HETATM   14  C1  UNL     1      15.270  10.054  20.333  1.00  0.00     0.288 C 
HETATM   15  N1  UNL     1      13.967   9.492  20.357  1.00  0.00    -0.055 NA
HETATM   16  O1  UNL     1      16.085   9.641  21.196  1.00  0.00    -0.269 OA
ENDBRANCH   1  14
TORSDOF 5
ENDMDL
