MODEL 1
REMARK VINA RESULT: -6.778564241      0.000      0.000
REMARK  5 active torsions:
REMARK  status: ('A' for Active; 'I' for Inactive)
REMARK    1  A    between atoms: N1_1  and  C1_5 
REMARK    2  A    between atoms: C1_5  and  C2_6 
REMARK    3  A    between atoms: C1_5  and  C3_8 
REMARK    4  A    between atoms: C3_8  and  C4_9 
REMARK       I    between atoms: C4_9  and  N2_11 
REMARK    5  A    between atoms: N2_11  and  C5_13 
ROOT
HETATM    1  C4  UNL     1      18.850  14.171  18.034  1.00  0.00     0.225 C 
HETATM    2  O2  UNL     1      19.178  14.190  19.236  1.00  0.00    -0.273 OA
HETATM    3  N2  UNL     1      19.363  15.110  17.129  1.00  0.00    -0.312 N 
ATOM      4  H2  UNL     1      19.049  15.029  16.162  1.00  0.00     0.170 HD
ENDROOT
BRANCH   1   5
HETATM    5  C3  UNL     1      17.905  13.119  17.615  1.00  0.00     0.143 C 
BRANCH   5   6
HETATM    6  C1  UNL     1      16.488  13.424  17.997  1.00  0.00     0.253 C 
BRANCH   6   7
HETATM    7  N1  UNL     1      16.443  14.631  18.796  1.00  0.00    -0.068 N 
ATOM      8  H13 UNL     1      15.852  14.535  19.622  1.00  0.00     0.275 HD
ATOM      9  H12 UNL     1      17.323  14.816  19.277  1.00  0.00     0.275 HD
ATOM     10  H11 UNL     1      16.155  15.403  18.195  1.00  0.00     0.275 HD
ENDBRANCH   6   7
BRANCH   6  11
HETATM   11  C2  UNL     1      16.007  12.280  18.844  1.00  0.00     0.264 C 
HETATM   12  O1  UNL     1      16.783  11.485  19.316  1.00  0.00    -0.305 OA
ENDBRANCH   6  11
ENDBRANCH   5   6
ENDBRANCH   1   5
BRANCH   3  13
HETATM   13  C5  UNL     1      20.269  16.157  17.413  1.00  0.00     0.123 A 
HETATM   14  C6  UNL     1      21.635  16.078  17.498  1.00  0.00     0.068 A 
HETATM   15  C7  UNL     1      22.113  17.360  17.799  1.00  0.00     0.111 A 
HETATM   16  N3  UNL     1      21.045  18.159  17.885  1.00  0.00    -0.310 N 
HETATM   17  N4  UNL     1      19.961  17.461  17.659  1.00  0.00    -0.286 N 
ATOM     18  H3  UNL     1      21.071  19.157  18.093  1.00  0.00     0.186 HD
ATOM     19  H4  UNL     1      19.015  17.842  17.666  1.00  0.00     0.188 HD
ENDBRANCH   3  13
TORSDOF 5
ENDMDL
MODEL 2
REMARK VINA RESULT: -6.763031062      1.487      1.602
REMARK  5 active torsions:
REMARK  status: ('A' for Active; 'I' for Inactive)
REMARK    1  A    between atoms: N1_1  and  C1_5 
REMARK    2  A    between atoms: C1_5  and  C2_6 
REMARK    3  A    between atoms: C1_5  and  C3_8 
REMARK    4  A    between atoms: C3_8  and  C4_9 
REMARK       I    between atoms: C4_9  and  N2_11 
REMARK    5  A    between atoms: N2_11  and  C5_13 
ROOT
HETATM    1  C4  UNL     1      17.816  14.341  19.315  1.00  0.00     0.225 C 
HETATM    2  O2  UNL     1      17.053  15.296  19.556  1.00  0.00    -0.273 OA
HETATM    3  N2  UNL     1      19.015  14.531  18.615  1.00  0.00    -0.312 N 
ATOM      4  H2  UNL     1      19.587  13.701  18.458  1.00  0.00     0.170 HD
ENDROOT
BRANCH   1   5
HETATM    5  C3  UNL     1      17.400  13.013  19.803  1.00  0.00     0.143 C 
BRANCH   5   6
HETATM    6  C1  UNL     1      16.474  12.309  18.856  1.00  0.00     0.253 C 
BRANCH   6   7
HETATM    7  N1  UNL     1      15.445  13.223  18.405  1.00  0.00    -0.068 N 
ATOM      8  H13 UNL     1      14.518  12.973  18.748  1.00  0.00     0.275 HD
ATOM      9  H12 UNL     1      15.512  14.140  18.847  1.00  0.00     0.275 HD
ATOM     10  H11 UNL     1      15.487  13.274  17.387  1.00  0.00     0.275 HD
ENDBRANCH   6   7
BRANCH   6  11
HETATM   11  C2  UNL     1      15.814  11.203  19.630  1.00  0.00     0.264 C 
HETATM   12  O1  UNL     1      16.416  10.194  19.912  1.00  0.00    -0.305 OA
ENDBRANCH   6  11
ENDBRANCH   5   6
ENDBRANCH   1   5
BRANCH   3  13
HETATM   13  C5  UNL     1      19.515  15.749  18.102  1.00  0.00     0.123 A 
HETATM   14  C6  UNL     1      20.779  16.001  17.635  1.00  0.00     0.068 A 
HETATM   15  C7  UNL     1      20.819  17.341  17.229  1.00  0.00     0.111 A 
HETATM   16  N3  UNL     1      19.604  17.849  17.457  1.00  0.00    -0.310 N 
HETATM   17  N4  UNL     1      18.835  16.922  17.968  1.00  0.00    -0.286 N 
ATOM     18  H3  UNL     1      19.321  18.809  17.264  1.00  0.00     0.186 HD
ATOM     19  H4  UNL     1      17.858  17.058  18.230  1.00  0.00     0.188 HD
ENDBRANCH   3  13
TORSDOF 5
ENDMDL
MODEL 3
REMARK VINA RESULT: -6.638565879      1.004      1.004
REMARK  5 active torsions:
REMARK  status: ('A' for Active; 'I' for Inactive)
REMARK    1  A    between atoms: N1_1  and  C1_5 
REMARK    2  A    between atoms: C1_5  and  C2_6 
REMARK    3  A    between atoms: C1_5  and  C3_8 
REMARK    4  A    between atoms: C3_8  and  C4_9 
REMARK       I    between atoms: C4_9  and  N2_11 
REMARK    5  A    between atoms: N2_11  and  C5_13 
ROOT
HETATM    1  C4  UNL     1      18.890  14.355  18.142  1.00  0.00     0.225 C 
HETATM    2  O2  UNL     1      19.353  14.289  19.297  1.00  0.00    -0.273 OA
HETATM    3  N2  UNL     1      19.344  15.319  17.233  1.00  0.00    -0.312 N 
ATOM      4  H2  UNL     1      18.918  15.309  16.306  1.00  0.00     0.170 HD
ENDROOT
BRANCH   1   5
HETATM    5  C3  UNL     1      17.849  13.373  17.782  1.00  0.00     0.143 C 
BRANCH   5   6
HETATM    6  C1  UNL     1      16.690  13.378  18.733  1.00  0.00     0.253 C 
BRANCH   6   7
HETATM    7  N1  UNL     1      17.051  12.680  19.951  1.00  0.00    -0.068 N 
ATOM      8  H13 UNL     1      17.100  13.299  20.760  1.00  0.00     0.275 HD
ATOM      9  H12 UNL     1      16.308  12.069  20.289  1.00  0.00     0.275 HD
ATOM     10  H11 UNL     1      17.925  12.181  19.786  1.00  0.00     0.275 HD
ENDBRANCH   6   7
BRANCH   6  11
HETATM   11  C2  UNL     1      15.575  12.620  18.070  1.00  0.00     0.264 C 
HETATM   12  O1  UNL     1      14.610  12.256  18.697  1.00  0.00    -0.305 OA
ENDBRANCH   6  11
ENDBRANCH   5   6
ENDBRANCH   1   5
BRANCH   3  13
HETATM   13  C5  UNL     1      20.331  16.306  17.463  1.00  0.00     0.123 A 
HETATM   14  C6  UNL     1      21.691  16.135  17.487  1.00  0.00     0.068 A 
HETATM   15  C7  UNL     1      22.267  17.384  17.750  1.00  0.00     0.111 A 
HETATM   16  N3  UNL     1      21.260  18.254  17.874  1.00  0.00    -0.310 N 
HETATM   17  N4  UNL     1      20.123  17.629  17.707  1.00  0.00    -0.286 N 
ATOM     18  H3  UNL     1      21.362  19.250  18.070  1.00  0.00     0.186 HD
ATOM     19  H4  UNL     1      19.205  18.073  17.752  1.00  0.00     0.188 HD
ENDBRANCH   3  13
TORSDOF 5
ENDMDL
MODEL 4
REMARK VINA RESULT: -6.373991968      1.386      1.406
REMARK  5 active torsions:
REMARK  status: ('A' for Active; 'I' for Inactive)
REMARK    1  A    between atoms: N1_1  and  C1_5 
REMARK    2  A    between atoms: C1_5  and  C2_6 
REMARK    3  A    between atoms: C1_5  and  C3_8 
REMARK    4  A    between atoms: C3_8  and  C4_9 
REMARK       I    between atoms: C4_9  and  N2_11 
REMARK    5  A    between atoms: N2_11  and  C5_13 
ROOT
HETATM    1  C4  UNL     1      18.112  15.107  18.891  1.00  0.00     0.225 C 
HETATM    2  O2  UNL     1      17.258  16.006  18.772  1.00  0.00    -0.273 OA
HETATM    3  N2  UNL     1      19.432  15.300  18.464  1.00  0.00    -0.312 N 
ATOM      4  H2  UNL     1      20.074  14.518  18.596  1.00  0.00     0.170 HD
ENDROOT
BRANCH   1   5
HETATM    5  C3  UNL     1      17.668  13.839  19.502  1.00  0.00     0.143 C 
BRANCH   5   6
HETATM    6  C1  UNL     1      17.273  12.810  18.485  1.00  0.00     0.253 C 
BRANCH   6   7
HETATM    7  N1  UNL     1      16.720  13.462  17.316  1.00  0.00    -0.068 N 
ATOM      8  H13 UNL     1      16.648  12.837  16.513  1.00  0.00     0.275 HD
ATOM      9  H12 UNL     1      15.727  13.672  17.416  1.00  0.00     0.275 HD
ATOM     10  H11 UNL     1      17.279  14.292  17.118  1.00  0.00     0.275 HD
ENDBRANCH   6   7
BRANCH   6  11
HETATM   11  C2  UNL     1      16.196  11.969  19.109  1.00  0.00     0.264 C 
HETATM   12  O1  UNL     1      16.450  10.895  19.601  1.00  0.00    -0.305 OA
ENDBRANCH   6  11
ENDBRANCH   5   6
ENDBRANCH   1   5
BRANCH   3  13
HETATM   13  C5  UNL     1      19.971  16.464  17.868  1.00  0.00     0.123 A 
HETATM   14  C6  UNL     1      21.264  16.673  17.466  1.00  0.00     0.068 A 
HETATM   15  C7  UNL     1      21.336  17.966  16.933  1.00  0.00     0.111 A 
HETATM   16  N3  UNL     1      20.110  18.489  17.027  1.00  0.00    -0.310 N 
HETATM   17  N4  UNL     1      19.304  17.614  17.573  1.00  0.00    -0.286 N 
ATOM     18  H3  UNL     1      19.843  19.425  16.720  1.00  0.00     0.186 HD
ATOM     19  H4  UNL     1      18.313  17.772  17.753  1.00  0.00     0.188 HD
ENDBRANCH   3  13
TORSDOF 5
ENDMDL
MODEL 5
REMARK VINA RESULT: -6.240476747      1.559      1.823
REMARK  5 active torsions:
REMARK  status: ('A' for Active; 'I' for Inactive)
REMARK    1  A    between atoms: N1_1  and  C1_5 
REMARK    2  A    between atoms: C1_5  and  C2_6 
REMARK    3  A    between atoms: C1_5  and  C3_8 
REMARK    4  A    between atoms: C3_8  and  C4_9 
REMARK       I    between atoms: C4_9  and  N2_11 
REMARK    5  A    between atoms: N2_11  and  C5_13 
ROOT
HETATM    1  C4  UNL     1      19.150  14.735  18.175  1.00  0.00     0.225 C 
HETATM    2  O2  UNL     1      19.766  14.501  19.232  1.00  0.00    -0.273 OA
HETATM    3  N2  UNL     1      19.584  15.729  17.288  1.00  0.00    -0.312 N 
ATOM      4  H2  UNL     1      19.029  15.860  16.443  1.00  0.00     0.170 HD
ENDROOT
BRANCH   1   5
HETATM    5  C3  UNL     1      17.952  13.917  17.904  1.00  0.00     0.143 C 
BRANCH   5   6
HETATM    6  C1  UNL     1      16.819  14.216  18.840  1.00  0.00     0.253 C 
BRANCH   6   7
HETATM    7  N1  UNL     1      15.671  13.401  18.496  1.00  0.00    -0.068 N 
ATOM      8  H13 UNL     1      15.852  12.403  18.599  1.00  0.00     0.275 HD
ATOM      9  H12 UNL     1      14.918  13.476  19.179  1.00  0.00     0.275 HD
ATOM     10  H11 UNL     1      15.373  13.651  17.553  1.00  0.00     0.275 HD
ENDBRANCH   6   7
BRANCH   6  11
HETATM   11  C2  UNL     1      16.451  15.658  18.635  1.00  0.00     0.264 C 
HETATM   12  O1  UNL     1      15.335  16.055  18.870  1.00  0.00    -0.305 OA
ENDBRANCH   6  11
ENDBRANCH   5   6
ENDBRANCH   1   5
BRANCH   3  13
HETATM   13  C5  UNL     1      20.710  16.570  17.440  1.00  0.00     0.123 A 
HETATM   14  C6  UNL     1      22.032  16.212  17.385  1.00  0.00     0.068 A 
HETATM   15  C7  UNL     1      22.791  17.371  17.590  1.00  0.00     0.111 A 
HETATM   16  N3  UNL     1      21.924  18.374  17.759  1.00  0.00    -0.310 N 
HETATM   17  N4  UNL     1      20.703  17.912  17.672  1.00  0.00    -0.286 N 
ATOM     18  H3  UNL     1      22.175  19.348  17.930  1.00  0.00     0.186 HD
ATOM     19  H4  UNL     1      19.861  18.480  17.765  1.00  0.00     0.188 HD
ENDBRANCH   3  13
TORSDOF 5
ENDMDL
