MODEL 1
REMARK VINA RESULT: -6.349441462      0.000      0.000
REMARK  4 active torsions:
REMARK  status: ('A' for Active; 'I' for Inactive)
REMARK    1  A    between atoms: C1_2  and  C2_4 
REMARK    2  A    between atoms: C2_4  and  N2_5 
REMARK    3  A    between atoms: C2_4  and  C3_9 
REMARK    4  A    between atoms: C3_9  and  C4_10 
ROOT
HETATM    1  C3  UNL     1      19.682  14.967  17.885  1.00  0.00     0.082 C 
ENDROOT
BRANCH   1   2
HETATM    2  C2  UNL     1      18.598  14.968  18.928  1.00  0.00     0.276 C 
BRANCH   2   3
HETATM    3  C1  UNL     1      18.735  13.694  19.667  1.00  0.00     0.262 C 
HETATM    4  N1  UNL     1      20.006  13.303  20.165  1.00  0.00    -0.060 NA
HETATM    5  O1  UNL     1      17.741  12.972  19.853  1.00  0.00    -0.275 OA
ENDBRANCH   2   3
BRANCH   2   6
HETATM    6  N2  UNL     1      17.312  14.929  18.252  1.00  0.00    -0.067 N 
ATOM      7  H23 UNL     1      17.184  15.692  17.588  1.00  0.00     0.275 HD
ATOM      8  H22 UNL     1      17.233  14.161  17.585  1.00  0.00     0.275 HD
ATOM      9  H21 UNL     1      16.594  14.905  18.978  1.00  0.00     0.275 HD
ENDBRANCH   2   6
ENDBRANCH   1   2
BRANCH   1  10
HETATM   10  C4  UNL     1      20.310  16.260  17.638  1.00  0.00    -0.029 A 
HETATM   11  C5  UNL     1      19.661  17.356  17.120  1.00  0.00     0.026 A 
HETATM   12  C6  UNL     1      20.249  18.570  16.884  1.00  0.00     0.088 A 
HETATM   13  N3  UNL     1      21.574  18.684  17.187  1.00  0.00    -0.373 N 
HETATM   14  C7  UNL     1      22.243  17.638  17.693  1.00  0.00     0.114 A 
ATOM     15  H3  UNL     1      22.058  19.568  17.028  1.00  0.00     0.164 HD
HETATM   16  C8  UNL     1      21.654  16.404  17.938  1.00  0.00     0.068 A 
HETATM   17  N4  UNL     1      22.414  15.336  18.487  1.00  0.00    -0.100 NA
ENDBRANCH   1  10
TORSDOF 4
ENDMDL
MODEL 2
REMARK VINA RESULT: -6.160638711      2.792      4.151
REMARK  4 active torsions:
REMARK  status: ('A' for Active; 'I' for Inactive)
REMARK    1  A    between atoms: C1_2  and  C2_4 
REMARK    2  A    between atoms: C2_4  and  N2_5 
REMARK    3  A    between atoms: C2_4  and  C3_9 
REMARK    4  A    between atoms: C3_9  and  C4_10 
ROOT
HETATM    1  C3  UNL     1      16.404  13.408  18.110  1.00  0.00     0.082 C 
ENDROOT
BRANCH   1   2
HETATM    2  C2  UNL     1      16.787  12.258  19.000  1.00  0.00     0.276 C 
BRANCH   2   3
HETATM    3  C1  UNL     1      15.557  11.461  19.197  1.00  0.00     0.262 C 
HETATM    4  N1  UNL     1      15.642  10.166  19.774  1.00  0.00    -0.060 NA
HETATM    5  O1  UNL     1      14.454  11.924  18.861  1.00  0.00    -0.275 OA
ENDBRANCH   2   3
BRANCH   2   6
HETATM    6  N2  UNL     1      17.159  12.790  20.301  1.00  0.00    -0.067 N 
ATOM      7  H23 UNL     1      17.737  12.150  20.846  1.00  0.00     0.275 HD
ATOM      8  H22 UNL     1      17.831  13.555  20.243  1.00  0.00     0.275 HD
ATOM      9  H21 UNL     1      16.293  13.051  20.775  1.00  0.00     0.275 HD
ENDBRANCH   2   6
ENDBRANCH   1   2
BRANCH   1  10
HETATM   10  C4  UNL     1      17.365  14.504  18.059  1.00  0.00    -0.029 A 
HETATM   11  C5  UNL     1      18.676  14.374  17.666  1.00  0.00     0.026 A 
HETATM   12  C6  UNL     1      19.582  15.399  17.620  1.00  0.00     0.088 A 
HETATM   13  N3  UNL     1      19.139  16.633  17.998  1.00  0.00    -0.373 N 
HETATM   14  C7  UNL     1      17.867  16.802  18.389  1.00  0.00     0.114 A 
ATOM     15  H3  UNL     1      19.776  17.429  17.983  1.00  0.00     0.164 HD
HETATM   16  C8  UNL     1      16.941  15.767  18.435  1.00  0.00     0.068 A 
HETATM   17  N4  UNL     1      15.603  16.012  18.848  1.00  0.00    -0.100 NA
ENDBRANCH   1  10
TORSDOF 4
ENDMDL
MODEL 3
REMARK VINA RESULT: -6.077710742      1.108      1.953
REMARK  4 active torsions:
REMARK  status: ('A' for Active; 'I' for Inactive)
REMARK    1  A    between atoms: C1_2  and  C2_4 
REMARK    2  A    between atoms: C2_4  and  N2_5 
REMARK    3  A    between atoms: C2_4  and  C3_9 
REMARK    4  A    between atoms: C3_9  and  C4_10 
ROOT
HETATM    1  C3  UNL     1      19.690  15.091  17.681  1.00  0.00     0.082 C 
ENDROOT
BRANCH   1   2
HETATM    2  C2  UNL     1      18.897  15.119  18.958  1.00  0.00     0.276 C 
BRANCH   2   3
HETATM    3  C1  UNL     1      18.904  13.734  19.479  1.00  0.00     0.262 C 
HETATM    4  N1  UNL     1      20.043  13.251  20.176  1.00  0.00    -0.060 NA
HETATM    5  O1  UNL     1      17.916  13.001  19.310  1.00  0.00    -0.275 OA
ENDBRANCH   2   3
BRANCH   2   6
HETATM    6  N2  UNL     1      17.517  15.441  18.634  1.00  0.00    -0.067 N 
ATOM      7  H23 UNL     1      16.841  14.877  19.148  1.00  0.00     0.275 HD
ATOM      8  H22 UNL     1      17.224  16.351  18.989  1.00  0.00     0.275 HD
ATOM      9  H21 UNL     1      17.422  15.357  17.621  1.00  0.00     0.275 HD
ENDBRANCH   2   6
ENDBRANCH   1   2
BRANCH   1  10
HETATM   10  C4  UNL     1      20.859  15.963  17.654  1.00  0.00    -0.029 A 
HETATM   11  C5  UNL     1      22.148  15.545  17.887  1.00  0.00     0.026 A 
HETATM   12  C6  UNL     1      23.247  16.362  17.865  1.00  0.00     0.088 A 
HETATM   13  N3  UNL     1      23.032  17.681  17.596  1.00  0.00    -0.373 N 
HETATM   14  C7  UNL     1      21.789  18.129  17.364  1.00  0.00     0.114 A 
ATOM     15  H3  UNL     1      23.819  18.330  17.570  1.00  0.00     0.164 HD
HETATM   16  C8  UNL     1      20.670  17.306  17.381  1.00  0.00     0.068 A 
HETATM   17  N4  UNL     1      19.378  17.839  17.116  1.00  0.00    -0.100 NA
ENDBRANCH   1  10
TORSDOF 4
ENDMDL
MODEL 4
REMARK VINA RESULT: -5.929260591      2.076      2.882
REMARK  4 active torsions:
REMARK  status: ('A' for Active; 'I' for Inactive)
REMARK    1  A    between atoms: C1_2  and  C2_4 
REMARK    2  A    between atoms: C2_4  and  N2_5 
REMARK    3  A    between atoms: C2_4  and  C3_9 
REMARK    4  A    between atoms: C3_9  and  C4_10 
ROOT
HETATM    1  C3  UNL     1      17.432  14.279  19.220  1.00  0.00     0.082 C 
ENDROOT
BRANCH   1   2
HETATM    2  C2  UNL     1      16.547  13.767  18.116  1.00  0.00     0.276 C 
BRANCH   2   3
HETATM    3  C1  UNL     1      15.933  12.521  18.624  1.00  0.00     0.262 C 
HETATM    4  N1  UNL     1      16.735  11.570  19.309  1.00  0.00    -0.060 NA
HETATM    5  O1  UNL     1      14.720  12.311  18.455  1.00  0.00    -0.275 OA
ENDBRANCH   2   3
BRANCH   2   6
HETATM    6  N2  UNL     1      17.389  13.396  16.990  1.00  0.00    -0.067 N 
ATOM      7  H23 UNL     1      16.858  13.186  16.145  1.00  0.00     0.275 HD
ATOM      8  H22 UNL     1      17.925  14.179  16.616  1.00  0.00     0.275 HD
ATOM      9  H21 UNL     1      17.974  12.620  17.299  1.00  0.00     0.275 HD
ENDBRANCH   2   6
ENDBRANCH   1   2
BRANCH   1  10
HETATM   10  C4  UNL     1      18.679  14.896  18.783  1.00  0.00    -0.029 A 
HETATM   11  C5  UNL     1      18.760  15.989  17.952  1.00  0.00     0.026 A 
HETATM   12  C6  UNL     1      19.929  16.568  17.538  1.00  0.00     0.088 A 
HETATM   13  N3  UNL     1      21.089  16.009  17.987  1.00  0.00    -0.373 N 
HETATM   14  C7  UNL     1      21.054  14.942  18.799  1.00  0.00     0.114 A 
ATOM     15  H3  UNL     1      21.987  16.404  17.705  1.00  0.00     0.164 HD
HETATM   16  C8  UNL     1      19.872  14.350  19.226  1.00  0.00     0.068 A 
HETATM   17  N4  UNL     1      19.900  13.227  20.096  1.00  0.00    -0.100 NA
ENDBRANCH   1  10
TORSDOF 4
ENDMDL
MODEL 5
REMARK VINA RESULT: -5.833766487      2.486      4.934
REMARK  4 active torsions:
REMARK  status: ('A' for Active; 'I' for Inactive)
REMARK    1  A    between atoms: C1_2  and  C2_4 
REMARK    2  A    between atoms: C2_4  and  N2_5 
REMARK    3  A    between atoms: C2_4  and  C3_9 
REMARK    4  A    between atoms: C3_9  and  C4_10 
ROOT
HETATM    1  C3  UNL     1      20.007  14.946  18.557  1.00  0.00     0.082 C 
ENDROOT
BRANCH   1   2
HETATM    2  C2  UNL     1      20.264  15.943  17.460  1.00  0.00     0.276 C 
BRANCH   2   3
HETATM    3  C1  UNL     1      21.645  16.431  17.661  1.00  0.00     0.262 C 
HETATM    4  N1  UNL     1      22.549  15.678  18.456  1.00  0.00    -0.060 NA
HETATM    5  O1  UNL     1      22.012  17.494  17.134  1.00  0.00    -0.275 OA
ENDBRANCH   2   3
BRANCH   2   6
HETATM    6  N2  UNL     1      19.380  17.079  17.657  1.00  0.00    -0.067 N 
ATOM      7  H23 UNL     1      19.869  17.919  17.965  1.00  0.00     0.275 HD
ATOM      8  H22 UNL     1      19.010  17.456  16.784  1.00  0.00     0.275 HD
ATOM      9  H21 UNL     1      18.650  16.780  18.305  1.00  0.00     0.275 HD
ENDBRANCH   2   6
ENDBRANCH   1   2
BRANCH   1  10
HETATM   10  C4  UNL     1      18.768  14.186  18.431  1.00  0.00    -0.029 A 
HETATM   11  C5  UNL     1      18.135  13.919  17.240  1.00  0.00     0.026 A 
HETATM   12  C6  UNL     1      16.971  13.209  17.119  1.00  0.00     0.088 A 
HETATM   13  N3  UNL     1      16.408  12.743  18.270  1.00  0.00    -0.373 N 
HETATM   14  C7  UNL     1      16.994  12.983  19.452  1.00  0.00     0.114 A 
ATOM     15  H3  UNL     1      15.539  12.210  18.233  1.00  0.00     0.164 HD
HETATM   16  C8  UNL     1      18.177  13.700  19.584  1.00  0.00     0.068 A 
HETATM   17  N4  UNL     1      18.755  13.911  20.865  1.00  0.00    -0.100 NA
ENDBRANCH   1  10
TORSDOF 4
ENDMDL
