MODEL 1
REMARK VINA RESULT: -5.168414056      0.000      0.000
REMARK  4 active torsions:
REMARK  status: ('A' for Active; 'I' for Inactive)
REMARK    1  A    between atoms: C1_2  and  C2_4 
REMARK    2  A    between atoms: C2_4  and  C3_5 
REMARK    3  A    between atoms: C3_5  and  N2_6 
REMARK    4  A    between atoms: C3_5  and  C4_10 
ROOT
HETATM    1  C3  UNL     1      19.015  14.979  18.023  1.00  0.00     0.214 C 
ENDROOT
BRANCH   1   2
HETATM    2  C2  UNL     1      19.448  14.207  19.234  1.00  0.00     0.134 C 
BRANCH   2   3
HETATM    3  C1  UNL     1      18.243  13.999  20.082  1.00  0.00     0.233 C 
HETATM    4  N1  UNL     1      17.336  12.937  19.869  1.00  0.00    -0.062 NA
HETATM    5  O1  UNL     1      18.061  14.821  21.015  1.00  0.00    -0.277 OA
ENDBRANCH   2   3
ENDBRANCH   1   2
BRANCH   1   6
HETATM    6  N2  UNL     1      17.820  15.726  18.364  1.00  0.00    -0.073 N 
ATOM      7  H23 UNL     1      17.046  15.540  17.726  1.00  0.00     0.274 HD
ATOM      8  H22 UNL     1      17.378  15.390  19.219  1.00  0.00     0.274 HD
ATOM      9  H21 UNL     1      18.063  16.716  18.410  1.00  0.00     0.274 HD
ENDBRANCH   1   6
BRANCH   1  10
HETATM   10  C4  UNL     1      20.120  15.858  17.470  1.00  0.00     0.116 C 
HETATM   11  C5  UNL     1      19.802  17.306  17.546  1.00  0.00     0.100 C 
HETATM   12  S1  UNL     1      21.172  18.207  16.718  1.00  0.00    -0.165 SA
HETATM   13  C6  UNL     1      22.682  17.404  17.365  1.00  0.00     0.093 C 
HETATM   14  C7  UNL     1      22.231  16.473  18.468  1.00  0.00     0.124 C 
HETATM   15  N3  UNL     1      21.345  15.454  18.057  1.00  0.00    -0.414 N 
ATOM     16  H3  UNL     1      21.576  14.469  18.177  1.00  0.00     0.153 HD
ENDBRANCH   1  10
TORSDOF 4
ENDMDL
MODEL 2
REMARK VINA RESULT: -5.140352236      1.981      2.268
REMARK  4 active torsions:
REMARK  status: ('A' for Active; 'I' for Inactive)
REMARK    1  A    between atoms: C1_2  and  C2_4 
REMARK    2  A    between atoms: C2_4  and  C3_5 
REMARK    3  A    between atoms: C3_5  and  N2_6 
REMARK    4  A    between atoms: C3_5  and  C4_10 
ROOT
HETATM    1  C3  UNL     1      17.816  15.135  18.381  1.00  0.00     0.214 C 
ENDROOT
BRANCH   1   2
HETATM    2  C2  UNL     1      17.896  13.736  17.846  1.00  0.00     0.134 C 
BRANCH   2   3
HETATM    3  C1  UNL     1      16.939  12.907  18.629  1.00  0.00     0.233 C 
HETATM    4  N1  UNL     1      15.556  12.863  18.339  1.00  0.00    -0.062 NA
HETATM    5  O1  UNL     1      17.417  12.233  19.575  1.00  0.00    -0.277 OA
ENDBRANCH   2   3
ENDBRANCH   1   2
BRANCH   1   6
HETATM    6  N2  UNL     1      17.258  15.080  19.717  1.00  0.00    -0.073 N 
ATOM      7  H23 UNL     1      16.696  14.243  19.875  1.00  0.00     0.274 HD
ATOM      8  H22 UNL     1      17.965  14.908  20.432  1.00  0.00     0.274 HD
ATOM      9  H21 UNL     1      16.735  15.941  19.882  1.00  0.00     0.274 HD
ENDBRANCH   1   6
BRANCH   1  10
HETATM   10  C4  UNL     1      19.151  15.853  18.330  1.00  0.00     0.116 C 
HETATM   11  C5  UNL     1      20.171  15.124  17.537  1.00  0.00     0.100 C 
HETATM   12  S1  UNL     1      21.747  16.054  17.692  1.00  0.00    -0.165 SA
HETATM   13  C6  UNL     1      21.252  17.799  17.460  1.00  0.00     0.093 C 
HETATM   14  C7  UNL     1      19.803  17.778  17.027  1.00  0.00     0.124 C 
HETATM   15  N3  UNL     1      18.916  17.200  17.961  1.00  0.00    -0.414 N 
ATOM     16  H3  UNL     1      18.138  17.731  18.353  1.00  0.00     0.153 HD
ENDBRANCH   1  10
TORSDOF 4
ENDMDL
MODEL 3
REMARK VINA RESULT: -5.115502318      1.881      2.141
REMARK  4 active torsions:
REMARK  status: ('A' for Active; 'I' for Inactive)
REMARK    1  A    between atoms: C1_2  and  C2_4 
REMARK    2  A    between atoms: C2_4  and  C3_5 
REMARK    3  A    between atoms: C3_5  and  N2_6 
REMARK    4  A    between atoms: C3_5  and  C4_10 
ROOT
HETATM    1  C3  UNL     1      17.906  15.326  18.442  1.00  0.00     0.214 C 
ENDROOT
BRANCH   1   2
HETATM    2  C2  UNL     1      17.828  14.416  19.632  1.00  0.00     0.134 C 
BRANCH   2   3
HETATM    3  C1  UNL     1      17.463  13.063  19.131  1.00  0.00     0.233 C 
HETATM    4  N1  UNL     1      16.665  12.165  19.877  1.00  0.00    -0.062 NA
HETATM    5  O1  UNL     1      17.899  12.742  17.998  1.00  0.00    -0.277 OA
ENDBRANCH   2   3
ENDBRANCH   1   2
BRANCH   1   6
HETATM    6  N2  UNL     1      16.778  16.235  18.490  1.00  0.00    -0.073 N 
ATOM      7  H23 UNL     1      15.896  15.778  18.259  1.00  0.00     0.274 HD
ATOM      8  H22 UNL     1      16.542  16.518  19.441  1.00  0.00     0.274 HD
ATOM      9  H21 UNL     1      16.981  17.029  17.883  1.00  0.00     0.274 HD
ENDBRANCH   1   6
BRANCH   1  10
HETATM   10  C4  UNL     1      19.238  16.046  18.349  1.00  0.00     0.116 C 
HETATM   11  C5  UNL     1      20.247  15.296  17.561  1.00  0.00     0.100 C 
HETATM   12  S1  UNL     1      21.823  16.234  17.663  1.00  0.00    -0.165 SA
HETATM   13  C6  UNL     1      21.320  17.971  17.389  1.00  0.00     0.093 C 
HETATM   14  C7  UNL     1      19.864  17.934  16.980  1.00  0.00     0.124 C 
HETATM   15  N3  UNL     1      18.994  17.381  17.945  1.00  0.00    -0.414 N 
ATOM     16  H3  UNL     1      18.221  17.921  18.333  1.00  0.00     0.153 HD
ENDBRANCH   1  10
TORSDOF 4
ENDMDL
MODEL 4
REMARK VINA RESULT: -5.103969256      3.737      5.055
REMARK  4 active torsions:
REMARK  status: ('A' for Active; 'I' for Inactive)
REMARK    1  A    between atoms: C1_2  and  C2_4 
REMARK    2  A    between atoms: C2_4  and  C3_5 
REMARK    3  A    between atoms: C3_5  and  N2_6 
REMARK    4  A    between atoms: C3_5  and  C4_10 
ROOT
HETATM    1  C3  UNL     1      15.751  11.797  18.828  1.00  0.00     0.214 C 
ENDROOT
BRANCH   1   2
HETATM    2  C2  UNL     1      15.535  11.102  20.140  1.00  0.00     0.134 C 
BRANCH   2   3
HETATM    3  C1  UNL     1      14.512  10.044  19.917  1.00  0.00     0.233 C 
HETATM    4  N1  UNL     1      14.163   9.581  18.628  1.00  0.00    -0.062 NA
HETATM    5  O1  UNL     1      13.959   9.569  20.940  1.00  0.00    -0.277 OA
ENDBRANCH   2   3
ENDBRANCH   1   2
BRANCH   1   6
HETATM    6  N2  UNL     1      14.607  12.648  18.570  1.00  0.00    -0.073 N 
ATOM      7  H23 UNL     1      14.354  12.676  17.582  1.00  0.00     0.274 HD
ATOM      8  H22 UNL     1      13.736  12.253  18.923  1.00  0.00     0.274 HD
ATOM      9  H21 UNL     1      14.803  13.573  18.953  1.00  0.00     0.274 HD
ENDBRANCH   1   6
BRANCH   1  10
HETATM   10  C4  UNL     1      17.067  12.550  18.781  1.00  0.00     0.116 C 
HETATM   11  C5  UNL     1      17.081  13.628  17.761  1.00  0.00     0.100 C 
HETATM   12  S1  UNL     1      18.775  14.338  17.745  1.00  0.00    -0.165 SA
HETATM   13  C6  UNL     1      19.189  14.529  19.516  1.00  0.00     0.093 C 
HETATM   14  C7  UNL     1      17.921  14.235  20.285  1.00  0.00     0.124 C 
HETATM   15  N3  UNL     1      17.407  12.933  20.102  1.00  0.00    -0.414 N 
ATOM     16  H3  UNL     1      17.286  12.294  20.888  1.00  0.00     0.153 HD
ENDBRANCH   1  10
TORSDOF 4
ENDMDL
MODEL 5
REMARK VINA RESULT: -4.948332080      1.450      1.505
REMARK  4 active torsions:
REMARK  status: ('A' for Active; 'I' for Inactive)
REMARK    1  A    between atoms: C1_2  and  C2_4 
REMARK    2  A    between atoms: C2_4  and  C3_5 
REMARK    3  A    between atoms: C3_5  and  N2_6 
REMARK    4  A    between atoms: C3_5  and  C4_10 
ROOT
HETATM    1  C3  UNL     1      18.581  15.119  18.356  1.00  0.00     0.214 C 
ENDROOT
BRANCH   1   2
HETATM    2  C2  UNL     1      18.238  13.820  17.689  1.00  0.00     0.134 C 
BRANCH   2   3
HETATM    3  C1  UNL     1      17.055  13.258  18.395  1.00  0.00     0.233 C 
HETATM    4  N1  UNL     1      17.082  12.002  19.045  1.00  0.00    -0.062 NA
HETATM    5  O1  UNL     1      16.010  13.955  18.392  1.00  0.00    -0.277 OA
ENDBRANCH   2   3
ENDBRANCH   1   2
BRANCH   1   6
HETATM    6  N2  UNL     1      18.782  14.865  19.769  1.00  0.00    -0.073 N 
ATOM      7  H23 UNL     1      18.602  15.687  20.345  1.00  0.00     0.274 HD
ATOM      8  H22 UNL     1      18.065  14.259  20.165  1.00  0.00     0.274 HD
ATOM      9  H21 UNL     1      19.724  14.494  19.896  1.00  0.00     0.274 HD
ENDBRANCH   1   6
BRANCH   1  10
HETATM   10  C4  UNL     1      19.766  15.809  17.708  1.00  0.00     0.116 C 
HETATM   11  C5  UNL     1      19.663  17.289  17.741  1.00  0.00     0.100 C 
HETATM   12  S1  UNL     1      21.095  17.954  16.804  1.00  0.00    -0.165 SA
HETATM   13  C6  UNL     1      22.511  16.963  17.401  1.00  0.00     0.093 C 
HETATM   14  C7  UNL     1      21.998  16.144  18.564  1.00  0.00     0.124 C 
HETATM   15  N3  UNL     1      20.952  15.252  18.244  1.00  0.00    -0.414 N 
ATOM     16  H3  UNL     1      21.047  14.247  18.393  1.00  0.00     0.153 HD
ENDBRANCH   1  10
TORSDOF 4
ENDMDL
