MODEL 1
REMARK VINA RESULT: -6.468114523      0.000      0.000
REMARK  6 active torsions:
REMARK  status: ('A' for Active; 'I' for Inactive)
REMARK    1  A    between atoms: C2_2  and  N1_3 
REMARK    2  A    between atoms: N1_3  and  N2_5 
REMARK       I    between atoms: N2_5  and  C3_7 
REMARK    3  A    between atoms: C3_7  and  C4_9 
REMARK    4  A    between atoms: C4_9  and  N3_10 
REMARK    5  A    between atoms: C4_9  and  C5_14 
REMARK    6  A    between atoms: C5_14  and  C6_15 
ROOT
HETATM    1  C4  UNL     1      18.228  15.121  18.857  1.00  0.00     0.282 C 
ENDROOT
BRANCH   1   2
HETATM    2  C3  UNL     1      18.010  13.783  19.464  1.00  0.00     0.267 C 
HETATM    3  N2  UNL     1      16.729  13.158  19.468  1.00  0.00    -0.262 N 
ATOM      4  H2  UNL     1      15.919  13.616  19.050  1.00  0.00     0.190 HD
HETATM    5  O1  UNL     1      18.969  13.195  19.981  1.00  0.00    -0.269 OA
BRANCH   3   6
HETATM    6  N1  UNL     1      16.616  11.904  20.058  1.00  0.00    -0.267 N 
ATOM      7  H1  UNL     1      17.323  11.589  20.723  1.00  0.00     0.196 HD
BRANCH   6   8
HETATM    8  C2  UNL     1      15.621  11.138  19.769  1.00  0.00    -0.059 C 
HETATM    9  C1  UNL     1      14.622  10.299  19.829  1.00  0.00     0.124 C 
ENDBRANCH   6   8
ENDBRANCH   3   6
ENDBRANCH   1   2
BRANCH   1  10
HETATM   10  N3  UNL     1      16.933  15.634  18.376  1.00  0.00    -0.066 N 
ATOM     11  H33 UNL     1      16.504  15.024  17.681  1.00  0.00     0.275 HD
ATOM     12  H32 UNL     1      16.201  15.576  19.084  1.00  0.00     0.275 HD
ATOM     13  H31 UNL     1      17.068  16.585  18.031  1.00  0.00     0.275 HD
ENDBRANCH   1  10
BRANCH   1  14
HETATM   14  C5  UNL     1      19.195  15.084  17.701  1.00  0.00     0.101 C 
BRANCH  14  15
HETATM   15  C6  UNL     1      20.136  16.198  17.628  1.00  0.00     0.028 A 
HETATM   16  C7  UNL     1      19.818  17.499  17.260  1.00  0.00     0.114 A 
HETATM   17  N4  UNL     1      20.936  18.232  17.293  1.00  0.00    -0.360 N 
HETATM   18  C8  UNL     1      21.942  17.437  17.667  1.00  0.00     0.180 A 
ATOM     19  H4  UNL     1      21.008  19.226  17.071  1.00  0.00     0.166 HD
HETATM   20  N5  UNL     1      21.459  16.203  17.870  1.00  0.00    -0.355 N 
ATOM     21  H5  UNL     1      22.008  15.395  18.162  1.00  0.00     0.166 HD
ENDBRANCH  14  15
ENDBRANCH   1  14
TORSDOF 6
ENDMDL
MODEL 2
REMARK VINA RESULT: -6.354451715      0.784      1.058
REMARK  6 active torsions:
REMARK  status: ('A' for Active; 'I' for Inactive)
REMARK    1  A    between atoms: C2_2  and  N1_3 
REMARK    2  A    between atoms: N1_3  and  N2_5 
REMARK       I    between atoms: N2_5  and  C3_7 
REMARK    3  A    between atoms: C3_7  and  C4_9 
REMARK    4  A    between atoms: C4_9  and  N3_10 
REMARK    5  A    between atoms: C4_9  and  C5_14 
REMARK    6  A    between atoms: C5_14  and  C6_15 
ROOT
HETATM    1  C4  UNL     1      17.986  15.118  18.993  1.00  0.00     0.282 C 
ENDROOT
BRANCH   1   2
HETATM    2  C3  UNL     1      17.659  13.866  19.722  1.00  0.00     0.267 C 
HETATM    3  N2  UNL     1      16.635  12.981  19.276  1.00  0.00    -0.262 N 
ATOM      4  H2  UNL     1      16.094  13.184  18.435  1.00  0.00     0.190 HD
HETATM    5  O1  UNL     1      18.295  13.585  20.747  1.00  0.00    -0.269 OA
BRANCH   3   6
HETATM    6  N1  UNL     1      16.396  11.831  20.020  1.00  0.00    -0.267 N 
ATOM      7  H1  UNL     1      17.039  11.565  20.767  1.00  0.00     0.196 HD
BRANCH   6   8
HETATM    8  C2  UNL     1      15.365  11.100  19.770  1.00  0.00    -0.059 C 
HETATM    9  C1  UNL     1      14.550  10.198  19.291  1.00  0.00     0.124 C 
ENDBRANCH   6   8
ENDBRANCH   3   6
ENDBRANCH   1   2
BRANCH   1  10
HETATM   10  N3  UNL     1      16.744  15.661  18.413  1.00  0.00    -0.066 N 
ATOM     11  H33 UNL     1      16.855  16.616  18.074  1.00  0.00     0.275 HD
ATOM     12  H32 UNL     1      16.504  15.224  17.524  1.00  0.00     0.275 HD
ATOM     13  H31 UNL     1      15.999  15.576  19.104  1.00  0.00     0.275 HD
ENDBRANCH   1  10
BRANCH   1  14
HETATM   14  C5  UNL     1      18.985  14.902  17.886  1.00  0.00     0.101 C 
BRANCH  14  15
HETATM   15  C6  UNL     1      19.892  16.016  17.626  1.00  0.00     0.028 A 
HETATM   16  C7  UNL     1      21.280  15.943  17.626  1.00  0.00     0.114 A 
HETATM   17  N4  UNL     1      21.766  17.162  17.366  1.00  0.00    -0.360 N 
HETATM   18  C8  UNL     1      20.734  17.995  17.205  1.00  0.00     0.180 A 
ATOM     19  H4  UNL     1      22.753  17.412  17.302  1.00  0.00     0.166 HD
HETATM   20  N5  UNL     1      19.597  17.302  17.362  1.00  0.00    -0.355 N 
ATOM     21  H5  UNL     1      18.656  17.689  17.294  1.00  0.00     0.166 HD
ENDBRANCH  14  15
ENDBRANCH   1  14
TORSDOF 6
ENDMDL
MODEL 3
REMARK VINA RESULT: -6.166499746      1.267      1.267
REMARK  6 active torsions:
REMARK  status: ('A' for Active; 'I' for Inactive)
REMARK    1  A    between atoms: C2_2  and  N1_3 
REMARK    2  A    between atoms: N1_3  and  N2_5 
REMARK       I    between atoms: N2_5  and  C3_7 
REMARK    3  A    between atoms: C3_7  and  C4_9 
REMARK    4  A    between atoms: C4_9  and  N3_10 
REMARK    5  A    between atoms: C4_9  and  C5_14 
REMARK    6  A    between atoms: C5_14  and  C6_15 
ROOT
HETATM    1  C4  UNL     1      18.722  14.245  18.498  1.00  0.00     0.282 C 
ENDROOT
BRANCH   1   2
HETATM    2  C3  UNL     1      17.492  13.455  18.236  1.00  0.00     0.267 C 
HETATM    3  N2  UNL     1      16.727  12.880  19.292  1.00  0.00    -0.262 N 
ATOM      4  H2  UNL     1      17.007  12.995  20.267  1.00  0.00     0.190 HD
HETATM    5  O1  UNL     1      17.121  13.293  17.066  1.00  0.00    -0.269 OA
BRANCH   3   6
HETATM    6  N1  UNL     1      15.590  12.155  18.955  1.00  0.00    -0.267 N 
ATOM      7  H1  UNL     1      15.002  12.462  18.180  1.00  0.00     0.196 HD
BRANCH   6   8
HETATM    8  C2  UNL     1      15.275  11.097  19.620  1.00  0.00    -0.059 C 
HETATM    9  C1  UNL     1      14.683  10.233  20.401  1.00  0.00     0.124 C 
ENDBRANCH   6   8
ENDBRANCH   3   6
ENDBRANCH   1   2
BRANCH   1  10
HETATM   10  N3  UNL     1      18.434  15.222  19.564  1.00  0.00    -0.066 N 
ATOM     11  H33 UNL     1      17.527  15.065  20.003  1.00  0.00     0.275 HD
ATOM     12  H32 UNL     1      19.015  15.081  20.390  1.00  0.00     0.275 HD
ATOM     13  H31 UNL     1      18.524  16.161  19.177  1.00  0.00     0.275 HD
ENDBRANCH   1  10
BRANCH   1  14
HETATM   14  C5  UNL     1      19.206  14.988  17.278  1.00  0.00     0.101 C 
BRANCH  14  15
HETATM   15  C6  UNL     1      20.185  16.043  17.528  1.00  0.00     0.028 A 
HETATM   16  C7  UNL     1      19.965  17.404  17.356  1.00  0.00     0.114 A 
HETATM   17  N4  UNL     1      21.091  18.055  17.665  1.00  0.00    -0.360 N 
HETATM   18  C8  UNL     1      22.008  17.152  18.023  1.00  0.00     0.180 A 
ATOM     19  H4  UNL     1      21.226  19.066  17.633  1.00  0.00     0.166 HD
HETATM   20  N5  UNL     1      21.460  15.931  17.940  1.00  0.00    -0.355 N 
ATOM     21  H5  UNL     1      21.935  15.055  18.156  1.00  0.00     0.166 HD
ENDBRANCH  14  15
ENDBRANCH   1  14
TORSDOF 6
ENDMDL
MODEL 4
REMARK VINA RESULT: -6.138667847      1.905      6.462
REMARK  6 active torsions:
REMARK  status: ('A' for Active; 'I' for Inactive)
REMARK    1  A    between atoms: C2_2  and  N1_3 
REMARK    2  A    between atoms: N1_3  and  N2_5 
REMARK       I    between atoms: N2_5  and  C3_7 
REMARK    3  A    between atoms: C3_7  and  C4_9 
REMARK    4  A    between atoms: C4_9  and  N3_10 
REMARK    5  A    between atoms: C4_9  and  C5_14 
REMARK    6  A    between atoms: C5_14  and  C6_15 
ROOT
HETATM    1  C4  UNL     1      18.825  14.377  17.853  1.00  0.00     0.282 C 
ENDROOT
BRANCH   1   2
HETATM    2  C3  UNL     1      19.666  15.601  17.822  1.00  0.00     0.267 C 
HETATM    3  N2  UNL     1      19.098  16.903  17.714  1.00  0.00    -0.262 N 
ATOM      4  H2  UNL     1      18.088  17.032  17.653  1.00  0.00     0.190 HD
HETATM    5  O1  UNL     1      20.897  15.484  17.894  1.00  0.00    -0.269 OA
BRANCH   3   6
HETATM    6  N1  UNL     1      19.961  17.993  17.692  1.00  0.00    -0.267 N 
ATOM      7  H1  UNL     1      20.411  18.303  18.554  1.00  0.00     0.196 HD
BRANCH   6   8
HETATM    8  C2  UNL     1      20.196  18.612  16.586  1.00  0.00    -0.059 C 
HETATM    9  C1  UNL     1      20.351  19.526  15.667  1.00  0.00     0.124 C 
ENDBRANCH   6   8
ENDBRANCH   3   6
ENDBRANCH   1   2
BRANCH   1  10
HETATM   10  N3  UNL     1      18.440  14.038  16.471  1.00  0.00    -0.066 N 
ATOM     11  H33 UNL     1      17.624  14.559  16.153  1.00  0.00     0.275 HD
ATOM     12  H32 UNL     1      19.106  14.387  15.783  1.00  0.00     0.275 HD
ATOM     13  H31 UNL     1      18.308  13.028  16.410  1.00  0.00     0.275 HD
ENDBRANCH   1  10
BRANCH   1  14
HETATM   14  C5  UNL     1      17.574  14.553  18.675  1.00  0.00     0.101 C 
BRANCH  14  15
HETATM   15  C6  UNL     1      16.808  13.335  18.930  1.00  0.00     0.028 A 
HETATM   16  C7  UNL     1      15.748  12.874  18.160  1.00  0.00     0.114 A 
HETATM   17  N4  UNL     1      15.288  11.744  18.710  1.00  0.00    -0.360 N 
HETATM   18  C8  UNL     1      16.022  11.483  19.795  1.00  0.00     0.180 A 
ATOM     19  H4  UNL     1      14.513  11.180  18.360  1.00  0.00     0.166 HD
HETATM   20  N5  UNL     1      16.943  12.447  19.930  1.00  0.00    -0.355 N 
ATOM     21  H5  UNL     1      17.638  12.498  20.675  1.00  0.00     0.166 HD
ENDBRANCH  14  15
ENDBRANCH   1  14
TORSDOF 6
ENDMDL
MODEL 5
REMARK VINA RESULT: -6.138306032      2.690      6.789
REMARK  6 active torsions:
REMARK  status: ('A' for Active; 'I' for Inactive)
REMARK    1  A    between atoms: C2_2  and  N1_3 
REMARK    2  A    between atoms: N1_3  and  N2_5 
REMARK       I    between atoms: N2_5  and  C3_7 
REMARK    3  A    between atoms: C3_7  and  C4_9 
REMARK    4  A    between atoms: C4_9  and  N3_10 
REMARK    5  A    between atoms: C4_9  and  C5_14 
REMARK    6  A    between atoms: C5_14  and  C6_15 
ROOT
HETATM    1  C4  UNL     1      21.106  16.483  17.801  1.00  0.00     0.282 C 
ENDROOT
BRANCH   1   2
HETATM    2  C3  UNL     1      20.476  17.732  17.303  1.00  0.00     0.267 C 
HETATM    3  N2  UNL     1      21.238  18.766  16.686  1.00  0.00    -0.262 N 
ATOM      4  H2  UNL     1      22.248  18.676  16.568  1.00  0.00     0.190 HD
HETATM    5  O1  UNL     1      19.253  17.878  17.428  1.00  0.00    -0.269 OA
BRANCH   3   6
HETATM    6  N1  UNL     1      20.566  19.902  16.249  1.00  0.00    -0.267 N 
ATOM      7  H1  UNL     1      20.219  20.581  16.927  1.00  0.00     0.196 HD
BRANCH   6   8
HETATM    8  C2  UNL     1      20.379  20.100  14.989  1.00  0.00    -0.059 C 
HETATM    9  C1  UNL     1      19.859  20.388  13.826  1.00  0.00     0.124 C 
ENDBRANCH   6   8
ENDBRANCH   3   6
ENDBRANCH   1   2
BRANCH   1  10
HETATM   10  N3  UNL     1      22.383  16.287  17.091  1.00  0.00    -0.066 N 
ATOM     11  H33 UNL     1      22.399  15.426  16.545  1.00  0.00     0.275 HD
ATOM     12  H32 UNL     1      22.507  16.943  16.320  1.00  0.00     0.275 HD
ATOM     13  H31 UNL     1      23.143  16.333  17.770  1.00  0.00     0.275 HD
ENDBRANCH   1  10
BRANCH   1  14
HETATM   14  C5  UNL     1      20.239  15.269  17.585  1.00  0.00     0.101 C 
BRANCH  14  15
HETATM   15  C6  UNL     1      19.436  14.853  18.732  1.00  0.00     0.028 A 
HETATM   16  C7  UNL     1      19.760  13.831  19.616  1.00  0.00     0.114 A 
HETATM   17  N4  UNL     1      18.781  13.732  20.522  1.00  0.00    -0.360 N 
HETATM   18  C8  UNL     1      17.857  14.654  20.238  1.00  0.00     0.180 A 
ATOM     19  H4  UNL     1      18.747  13.068  21.296  1.00  0.00     0.166 HD
HETATM   20  N5  UNL     1      18.252  15.334  19.152  1.00  0.00    -0.355 N 
ATOM     21  H5  UNL     1      17.736  16.097  18.714  1.00  0.00     0.166 HD
ENDBRANCH  14  15
ENDBRANCH   1  14
TORSDOF 6
ENDMDL
