MODEL 1
REMARK VINA RESULT: -5.541864742      0.000      0.000
REMARK  7 active torsions:
REMARK  status: ('A' for Active; 'I' for Inactive)
REMARK    1  A    between atoms: C2_2  and  C3_3 
REMARK    2  A    between atoms: C3_3  and  N1_4 
REMARK    3  A    between atoms: C3_3  and  C4_8 
REMARK    4  A    between atoms: C4_8  and  C5_10 
REMARK    5  A    between atoms: C5_10  and  C6_11 
REMARK    6  A    between atoms: C6_11  and  N2_12 
REMARK    7  A    between atoms: C6_11  and  N3_16 
ROOT
HETATM    1  C5  UNL     1      18.037  14.287  18.797  1.00  0.00     0.076 C 
HETATM    2  C7  UNL     1      18.461  13.147  17.905  1.00  0.00     0.021 C 
HETATM    3  C8  UNL     1      17.268  13.528  17.012  1.00  0.00     0.002 C 
HETATM    4  C9  UNL     1      16.595  13.974  18.318  1.00  0.00     0.021 C 
ENDROOT
BRANCH   1   5
HETATM    5  C4  UNL     1      18.531  15.578  18.305  1.00  0.00     0.173 C 
HETATM    6  O1  UNL     1      17.768  16.546  18.483  1.00  0.00    -0.294 OA
BRANCH   5   7
HETATM    7  C3  UNL     1      19.790  15.836  17.650  1.00  0.00     0.275 C 
BRANCH   7   8
HETATM    8  C2  UNL     1      20.029  17.234  17.191  1.00  0.00     0.003 C 
HETATM    9  C1  UNL     1      21.191  17.838  17.161  1.00  0.00     0.009 C 
ENDBRANCH   7   8
BRANCH   7  10
HETATM   10  N1  UNL     1      20.913  15.522  18.572  1.00  0.00    -0.065 N 
ATOM     11  H13 UNL     1      21.443  14.693  18.306  1.00  0.00     0.275 HD
ATOM     12  H12 UNL     1      21.688  16.184  18.515  1.00  0.00     0.275 HD
ATOM     13  H11 UNL     1      20.496  15.460  19.501  1.00  0.00     0.275 HD
ENDBRANCH   7  10
ENDBRANCH   5   7
ENDBRANCH   1   5
BRANCH   1  14
HETATM   14  C6  UNL     1      18.196  13.982  20.267  1.00  0.00     0.393 C 
BRANCH  14  15
HETATM   15  N2  UNL     1      18.209  15.135  21.097  1.00  0.00    -0.049 N 
ATOM     16  H23 UNL     1      17.552  15.834  20.750  1.00  0.00     0.276 HD
ATOM     17  H22 UNL     1      17.783  14.931  22.001  1.00  0.00     0.276 HD
ATOM     18  H21 UNL     1      19.135  15.545  21.221  1.00  0.00     0.276 HD
ENDBRANCH  14  15
BRANCH  14  19
HETATM   19  N3  UNL     1      19.489  13.307  20.406  1.00  0.00    -0.049 N 
ATOM     20  H33 UNL     1      19.432  12.423  20.913  1.00  0.00     0.276 HD
ATOM     21  H32 UNL     1      19.844  12.927  19.530  1.00  0.00     0.276 HD
ATOM     22  H31 UNL     1      20.117  13.984  20.840  1.00  0.00     0.276 HD
ENDBRANCH  14  19
ENDBRANCH   1  14
TORSDOF 7
ENDMDL
MODEL 2
REMARK VINA RESULT: -5.448377193      2.181      2.649
REMARK  7 active torsions:
REMARK  status: ('A' for Active; 'I' for Inactive)
REMARK    1  A    between atoms: C2_2  and  C3_3 
REMARK    2  A    between atoms: C3_3  and  N1_4 
REMARK    3  A    between atoms: C3_3  and  C4_8 
REMARK    4  A    between atoms: C4_8  and  C5_10 
REMARK    5  A    between atoms: C5_10  and  C6_11 
REMARK    6  A    between atoms: C6_11  and  N2_12 
REMARK    7  A    between atoms: C6_11  and  N3_16 
ROOT
HETATM    1  C5  UNL     1      17.781  14.768  18.804  1.00  0.00     0.076 C 
HETATM    2  C7  UNL     1      17.994  15.178  20.240  1.00  0.00     0.021 C 
HETATM    3  C8  UNL     1      18.812  13.884  20.388  1.00  0.00     0.002 C 
HETATM    4  C9  UNL     1      17.859  13.311  19.328  1.00  0.00     0.021 C 
ENDROOT
BRANCH   1   5
HETATM    5  C4  UNL     1      18.924  15.130  17.958  1.00  0.00     0.173 C 
HETATM    6  O1  UNL     1      19.087  14.420  16.948  1.00  0.00    -0.294 OA
BRANCH   5   7
HETATM    7  C3  UNL     1      19.859  16.207  18.172  1.00  0.00     0.275 C 
BRANCH   7   8
HETATM    8  C2  UNL     1      21.188  16.076  17.511  1.00  0.00     0.003 C 
HETATM    9  C1  UNL     1      22.341  15.986  18.128  1.00  0.00     0.009 C 
ENDBRANCH   7   8
BRANCH   7  10
HETATM   10  N1  UNL     1      19.287  17.482  17.667  1.00  0.00    -0.065 N 
ATOM     11  H13 UNL     1      19.990  18.175  17.412  1.00  0.00     0.275 HD
ATOM     12  H12 UNL     1      18.856  17.402  16.746  1.00  0.00     0.275 HD
ATOM     13  H11 UNL     1      18.644  17.800  18.393  1.00  0.00     0.275 HD
ENDBRANCH   7  10
ENDBRANCH   5   7
ENDBRANCH   1   5
BRANCH   1  14
HETATM   14  C6  UNL     1      16.395  15.085  18.296  1.00  0.00     0.393 C 
BRANCH  14  15
HETATM   15  N2  UNL     1      15.731  16.105  19.029  1.00  0.00    -0.049 N 
ATOM     16  H23 UNL     1      15.979  16.056  20.017  1.00  0.00     0.276 HD
ATOM     17  H22 UNL     1      16.118  17.021  18.799  1.00  0.00     0.276 HD
ATOM     18  H21 UNL     1      14.717  16.105  18.913  1.00  0.00     0.276 HD
ENDBRANCH  14  15
BRANCH  14  19
HETATM   19  N3  UNL     1      15.619  13.850  18.431  1.00  0.00    -0.049 N 
ATOM     20  H33 UNL     1      15.878  13.131  17.755  1.00  0.00     0.276 HD
ATOM     21  H32 UNL     1      15.845  13.319  19.272  1.00  0.00     0.276 HD
ATOM     22  H31 UNL     1      14.637  14.124  18.376  1.00  0.00     0.276 HD
ENDBRANCH  14  19
ENDBRANCH   1  14
TORSDOF 7
ENDMDL
MODEL 3
REMARK VINA RESULT: -5.359661756      2.140      4.350
REMARK  7 active torsions:
REMARK  status: ('A' for Active; 'I' for Inactive)
REMARK    1  A    between atoms: C2_2  and  C3_3 
REMARK    2  A    between atoms: C3_3  and  N1_4 
REMARK    3  A    between atoms: C3_3  and  C4_8 
REMARK    4  A    between atoms: C4_8  and  C5_10 
REMARK    5  A    between atoms: C5_10  and  C6_11 
REMARK    6  A    between atoms: C6_11  and  N2_12 
REMARK    7  A    between atoms: C6_11  and  N3_16 
ROOT
HETATM    1  C5  UNL     1      18.751  14.521  18.697  1.00  0.00     0.076 C 
HETATM    2  C7  UNL     1      19.623  13.891  19.754  1.00  0.00     0.021 C 
HETATM    3  C8  UNL     1      18.397  13.971  20.679  1.00  0.00     0.002 C 
HETATM    4  C9  UNL     1      18.031  15.228  19.875  1.00  0.00     0.021 C 
ENDROOT
BRANCH   1   5
HETATM    5  C4  UNL     1      17.902  13.529  18.027  1.00  0.00     0.173 C 
HETATM    6  O1  UNL     1      18.480  12.486  17.668  1.00  0.00    -0.294 OA
BRANCH   5   7
HETATM    7  C3  UNL     1      16.490  13.637  17.749  1.00  0.00     0.275 C 
BRANCH   7   8
HETATM    8  C2  UNL     1      15.624  12.537  18.259  1.00  0.00     0.003 C 
HETATM    9  C1  UNL     1      15.861  11.812  19.325  1.00  0.00     0.009 C 
ENDBRANCH   7   8
BRANCH   7  10
HETATM   10  N1  UNL     1      15.950  14.883  18.354  1.00  0.00    -0.065 N 
ATOM     11  H13 UNL     1      16.102  15.715  17.784  1.00  0.00     0.275 HD
ATOM     12  H12 UNL     1      14.931  14.926  18.363  1.00  0.00     0.275 HD
ATOM     13  H11 UNL     1      16.369  14.941  19.282  1.00  0.00     0.275 HD
ENDBRANCH   7  10
ENDBRANCH   5   7
ENDBRANCH   1   5
BRANCH   1  14
HETATM   14  C6  UNL     1      19.486  15.519  17.837  1.00  0.00     0.393 C 
BRANCH  14  15
HETATM   15  N2  UNL     1      20.844  15.711  18.209  1.00  0.00    -0.049 N 
ATOM     16  H23 UNL     1      20.914  16.372  18.983  1.00  0.00     0.276 HD
ATOM     17  H22 UNL     1      21.214  14.875  18.662  1.00  0.00     0.276 HD
ATOM     18  H21 UNL     1      21.449  15.997  17.438  1.00  0.00     0.276 HD
ENDBRANCH  14  15
BRANCH  14  19
HETATM   19  N3  UNL     1      18.785  16.795  18.002  1.00  0.00    -0.049 N 
ATOM     20  H33 UNL     1      18.072  16.775  18.731  1.00  0.00     0.276 HD
ATOM     21  H32 UNL     1      19.365  17.526  18.414  1.00  0.00     0.276 HD
ATOM     22  H31 UNL     1      18.418  17.039  17.082  1.00  0.00     0.276 HD
ENDBRANCH  14  19
ENDBRANCH   1  14
TORSDOF 7
ENDMDL
MODEL 4
REMARK VINA RESULT: -5.322619469      2.557      4.791
REMARK  7 active torsions:
REMARK  status: ('A' for Active; 'I' for Inactive)
REMARK    1  A    between atoms: C2_2  and  C3_3 
REMARK    2  A    between atoms: C3_3  and  N1_4 
REMARK    3  A    between atoms: C3_3  and  C4_8 
REMARK    4  A    between atoms: C4_8  and  C5_10 
REMARK    5  A    between atoms: C5_10  and  C6_11 
REMARK    6  A    between atoms: C6_11  and  N2_12 
REMARK    7  A    between atoms: C6_11  and  N3_16 
ROOT
HETATM    1  C5  UNL     1      17.834  14.464  19.205  1.00  0.00     0.076 C 
HETATM    2  C7  UNL     1      19.292  14.539  18.826  1.00  0.00     0.021 C 
HETATM    3  C8  UNL     1      19.547  13.565  19.989  1.00  0.00     0.002 C 
HETATM    4  C9  UNL     1      18.341  14.244  20.655  1.00  0.00     0.021 C 
ENDROOT
BRANCH   1   5
HETATM    5  C4  UNL     1      17.184  13.274  18.645  1.00  0.00     0.173 C 
HETATM    6  O1  UNL     1      17.465  13.020  17.458  1.00  0.00    -0.294 OA
BRANCH   5   7
HETATM    7  C3  UNL     1      16.271  12.383  19.318  1.00  0.00     0.275 C 
BRANCH   7   8
HETATM    8  C2  UNL     1      15.023  12.030  18.584  1.00  0.00     0.003 C 
HETATM    9  C1  UNL     1      14.387  10.887  18.668  1.00  0.00     0.009 C 
ENDBRANCH   7   8
BRANCH   7  10
HETATM   10  N1  UNL     1      16.945  11.090  19.604  1.00  0.00    -0.065 N 
ATOM     11  H13 UNL     1      17.475  10.720  18.815  1.00  0.00     0.275 HD
ATOM     12  H12 UNL     1      17.730  11.171  20.250  1.00  0.00     0.275 HD
ATOM     13  H11 UNL     1      16.209  10.464  19.931  1.00  0.00     0.275 HD
ENDBRANCH   7  10
ENDBRANCH   5   7
ENDBRANCH   1   5
BRANCH   1  14
HETATM   14  C6  UNL     1      17.119  15.787  19.079  1.00  0.00     0.393 C 
BRANCH  14  15
HETATM   15  N2  UNL     1      15.870  15.706  18.406  1.00  0.00    -0.049 N 
ATOM     16  H23 UNL     1      15.729  16.522  17.811  1.00  0.00     0.276 HD
ATOM     17  H22 UNL     1      15.894  14.975  17.694  1.00  0.00     0.276 HD
ATOM     18  H21 UNL     1      15.072  15.574  19.028  1.00  0.00     0.276 HD
ENDBRANCH  14  15
BRANCH  14  19
HETATM   19  N3  UNL     1      18.001  16.656  18.296  1.00  0.00    -0.049 N 
ATOM     20  H33 UNL     1      18.399  17.424  18.836  1.00  0.00     0.276 HD
ATOM     21  H32 UNL     1      18.884  16.212  18.040  1.00  0.00     0.276 HD
ATOM     22  H31 UNL     1      17.455  16.965  17.491  1.00  0.00     0.276 HD
ENDBRANCH  14  19
ENDBRANCH   1  14
TORSDOF 7
ENDMDL
MODEL 5
REMARK VINA RESULT: -5.281069407      2.889      4.957
REMARK  7 active torsions:
REMARK  status: ('A' for Active; 'I' for Inactive)
REMARK    1  A    between atoms: C2_2  and  C3_3 
REMARK    2  A    between atoms: C3_3  and  N1_4 
REMARK    3  A    between atoms: C3_3  and  C4_8 
REMARK    4  A    between atoms: C4_8  and  C5_10 
REMARK    5  A    between atoms: C5_10  and  C6_11 
REMARK    6  A    between atoms: C6_11  and  N2_12 
REMARK    7  A    between atoms: C6_11  and  N3_16 
ROOT
HETATM    1  C5  UNL     1      17.369  14.248  18.510  1.00  0.00     0.076 C 
HETATM    2  C7  UNL     1      17.036  14.010  17.059  1.00  0.00     0.021 C 
HETATM    3  C8  UNL     1      18.384  13.275  16.968  1.00  0.00     0.002 C 
HETATM    4  C9  UNL     1      18.851  14.261  18.049  1.00  0.00     0.021 C 
ENDROOT
BRANCH   1   5
HETATM    5  C4  UNL     1      17.044  13.084  19.343  1.00  0.00     0.173 C 
HETATM    6  O1  UNL     1      17.598  13.053  20.458  1.00  0.00    -0.294 OA
BRANCH   5   7
HETATM    7  C3  UNL     1      16.161  11.994  19.008  1.00  0.00     0.275 C 
BRANCH   7   8
HETATM    8  C2  UNL     1      15.907  10.989  20.079  1.00  0.00     0.003 C 
HETATM    9  C1  UNL     1      14.755  10.418  20.329  1.00  0.00     0.009 C 
ENDBRANCH   7   8
BRANCH   7  10
HETATM   10  N1  UNL     1      14.824  12.523  18.631  1.00  0.00    -0.065 N 
ATOM     11  H13 UNL     1      14.059  11.875  18.819  1.00  0.00     0.275 HD
ATOM     12  H12 UNL     1      14.496  13.276  19.236  1.00  0.00     0.275 HD
ATOM     13  H11 UNL     1      14.902  12.791  17.650  1.00  0.00     0.275 HD
ENDBRANCH   7  10
ENDBRANCH   5   7
ENDBRANCH   1   5
BRANCH   1  14
HETATM   14  C6  UNL     1      16.946  15.611  19.001  1.00  0.00     0.393 C 
BRANCH  14  15
HETATM   15  N2  UNL     1      15.635  15.986  18.600  1.00  0.00    -0.049 N 
ATOM     16  H23 UNL     1      15.673  16.710  17.882  1.00  0.00     0.276 HD
ATOM     17  H22 UNL     1      15.195  15.236  18.067  1.00  0.00     0.276 HD
ATOM     18  H21 UNL     1      15.034  16.279  19.371  1.00  0.00     0.276 HD
ENDBRANCH  14  15
BRANCH  14  19
HETATM   19  N3  UNL     1      17.891  16.567  18.418  1.00  0.00    -0.049 N 
ATOM     20  H33 UNL     1      18.867  16.344  18.616  1.00  0.00     0.276 HD
ATOM     21  H32 UNL     1      17.952  16.508  17.402  1.00  0.00     0.276 HD
ATOM     22  H31 UNL     1      17.608  17.487  18.755  1.00  0.00     0.276 HD
ENDBRANCH  14  19
ENDBRANCH   1  14
TORSDOF 7
ENDMDL
