MODEL 1
REMARK VINA RESULT: -7.178173630      0.000      0.000
REMARK  4 active torsions:
REMARK  status: ('A' for Active; 'I' for Inactive)
REMARK    1  A    between atoms: C2_2  and  C4_4 
REMARK    2  A    between atoms: C4_4  and  C5_5 
REMARK    3  A    between atoms: C5_5  and  N1_7 
REMARK       I    between atoms: N1_7  and  C6_9 
REMARK       I    between atoms: C6_9  and  N2_11 
REMARK    4  A    between atoms: N2_11  and  C7_13 
ROOT
HETATM    1  N1  UNL     1       4.400  20.633  43.070  1.00  0.00    -0.329 N 
ATOM      2  H1  UNL     1       3.939  21.012  43.898  1.00  0.00     0.165 HD
HETATM    3  C6  UNL     1       4.259  19.254  42.786  1.00  0.00     0.317 C 
HETATM    4  O1  UNL     1       4.813  18.775  41.777  1.00  0.00    -0.247 OA
HETATM    5  N2  UNL     1       3.502  18.420  43.630  1.00  0.00    -0.339 N 
ATOM      6  H2  UNL     1       3.063  18.837  44.451  1.00  0.00     0.164 HD
ENDROOT
BRANCH   1   7
HETATM    7  C5  UNL     1       5.174  21.531  42.231  1.00  0.00     0.159 C 
HETATM    8 BR1  UNL     1       4.389  23.321  42.462  1.00  0.00    -0.069 Br
BRANCH   7   9
HETATM    9  C4  UNL     1       6.607  21.667  42.626  1.00  0.00     0.040 C 
BRANCH   9  10
HETATM   10  C2  UNL     1       7.604  21.692  41.526  1.00  0.00    -0.020 C 
HETATM   11  C1  UNL     1       7.273  20.552  40.549  1.00  0.00     0.009 C 
HETATM   12  C3  UNL     1       7.606  22.947  40.691  1.00  0.00     0.009 C 
ENDBRANCH   9  10
ENDBRANCH   7   9
ENDBRANCH   1   7
BRANCH   5  13
HETATM   13  C7  UNL     1       3.311  16.999  43.397  1.00  0.00     0.086 C 
HETATM   14  C8  UNL     1       2.306  16.759  42.315  1.00  0.00     0.025 C 
HETATM   15  C9  UNL     1       1.112  15.989  42.770  1.00  0.00     0.002 C 
HETATM   16  C10 UNL     1       1.499  14.683  43.428  1.00  0.00     0.000 C 
HETATM   17  C11 UNL     1       2.588  14.945  44.461  1.00  0.00     0.002 C 
HETATM   18  C12 UNL     1       2.725  16.426  44.692  1.00  0.00     0.025 C 
ENDBRANCH   5  13
TORSDOF 4
ENDMDL
MODEL 2
REMARK VINA RESULT: -7.127010897      1.613      1.888
REMARK  4 active torsions:
REMARK  status: ('A' for Active; 'I' for Inactive)
REMARK    1  A    between atoms: C2_2  and  C4_4 
REMARK    2  A    between atoms: C4_4  and  C5_5 
REMARK    3  A    between atoms: C5_5  and  N1_7 
REMARK       I    between atoms: N1_7  and  C6_9 
REMARK       I    between atoms: C6_9  and  N2_11 
REMARK    4  A    between atoms: N2_11  and  C7_13 
ROOT
HETATM    1  N1  UNL     1       4.975  20.991  42.346  1.00  0.00    -0.329 N 
ATOM      2  H1  UNL     1       4.166  21.401  41.879  1.00  0.00     0.165 HD
HETATM    3  C6  UNL     1       4.870  19.679  42.863  1.00  0.00     0.317 C 
HETATM    4  O1  UNL     1       5.851  19.162  43.433  1.00  0.00    -0.247 OA
HETATM    5  N2  UNL     1       3.671  18.952  42.739  1.00  0.00    -0.339 N 
ATOM      6  H2  UNL     1       2.883  19.400  42.271  1.00  0.00     0.164 HD
ENDROOT
BRANCH   1   7
HETATM    7  C5  UNL     1       6.191  21.781  42.454  1.00  0.00     0.159 C 
HETATM    8 BR1  UNL     1       7.519  20.916  41.288  1.00  0.00    -0.069 Br
BRANCH   7   9
HETATM    9  C4  UNL     1       6.066  23.181  41.951  1.00  0.00     0.040 C 
BRANCH   9  10
HETATM   10  C2  UNL     1       6.524  23.435  40.562  1.00  0.00    -0.020 C 
HETATM   11  C1  UNL     1       5.325  23.943  39.744  1.00  0.00     0.009 C 
HETATM   12  C3  UNL     1       7.583  24.500  40.421  1.00  0.00     0.009 C 
ENDBRANCH   9  10
ENDBRANCH   7   9
ENDBRANCH   1   7
BRANCH   5  13
HETATM   13  C7  UNL     1       3.493  17.601  43.239  1.00  0.00     0.086 C 
HETATM   14  C8  UNL     1       2.829  16.729  42.220  1.00  0.00     0.025 C 
HETATM   15  C9  UNL     1       1.523  16.169  42.674  1.00  0.00     0.002 C 
HETATM   16  C10 UNL     1       1.650  15.436  43.991  1.00  0.00     0.000 C 
HETATM   17  C11 UNL     1       2.410  16.311  44.982  1.00  0.00     0.002 C 
HETATM   18  C12 UNL     1       2.539  17.706  44.434  1.00  0.00     0.025 C 
ENDBRANCH   5  13
TORSDOF 4
ENDMDL
MODEL 3
REMARK VINA RESULT: -7.037777071      2.343      7.200
REMARK  4 active torsions:
REMARK  status: ('A' for Active; 'I' for Inactive)
REMARK    1  A    between atoms: C2_2  and  C4_4 
REMARK    2  A    between atoms: C4_4  and  C5_5 
REMARK    3  A    between atoms: C5_5  and  N1_7 
REMARK       I    between atoms: N1_7  and  C6_9 
REMARK       I    between atoms: C6_9  and  N2_11 
REMARK    4  A    between atoms: N2_11  and  C7_13 
ROOT
HETATM    1  N1  UNL     1       3.860  19.165  43.062  1.00  0.00    -0.329 N 
ATOM      2  H1  UNL     1       3.220  19.663  43.681  1.00  0.00     0.165 HD
HETATM    3  C6  UNL     1       4.882  19.894  42.411  1.00  0.00     0.317 C 
HETATM    4  O1  UNL     1       5.675  19.300  41.655  1.00  0.00    -0.247 OA
HETATM    5  N2  UNL     1       5.012  21.282  42.611  1.00  0.00    -0.339 N 
ATOM      6  H2  UNL     1       4.348  21.743  43.232  1.00  0.00     0.164 HD
ENDROOT
BRANCH   1   7
HETATM    7  C5  UNL     1       3.684  17.733  42.885  1.00  0.00     0.159 C 
HETATM    8 BR1  UNL     1       2.621  17.110  44.419  1.00  0.00    -0.069 Br
BRANCH   7   9
HETATM    9  C4  UNL     1       2.902  17.351  41.672  1.00  0.00     0.040 C 
BRANCH   9  10
HETATM   10  C2  UNL     1       1.530  16.831  41.899  1.00  0.00    -0.020 C 
HETATM   11  C1  UNL     1       0.545  17.710  41.110  1.00  0.00     0.009 C 
HETATM   12  C3  UNL     1       1.289  15.425  41.411  1.00  0.00     0.009 C 
ENDBRANCH   9  10
ENDBRANCH   7   9
ENDBRANCH   1   7
BRANCH   5  13
HETATM   13  C7  UNL     1       6.040  22.092  41.981  1.00  0.00     0.086 C 
HETATM   14  C8  UNL     1       7.261  22.181  42.840  1.00  0.00     0.025 C 
HETATM   15  C9  UNL     1       7.599  23.574  43.254  1.00  0.00     0.002 C 
HETATM   16  C10 UNL     1       7.724  24.502  42.066  1.00  0.00     0.000 C 
HETATM   17  C11 UNL     1       6.510  24.324  41.161  1.00  0.00     0.002 C 
HETATM   18  C12 UNL     1       5.462  23.508  41.869  1.00  0.00     0.025 C 
ENDBRANCH   5  13
TORSDOF 4
ENDMDL
MODEL 4
REMARK VINA RESULT: -7.012362975      2.348      6.796
REMARK  4 active torsions:
REMARK  status: ('A' for Active; 'I' for Inactive)
REMARK    1  A    between atoms: C2_2  and  C4_4 
REMARK    2  A    between atoms: C4_4  and  C5_5 
REMARK    3  A    between atoms: C5_5  and  N1_7 
REMARK       I    between atoms: N1_7  and  C6_9 
REMARK       I    between atoms: C6_9  and  N2_11 
REMARK    4  A    between atoms: N2_11  and  C7_13 
ROOT
HETATM    1  N1  UNL     1       3.350  18.418  43.302  1.00  0.00    -0.329 N 
ATOM      2  H1  UNL     1       2.977  18.863  44.141  1.00  0.00     0.165 HD
HETATM    3  C6  UNL     1       4.267  19.139  42.501  1.00  0.00     0.317 C 
HETATM    4  O1  UNL     1       4.735  18.609  41.474  1.00  0.00    -0.247 OA
HETATM    5  N2  UNL     1       4.657  20.445  42.853  1.00  0.00    -0.339 N 
ATOM      6  H2  UNL     1       4.256  20.856  43.697  1.00  0.00     0.164 HD
ENDROOT
BRANCH   1   7
HETATM    7  C5  UNL     1       2.916  17.070  42.976  1.00  0.00     0.159 C 
HETATM    8 BR1  UNL     1       2.844  16.085  44.678  1.00  0.00    -0.069 Br
BRANCH   7   9
HETATM    9  C4  UNL     1       1.541  16.984  42.404  1.00  0.00     0.040 C 
BRANCH   9  10
HETATM   10  C2  UNL     1       1.310  17.678  41.111  1.00  0.00    -0.020 C 
HETATM   11  C1  UNL     1       2.009  16.875  40.002  1.00  0.00     0.009 C 
HETATM   12  C3  UNL     1      -0.133  17.775  40.684  1.00  0.00     0.009 C 
ENDBRANCH   9  10
ENDBRANCH   7   9
ENDBRANCH   1   7
BRANCH   5  13
HETATM   13  C7  UNL     1       5.597  21.240  42.083  1.00  0.00     0.086 C 
HETATM   14  C8  UNL     1       6.994  21.065  42.589  1.00  0.00     0.025 C 
HETATM   15  C9  UNL     1       7.615  22.332  43.076  1.00  0.00     0.002 C 
HETATM   16  C10 UNL     1       7.567  23.423  42.029  1.00  0.00     0.000 C 
HETATM   17  C11 UNL     1       6.153  23.516  41.466  1.00  0.00     0.002 C 
HETATM   18  C12 UNL     1       5.212  22.705  42.315  1.00  0.00     0.025 C 
ENDBRANCH   5  13
TORSDOF 4
ENDMDL
MODEL 5
REMARK VINA RESULT: -6.853068728      2.382      6.852
REMARK  4 active torsions:
REMARK  status: ('A' for Active; 'I' for Inactive)
REMARK    1  A    between atoms: C2_2  and  C4_4 
REMARK    2  A    between atoms: C4_4  and  C5_5 
REMARK    3  A    between atoms: C5_5  and  N1_7 
REMARK       I    between atoms: N1_7  and  C6_9 
REMARK       I    between atoms: C6_9  and  N2_11 
REMARK    4  A    between atoms: N2_11  and  C7_13 
ROOT
HETATM    1  N1  UNL     1       3.512  19.090  42.804  1.00  0.00    -0.329 N 
ATOM      2  H1  UNL     1       2.586  19.513  42.740  1.00  0.00     0.165 HD
HETATM    3  C6  UNL     1       4.649  19.932  42.778  1.00  0.00     0.317 C 
HETATM    4  O1  UNL     1       5.787  19.431  42.860  1.00  0.00    -0.247 OA
HETATM    5  N2  UNL     1       4.505  21.328  42.663  1.00  0.00    -0.339 N 
ATOM      6  H2  UNL     1       3.563  21.711  42.594  1.00  0.00     0.164 HD
ENDROOT
BRANCH   1   7
HETATM    7  C5  UNL     1       3.610  17.644  42.918  1.00  0.00     0.159 C 
HETATM    8 BR1  UNL     1       2.611  17.146  44.539  1.00  0.00    -0.069 Br
BRANCH   7   9
HETATM    9  C4  UNL     1       2.967  16.890  41.802  1.00  0.00     0.040 C 
BRANCH   9  10
HETATM   10  C2  UNL     1       2.038  17.652  40.929  1.00  0.00    -0.020 C 
HETATM   11  C1  UNL     1       2.331  17.274  39.468  1.00  0.00     0.009 C 
HETATM   12  C3  UNL     1       0.575  17.351  41.134  1.00  0.00     0.009 C 
ENDBRANCH   9  10
ENDBRANCH   7   9
ENDBRANCH   1   7
BRANCH   5  13
HETATM   13  C7  UNL     1       5.625  22.252  42.636  1.00  0.00     0.086 C 
HETATM   14  C8  UNL     1       5.159  23.670  42.733  1.00  0.00     0.025 C 
HETATM   15  C9  UNL     1       5.529  24.502  41.551  1.00  0.00     0.002 C 
HETATM   16  C10 UNL     1       7.015  24.455  41.270  1.00  0.00     0.000 C 
HETATM   17  C11 UNL     1       7.479  23.003  41.268  1.00  0.00     0.002 C 
HETATM   18  C12 UNL     1       6.286  22.087  41.262  1.00  0.00     0.025 C 
ENDBRANCH   5  13
TORSDOF 4
ENDMDL
