MODEL 1
REMARK VINA RESULT: -7.012205746      0.000      0.000
REMARK  4 active torsions:
REMARK  status: ('A' for Active; 'I' for Inactive)
REMARK    1  A    between atoms: C2_2  and  N1_3 
REMARK       I    between atoms: N1_3  and  C3_5 
REMARK       I    between atoms: C3_5  and  N2_7 
REMARK    2  A    between atoms: N2_7  and  C4_9 
REMARK    3  A    between atoms: C13_18  and  C14_19 
REMARK    4  A    between atoms: C14_19  and  C15_20 
ROOT
HETATM    1  C4  UNL     1       1.605  15.521  41.692  1.00  0.00     0.039 C 
HETATM    2  C5  UNL     1       2.659  14.388  41.819  1.00  0.00     0.036 C 
HETATM    3  C6  UNL     1       2.887  13.945  43.226  1.00  0.00    -0.011 C 
HETATM    4  C7  UNL     1       1.599  13.289  43.684  1.00  0.00     0.009 C 
HETATM    5  C8  UNL     1       0.515  14.343  43.557  1.00  0.00    -0.011 C 
HETATM    6  C9  UNL     1       0.867  15.432  44.516  1.00  0.00     0.014 C 
HETATM    7  C10 UNL     1       2.145  16.141  44.015  1.00  0.00    -0.037 C 
HETATM    8  C11 UNL     1       2.455  17.241  44.982  1.00  0.00     0.015 C 
HETATM    9  C12 UNL     1       3.269  15.159  44.011  1.00  0.00     0.014 C 
HETATM   10  C13 UNL     1       1.805  16.633  42.627  1.00  0.00     0.023 C 
HETATM   11  C16 UNL     1       0.307  14.825  42.152  1.00  0.00     0.036 C 
ENDROOT
BRANCH   1  12
HETATM   12  N2  UNL     1       1.645  15.798  40.288  1.00  0.00    -0.333 N 
HETATM   13  C3  UNL     1       0.732  16.590  39.541  1.00  0.00     0.316 C 
HETATM   14  N1  UNL     1       0.938  16.761  38.119  1.00  0.00    -0.343 N 
HETATM   15  O1  UNL     1      -0.271  17.179  39.993  1.00  0.00    -0.247 OA
ATOM     16  H1  UNL     1       1.734  16.314  37.664  1.00  0.00     0.164 HD
ATOM     17  H2  UNL     1       2.416  15.381  39.766  1.00  0.00     0.165 HD
BRANCH  14  18
HETATM   18  C2  UNL     1       0.029  17.557  37.344  1.00  0.00     0.120 C 
HETATM   19  C1  UNL     1      -0.880  16.708  36.509  1.00  0.00     0.026 C 
ENDBRANCH  14  18
ENDBRANCH   1  12
BRANCH  10  20
HETATM   20  C14 UNL     1       2.299  17.965  42.262  1.00  0.00     0.023 C 
BRANCH  20  21
HETATM   21  C15 UNL     1       3.702  18.104  41.756  1.00  0.00     0.115 C 
HETATM   22 CL1  UNL     1       4.631  19.241  42.813  1.00  0.00    -0.130 Cl
ENDBRANCH  20  21
ENDBRANCH  10  20
TORSDOF 4
ENDMDL
MODEL 2
REMARK VINA RESULT: -6.969781103      2.728      5.006
REMARK  4 active torsions:
REMARK  status: ('A' for Active; 'I' for Inactive)
REMARK    1  A    between atoms: C2_2  and  N1_3 
REMARK       I    between atoms: N1_3  and  C3_5 
REMARK       I    between atoms: C3_5  and  N2_7 
REMARK    2  A    between atoms: N2_7  and  C4_9 
REMARK    3  A    between atoms: C13_18  and  C14_19 
REMARK    4  A    between atoms: C14_19  and  C15_20 
ROOT
HETATM    1  C4  UNL     1       2.444  17.248  40.925  1.00  0.00     0.039 C 
HETATM    2  C5  UNL     1       2.438  16.694  39.475  1.00  0.00     0.036 C 
HETATM    3  C6  UNL     1       1.187  15.958  39.127  1.00  0.00    -0.011 C 
HETATM    4  C7  UNL     1       0.070  16.983  39.123  1.00  0.00     0.009 C 
HETATM    5  C8  UNL     1       0.042  17.588  40.514  1.00  0.00    -0.011 C 
HETATM    6  C9  UNL     1      -0.325  16.482  41.450  1.00  0.00     0.014 C 
HETATM    7  C10 UNL     1       0.840  15.469  41.501  1.00  0.00    -0.037 C 
HETATM    8  C11 UNL     1       0.452  14.391  42.464  1.00  0.00     0.015 C 
HETATM    9  C12 UNL     1       1.019  14.874  40.144  1.00  0.00     0.014 C 
HETATM   10  C13 UNL     1       2.042  16.271  41.942  1.00  0.00     0.023 C 
HETATM   11  C16 UNL     1       1.310  18.294  40.889  1.00  0.00     0.036 C 
ENDROOT
BRANCH   1  12
HETATM   12  N2  UNL     1       3.754  17.819  41.011  1.00  0.00    -0.333 N 
HETATM   13  C3  UNL     1       4.185  18.856  41.882  1.00  0.00     0.316 C 
HETATM   14  N1  UNL     1       5.560  19.304  41.828  1.00  0.00    -0.343 N 
HETATM   15  O1  UNL     1       3.481  19.449  42.724  1.00  0.00    -0.247 OA
ATOM     16  H1  UNL     1       6.208  18.874  41.168  1.00  0.00     0.164 HD
ATOM     17  H2  UNL     1       4.456  17.439  40.376  1.00  0.00     0.165 HD
BRANCH  14  18
HETATM   18  C2  UNL     1       6.018  20.349  42.700  1.00  0.00     0.120 C 
HETATM   19  C1  UNL     1       7.216  21.053  42.139  1.00  0.00     0.026 C 
ENDBRANCH  14  18
ENDBRANCH   1  12
BRANCH  10  20
HETATM   20  C14 UNL     1       2.948  15.627  42.898  1.00  0.00     0.023 C 
BRANCH  20  21
HETATM   21  C15 UNL     1       3.120  16.236  44.256  1.00  0.00     0.115 C 
HETATM   22 CL1  UNL     1       1.720  15.795  45.315  1.00  0.00    -0.130 Cl
ENDBRANCH  20  21
ENDBRANCH  10  20
TORSDOF 4
ENDMDL
MODEL 3
REMARK VINA RESULT: -6.723935144      4.010      5.356
REMARK  4 active torsions:
REMARK  status: ('A' for Active; 'I' for Inactive)
REMARK    1  A    between atoms: C2_2  and  N1_3 
REMARK       I    between atoms: N1_3  and  C3_5 
REMARK       I    between atoms: C3_5  and  N2_7 
REMARK    2  A    between atoms: N2_7  and  C4_9 
REMARK    3  A    between atoms: C13_18  and  C14_19 
REMARK    4  A    between atoms: C14_19  and  C15_20 
ROOT
HETATM    1  C4  UNL     1       1.458  15.289  38.308  1.00  0.00     0.039 C 
HETATM    2  C5  UNL     1       2.873  15.600  38.866  1.00  0.00     0.036 C 
HETATM    3  C6  UNL     1       2.852  16.392  40.131  1.00  0.00    -0.011 C 
HETATM    4  C7  UNL     1       2.238  15.496  41.189  1.00  0.00     0.009 C 
HETATM    5  C8  UNL     1       0.854  15.130  40.688  1.00  0.00    -0.011 C 
HETATM    6  C9  UNL     1       0.075  16.403  40.626  1.00  0.00     0.014 C 
HETATM    7  C10 UNL     1       0.661  17.290  39.505  1.00  0.00    -0.037 C 
HETATM    8  C11 UNL     1      -0.156  18.543  39.453  1.00  0.00     0.015 C 
HETATM    9  C12 UNL     1       2.070  17.637  39.855  1.00  0.00     0.014 C 
HETATM   10  C13 UNL     1       0.568  16.453  38.250  1.00  0.00     0.023 C 
HETATM   11  C16 UNL     1       0.863  14.370  39.395  1.00  0.00     0.036 C 
ENDROOT
BRANCH   1  12
HETATM   12  N2  UNL     1       1.770  14.612  37.087  1.00  0.00    -0.333 N 
HETATM   13  C3  UNL     1       2.794  13.648  36.874  1.00  0.00     0.316 C 
HETATM   14  N1  UNL     1       2.958  13.064  35.560  1.00  0.00    -0.343 N 
HETATM   15  O1  UNL     1       3.601  13.233  37.729  1.00  0.00    -0.247 OA
ATOM     16  H1  UNL     1       2.341  13.346  34.799  1.00  0.00     0.164 HD
ATOM     17  H2  UNL     1       1.194  14.846  36.279  1.00  0.00     0.165 HD
BRANCH  14  18
HETATM   18  C2  UNL     1       3.984  12.089  35.323  1.00  0.00     0.120 C 
HETATM   19  C1  UNL     1       3.483  10.948  34.488  1.00  0.00     0.026 C 
ENDBRANCH  14  18
ENDBRANCH   1  12
BRANCH  10  20
HETATM   20  C14 UNL     1       0.167  17.150  37.024  1.00  0.00     0.023 C 
BRANCH  20  21
HETATM   21  C15 UNL     1      -1.188  16.877  36.446  1.00  0.00     0.115 C 
HETATM   22 CL1  UNL     1      -1.332  15.128  36.005  1.00  0.00    -0.130 Cl
ENDBRANCH  20  21
ENDBRANCH  10  20
TORSDOF 4
ENDMDL
MODEL 4
REMARK VINA RESULT: -6.672476056      2.747      4.558
REMARK  4 active torsions:
REMARK  status: ('A' for Active; 'I' for Inactive)
REMARK    1  A    between atoms: C2_2  and  N1_3 
REMARK       I    between atoms: N1_3  and  C3_5 
REMARK       I    between atoms: C3_5  and  N2_7 
REMARK    2  A    between atoms: N2_7  and  C4_9 
REMARK    3  A    between atoms: C13_18  and  C14_19 
REMARK    4  A    between atoms: C14_19  and  C15_20 
ROOT
HETATM    1  C4  UNL     1       2.494  16.929  43.231  1.00  0.00     0.039 C 
HETATM    2  C5  UNL     1       2.017  16.547  44.658  1.00  0.00     0.036 C 
HETATM    3  C6  UNL     1       1.454  15.168  44.747  1.00  0.00    -0.011 C 
HETATM    4  C7  UNL     1       2.605  14.215  44.487  1.00  0.00     0.009 C 
HETATM    5  C8  UNL     1       3.139  14.557  43.108  1.00  0.00    -0.011 C 
HETATM    6  C9  UNL     1       2.040  14.257  42.142  1.00  0.00     0.014 C 
HETATM    7  C10 UNL     1       0.893  15.268  42.365  1.00  0.00    -0.037 C 
HETATM    8  C11 UNL     1      -0.178  14.956  41.366  1.00  0.00     0.015 C 
HETATM    9  C12 UNL     1       0.349  15.080  43.742  1.00  0.00     0.014 C 
HETATM   10  C13 UNL     1       1.523  16.628  42.174  1.00  0.00     0.023 C 
HETATM   11  C16 UNL     1       3.669  15.956  42.998  1.00  0.00     0.036 C 
ENDROOT
BRANCH   1  12
HETATM   12  N2  UNL     1       2.899  18.289  43.414  1.00  0.00    -0.333 N 
HETATM   13  C3  UNL     1       3.923  18.984  42.716  1.00  0.00     0.316 C 
HETATM   14  N1  UNL     1       4.190  20.369  43.038  1.00  0.00    -0.343 N 
HETATM   15  O1  UNL     1       4.650  18.513  41.817  1.00  0.00    -0.247 OA
ATOM     16  H1  UNL     1       3.643  20.835  43.762  1.00  0.00     0.164 HD
ATOM     17  H2  UNL     1       2.396  18.819  44.126  1.00  0.00     0.165 HD
BRANCH  14  18
HETATM   18  C2  UNL     1       5.219  21.091  42.345  1.00  0.00     0.120 C 
HETATM   19  C1  UNL     1       4.965  22.568  42.356  1.00  0.00     0.026 C 
ENDBRANCH  14  18
ENDBRANCH   1  12
BRANCH  10  20
HETATM   20  C14 UNL     1       0.727  17.624  41.449  1.00  0.00     0.023 C 
BRANCH  20  21
HETATM   21  C15 UNL     1       1.068  17.924  40.022  1.00  0.00     0.115 C 
HETATM   22 CL1  UNL     1       2.567  17.030  39.542  1.00  0.00    -0.130 Cl
ENDBRANCH  20  21
ENDBRANCH  10  20
TORSDOF 4
ENDMDL
MODEL 5
REMARK VINA RESULT: -6.305330589      2.647      5.249
REMARK  4 active torsions:
REMARK  status: ('A' for Active; 'I' for Inactive)
REMARK    1  A    between atoms: C2_2  and  N1_3 
REMARK       I    between atoms: N1_3  and  C3_5 
REMARK       I    between atoms: C3_5  and  N2_7 
REMARK    2  A    between atoms: N2_7  and  C4_9 
REMARK    3  A    between atoms: C13_18  and  C14_19 
REMARK    4  A    between atoms: C14_19  and  C15_20 
ROOT
HETATM    1  C4  UNL     1       1.048  15.343  41.931  1.00  0.00     0.039 C 
HETATM    2  C5  UNL     1      -0.161  16.298  41.749  1.00  0.00     0.036 C 
HETATM    3  C6  UNL     1       0.102  17.414  40.794  1.00  0.00    -0.011 C 
HETATM    4  C7  UNL     1       0.267  16.781  39.426  1.00  0.00     0.009 C 
HETATM    5  C8  UNL     1       1.425  15.808  39.544  1.00  0.00    -0.011 C 
HETATM    6  C9  UNL     1       2.638  16.626  39.844  1.00  0.00     0.014 C 
HETATM    7  C10 UNL     1       2.498  17.220  41.263  1.00  0.00    -0.037 C 
HETATM    8  C11 UNL     1       3.738  18.011  41.541  1.00  0.00     0.015 C 
HETATM    9  C12 UNL     1       1.318  18.134  41.286  1.00  0.00     0.014 C 
HETATM   10  C13 UNL     1       2.322  16.028  42.174  1.00  0.00     0.023 C 
HETATM   11  C16 UNL     1       1.186  14.705  40.532  1.00  0.00     0.036 C 
ENDROOT
BRANCH   1  12
HETATM   12  N2  UNL     1       0.559  14.442  42.930  1.00  0.00    -0.333 N 
HETATM   13  C3  UNL     1       1.264  13.371  43.542  1.00  0.00     0.316 C 
HETATM   14  N1  UNL     1       0.601  12.564  44.544  1.00  0.00    -0.343 N 
HETATM   15  O1  UNL     1       2.441  13.033  43.302  1.00  0.00    -0.247 OA
ATOM     16  H1  UNL     1      -0.364  12.769  44.802  1.00  0.00     0.164 HD
ATOM     17  H2  UNL     1      -0.403  14.586  43.237  1.00  0.00     0.165 HD
BRANCH  14  18
HETATM   18  C2  UNL     1       1.294  11.477  45.176  1.00  0.00     0.120 C 
HETATM   19  C1  UNL     1       0.894  10.153  44.600  1.00  0.00     0.026 C 
ENDBRANCH  14  18
ENDBRANCH   1  12
BRANCH  10  20
HETATM   20  C14 UNL     1       3.022  16.076  43.462  1.00  0.00     0.023 C 
BRANCH  20  21
HETATM   21  C15 UNL     1       2.456  16.919  44.563  1.00  0.00     0.115 C 
HETATM   22 CL1  UNL     1       1.490  15.889  45.696  1.00  0.00    -0.130 Cl
ENDBRANCH  20  21
ENDBRANCH  10  20
TORSDOF 4
ENDMDL
