MODEL 1
REMARK VINA RESULT: -7.438958859      0.000      0.000
REMARK  7 active torsions:
REMARK  status: ('A' for Active; 'I' for Inactive)
REMARK    1  A    between atoms: C2_2  and  C3_3 
REMARK    2  A    between atoms: C5_6  and  C6_7 
REMARK    3  A    between atoms: C6_7  and  C7_8 
REMARK    4  A    between atoms: C7_8  and  N1_9 
REMARK    5  A    between atoms: N1_9  and  C8_11 
REMARK    6  A    between atoms: C8_11  and  N2_13 
REMARK    7  A    between atoms: N2_13  and  C9_15 
ROOT
HETATM    1  N1  UNL     1       4.141  18.718  43.602  1.00  0.00    -0.367 N 
ATOM      2  H1  UNL     1       4.737  18.550  44.412  1.00  0.00     0.161 HD
ENDROOT
BRANCH   1   3
HETATM    3  C7  UNL     1       4.444  19.866  42.790  1.00  0.00     0.122 C 
BRANCH   3   4
HETATM    4  C6  UNL     1       5.918  20.039  42.615  1.00  0.00     0.026 C 
BRANCH   4   5
HETATM    5  C5  UNL     1       6.314  20.862  41.422  1.00  0.00     0.012 A 
HETATM    6  C3  UNL     1       7.024  22.136  41.499  1.00  0.00     0.041 A 
HETATM    7 CL1  UNL     1       7.691  22.807  42.986  1.00  0.00    -0.119 Cl
HETATM    8  C4  UNL     1       7.762  20.880  41.034  1.00  0.00     0.032 A 
BRANCH   6   9
HETATM    9  C2  UNL     1       6.802  23.153  40.376  1.00  0.00     0.021 C 
HETATM   10  C1  UNL     1       7.452  24.463  40.798  1.00  0.00     0.007 C 
ENDBRANCH   6   9
ENDBRANCH   4   5
ENDBRANCH   3   4
ENDBRANCH   1   3
BRANCH   1  11
HETATM   11  C8  UNL     1       3.100  17.814  43.373  1.00  0.00     0.167 C 
HETATM   12  S1  UNL     1       2.984  16.486  44.351  1.00  0.00    -0.041 SA
BRANCH  11  13
HETATM   13  N2  UNL     1       2.175  18.002  42.321  1.00  0.00    -0.363 N 
ATOM     14  H2  UNL     1       1.757  18.925  42.215  1.00  0.00     0.162 HD
BRANCH  13  15
HETATM   15  C9  UNL     1       1.782  16.969  41.381  1.00  0.00     0.083 C 
HETATM   16  C10 UNL     1       0.290  17.106  41.203  1.00  0.00     0.025 C 
HETATM   17  C11 UNL     1      -0.073  18.170  40.194  1.00  0.00     0.002 C 
HETATM   18  C12 UNL     1       0.419  17.681  38.882  1.00  0.00     0.000 C 
HETATM   19  C13 UNL     1       1.882  17.445  38.871  1.00  0.00     0.002 C 
HETATM   20  C14 UNL     1       2.556  17.077  40.116  1.00  0.00     0.025 C 
ENDBRANCH  13  15
ENDBRANCH  11  13
ENDBRANCH   1  11
TORSDOF 7
ENDMDL
MODEL 2
REMARK VINA RESULT: -7.305158616      0.902      1.016
REMARK  7 active torsions:
REMARK  status: ('A' for Active; 'I' for Inactive)
REMARK    1  A    between atoms: C2_2  and  C3_3 
REMARK    2  A    between atoms: C5_6  and  C6_7 
REMARK    3  A    between atoms: C6_7  and  C7_8 
REMARK    4  A    between atoms: C7_8  and  N1_9 
REMARK    5  A    between atoms: N1_9  and  C8_11 
REMARK    6  A    between atoms: C8_11  and  N2_13 
REMARK    7  A    between atoms: N2_13  and  C9_15 
ROOT
HETATM    1  N1  UNL     1       4.113  18.574  43.719  1.00  0.00    -0.367 N 
ATOM      2  H1  UNL     1       4.753  18.259  44.448  1.00  0.00     0.161 HD
ENDROOT
BRANCH   1   3
HETATM    3  C7  UNL     1       4.443  19.795  43.036  1.00  0.00     0.122 C 
BRANCH   3   4
HETATM    4  C6  UNL     1       5.526  19.583  42.027  1.00  0.00     0.026 C 
BRANCH   4   5
HETATM    5  C5  UNL     1       6.188  20.843  41.547  1.00  0.00     0.012 A 
HETATM    6  C3  UNL     1       7.360  21.449  42.175  1.00  0.00     0.041 A 
HETATM    7 CL1  UNL     1       8.285  20.696  43.472  1.00  0.00    -0.119 Cl
HETATM    8  C4  UNL     1       7.506  20.715  40.841  1.00  0.00     0.032 A 
BRANCH   6   9
HETATM    9  C2  UNL     1       7.540  22.964  42.050  1.00  0.00     0.021 C 
HETATM   10  C1  UNL     1       7.631  23.540  43.456  1.00  0.00     0.007 C 
ENDBRANCH   6   9
ENDBRANCH   4   5
ENDBRANCH   3   4
ENDBRANCH   1   3
BRANCH   1  11
HETATM   11  C8  UNL     1       2.989  17.782  43.467  1.00  0.00     0.167 C 
HETATM   12  S1  UNL     1       2.642  16.553  44.518  1.00  0.00    -0.041 SA
BRANCH  11  13
HETATM   13  N2  UNL     1       2.173  17.995  42.333  1.00  0.00    -0.363 N 
ATOM     14  H2  UNL     1       1.837  18.942  42.160  1.00  0.00     0.162 HD
BRANCH  13  15
HETATM   15  C9  UNL     1       1.782  16.957  41.397  1.00  0.00     0.083 C 
HETATM   16  C10 UNL     1       0.288  17.082  41.228  1.00  0.00     0.025 C 
HETATM   17  C11 UNL     1      -0.090  18.141  40.220  1.00  0.00     0.002 C 
HETATM   18  C12 UNL     1       0.397  17.655  38.906  1.00  0.00     0.000 C 
HETATM   19  C13 UNL     1       1.861  17.430  38.885  1.00  0.00     0.002 C 
HETATM   20  C14 UNL     1       2.546  17.070  40.127  1.00  0.00     0.025 C 
ENDBRANCH  13  15
ENDBRANCH  11  13
ENDBRANCH   1  11
TORSDOF 7
ENDMDL
MODEL 3
REMARK VINA RESULT: -6.886580226      0.963      1.541
REMARK  7 active torsions:
REMARK  status: ('A' for Active; 'I' for Inactive)
REMARK    1  A    between atoms: C2_2  and  C3_3 
REMARK    2  A    between atoms: C5_6  and  C6_7 
REMARK    3  A    between atoms: C6_7  and  C7_8 
REMARK    4  A    between atoms: C7_8  and  N1_9 
REMARK    5  A    between atoms: N1_9  and  C8_11 
REMARK    6  A    between atoms: C8_11  and  N2_13 
REMARK    7  A    between atoms: N2_13  and  C9_15 
ROOT
HETATM    1  N1  UNL     1       3.212  18.851  43.088  1.00  0.00    -0.367 N 
ATOM      2  H1  UNL     1       2.613  19.666  43.218  1.00  0.00     0.161 HD
ENDROOT
BRANCH   1   3
HETATM    3  C7  UNL     1       4.627  19.083  42.985  1.00  0.00     0.122 C 
BRANCH   3   4
HETATM    4  C6  UNL     1       4.928  20.527  42.739  1.00  0.00     0.026 C 
BRANCH   4   5
HETATM    5  C5  UNL     1       6.194  20.780  41.970  1.00  0.00     0.012 A 
HETATM    6  C3  UNL     1       6.927  22.043  41.982  1.00  0.00     0.041 A 
HETATM    7 CL1  UNL     1       6.544  23.396  43.045  1.00  0.00    -0.119 Cl
HETATM    8  C4  UNL     1       7.481  20.835  42.739  1.00  0.00     0.032 A 
BRANCH   6   9
HETATM    9  C2  UNL     1       7.753  22.408  40.746  1.00  0.00     0.021 C 
HETATM   10  C1  UNL     1       7.482  23.870  40.419  1.00  0.00     0.007 C 
ENDBRANCH   6   9
ENDBRANCH   4   5
ENDBRANCH   3   4
ENDBRANCH   1   3
BRANCH   1  11
HETATM   11  C8  UNL     1       2.588  17.601  43.024  1.00  0.00     0.167 C 
HETATM   12  S1  UNL     1       2.914  16.500  44.214  1.00  0.00    -0.041 SA
BRANCH  11  13
HETATM   13  N2  UNL     1       1.719  17.261  41.963  1.00  0.00    -0.363 N 
ATOM     14  H2  UNL     1       1.115  16.449  42.086  1.00  0.00     0.162 HD
BRANCH  13  15
HETATM   15  C9  UNL     1       1.628  17.990  40.712  1.00  0.00     0.083 C 
HETATM   16  C10 UNL     1       2.594  17.323  39.764  1.00  0.00     0.025 C 
HETATM   17  C11 UNL     1       2.000  16.102  39.103  1.00  0.00     0.002 C 
HETATM   18  C12 UNL     1       0.901  16.594  38.235  1.00  0.00     0.000 C 
HETATM   19  C13 UNL     1      -0.143  17.324  38.992  1.00  0.00     0.002 C 
HETATM   20  C14 UNL     1       0.226  18.029  40.219  1.00  0.00     0.025 C 
ENDBRANCH  13  15
ENDBRANCH  11  13
ENDBRANCH   1  11
TORSDOF 7
ENDMDL
MODEL 4
REMARK VINA RESULT: -6.861711670      1.377      1.634
REMARK  7 active torsions:
REMARK  status: ('A' for Active; 'I' for Inactive)
REMARK    1  A    between atoms: C2_2  and  C3_3 
REMARK    2  A    between atoms: C5_6  and  C6_7 
REMARK    3  A    between atoms: C6_7  and  C7_8 
REMARK    4  A    between atoms: C7_8  and  N1_9 
REMARK    5  A    between atoms: N1_9  and  C8_11 
REMARK    6  A    between atoms: C8_11  and  N2_13 
REMARK    7  A    between atoms: N2_13  and  C9_15 
ROOT
HETATM    1  N1  UNL     1       4.229  19.114  43.542  1.00  0.00    -0.367 N 
ATOM      2  H1  UNL     1       4.317  19.290  44.542  1.00  0.00     0.161 HD
ENDROOT
BRANCH   1   3
HETATM    3  C7  UNL     1       5.085  19.864  42.664  1.00  0.00     0.122 C 
BRANCH   3   4
HETATM    4  C6  UNL     1       4.720  21.314  42.650  1.00  0.00     0.026 C 
BRANCH   4   5
HETATM    5  C5  UNL     1       5.866  22.245  42.374  1.00  0.00     0.012 A 
HETATM    6  C3  UNL     1       5.761  23.470  41.586  1.00  0.00     0.041 A 
HETATM    7 CL1  UNL     1       4.240  24.139  41.000  1.00  0.00    -0.119 Cl
HETATM    8  C4  UNL     1       5.897  23.553  43.106  1.00  0.00     0.032 A 
BRANCH   6   9
HETATM    9  C2  UNL     1       7.008  23.958  40.843  1.00  0.00     0.021 C 
HETATM   10  C1  UNL     1       7.842  22.738  40.480  1.00  0.00     0.007 C 
ENDBRANCH   6   9
ENDBRANCH   4   5
ENDBRANCH   3   4
ENDBRANCH   1   3
BRANCH   1  11
HETATM   11  C8  UNL     1       3.287  18.163  43.139  1.00  0.00     0.167 C 
HETATM   12  S1  UNL     1       3.008  16.866  44.125  1.00  0.00    -0.041 SA
BRANCH  11  13
HETATM   13  N2  UNL     1       2.599  18.279  41.909  1.00  0.00    -0.363 N 
ATOM     14  H2  UNL     1       2.475  19.213  41.520  1.00  0.00     0.162 HD
BRANCH  13  15
HETATM   15  C9  UNL     1       2.056  17.158  41.164  1.00  0.00     0.083 C 
HETATM   16  C10 UNL     1       0.555  17.293  41.231  1.00  0.00     0.025 C 
HETATM   17  C11 UNL     1       0.018  18.250  40.193  1.00  0.00     0.002 C 
HETATM   18  C12 UNL     1       0.281  17.621  38.875  1.00  0.00     0.000 C 
HETATM   19  C13 UNL     1       1.721  17.368  38.638  1.00  0.00     0.002 C 
HETATM   20  C14 UNL     1       2.601  17.124  39.781  1.00  0.00     0.025 C 
ENDBRANCH  13  15
ENDBRANCH  11  13
ENDBRANCH   1  11
TORSDOF 7
ENDMDL
MODEL 5
REMARK VINA RESULT: -6.731528359      1.258      1.839
REMARK  7 active torsions:
REMARK  status: ('A' for Active; 'I' for Inactive)
REMARK    1  A    between atoms: C2_2  and  C3_3 
REMARK    2  A    between atoms: C5_6  and  C6_7 
REMARK    3  A    between atoms: C6_7  and  C7_8 
REMARK    4  A    between atoms: C7_8  and  N1_9 
REMARK    5  A    between atoms: N1_9  and  C8_11 
REMARK    6  A    between atoms: C8_11  and  N2_13 
REMARK    7  A    between atoms: N2_13  and  C9_15 
ROOT
HETATM    1  N1  UNL     1       3.056  18.518  42.896  1.00  0.00    -0.367 N 
ATOM      2  H1  UNL     1       2.637  19.237  43.485  1.00  0.00     0.161 HD
ENDROOT
BRANCH   1   3
HETATM    3  C7  UNL     1       4.324  18.820  42.289  1.00  0.00     0.122 C 
BRANCH   3   4
HETATM    4  C6  UNL     1       5.063  19.868  43.058  1.00  0.00     0.026 C 
BRANCH   4   5
HETATM    5  C5  UNL     1       5.761  20.890  42.208  1.00  0.00     0.012 A 
HETATM    6  C3  UNL     1       7.150  21.303  42.389  1.00  0.00     0.041 A 
HETATM    7 CL1  UNL     1       8.272  20.529  43.507  1.00  0.00    -0.119 Cl
HETATM    8  C4  UNL     1       6.772  20.402  41.213  1.00  0.00     0.032 A 
BRANCH   6   9
HETATM    9  C2  UNL     1       7.544  22.719  41.959  1.00  0.00     0.021 C 
HETATM   10  C1  UNL     1       7.527  23.604  43.198  1.00  0.00     0.007 C 
ENDBRANCH   6   9
ENDBRANCH   4   5
ENDBRANCH   3   4
ENDBRANCH   1   3
BRANCH   1  11
HETATM   11  C8  UNL     1       2.349  17.321  42.747  1.00  0.00     0.167 C 
HETATM   12  S1  UNL     1       2.339  16.252  44.008  1.00  0.00    -0.041 SA
BRANCH  11  13
HETATM   13  N2  UNL     1       1.676  17.004  41.545  1.00  0.00    -0.363 N 
ATOM     14  H2  UNL     1       1.237  16.087  41.474  1.00  0.00     0.162 HD
BRANCH  13  15
HETATM   15  C9  UNL     1       1.567  17.897  40.406  1.00  0.00     0.083 C 
HETATM   16  C10 UNL     1       2.541  17.386  39.374  1.00  0.00     0.025 C 
HETATM   17  C11 UNL     1       1.967  16.257  38.551  1.00  0.00     0.002 C 
HETATM   18  C12 UNL     1       0.856  16.844  37.761  1.00  0.00     0.000 C 
HETATM   19  C13 UNL     1      -0.198  17.442  38.613  1.00  0.00     0.002 C 
HETATM   20  C14 UNL     1       0.162  17.978  39.926  1.00  0.00     0.025 C 
ENDBRANCH  13  15
ENDBRANCH  11  13
ENDBRANCH   1  11
TORSDOF 7
ENDMDL
