MODEL 1
REMARK VINA RESULT: -3.223751528      0.000      0.000
REMARK  1 active torsions:
REMARK  status: ('A' for Active; 'I' for Inactive)
REMARK    1  A    between atoms: N2_3  and  C2_5 
ROOT
HETATM    1  N1  UNL     1     -32.821 -25.849 -47.906  1.00  0.00    -0.097 NA
HETATM    2  C1  UNL     1     -34.154 -25.459 -47.593  1.00  0.00     0.185 C 
HETATM    3  N2  UNL     1     -35.115 -25.552 -48.415  1.00  0.00    -0.383 N 
ATOM      4  H2  UNL     1     -34.928 -25.923 -49.346  1.00  0.00     0.160 HD
ENDROOT
BRANCH   3   5
HETATM    5  C2  UNL     1     -36.448 -25.159 -48.091  1.00  0.00     0.082 A 
HETATM    6  C3  UNL     1     -37.444 -26.128 -47.590  1.00  0.00     0.027 A 
HETATM    7  C4  UNL     1     -36.794 -25.114 -46.645  1.00  0.00     0.027 A 
ENDBRANCH   3   5
TORSDOF 1
ENDMDL
MODEL 2
REMARK VINA RESULT: -3.124659292      2.855      3.670
REMARK  1 active torsions:
REMARK  status: ('A' for Active; 'I' for Inactive)
REMARK    1  A    between atoms: N2_3  and  C2_5 
ROOT
HETATM    1  N1  UNL     1     -36.433 -26.202 -48.259  1.00  0.00    -0.097 NA
HETATM    2  C1  UNL     1     -37.504 -25.596 -47.544  1.00  0.00     0.185 C 
HETATM    3  N2  UNL     1     -38.546 -26.225 -47.190  1.00  0.00    -0.383 N 
ATOM      4  H2  UNL     1     -38.625 -27.213 -47.428  1.00  0.00     0.160 HD
ENDROOT
BRANCH   3   5
HETATM    5  C2  UNL     1     -39.614 -25.607 -46.472  1.00  0.00     0.082 A 
HETATM    6  C3  UNL     1     -41.028 -25.829 -46.841  1.00  0.00     0.027 A 
HETATM    7  C4  UNL     1     -40.428 -26.495 -45.600  1.00  0.00     0.027 A 
ENDBRANCH   3   5
TORSDOF 1
ENDMDL
MODEL 3
REMARK VINA RESULT: -3.108417469      6.721      7.351
REMARK  1 active torsions:
REMARK  status: ('A' for Active; 'I' for Inactive)
REMARK    1  A    between atoms: N2_3  and  C2_5 
ROOT
HETATM    1  N1  UNL     1     -31.084 -31.002 -48.287  1.00  0.00    -0.097 NA
HETATM    2  C1  UNL     1     -30.562 -29.692 -48.484  1.00  0.00     0.185 C 
HETATM    3  N2  UNL     1     -29.596 -29.441 -49.265  1.00  0.00    -0.383 N 
ATOM      4  H2  UNL     1     -29.168 -30.212 -49.778  1.00  0.00     0.160 HD
ENDROOT
BRANCH   3   5
HETATM    5  C2  UNL     1     -29.080 -28.124 -49.456  1.00  0.00     0.082 A 
HETATM    6  C3  UNL     1     -28.695 -27.627 -50.793  1.00  0.00     0.027 A 
HETATM    7  C4  UNL     1     -29.984 -27.147 -50.121  1.00  0.00     0.027 A 
ENDBRANCH   3   5
TORSDOF 1
ENDMDL
MODEL 4
REMARK VINA RESULT: -3.032153802     10.477     11.031
REMARK  1 active torsions:
REMARK  status: ('A' for Active; 'I' for Inactive)
REMARK    1  A    between atoms: N2_3  and  C2_5 
ROOT
HETATM    1  N1  UNL     1     -28.777 -26.846 -39.613  1.00  0.00    -0.097 NA
HETATM    2  C1  UNL     1     -29.923 -26.408 -38.891  1.00  0.00     0.185 C 
HETATM    3  N2  UNL     1     -30.280 -26.912 -37.784  1.00  0.00    -0.383 N 
ATOM      4  H2  UNL     1     -29.722 -27.668 -37.388  1.00  0.00     0.160 HD
ENDROOT
BRANCH   3   5
HETATM    5  C2  UNL     1     -31.430 -26.464 -37.067  1.00  0.00     0.082 A 
HETATM    6  C3  UNL     1     -32.792 -26.916 -37.424  1.00  0.00     0.027 A 
HETATM    7  C4  UNL     1     -32.087 -27.460 -36.178  1.00  0.00     0.027 A 
ENDBRANCH   3   5
TORSDOF 1
ENDMDL
MODEL 5
REMARK VINA RESULT: -2.992991744      2.844      3.718
REMARK  1 active torsions:
REMARK  status: ('A' for Active; 'I' for Inactive)
REMARK    1  A    between atoms: N2_3  and  C2_5 
ROOT
HETATM    1  N1  UNL     1     -36.992 -25.484 -48.434  1.00  0.00    -0.097 NA
HETATM    2  C1  UNL     1     -37.689 -25.486 -47.192  1.00  0.00     0.185 C 
HETATM    3  N2  UNL     1     -38.672 -26.248 -46.949  1.00  0.00    -0.383 N 
ATOM      4  H2  UNL     1     -38.982 -26.893 -47.676  1.00  0.00     0.160 HD
ENDROOT
BRANCH   3   5
HETATM    5  C2  UNL     1     -39.364 -26.242 -45.701  1.00  0.00     0.082 A 
HETATM    6  C3  UNL     1     -39.337 -27.407 -44.793  1.00  0.00     0.027 A 
HETATM    7  C4  UNL     1     -38.523 -26.150 -44.477  1.00  0.00     0.027 A 
ENDBRANCH   3   5
TORSDOF 1
ENDMDL
