MODEL 1
REMARK VINA RESULT: -3.634112300      0.000      0.000
REMARK  2 active torsions:
REMARK  status: ('A' for Active; 'I' for Inactive)
REMARK    1  A    between atoms: C2_2  and  C3_3 
REMARK    2  A    between atoms: C3_3  and  C4_4 
ROOT
HETATM    1  C4  UNL     1     -38.377 -25.498 -46.661  1.00  0.00     0.103 A 
HETATM    2  C5  UNL     1     -37.120 -24.829 -46.250  1.00  0.00     0.145 A 
HETATM    3  N1  UNL     1     -36.179 -25.175 -47.269  1.00  0.00    -0.384 N 
ATOM      4  H1  UNL     1     -35.219 -24.833 -47.277  1.00  0.00     0.160 HD
HETATM    5  C6  UNL     1     -36.645 -25.941 -48.158  1.00  0.00     0.171 A 
HETATM    6  N2  UNL     1     -38.002 -26.223 -47.847  1.00  0.00    -0.380 N 
ATOM      7  H2  UNL     1     -38.613 -26.842 -48.380  1.00  0.00     0.160 HD
ENDROOT
BRANCH   1   8
HETATM    8  C3  UNL     1     -38.983 -26.400 -45.623  1.00  0.00     0.053 C 
BRANCH   8   9
HETATM    9  C2  UNL     1     -40.445 -26.348 -45.574  1.00  0.00    -0.035 C 
HETATM   10  C1  UNL     1     -41.121 -25.443 -46.264  1.00  0.00     0.007 C 
ENDBRANCH   8   9
ENDBRANCH   1   8
TORSDOF 2
ENDMDL
MODEL 2
REMARK VINA RESULT: -3.585303300      0.987      1.342
REMARK  2 active torsions:
REMARK  status: ('A' for Active; 'I' for Inactive)
REMARK    1  A    between atoms: C2_2  and  C3_3 
REMARK    2  A    between atoms: C3_3  and  C4_4 
ROOT
HETATM    1  C4  UNL     1     -38.296 -25.448 -46.234  1.00  0.00     0.103 A 
HETATM    2  C5  UNL     1     -36.949 -24.830 -46.224  1.00  0.00     0.145 A 
HETATM    3  N1  UNL     1     -36.347 -25.263 -47.446  1.00  0.00    -0.384 N 
ATOM      4  H1  UNL     1     -35.415 -24.972 -47.739  1.00  0.00     0.160 HD
HETATM    5  C6  UNL     1     -37.073 -26.038 -48.129  1.00  0.00     0.171 A 
HETATM    6  N2  UNL     1     -38.298 -26.237 -47.438  1.00  0.00    -0.380 N 
ATOM      7  H2  UNL     1     -39.058 -26.844 -47.747  1.00  0.00     0.160 HD
ENDROOT
BRANCH   1   8
HETATM    8  C3  UNL     1     -38.622 -26.277 -45.023  1.00  0.00     0.053 C 
BRANCH   8   9
HETATM    9  C2  UNL     1     -39.845 -27.069 -45.159  1.00  0.00    -0.035 C 
HETATM   10  C1  UNL     1     -39.920 -28.299 -44.677  1.00  0.00     0.007 C 
ENDBRANCH   8   9
ENDBRANCH   1   8
TORSDOF 2
ENDMDL
MODEL 3
REMARK VINA RESULT: -3.558052675      1.091      1.613
REMARK  2 active torsions:
REMARK  status: ('A' for Active; 'I' for Inactive)
REMARK    1  A    between atoms: C2_2  and  C3_3 
REMARK    2  A    between atoms: C3_3  and  C4_4 
ROOT
HETATM    1  C4  UNL     1     -38.372 -25.528 -46.527  1.00  0.00     0.103 A 
HETATM    2  C5  UNL     1     -37.090 -24.849 -46.223  1.00  0.00     0.145 A 
HETATM    3  N1  UNL     1     -36.240 -25.178 -47.324  1.00  0.00    -0.384 N 
ATOM      4  H1  UNL     1     -35.287 -24.826 -47.415  1.00  0.00     0.160 HD
HETATM    5  C6  UNL     1     -36.775 -25.943 -48.175  1.00  0.00     0.171 A 
HETATM    6  N2  UNL     1     -38.096 -26.241 -47.748  1.00  0.00    -0.380 N 
ATOM      7  H2  UNL     1     -38.746 -26.863 -48.229  1.00  0.00     0.160 HD
ENDROOT
BRANCH   1   8
HETATM    8  C3  UNL     1     -38.875 -26.444 -45.447  1.00  0.00     0.053 C 
BRANCH   8   9
HETATM    9  C2  UNL     1     -38.358 -26.129 -44.114  1.00  0.00    -0.035 C 
HETATM   10  C1  UNL     1     -39.174 -25.961 -43.086  1.00  0.00     0.007 C 
ENDBRANCH   8   9
ENDBRANCH   1   8
TORSDOF 2
ENDMDL
MODEL 4
REMARK VINA RESULT: -3.478834318      2.970      4.076
REMARK  2 active torsions:
REMARK  status: ('A' for Active; 'I' for Inactive)
REMARK    1  A    between atoms: C2_2  and  C3_3 
REMARK    2  A    between atoms: C3_3  and  C4_4 
ROOT
HETATM    1  C4  UNL     1     -40.136 -26.462 -45.095  1.00  0.00     0.103 A 
HETATM    2  C5  UNL     1     -41.281 -26.734 -44.194  1.00  0.00     0.145 A 
HETATM    3  N1  UNL     1     -41.213 -28.140 -43.942  1.00  0.00    -0.384 N 
ATOM      4  H1  UNL     1     -41.862 -28.625 -43.323  1.00  0.00     0.160 HD
HETATM    5  C6  UNL     1     -40.278 -28.726 -44.555  1.00  0.00     0.171 A 
HETATM    6  N2  UNL     1     -39.569 -27.766 -45.326  1.00  0.00    -0.380 N 
ATOM      7  H2  UNL     1     -38.784 -27.968 -45.944  1.00  0.00     0.160 HD
ENDROOT
BRANCH   1   8
HETATM    8  C3  UNL     1     -40.493 -25.774 -46.383  1.00  0.00     0.053 C 
BRANCH   8   9
HETATM    9  C2  UNL     1     -41.863 -25.259 -46.419  1.00  0.00    -0.035 C 
HETATM   10  C1  UNL     1     -42.609 -25.376 -47.506  1.00  0.00     0.007 C 
ENDBRANCH   8   9
ENDBRANCH   1   8
TORSDOF 2
ENDMDL
MODEL 5
REMARK VINA RESULT: -3.345728652      1.331      1.924
REMARK  2 active torsions:
REMARK  status: ('A' for Active; 'I' for Inactive)
REMARK    1  A    between atoms: C2_2  and  C3_3 
REMARK    2  A    between atoms: C3_3  and  C4_4 
ROOT
HETATM    1  C4  UNL     1     -38.774 -26.272 -45.766  1.00  0.00     0.103 A 
HETATM    2  C5  UNL     1     -38.233 -25.684 -47.014  1.00  0.00     0.145 A 
HETATM    3  N1  UNL     1     -37.100 -24.923 -46.589  1.00  0.00    -0.384 N 
ATOM      4  H1  UNL     1     -36.495 -24.419 -47.237  1.00  0.00     0.160 HD
HETATM    5  C6  UNL     1     -36.915 -24.932 -45.340  1.00  0.00     0.171 A 
HETATM    6  N2  UNL     1     -37.929 -25.723 -44.738  1.00  0.00    -0.380 N 
ATOM      7  H2  UNL     1     -38.041 -25.877 -43.736  1.00  0.00     0.160 HD
ENDROOT
BRANCH   1   8
HETATM    8  C3  UNL     1     -40.227 -25.983 -45.508  1.00  0.00     0.053 C 
BRANCH   8   9
HETATM    9  C2  UNL     1     -41.002 -25.717 -46.720  1.00  0.00    -0.035 C 
HETATM   10  C1  UNL     1     -42.205 -25.169 -46.657  1.00  0.00     0.007 C 
ENDBRANCH   8   9
ENDBRANCH   1   8
TORSDOF 2
ENDMDL
