MODEL 1
REMARK VINA RESULT: -3.407252478      0.000      0.000
REMARK  1 active torsions:
REMARK  status: ('A' for Active; 'I' for Inactive)
REMARK    1  A    between atoms: C2_2  and  C3_3 
ROOT
HETATM    1  C3  UNL     1     -38.428 -25.729 -46.706  1.00  0.00     0.103 A 
HETATM    2  N1  UNL     1     -38.040 -26.289 -47.873  1.00  0.00    -0.351 N 
ATOM      3  H1  UNL     1     -38.619 -26.894 -48.455  1.00  0.00     0.166 HD
HETATM    4  C4  UNL     1     -36.776 -25.930 -48.150  1.00  0.00     0.106 A 
HETATM    5  C5  UNL     1     -36.364 -25.117 -47.115  1.00  0.00     0.106 A 
HETATM    6  N2  UNL     1     -37.373 -24.997 -46.238  1.00  0.00    -0.351 N 
ATOM      7  H2  UNL     1     -37.355 -24.455 -45.374  1.00  0.00     0.166 HD
ENDROOT
BRANCH   1   8
HETATM    8  C2  UNL     1     -39.699 -25.844 -46.028  1.00  0.00     0.038 C 
HETATM    9  C1  UNL     1     -40.807 -25.754 -46.714  1.00  0.00     0.015 C 
ENDBRANCH   1   8
TORSDOF 1
ENDMDL
MODEL 2
REMARK VINA RESULT: -3.402230796      0.055      1.382
REMARK  1 active torsions:
REMARK  status: ('A' for Active; 'I' for Inactive)
REMARK    1  A    between atoms: C2_2  and  C3_3 
ROOT
HETATM    1  C3  UNL     1     -38.395 -25.704 -46.678  1.00  0.00     0.103 A 
HETATM    2  N1  UNL     1     -37.314 -24.996 -46.283  1.00  0.00    -0.351 N 
ATOM      3  H1  UNL     1     -37.256 -24.442 -45.428  1.00  0.00     0.166 HD
HETATM    4  C4  UNL     1     -36.329 -25.132 -47.185  1.00  0.00     0.106 A 
HETATM    5  C5  UNL     1     -36.817 -25.955 -48.177  1.00  0.00     0.106 A 
HETATM    6  N2  UNL     1     -38.076 -26.301 -47.865  1.00  0.00    -0.351 N 
ATOM      7  H2  UNL     1     -38.687 -26.904 -48.417  1.00  0.00     0.166 HD
ENDROOT
BRANCH   1   8
HETATM    8  C2  UNL     1     -39.674 -25.843 -46.018  1.00  0.00     0.038 C 
HETATM    9  C1  UNL     1     -40.774 -25.756 -46.717  1.00  0.00     0.015 C 
ENDBRANCH   1   8
TORSDOF 1
ENDMDL
MODEL 3
REMARK VINA RESULT: -3.303440594      0.752      1.082
REMARK  1 active torsions:
REMARK  status: ('A' for Active; 'I' for Inactive)
REMARK    1  A    between atoms: C2_2  and  C3_3 
ROOT
HETATM    1  C3  UNL     1     -38.172 -25.845 -46.626  1.00  0.00     0.103 A 
HETATM    2  N1  UNL     1     -38.007 -26.292 -47.890  1.00  0.00    -0.351 N 
ATOM      3  H1  UNL     1     -38.683 -26.854 -48.407  1.00  0.00     0.166 HD
HETATM    4  C4  UNL     1     -36.818 -25.885 -48.362  1.00  0.00     0.106 A 
HETATM    5  C5  UNL     1     -36.223 -25.158 -47.354  1.00  0.00     0.106 A 
HETATM    6  N2  UNL     1     -37.051 -25.136 -46.297  1.00  0.00    -0.351 N 
ATOM      7  H2  UNL     1     -36.874 -24.672 -45.406  1.00  0.00     0.166 HD
ENDROOT
BRANCH   1   8
HETATM    8  C2  UNL     1     -39.295 -26.044 -45.737  1.00  0.00     0.038 C 
HETATM    9  C1  UNL     1     -39.232 -26.967 -44.814  1.00  0.00     0.015 C 
ENDBRANCH   1   8
TORSDOF 1
ENDMDL
MODEL 4
REMARK VINA RESULT: -3.249448415      1.571      3.387
REMARK  1 active torsions:
REMARK  status: ('A' for Active; 'I' for Inactive)
REMARK    1  A    between atoms: C2_2  and  C3_3 
ROOT
HETATM    1  C3  UNL     1     -38.908 -25.857 -46.493  1.00  0.00     0.103 A 
HETATM    2  N1  UNL     1     -40.118 -25.294 -46.700  1.00  0.00    -0.351 N 
ATOM      3  H1  UNL     1     -40.294 -24.480 -47.289  1.00  0.00     0.166 HD
HETATM    4  C4  UNL     1     -41.055 -25.969 -46.014  1.00  0.00     0.106 A 
HETATM    5  C5  UNL     1     -40.401 -26.988 -45.356  1.00  0.00     0.106 A 
HETATM    6  N2  UNL     1     -39.093 -26.917 -45.650  1.00  0.00    -0.351 N 
ATOM      7  H2  UNL     1     -38.366 -27.544 -45.304  1.00  0.00     0.166 HD
ENDROOT
BRANCH   1   8
HETATM    8  C2  UNL     1     -37.624 -25.462 -47.028  1.00  0.00     0.038 C 
HETATM    9  C1  UNL     1     -37.203 -25.985 -48.148  1.00  0.00     0.015 C 
ENDBRANCH   1   8
TORSDOF 1
ENDMDL
MODEL 5
REMARK VINA RESULT: -3.245250890      1.548      3.384
REMARK  1 active torsions:
REMARK  status: ('A' for Active; 'I' for Inactive)
REMARK    1  A    between atoms: C2_2  and  C3_3 
ROOT
HETATM    1  C3  UNL     1     -38.834 -25.883 -46.482  1.00  0.00     0.103 A 
HETATM    2  N1  UNL     1     -39.075 -26.920 -45.650  1.00  0.00    -0.351 N 
ATOM      3  H1  UNL     1     -38.369 -27.565 -45.296  1.00  0.00     0.166 HD
HETATM    4  C4  UNL     1     -40.385 -26.973 -45.360  1.00  0.00     0.106 A 
HETATM    5  C5  UNL     1     -40.979 -25.930 -46.038  1.00  0.00     0.106 A 
HETATM    6  N2  UNL     1     -40.031 -25.268 -46.721  1.00  0.00    -0.351 N 
ATOM      7  H2  UNL     1     -40.179 -24.451 -47.313  1.00  0.00     0.166 HD
ENDROOT
BRANCH   1   8
HETATM    8  C2  UNL     1     -37.576 -25.454 -47.049  1.00  0.00     0.038 C 
HETATM    9  C1  UNL     1     -37.175 -25.957 -48.186  1.00  0.00     0.015 C 
ENDBRANCH   1   8
TORSDOF 1
ENDMDL
