MODEL 1
REMARK VINA RESULT: -3.641687843      0.000      0.000
REMARK  1 active torsions:
REMARK  status: ('A' for Active; 'I' for Inactive)
REMARK    1  A    between atoms: C2_2  and  C3_3 
ROOT
HETATM    1  C3  UNL     1     -37.929 -25.759 -47.071  1.00  0.00     0.048 A 
HETATM    2  C4  UNL     1     -36.728 -25.120 -46.799  1.00  0.00     0.049 A 
HETATM    3  C5  UNL     1     -35.873 -25.264 -47.869  1.00  0.00     0.109 A 
HETATM    4  N1  UNL     1     -36.561 -25.986 -48.772  1.00  0.00    -0.311 N 
ATOM      5  H1  UNL     1     -36.209 -26.271 -49.685  1.00  0.00     0.186 HD
HETATM    6  N2  UNL     1     -37.768 -26.271 -48.295  1.00  0.00    -0.301 N 
ATOM      7  H2  UNL     1     -38.475 -26.809 -48.795  1.00  0.00     0.187 HD
ENDROOT
BRANCH   1   8
HETATM    8  C2  UNL     1     -39.062 -25.808 -46.162  1.00  0.00     0.021 C 
HETATM    9  C1  UNL     1     -40.300 -25.734 -46.621  1.00  0.00     0.013 C 
ENDBRANCH   1   8
TORSDOF 1
ENDMDL
MODEL 2
REMARK VINA RESULT: -3.589571391     11.169     11.417
REMARK  1 active torsions:
REMARK  status: ('A' for Active; 'I' for Inactive)
REMARK    1  A    between atoms: C2_2  and  C3_3 
ROOT
HETATM    1  C3  UNL     1     -30.388 -26.113 -38.465  1.00  0.00     0.048 A 
HETATM    2  C4  UNL     1     -30.140 -24.965 -39.202  1.00  0.00     0.049 A 
HETATM    3  C5  UNL     1     -29.078 -25.180 -40.053  1.00  0.00     0.109 A 
HETATM    4  N1  UNL     1     -28.695 -26.448 -39.821  1.00  0.00    -0.311 N 
ATOM      5  H1  UNL     1     -27.926 -26.924 -40.291  1.00  0.00     0.186 HD
HETATM    6  N2  UNL     1     -29.471 -26.989 -38.887  1.00  0.00    -0.301 N 
ATOM      7  H2  UNL     1     -29.379 -27.943 -38.540  1.00  0.00     0.187 HD
ENDROOT
BRANCH   1   8
HETATM    8  C2  UNL     1     -31.439 -26.244 -37.470  1.00  0.00     0.021 C 
HETATM    9  C1  UNL     1     -32.587 -26.828 -37.771  1.00  0.00     0.013 C 
ENDBRANCH   1   8
TORSDOF 1
ENDMDL
MODEL 3
REMARK VINA RESULT: -3.423458551     10.577     11.235
REMARK  1 active torsions:
REMARK  status: ('A' for Active; 'I' for Inactive)
REMARK    1  A    between atoms: C2_2  and  C3_3 
ROOT
HETATM    1  C3  UNL     1     -29.709 -25.456 -39.246  1.00  0.00     0.048 A 
HETATM    2  C4  UNL     1     -30.424 -24.319 -39.591  1.00  0.00     0.049 A 
HETATM    3  C5  UNL     1     -29.973 -23.833 -40.798  1.00  0.00     0.109 A 
HETATM    4  N1  UNL     1     -28.993 -24.676 -41.169  1.00  0.00    -0.311 N 
ATOM      5  H1  UNL     1     -28.445 -24.598 -42.026  1.00  0.00     0.186 HD
HETATM    6  N2  UNL     1     -28.845 -25.627 -40.252  1.00  0.00    -0.301 N 
ATOM      7  H2  UNL     1     -28.165 -26.384 -40.308  1.00  0.00     0.187 HD
ENDROOT
BRANCH   1   8
HETATM    8  C2  UNL     1     -29.921 -26.230 -38.035  1.00  0.00     0.021 C 
HETATM    9  C1  UNL     1     -31.009 -26.966 -37.885  1.00  0.00     0.013 C 
ENDBRANCH   1   8
TORSDOF 1
ENDMDL
MODEL 4
REMARK VINA RESULT: -3.380188028      3.029      3.502
REMARK  1 active torsions:
REMARK  status: ('A' for Active; 'I' for Inactive)
REMARK    1  A    between atoms: C2_2  and  C3_3 
ROOT
HETATM    1  C3  UNL     1     -40.820 -25.837 -46.183  1.00  0.00     0.048 A 
HETATM    2  C4  UNL     1     -40.553 -26.494 -44.991  1.00  0.00     0.049 A 
HETATM    3  C5  UNL     1     -39.277 -27.012 -45.022  1.00  0.00     0.109 A 
HETATM    4  N1  UNL     1     -38.788 -26.665 -46.226  1.00  0.00    -0.311 N 
ATOM      5  H1  UNL     1     -37.857 -26.898 -46.570  1.00  0.00     0.186 HD
HETATM    6  N2  UNL     1     -39.701 -25.975 -46.901  1.00  0.00    -0.301 N 
ATOM      7  H2  UNL     1     -39.567 -25.601 -47.840  1.00  0.00     0.187 HD
ENDROOT
BRANCH   1   8
HETATM    8  C2  UNL     1     -42.073 -25.171 -46.495  1.00  0.00     0.021 C 
HETATM    9  C1  UNL     1     -42.693 -25.398 -47.641  1.00  0.00     0.013 C 
ENDBRANCH   1   8
TORSDOF 1
ENDMDL
MODEL 5
REMARK VINA RESULT: -3.375831312      1.096      3.291
REMARK  1 active torsions:
REMARK  status: ('A' for Active; 'I' for Inactive)
REMARK    1  A    between atoms: C2_2  and  C3_3 
ROOT
HETATM    1  C3  UNL     1     -36.547 -25.517 -47.605  1.00  0.00     0.048 A 
HETATM    2  C4  UNL     1     -37.018 -25.029 -46.395  1.00  0.00     0.049 A 
HETATM    3  C5  UNL     1     -38.286 -25.512 -46.162  1.00  0.00     0.109 A 
HETATM    4  N1  UNL     1     -38.569 -26.282 -47.228  1.00  0.00    -0.311 N 
ATOM      5  H1  UNL     1     -39.441 -26.791 -47.369  1.00  0.00     0.186 HD
HETATM    6  N2  UNL     1     -37.541 -26.279 -48.070  1.00  0.00    -0.301 N 
ATOM      7  H2  UNL     1     -37.514 -26.790 -48.952  1.00  0.00     0.187 HD
ENDROOT
BRANCH   1   8
HETATM    8  C2  UNL     1     -35.241 -25.212 -48.166  1.00  0.00     0.021 C 
HETATM    9  C1  UNL     1     -34.137 -25.652 -47.588  1.00  0.00     0.013 C 
ENDBRANCH   1   8
TORSDOF 1
ENDMDL
