MODEL 1
REMARK VINA RESULT: -8.883420683      0.000      0.000
REMARK  8 active torsions:
REMARK  status: ('A' for Active; 'I' for Inactive)
REMARK    1  A    between atoms: O1_2  and  C2_3 
REMARK    2  A    between atoms: C3_4  and  C4_5 
REMARK    3  A    between atoms: C4_5  and  C5_6 
REMARK    4  A    between atoms: C5_6  and  C6_7 
REMARK    5  A    between atoms: C15_17  and  O2_18 
REMARK    6  A    between atoms: C16_20  and  O3_21 
REMARK    7  A    between atoms: C17_23  and  C18_24 
REMARK    8  A    between atoms: C18_24  and  C19_25 
ROOT
HETATM    1  C2  UNL     1       4.376  30.267   6.105  1.00  0.00     0.084 A 
HETATM    2  C3  UNL     1       4.815  29.502   7.135  1.00  0.00    -0.021 A 
HETATM    3  C14 UNL     1       4.425  29.866   8.413  1.00  0.00     0.049 A 
HETATM    4  C15 UNL     1       3.639  30.948   8.593  1.00  0.00     0.100 A 
HETATM    5  C16 UNL     1       3.163  31.773   7.545  1.00  0.00     0.108 A 
HETATM    6  C17 UNL     1       3.549  31.408   6.295  1.00  0.00     0.015 A 
ENDROOT
BRANCH   2   7
HETATM    7  C4  UNL     1       5.718  28.332   7.050  1.00  0.00     0.042 C 
BRANCH   7   8
HETATM    8  C5  UNL     1       7.130  28.690   7.358  1.00  0.00     0.015 C 
BRANCH   8   9
HETATM    9  C6  UNL     1       8.032  28.569   6.143  1.00  0.00    -0.031 C 
HETATM   10  C7  UNL     1       8.157  29.917   5.487  1.00  0.00     0.016 C 
HETATM   11  C8  UNL     1       7.493  27.620   5.102  1.00  0.00     0.015 C 
HETATM   12  C9  UNL     1       8.571  26.916   4.331  1.00  0.00    -0.004 C 
HETATM   13  C10 UNL     1       9.260  25.969   5.315  1.00  0.00     0.006 C 
HETATM   14  C13 UNL     1       9.612  27.897   3.771  1.00  0.00     0.079 C 
HETATM   15  C11 UNL     1       9.349  26.553   6.697  1.00  0.00     0.016 C 
HETATM   16  C12 UNL     1       9.380  28.086   6.631  1.00  0.00     0.055 C 
HETATM   17  S1  UNL     1      10.547  28.448   5.257  1.00  0.00    -0.163 SA
ENDBRANCH   8   9
ENDBRANCH   7   8
ENDBRANCH   2   7
BRANCH   1  18
HETATM   18  O1  UNL     1       4.729  29.941   4.817  1.00  0.00    -0.355 OA
HETATM   19  C1  UNL     1       4.153  29.007   3.963  1.00  0.00     0.210 C 
ENDBRANCH   1  18
BRANCH   6  20
HETATM   20  C18 UNL     1       3.205  32.090   5.045  1.00  0.00     0.072 C 
BRANCH  20  21
HETATM   21  C19 UNL     1       2.303  33.211   5.051  1.00  0.00    -0.020 C 
HETATM   22  C20 UNL     1       1.578  33.644   4.040  1.00  0.00    -0.091 C 
HETATM   23  C21 UNL     1       0.670  34.836   4.186  1.00  0.00     0.042 C 
HETATM   24  C22 UNL     1       1.611  32.989   2.716  1.00  0.00     0.042 C 
ENDBRANCH  20  21
ENDBRANCH   6  20
BRANCH   4  25
HETATM   25  O2  UNL     1       3.267  31.283   9.892  1.00  0.00    -0.358 OA
ATOM     26  H2  UNL     1       3.717  32.005  10.315  1.00  0.00     0.217 HD
ENDBRANCH   4  25
BRANCH   5  27
HETATM   27  O3  UNL     1       2.386  32.814   7.932  1.00  0.00    -0.357 OA
ATOM     28  H3  UNL     1       2.844  33.527   8.361  1.00  0.00     0.217 HD
ENDBRANCH   5  27
TORSDOF 8
ENDMDL
MODEL 2
REMARK VINA RESULT: -8.634549658      1.072      1.374
REMARK  8 active torsions:
REMARK  status: ('A' for Active; 'I' for Inactive)
REMARK    1  A    between atoms: O1_2  and  C2_3 
REMARK    2  A    between atoms: C3_4  and  C4_5 
REMARK    3  A    between atoms: C4_5  and  C5_6 
REMARK    4  A    between atoms: C5_6  and  C6_7 
REMARK    5  A    between atoms: C15_17  and  O2_18 
REMARK    6  A    between atoms: C16_20  and  O3_21 
REMARK    7  A    between atoms: C17_23  and  C18_24 
REMARK    8  A    between atoms: C18_24  and  C19_25 
ROOT
HETATM    1  C2  UNL     1       4.476  30.646   5.325  1.00  0.00     0.084 A 
HETATM    2  C3  UNL     1       4.605  29.880   6.436  1.00  0.00    -0.021 A 
HETATM    3  C14 UNL     1       3.901  30.268   7.564  1.00  0.00     0.049 A 
HETATM    4  C15 UNL     1       3.128  31.374   7.526  1.00  0.00     0.100 A 
HETATM    5  C16 UNL     1       2.970  32.200   6.388  1.00  0.00     0.108 A 
HETATM    6  C17 UNL     1       3.662  31.811   5.286  1.00  0.00     0.015 A 
ENDROOT
BRANCH   2   7
HETATM    7  C4  UNL     1       5.463  28.685   6.596  1.00  0.00     0.042 C 
BRANCH   7   8
HETATM    8  C5  UNL     1       6.797  29.024   7.162  1.00  0.00     0.015 C 
BRANCH   8   9
HETATM    9  C6  UNL     1       7.918  28.805   6.163  1.00  0.00    -0.031 C 
HETATM   10  C7  UNL     1       8.190  30.095   5.438  1.00  0.00     0.016 C 
HETATM   11  C8  UNL     1       7.581  27.774   5.116  1.00  0.00     0.015 C 
HETATM   12  C9  UNL     1       8.779  27.010   4.631  1.00  0.00    -0.004 C 
HETATM   13  C10 UNL     1       9.247  26.148   5.806  1.00  0.00     0.006 C 
HETATM   14  C13 UNL     1       9.924  27.944   4.211  1.00  0.00     0.079 C 
HETATM   15  C11 UNL     1       9.071  26.843   7.127  1.00  0.00     0.016 C 
HETATM   16  C12 UNL     1       9.137  28.366   6.945  1.00  0.00     0.055 C 
HETATM   17  S1  UNL     1      10.557  28.616   5.803  1.00  0.00    -0.163 SA
ENDBRANCH   8   9
ENDBRANCH   7   8
ENDBRANCH   2   7
BRANCH   1  18
HETATM   18  O1  UNL     1       5.147  30.297   4.176  1.00  0.00    -0.355 OA
HETATM   19  C1  UNL     1       4.808  29.345   3.222  1.00  0.00     0.210 C 
ENDBRANCH   1  18
BRANCH   6  20
HETATM   20  C18 UNL     1       3.681  32.490   3.987  1.00  0.00     0.072 C 
BRANCH  20  21
HETATM   21  C19 UNL     1       2.482  32.587   3.199  1.00  0.00    -0.020 C 
HETATM   22  C20 UNL     1       2.388  32.471   1.890  1.00  0.00    -0.091 C 
HETATM   23  C21 UNL     1       1.061  32.596   1.190  1.00  0.00     0.042 C 
HETATM   24  C22 UNL     1       3.568  32.213   1.041  1.00  0.00     0.042 C 
ENDBRANCH  20  21
ENDBRANCH   6  20
BRANCH   4  25
HETATM   25  O2  UNL     1       2.437  31.732   8.680  1.00  0.00    -0.358 OA
ATOM     26  H2  UNL     1       1.894  31.075   9.101  1.00  0.00     0.217 HD
ENDBRANCH   4  25
BRANCH   5  27
HETATM   27  O3  UNL     1       2.150  33.267   6.553  1.00  0.00    -0.357 OA
ATOM     28  H3  UNL     1       2.255  33.964   5.916  1.00  0.00     0.217 HD
ENDBRANCH   5  27
TORSDOF 8
ENDMDL
MODEL 3
REMARK VINA RESULT: -8.628533544      1.702      2.741
REMARK  8 active torsions:
REMARK  status: ('A' for Active; 'I' for Inactive)
REMARK    1  A    between atoms: O1_2  and  C2_3 
REMARK    2  A    between atoms: C3_4  and  C4_5 
REMARK    3  A    between atoms: C4_5  and  C5_6 
REMARK    4  A    between atoms: C5_6  and  C6_7 
REMARK    5  A    between atoms: C15_17  and  O2_18 
REMARK    6  A    between atoms: C16_20  and  O3_21 
REMARK    7  A    between atoms: C17_23  and  C18_24 
REMARK    8  A    between atoms: C18_24  and  C19_25 
ROOT
HETATM    1  C2  UNL     1       3.788  30.787   4.634  1.00  0.00     0.084 A 
HETATM    2  C3  UNL     1       4.269  30.250   5.782  1.00  0.00    -0.021 A 
HETATM    3  C14 UNL     1       3.967  30.899   6.967  1.00  0.00     0.049 A 
HETATM    4  C15 UNL     1       3.220  32.023   6.946  1.00  0.00     0.100 A 
HETATM    5  C16 UNL     1       2.701  32.615   5.770  1.00  0.00     0.108 A 
HETATM    6  C17 UNL     1       3.002  31.972   4.612  1.00  0.00     0.015 A 
ENDROOT
BRANCH   2   7
HETATM    7  C4  UNL     1       5.137  29.057   5.908  1.00  0.00     0.042 C 
BRANCH   7   8
HETATM    8  C5  UNL     1       5.859  29.025   7.209  1.00  0.00     0.015 C 
BRANCH   8   9
HETATM    9  C6  UNL     1       6.860  27.886   7.283  1.00  0.00    -0.031 C 
HETATM   10  C7  UNL     1       6.139  26.622   7.663  1.00  0.00     0.016 C 
HETATM   11  C8  UNL     1       7.933  28.110   8.319  1.00  0.00     0.015 C 
HETATM   12  C9  UNL     1       9.249  27.492   7.950  1.00  0.00    -0.004 C 
HETATM   13  C10 UNL     1       9.778  28.283   6.751  1.00  0.00     0.006 C 
HETATM   14  C13 UNL     1       9.099  26.017   7.548  1.00  0.00     0.079 C 
HETATM   15  C11 UNL     1       8.675  28.720   5.828  1.00  0.00     0.016 C 
HETATM   16  C12 UNL     1       7.489  27.751   5.913  1.00  0.00     0.055 C 
HETATM   17  S1  UNL     1       8.271  26.087   5.905  1.00  0.00    -0.163 SA
ENDBRANCH   8   9
ENDBRANCH   7   8
ENDBRANCH   2   7
BRANCH   1  18
HETATM   18  O1  UNL     1       4.053  30.175   3.432  1.00  0.00    -0.355 OA
HETATM   19  C1  UNL     1       5.259  30.078   2.748  1.00  0.00     0.210 C 
ENDBRANCH   1  18
BRANCH   6  20
HETATM   20  C18 UNL     1       2.599  32.377   3.263  1.00  0.00     0.072 C 
BRANCH  20  21
HETATM   21  C19 UNL     1       3.401  33.303   2.510  1.00  0.00    -0.020 C 
HETATM   22  C20 UNL     1       3.643  33.265   1.216  1.00  0.00    -0.091 C 
HETATM   23  C21 UNL     1       4.506  34.305   0.553  1.00  0.00     0.042 C 
HETATM   24  C22 UNL     1       3.086  32.208   0.347  1.00  0.00     0.042 C 
ENDBRANCH  20  21
ENDBRANCH   6  20
BRANCH   4  25
HETATM   25  O2  UNL     1       2.936  32.647   8.158  1.00  0.00    -0.358 OA
ATOM     26  H2  UNL     1       3.545  33.303   8.478  1.00  0.00     0.217 HD
ENDBRANCH   4  25
BRANCH   5  27
HETATM   27  O3  UNL     1       1.975  33.745   5.959  1.00  0.00    -0.357 OA
ATOM     28  H3  UNL     1       1.057  33.684   5.722  1.00  0.00     0.217 HD
ENDBRANCH   5  27
TORSDOF 8
ENDMDL
MODEL 4
REMARK VINA RESULT: -8.605595855      1.527      2.026
REMARK  8 active torsions:
REMARK  status: ('A' for Active; 'I' for Inactive)
REMARK    1  A    between atoms: O1_2  and  C2_3 
REMARK    2  A    between atoms: C3_4  and  C4_5 
REMARK    3  A    between atoms: C4_5  and  C5_6 
REMARK    4  A    between atoms: C5_6  and  C6_7 
REMARK    5  A    between atoms: C15_17  and  O2_18 
REMARK    6  A    between atoms: C16_20  and  O3_21 
REMARK    7  A    between atoms: C17_23  and  C18_24 
REMARK    8  A    between atoms: C18_24  and  C19_25 
ROOT
HETATM    1  C2  UNL     1       3.834  30.756   4.602  1.00  0.00     0.084 A 
HETATM    2  C3  UNL     1       4.321  30.222   5.749  1.00  0.00    -0.021 A 
HETATM    3  C14 UNL     1       4.036  30.883   6.933  1.00  0.00     0.049 A 
HETATM    4  C15 UNL     1       3.300  32.014   6.911  1.00  0.00     0.100 A 
HETATM    5  C16 UNL     1       2.776  32.603   5.735  1.00  0.00     0.108 A 
HETATM    6  C17 UNL     1       3.059  31.949   4.579  1.00  0.00     0.015 A 
ENDROOT
BRANCH   2   7
HETATM    7  C4  UNL     1       5.178  29.022   5.876  1.00  0.00     0.042 C 
BRANCH   7   8
HETATM    8  C5  UNL     1       6.404  29.291   6.675  1.00  0.00     0.015 C 
BRANCH   8   9
HETATM    9  C6  UNL     1       7.673  28.980   5.902  1.00  0.00    -0.031 C 
HETATM   10  C7  UNL     1       8.086  30.199   5.123  1.00  0.00     0.016 C 
HETATM   11  C8  UNL     1       7.498  27.860   4.908  1.00  0.00     0.015 C 
HETATM   12  C9  UNL     1       8.746  27.052   4.701  1.00  0.00    -0.004 C 
HETATM   13  C10 UNL     1       8.995  26.297   6.009  1.00  0.00     0.006 C 
HETATM   14  C13 UNL     1       9.962  27.941   4.399  1.00  0.00     0.079 C 
HETATM   15  C11 UNL     1       8.612  27.109   7.215  1.00  0.00     0.016 C 
HETATM   16  C12 UNL     1       8.736  28.608   6.914  1.00  0.00     0.055 C 
HETATM   17  S1  UNL     1      10.331  28.751   6.010  1.00  0.00    -0.163 SA
ENDBRANCH   8   9
ENDBRANCH   7   8
ENDBRANCH   2   7
BRANCH   1  18
HETATM   18  O1  UNL     1       4.081  30.132   3.403  1.00  0.00    -0.355 OA
HETATM   19  C1  UNL     1       5.271  30.053   2.688  1.00  0.00     0.210 C 
ENDBRANCH   1  18
BRANCH   6  20
HETATM   20  C18 UNL     1       2.647  32.348   3.231  1.00  0.00     0.072 C 
BRANCH  20  21
HETATM   21  C19 UNL     1       3.431  33.290   2.479  1.00  0.00    -0.020 C 
HETATM   22  C20 UNL     1       3.677  33.255   1.185  1.00  0.00    -0.091 C 
HETATM   23  C21 UNL     1       4.519  34.314   0.523  1.00  0.00     0.042 C 
HETATM   24  C22 UNL     1       3.145  32.186   0.316  1.00  0.00     0.042 C 
ENDBRANCH  20  21
ENDBRANCH   6  20
BRANCH   4  25
HETATM   25  O2  UNL     1       3.034  32.650   8.120  1.00  0.00    -0.358 OA
ATOM     26  H2  UNL     1       2.134  32.676   8.425  1.00  0.00     0.217 HD
ENDBRANCH   4  25
BRANCH   5  27
HETATM   27  O3  UNL     1       2.063  33.741   5.923  1.00  0.00    -0.357 OA
ATOM     28  H3  UNL     1       1.770  34.174   5.129  1.00  0.00     0.217 HD
ENDBRANCH   5  27
TORSDOF 8
ENDMDL
MODEL 5
REMARK VINA RESULT: -8.473210662      1.366      2.143
REMARK  8 active torsions:
REMARK  status: ('A' for Active; 'I' for Inactive)
REMARK    1  A    between atoms: O1_2  and  C2_3 
REMARK    2  A    between atoms: C3_4  and  C4_5 
REMARK    3  A    between atoms: C4_5  and  C5_6 
REMARK    4  A    between atoms: C5_6  and  C6_7 
REMARK    5  A    between atoms: C15_17  and  O2_18 
REMARK    6  A    between atoms: C16_20  and  O3_21 
REMARK    7  A    between atoms: C17_23  and  C18_24 
REMARK    8  A    between atoms: C18_24  and  C19_25 
ROOT
HETATM    1  C2  UNL     1       4.411  30.565   5.302  1.00  0.00     0.084 A 
HETATM    2  C3  UNL     1       4.455  30.028   6.546  1.00  0.00    -0.021 A 
HETATM    3  C14 UNL     1       3.818  30.720   7.563  1.00  0.00     0.049 A 
HETATM    4  C15 UNL     1       3.188  31.883   7.292  1.00  0.00     0.100 A 
HETATM    5  C16 UNL     1       3.121  32.475   6.008  1.00  0.00     0.108 A 
HETATM    6  C17 UNL     1       3.747  31.790   5.017  1.00  0.00     0.015 A 
ENDROOT
BRANCH   2   7
HETATM    7  C4  UNL     1       5.160  28.794   6.957  1.00  0.00     0.042 C 
BRANCH   7   8
HETATM    8  C5  UNL     1       6.562  29.062   7.379  1.00  0.00     0.015 C 
BRANCH   8   9
HETATM    9  C6  UNL     1       7.575  28.397   6.466  1.00  0.00    -0.031 C 
HETATM   10  C7  UNL     1       6.917  27.245   5.757  1.00  0.00     0.016 C 
HETATM   11  C8  UNL     1       8.761  27.837   7.210  1.00  0.00     0.015 C 
HETATM   12  C9  UNL     1      10.031  27.871   6.411  1.00  0.00    -0.004 C 
HETATM   13  C10 UNL     1      10.405  29.347   6.256  1.00  0.00     0.006 C 
HETATM   14  C13 UNL     1       9.849  27.253   5.016  1.00  0.00     0.079 C 
HETATM   15  C11 UNL     1       9.197  30.226   6.102  1.00  0.00     0.016 C 
HETATM   16  C12 UNL     1       8.038  29.441   5.473  1.00  0.00     0.055 C 
HETATM   17  S1  UNL     1       8.831  28.492   4.112  1.00  0.00    -0.163 SA
ENDBRANCH   8   9
ENDBRANCH   7   8
ENDBRANCH   2   7
BRANCH   1  18
HETATM   18  O1  UNL     1       5.020  29.911   4.257  1.00  0.00    -0.355 OA
HETATM   19  C1  UNL     1       4.564  28.822   3.522  1.00  0.00     0.210 C 
ENDBRANCH   1  18
BRANCH   6  20
HETATM   20  C18 UNL     1       3.836  32.184   3.609  1.00  0.00     0.072 C 
BRANCH  20  21
HETATM   21  C19 UNL     1       2.667  32.162   2.771  1.00  0.00    -0.020 C 
HETATM   22  C20 UNL     1       2.425  32.939   1.735  1.00  0.00    -0.091 C 
HETATM   23  C21 UNL     1       1.152  32.807   0.942  1.00  0.00     0.042 C 
HETATM   24  C22 UNL     1       3.381  33.975   1.294  1.00  0.00     0.042 C 
ENDBRANCH  20  21
ENDBRANCH   6  20
BRANCH   4  25
HETATM   25  O2  UNL     1       2.558  32.549   8.340  1.00  0.00    -0.358 OA
ATOM     26  H2  UNL     1       1.850  32.107   8.793  1.00  0.00     0.217 HD
ENDBRANCH   4  25
BRANCH   5  27
HETATM   27  O3  UNL     1       2.441  33.647   5.943  1.00  0.00    -0.357 OA
ATOM     28  H3  UNL     1       2.974  34.419   5.791  1.00  0.00     0.217 HD
ENDBRANCH   5  27
TORSDOF 8
ENDMDL
