MODEL 1
REMARK VINA RESULT: -8.032119079      0.000      0.000
REMARK  9 active torsions:
REMARK  status: ('A' for Active; 'I' for Inactive)
REMARK    1  A    between atoms: C4_4  and  C5_5 
REMARK    2  A    between atoms: C5_5  and  C6_6 
REMARK    3  A    between atoms: C7_7  and  O1_8 
REMARK    4  A    between atoms: C8_11  and  O3_12 
REMARK    5  A    between atoms: C9_14  and  C10_15 
REMARK    6  A    between atoms: C10_15  and  C11_16 
REMARK    7  A    between atoms: C11_16  and  C12_17 
REMARK    8  A    between atoms: C18_23  and  C20_25 
REMARK    9  A    between atoms: C20_25  and  O4_27 
ROOT
HETATM    1  C10 UNL     1       3.919  29.937   5.182  1.00  0.00     0.045 C 
ENDROOT
BRANCH   1   2
HETATM    2  C9  UNL     1       3.767  30.686   6.444  1.00  0.00     0.012 A 
HETATM    3  C6  UNL     1       4.127  30.289   7.692  1.00  0.00     0.015 A 
HETATM    4  C7  UNL     1       3.799  31.344   8.535  1.00  0.00     0.192 A 
HETATM    5  O2  UNL     1       3.272  32.319   7.824  1.00  0.00    -0.264 OA
HETATM    6  C8  UNL     1       3.234  31.969   6.582  1.00  0.00     0.192 A 
BRANCH   3   7
HETATM    7  C5  UNL     1       4.726  29.017   8.122  1.00  0.00     0.071 C 
BRANCH   7   8
HETATM    8  C4  UNL     1       6.215  29.064   8.115  1.00  0.00    -0.020 C 
HETATM    9  C2  UNL     1       6.975  27.996   8.011  1.00  0.00    -0.091 C 
HETATM   10  C1  UNL     1       6.363  26.650   7.891  1.00  0.00     0.042 C 
HETATM   11  C3  UNL     1       8.456  28.092   8.009  1.00  0.00     0.042 C 
ENDBRANCH   7   8
ENDBRANCH   3   7
BRANCH   4  12
HETATM   12  O1  UNL     1       3.957  31.460   9.904  1.00  0.00    -0.340 OA
ATOM     13  H1  UNL     1       4.319  32.176  10.413  1.00  0.00     0.220 HD
ENDBRANCH   4  12
BRANCH   6  14
HETATM   14  O3  UNL     1       2.751  32.716   5.521  1.00  0.00    -0.340 OA
ATOM     15  H3  UNL     1       2.806  32.499   4.598  1.00  0.00     0.220 HD
ENDBRANCH   6  14
ENDBRANCH   1   2
BRANCH   1  16
HETATM   16  C11 UNL     1       5.278  30.086   4.600  1.00  0.00     0.022 C 
BRANCH  16  17
HETATM   17  C12 UNL     1       5.727  28.905   3.779  1.00  0.00     0.018 C 
HETATM   18  C13 UNL     1       4.556  28.415   2.952  1.00  0.00     0.023 C 
HETATM   19  C14 UNL     1       6.097  27.793   4.730  1.00  0.00     0.017 C 
HETATM   20  C15 UNL     1       7.131  26.876   4.181  1.00  0.00     0.007 C 
HETATM   21  C16 UNL     1       8.359  27.502   3.654  1.00  0.00    -0.001 C 
HETATM   22  C17 UNL     1       9.559  27.339   4.596  1.00  0.00     0.011 C 
HETATM   23  C18 UNL     1       8.215  28.928   3.205  1.00  0.00     0.046 C 
HETATM   24  C19 UNL     1       8.634  29.824   4.359  1.00  0.00     0.026 C 
HETATM   25  C22 UNL     1       6.819  29.238   2.841  1.00  0.00     0.146 C 
HETATM   26  O5  UNL     1       6.485  29.766   1.794  1.00  0.00    -0.296 OA
BRANCH  23  27
HETATM   27  C20 UNL     1       9.195  29.193   2.095  1.00  0.00     0.130 C 
HETATM   28  C21 UNL     1       9.078  28.300   0.920  1.00  0.00     0.040 C 
BRANCH  27  29
HETATM   29  O4  UNL     1       9.069  30.522   1.621  1.00  0.00    -0.395 OA
ATOM     30  H4  UNL     1       9.357  30.587   0.718  1.00  0.00     0.210 HD
ENDBRANCH  27  29
ENDBRANCH  23  27
ENDBRANCH  16  17
ENDBRANCH   1  16
TORSDOF 9
ENDMDL
MODEL 2
REMARK VINA RESULT: -7.784816692      1.486      2.372
REMARK  9 active torsions:
REMARK  status: ('A' for Active; 'I' for Inactive)
REMARK    1  A    between atoms: C4_4  and  C5_5 
REMARK    2  A    between atoms: C5_5  and  C6_6 
REMARK    3  A    between atoms: C7_7  and  O1_8 
REMARK    4  A    between atoms: C8_11  and  O3_12 
REMARK    5  A    between atoms: C9_14  and  C10_15 
REMARK    6  A    between atoms: C10_15  and  C11_16 
REMARK    7  A    between atoms: C11_16  and  C12_17 
REMARK    8  A    between atoms: C18_23  and  C20_25 
REMARK    9  A    between atoms: C20_25  and  O4_27 
ROOT
HETATM    1  C10 UNL     1       4.264  29.494   5.015  1.00  0.00     0.045 C 
ENDROOT
BRANCH   1   2
HETATM    2  C9  UNL     1       3.935  30.321   6.192  1.00  0.00     0.012 A 
HETATM    3  C6  UNL     1       4.266  30.086   7.488  1.00  0.00     0.015 A 
HETATM    4  C7  UNL     1       3.750  31.156   8.211  1.00  0.00     0.192 A 
HETATM    5  O2  UNL     1       3.143  31.984   7.385  1.00  0.00    -0.264 OA
HETATM    6  C8  UNL     1       3.230  31.526   6.181  1.00  0.00     0.192 A 
BRANCH   3   7
HETATM    7  C5  UNL     1       4.999  28.951   8.065  1.00  0.00     0.071 C 
BRANCH   7   8
HETATM    8  C4  UNL     1       6.467  29.044   7.820  1.00  0.00    -0.020 C 
HETATM    9  C2  UNL     1       7.243  27.996   7.655  1.00  0.00    -0.091 C 
HETATM   10  C1  UNL     1       6.675  26.627   7.707  1.00  0.00     0.042 C 
HETATM   11  C3  UNL     1       8.700  28.138   7.414  1.00  0.00     0.042 C 
ENDBRANCH   7   8
ENDBRANCH   3   7
BRANCH   4  12
HETATM   12  O1  UNL     1       3.805  31.410   9.569  1.00  0.00    -0.340 OA
ATOM     13  H1  UNL     1       3.519  32.176  10.053  1.00  0.00     0.220 HD
ENDBRANCH   4  12
BRANCH   6  14
HETATM   14  O3  UNL     1       2.719  32.105   5.032  1.00  0.00    -0.340 OA
ATOM     15  H3  UNL     1       2.084  31.726   4.435  1.00  0.00     0.220 HD
ENDBRANCH   6  14
ENDBRANCH   1   2
BRANCH   1  16
HETATM   16  C11 UNL     1       5.274  30.139   4.138  1.00  0.00     0.022 C 
BRANCH  16  17
HETATM   17  C12 UNL     1       6.243  29.175   3.504  1.00  0.00     0.018 C 
HETATM   18  C13 UNL     1       6.260  27.898   4.319  1.00  0.00     0.023 C 
HETATM   19  C14 UNL     1       7.624  29.779   3.595  1.00  0.00     0.017 C 
HETATM   20  C15 UNL     1       8.527  29.334   2.500  1.00  0.00     0.007 C 
HETATM   21  C16 UNL     1       8.018  29.473   1.123  1.00  0.00    -0.001 C 
HETATM   22  C17 UNL     1       8.655  30.650   0.371  1.00  0.00     0.011 C 
HETATM   23  C18 UNL     1       6.523  29.491   0.986  1.00  0.00     0.046 C 
HETATM   24  C19 UNL     1       6.075  30.943   0.959  1.00  0.00     0.026 C 
HETATM   25  C22 UNL     1       5.872  28.810   2.122  1.00  0.00     0.146 C 
HETATM   26  O5  UNL     1       5.022  27.943   2.006  1.00  0.00    -0.296 OA
BRANCH  23  27
HETATM   27  C20 UNL     1       6.146  28.914  -0.351  1.00  0.00     0.130 C 
HETATM   28  C21 UNL     1       6.729  27.587  -0.656  1.00  0.00     0.040 C 
BRANCH  27  29
HETATM   29  O4  UNL     1       4.740  28.786  -0.466  1.00  0.00    -0.395 OA
ATOM     30  H4  UNL     1       4.488  28.628  -1.368  1.00  0.00     0.210 HD
ENDBRANCH  27  29
ENDBRANCH  23  27
ENDBRANCH  16  17
ENDBRANCH   1  16
TORSDOF 9
ENDMDL
MODEL 3
REMARK VINA RESULT: -7.586744891      1.487      3.769
REMARK  9 active torsions:
REMARK  status: ('A' for Active; 'I' for Inactive)
REMARK    1  A    between atoms: C4_4  and  C5_5 
REMARK    2  A    between atoms: C5_5  and  C6_6 
REMARK    3  A    between atoms: C7_7  and  O1_8 
REMARK    4  A    between atoms: C8_11  and  O3_12 
REMARK    5  A    between atoms: C9_14  and  C10_15 
REMARK    6  A    between atoms: C10_15  and  C11_16 
REMARK    7  A    between atoms: C11_16  and  C12_17 
REMARK    8  A    between atoms: C18_23  and  C20_25 
REMARK    9  A    between atoms: C20_25  and  O4_27 
ROOT
HETATM    1  C10 UNL     1       4.909  29.249   8.202  1.00  0.00     0.045 C 
ENDROOT
BRANCH   1   2
HETATM    2  C9  UNL     1       4.119  30.437   7.825  1.00  0.00     0.012 A 
HETATM    3  C6  UNL     1       3.508  30.683   6.636  1.00  0.00     0.015 A 
HETATM    4  C7  UNL     1       2.880  31.914   6.781  1.00  0.00     0.192 A 
HETATM    5  O2  UNL     1       3.107  32.377   7.993  1.00  0.00    -0.264 OA
HETATM    6  C8  UNL     1       3.836  31.533   8.643  1.00  0.00     0.192 A 
BRANCH   3   7
HETATM    7  C5  UNL     1       3.493  29.863   5.416  1.00  0.00     0.071 C 
BRANCH   7   8
HETATM    8  C4  UNL     1       4.106  30.570   4.255  1.00  0.00    -0.020 C 
HETATM    9  C2  UNL     1       4.638  29.948   3.225  1.00  0.00    -0.091 C 
HETATM   10  C1  UNL     1       4.653  28.466   3.171  1.00  0.00     0.042 C 
HETATM   11  C3  UNL     1       5.237  30.695   2.092  1.00  0.00     0.042 C 
ENDBRANCH   7   8
ENDBRANCH   3   7
BRANCH   4  12
HETATM   12  O1  UNL     1       2.119  32.627   5.872  1.00  0.00    -0.340 OA
ATOM     13  H1  UNL     1       1.772  32.357   5.030  1.00  0.00     0.220 HD
ENDBRANCH   4  12
BRANCH   6  14
HETATM   14  O3  UNL     1       4.290  31.654   9.945  1.00  0.00    -0.340 OA
ATOM     15  H3  UNL     1       3.764  31.803  10.722  1.00  0.00     0.220 HD
ENDBRANCH   6  14
ENDBRANCH   1   2
BRANCH   1  16
HETATM   16  C11 UNL     1       5.278  28.422   7.024  1.00  0.00     0.022 C 
BRANCH  16  17
HETATM   17  C12 UNL     1       6.656  27.818   7.105  1.00  0.00     0.018 C 
HETATM   18  C13 UNL     1       6.536  26.403   7.634  1.00  0.00     0.023 C 
HETATM   19  C14 UNL     1       7.449  28.607   8.119  1.00  0.00     0.017 C 
HETATM   20  C15 UNL     1       8.911  28.600   7.848  1.00  0.00     0.007 C 
HETATM   21  C16 UNL     1       9.335  28.980   6.487  1.00  0.00    -0.001 C 
HETATM   22  C17 UNL     1       9.928  30.394   6.424  1.00  0.00     0.011 C 
HETATM   23  C18 UNL     1       8.308  28.776   5.411  1.00  0.00     0.046 C 
HETATM   24  C19 UNL     1       7.579  30.095   5.208  1.00  0.00     0.026 C 
HETATM   25  C22 UNL     1       7.328  27.741   5.792  1.00  0.00     0.146 C 
HETATM   26  O5  UNL     1       7.019  26.797   5.085  1.00  0.00    -0.296 OA
BRANCH  23  27
HETATM   27  C20 UNL     1       9.010  28.485   4.112  1.00  0.00     0.130 C 
HETATM   28  C21 UNL     1       9.928  27.324   4.135  1.00  0.00     0.040 C 
BRANCH  27  29
HETATM   29  O4  UNL     1       8.073  28.254   3.075  1.00  0.00    -0.395 OA
ATOM     30  H4  UNL     1       8.321  27.496   2.560  1.00  0.00     0.210 HD
ENDBRANCH  27  29
ENDBRANCH  23  27
ENDBRANCH  16  17
ENDBRANCH   1  16
TORSDOF 9
ENDMDL
MODEL 4
REMARK VINA RESULT: -7.545177958      1.301      1.807
REMARK  9 active torsions:
REMARK  status: ('A' for Active; 'I' for Inactive)
REMARK    1  A    between atoms: C4_4  and  C5_5 
REMARK    2  A    between atoms: C5_5  and  C6_6 
REMARK    3  A    between atoms: C7_7  and  O1_8 
REMARK    4  A    between atoms: C8_11  and  O3_12 
REMARK    5  A    between atoms: C9_14  and  C10_15 
REMARK    6  A    between atoms: C10_15  and  C11_16 
REMARK    7  A    between atoms: C11_16  and  C12_17 
REMARK    8  A    between atoms: C18_23  and  C20_25 
REMARK    9  A    between atoms: C20_25  and  O4_27 
ROOT
HETATM    1  C10 UNL     1       4.188  30.020   3.795  1.00  0.00     0.045 C 
ENDROOT
BRANCH   1   2
HETATM    2  C9  UNL     1       3.822  31.137   4.687  1.00  0.00     0.012 A 
HETATM    3  C6  UNL     1       3.597  31.089   6.026  1.00  0.00     0.015 A 
HETATM    4  C7  UNL     1       3.306  32.393   6.408  1.00  0.00     0.192 A 
HETATM    5  O2  UNL     1       3.355  33.176   5.350  1.00  0.00    -0.264 OA
HETATM    6  C8  UNL     1       3.656  32.472   4.311  1.00  0.00     0.192 A 
BRANCH   3   7
HETATM    7  C5  UNL     1       3.626  29.929   6.929  1.00  0.00     0.071 C 
BRANCH   7   8
HETATM    8  C4  UNL     1       5.009  29.411   7.136  1.00  0.00    -0.020 C 
HETATM    9  C2  UNL     1       5.486  29.065   8.312  1.00  0.00    -0.091 C 
HETATM   10  C1  UNL     1       4.641  29.179   9.526  1.00  0.00     0.042 C 
HETATM   11  C3  UNL     1       6.869  28.554   8.469  1.00  0.00     0.042 C 
ENDBRANCH   7   8
ENDBRANCH   3   7
BRANCH   4  12
HETATM   12  O1  UNL     1       3.002  32.897   7.659  1.00  0.00    -0.340 OA
ATOM     13  H1  UNL     1       3.260  33.719   8.059  1.00  0.00     0.220 HD
ENDBRANCH   4  12
BRANCH   6  14
HETATM   14  O3  UNL     1       3.803  32.925   3.012  1.00  0.00    -0.340 OA
ATOM     15  H3  UNL     1       4.611  33.186   2.585  1.00  0.00     0.220 HD
ENDBRANCH   6  14
ENDBRANCH   1   2
BRANCH   1  16
HETATM   16  C11 UNL     1       5.659  29.893   3.629  1.00  0.00     0.022 C 
BRANCH  16  17
HETATM   17  C12 UNL     1       6.134  28.478   3.419  1.00  0.00     0.018 C 
HETATM   18  C13 UNL     1       5.157  27.769   2.502  1.00  0.00     0.023 C 
HETATM   19  C14 UNL     1       6.086  27.771   4.752  1.00  0.00     0.017 C 
HETATM   20  C15 UNL     1       7.087  26.678   4.867  1.00  0.00     0.007 C 
HETATM   21  C16 UNL     1       8.484  27.021   4.541  1.00  0.00    -0.001 C 
HETATM   22  C17 UNL     1       9.367  27.161   5.789  1.00  0.00     0.011 C 
HETATM   23  C18 UNL     1       8.663  28.192   3.619  1.00  0.00     0.046 C 
HETATM   24  C19 UNL     1       8.893  29.428   4.475  1.00  0.00     0.026 C 
HETATM   25  C22 UNL     1       7.465  28.406   2.784  1.00  0.00     0.146 C 
HETATM   26  O5  UNL     1       7.489  28.533   1.571  1.00  0.00    -0.296 OA
BRANCH  23  27
HETATM   27  C20 UNL     1       9.922  27.999   2.819  1.00  0.00     0.130 C 
HETATM   28  C21 UNL     1      10.011  26.721   2.077  1.00  0.00     0.040 C 
BRANCH  27  29
HETATM   29  O4  UNL     1      10.082  29.042   1.873  1.00  0.00    -0.395 OA
ATOM     30  H4  UNL     1       9.247  29.450   1.677  1.00  0.00     0.210 HD
ENDBRANCH  27  29
ENDBRANCH  23  27
ENDBRANCH  16  17
ENDBRANCH   1  16
TORSDOF 9
ENDMDL
MODEL 5
REMARK VINA RESULT: -7.519497981      1.791      2.827
REMARK  9 active torsions:
REMARK  status: ('A' for Active; 'I' for Inactive)
REMARK    1  A    between atoms: C4_4  and  C5_5 
REMARK    2  A    between atoms: C5_5  and  C6_6 
REMARK    3  A    between atoms: C7_7  and  O1_8 
REMARK    4  A    between atoms: C8_11  and  O3_12 
REMARK    5  A    between atoms: C9_14  and  C10_15 
REMARK    6  A    between atoms: C10_15  and  C11_16 
REMARK    7  A    between atoms: C11_16  and  C12_17 
REMARK    8  A    between atoms: C18_23  and  C20_25 
REMARK    9  A    between atoms: C20_25  and  O4_27 
ROOT
HETATM    1  C10 UNL     1       5.824  30.067   4.792  1.00  0.00     0.045 C 
ENDROOT
BRANCH   1   2
HETATM    2  C9  UNL     1       5.127  29.974   6.089  1.00  0.00     0.012 A 
HETATM    3  C6  UNL     1       5.514  29.278   7.189  1.00  0.00     0.015 A 
HETATM    4  C7  UNL     1       4.542  29.520   8.152  1.00  0.00     0.192 A 
HETATM    5  O2  UNL     1       3.624  30.320   7.649  1.00  0.00    -0.264 OA
HETATM    6  C8  UNL     1       3.932  30.611   6.430  1.00  0.00     0.192 A 
BRANCH   3   7
HETATM    7  C5  UNL     1       6.693  28.420   7.375  1.00  0.00     0.071 C 
BRANCH   7   8
HETATM    8  C4  UNL     1       7.955  29.099   6.962  1.00  0.00    -0.020 C 
HETATM    9  C2  UNL     1       9.095  28.468   6.787  1.00  0.00    -0.091 C 
HETATM   10  C1  UNL     1       9.181  27.002   7.000  1.00  0.00     0.042 C 
HETATM   11  C3  UNL     1      10.326  29.187   6.376  1.00  0.00     0.042 C 
ENDBRANCH   7   8
ENDBRANCH   3   7
BRANCH   4  12
HETATM   12  O1  UNL     1       4.453  29.055   9.451  1.00  0.00    -0.340 OA
ATOM     13  H1  UNL     1       3.737  28.607   9.886  1.00  0.00     0.220 HD
ENDBRANCH   4  12
BRANCH   6  14
HETATM   14  O3  UNL     1       3.221  31.422   5.563  1.00  0.00    -0.340 OA
ATOM     15  H3  UNL     1       2.369  31.813   5.715  1.00  0.00     0.220 HD
ENDBRANCH   6  14
ENDBRANCH   1   2
BRANCH   1  16
HETATM   16  C11 UNL     1       5.520  28.914   3.906  1.00  0.00     0.022 C 
BRANCH  16  17
HETATM   17  C12 UNL     1       6.730  28.324   3.229  1.00  0.00     0.018 C 
HETATM   18  C13 UNL     1       7.092  27.027   3.925  1.00  0.00     0.023 C 
HETATM   19  C14 UNL     1       7.885  29.275   3.433  1.00  0.00     0.017 C 
HETATM   20  C15 UNL     1       8.894  29.209   2.342  1.00  0.00     0.007 C 
HETATM   21  C16 UNL     1       8.388  29.336   0.963  1.00  0.00    -0.001 C 
HETATM   22  C17 UNL     1       8.681  30.711   0.349  1.00  0.00     0.011 C 
HETATM   23  C18 UNL     1       6.950  28.952   0.764  1.00  0.00     0.046 C 
HETATM   24  C19 UNL     1       6.113  30.218   0.849  1.00  0.00     0.026 C 
HETATM   25  C22 UNL     1       6.498  28.009   1.805  1.00  0.00     0.146 C 
HETATM   26  O5  UNL     1       5.927  26.956   1.575  1.00  0.00    -0.296 OA
BRANCH  23  27
HETATM   27  C20 UNL     1       6.771  28.429  -0.635  1.00  0.00     0.130 C 
HETATM   28  C21 UNL     1       7.821  27.494  -1.100  1.00  0.00     0.040 C 
BRANCH  27  29
HETATM   29  O4  UNL     1       5.530  27.758  -0.766  1.00  0.00    -0.395 OA
ATOM     30  H4  UNL     1       5.659  26.819  -0.825  1.00  0.00     0.210 HD
ENDBRANCH  27  29
ENDBRANCH  23  27
ENDBRANCH  16  17
ENDBRANCH   1  16
TORSDOF 9
ENDMDL
