MODEL 1
REMARK VINA RESULT: -8.894278533      0.000      0.000
REMARK  9 active torsions:
REMARK  status: ('A' for Active; 'I' for Inactive)
REMARK    1  A    between atoms: C4_4  and  C5_5 
REMARK    2  A    between atoms: C5_5  and  C6_6 
REMARK    3  A    between atoms: C6_6  and  C7_7 
REMARK    4  A    between atoms: C7_7  and  C8_8 
REMARK    5  A    between atoms: C8_8  and  O1_9 
REMARK    6  A    between atoms: C8_8  and  O2_11 
REMARK    7  A    between atoms: O2_11  and  C9_12 
REMARK    8  A    between atoms: C15_18  and  O3_19 
REMARK    9  A    between atoms: O3_19  and  O4_20 
ROOT
HETATM    1  C9  UNL     1       4.040  29.961   6.827  1.00  0.00     0.158 C 
HETATM    2  C10 UNL     1       4.779  29.639   5.621  1.00  0.00     0.009 C 
HETATM    3  C11 UNL     1       5.859  29.044   5.199  1.00  0.00    -0.071 C 
HETATM    4  C12 UNL     1       5.755  29.244   3.695  1.00  0.00     0.017 C 
HETATM    5  C13 UNL     1       5.086  28.083   3.027  1.00  0.00     0.015 C 
HETATM    6  C14 UNL     1       7.130  29.547   3.125  1.00  0.00     0.076 C 
HETATM    7  C15 UNL     1       7.959  28.353   2.988  1.00  0.00     0.081 C 
HETATM    8  C16 UNL     1       8.049  27.325   3.790  1.00  0.00     0.009 C 
HETATM    9  C17 UNL     1       7.330  27.087   5.067  1.00  0.00     0.040 C 
HETATM   10  C18 UNL     1       6.973  28.336   5.801  1.00  0.00     0.037 C 
HETATM   11  C19 UNL     1       6.858  27.979   7.289  1.00  0.00     0.012 C 
HETATM   12  C20 UNL     1       8.144  28.436   7.998  1.00  0.00     0.028 C 
HETATM   13  C21 UNL     1       6.849  26.462   7.514  1.00  0.00     0.028 C 
HETATM   14  C22 UNL     1       5.691  28.615   7.726  1.00  0.00    -0.170 C 
HETATM   15  C23 UNL     1       4.524  29.276   8.135  1.00  0.00     0.116 C 
ENDROOT
BRANCH   1  16
HETATM   16  O2  UNL     1       4.151  31.328   7.052  1.00  0.00    -0.352 OA
BRANCH  16  17
HETATM   17  C8  UNL     1       2.959  31.992   7.070  1.00  0.00     0.257 C 
BRANCH  17  18
HETATM   18  C7  UNL     1       2.876  32.880   5.856  1.00  0.00     0.061 C 
BRANCH  18  19
HETATM   19  C6  UNL     1       1.466  33.218   5.463  1.00  0.00     0.009 C 
BRANCH  19  20
HETATM   20  C5  UNL     1       1.461  33.485   3.968  1.00  0.00     0.027 C 
BRANCH  20  21
HETATM   21  C4  UNL     1       2.685  32.825   3.413  1.00  0.00    -0.025 C 
HETATM   22  C2  UNL     1       2.756  32.381   2.177  1.00  0.00    -0.091 C 
HETATM   23  C1  UNL     1       3.989  31.741   1.686  1.00  0.00     0.042 C 
HETATM   24  C3  UNL     1       1.591  32.525   1.282  1.00  0.00     0.042 C 
ENDBRANCH  20  21
ENDBRANCH  19  20
ENDBRANCH  18  19
ENDBRANCH  17  18
BRANCH  17  25
HETATM   25  O1  UNL     1       2.666  32.649   8.242  1.00  0.00    -0.371 OA
ATOM     26  H1  UNL     1       2.195  32.110   8.866  1.00  0.00     0.212 HD
ENDBRANCH  17  25
ENDBRANCH  16  17
ENDBRANCH   1  16
BRANCH   7  27
HETATM   27  O3  UNL     1       8.752  28.316   1.852  1.00  0.00    -0.205 OA
BRANCH  27  28
HETATM   28  O4  UNL     1       9.749  29.217   1.740  1.00  0.00    -0.245 OA
ATOM     29  H4  UNL     1       9.570  30.032   1.284  1.00  0.00     0.254 HD
ENDBRANCH  27  28
ENDBRANCH   7  27
TORSDOF 9
ENDMDL
MODEL 2
REMARK VINA RESULT: -8.642982814      0.796      1.076
REMARK  9 active torsions:
REMARK  status: ('A' for Active; 'I' for Inactive)
REMARK    1  A    between atoms: C4_4  and  C5_5 
REMARK    2  A    between atoms: C5_5  and  C6_6 
REMARK    3  A    between atoms: C6_6  and  C7_7 
REMARK    4  A    between atoms: C7_7  and  C8_8 
REMARK    5  A    between atoms: C8_8  and  O1_9 
REMARK    6  A    between atoms: C8_8  and  O2_11 
REMARK    7  A    between atoms: O2_11  and  C9_12 
REMARK    8  A    between atoms: C15_18  and  O3_19 
REMARK    9  A    between atoms: O3_19  and  O4_20 
ROOT
HETATM    1  C9  UNL     1       3.929  29.993   6.567  1.00  0.00     0.158 C 
HETATM    2  C10 UNL     1       4.577  29.560   5.344  1.00  0.00     0.009 C 
HETATM    3  C11 UNL     1       5.640  28.952   4.896  1.00  0.00    -0.071 C 
HETATM    4  C12 UNL     1       5.404  28.980   3.394  1.00  0.00     0.017 C 
HETATM    5  C13 UNL     1       4.726  27.733   2.918  1.00  0.00     0.015 C 
HETATM    6  C14 UNL     1       6.714  29.256   2.678  1.00  0.00     0.076 C 
HETATM    7  C15 UNL     1       7.573  28.079   2.599  1.00  0.00     0.081 C 
HETATM    8  C16 UNL     1       7.769  27.149   3.498  1.00  0.00     0.009 C 
HETATM    9  C17 UNL     1       7.168  27.035   4.851  1.00  0.00     0.040 C 
HETATM   10  C18 UNL     1       6.826  28.348   5.473  1.00  0.00     0.037 C 
HETATM   11  C19 UNL     1       6.849  28.155   6.995  1.00  0.00     0.012 C 
HETATM   12  C20 UNL     1       8.171  28.725   7.536  1.00  0.00     0.028 C 
HETATM   13  C21 UNL     1       6.916  26.673   7.384  1.00  0.00     0.028 C 
HETATM   14  C22 UNL     1       5.699  28.803   7.460  1.00  0.00    -0.170 C 
HETATM   15  C23 UNL     1       4.546  29.471   7.895  1.00  0.00     0.116 C 
ENDROOT
BRANCH   1  16
HETATM   16  O2  UNL     1       4.006  31.379   6.633  1.00  0.00    -0.352 OA
BRANCH  16  17
HETATM   17  C8  UNL     1       2.844  31.988   7.006  1.00  0.00     0.257 C 
BRANCH  17  18
HETATM   18  C7  UNL     1       2.370  32.869   5.880  1.00  0.00     0.061 C 
BRANCH  18  19
HETATM   19  C6  UNL     1       3.342  32.943   4.736  1.00  0.00     0.009 C 
BRANCH  19  20
HETATM   20  C5  UNL     1       2.544  32.802   3.451  1.00  0.00     0.027 C 
BRANCH  20  21
HETATM   21  C4  UNL     1       3.356  31.937   2.539  1.00  0.00    -0.025 C 
HETATM   22  C2  UNL     1       3.895  32.384   1.426  1.00  0.00    -0.091 C 
HETATM   23  C1  UNL     1       4.685  31.483   0.567  1.00  0.00     0.042 C 
HETATM   24  C3  UNL     1       3.703  33.794   1.038  1.00  0.00     0.042 C 
ENDBRANCH  20  21
ENDBRANCH  19  20
ENDBRANCH  18  19
ENDBRANCH  17  18
BRANCH  17  25
HETATM   25  O1  UNL     1       2.879  32.634   8.220  1.00  0.00    -0.371 OA
ATOM     26  H1  UNL     1       2.659  32.069   8.951  1.00  0.00     0.212 HD
ENDBRANCH  17  25
ENDBRANCH  16  17
ENDBRANCH   1  16
BRANCH   7  27
HETATM   27  O3  UNL     1       8.270  27.938   1.410  1.00  0.00    -0.205 OA
BRANCH  27  28
HETATM   28  O4  UNL     1       8.141  26.781   0.727  1.00  0.00    -0.245 OA
ATOM     29  H4  UNL     1       7.735  26.809  -0.131  1.00  0.00     0.254 HD
ENDBRANCH  27  28
ENDBRANCH   7  27
TORSDOF 9
ENDMDL
MODEL 3
REMARK VINA RESULT: -8.497824243      0.869      1.371
REMARK  9 active torsions:
REMARK  status: ('A' for Active; 'I' for Inactive)
REMARK    1  A    between atoms: C4_4  and  C5_5 
REMARK    2  A    between atoms: C5_5  and  C6_6 
REMARK    3  A    between atoms: C6_6  and  C7_7 
REMARK    4  A    between atoms: C7_7  and  C8_8 
REMARK    5  A    between atoms: C8_8  and  O1_9 
REMARK    6  A    between atoms: C8_8  and  O2_11 
REMARK    7  A    between atoms: O2_11  and  C9_12 
REMARK    8  A    between atoms: C15_18  and  O3_19 
REMARK    9  A    between atoms: O3_19  and  O4_20 
ROOT
HETATM    1  C9  UNL     1       4.417  29.447   7.275  1.00  0.00     0.158 C 
HETATM    2  C10 UNL     1       4.990  29.352   5.946  1.00  0.00     0.009 C 
HETATM    3  C11 UNL     1       6.017  28.885   5.294  1.00  0.00    -0.071 C 
HETATM    4  C12 UNL     1       5.699  29.306   3.869  1.00  0.00     0.017 C 
HETATM    5  C13 UNL     1       4.978  28.227   3.121  1.00  0.00     0.015 C 
HETATM    6  C14 UNL     1       6.970  29.763   3.176  1.00  0.00     0.076 C 
HETATM    7  C15 UNL     1       7.807  28.648   2.742  1.00  0.00     0.081 C 
HETATM    8  C16 UNL     1       8.040  27.516   3.352  1.00  0.00     0.009 C 
HETATM    9  C17 UNL     1       7.514  27.049   4.660  1.00  0.00     0.040 C 
HETATM   10  C18 UNL     1       7.226  28.151   5.623  1.00  0.00     0.037 C 
HETATM   11  C19 UNL     1       7.330  27.566   7.037  1.00  0.00     0.012 C 
HETATM   12  C20 UNL     1       8.688  27.974   7.632  1.00  0.00     0.028 C 
HETATM   13  C21 UNL     1       7.398  26.033   7.019  1.00  0.00     0.028 C 
HETATM   14  C22 UNL     1       6.217  28.067   7.721  1.00  0.00    -0.170 C 
HETATM   15  C23 UNL     1       5.100  28.596   8.382  1.00  0.00     0.116 C 
ENDROOT
BRANCH   1  16
HETATM   16  O2  UNL     1       4.517  30.767   7.698  1.00  0.00    -0.352 OA
BRANCH  16  17
HETATM   17  C8  UNL     1       3.492  31.179   8.499  1.00  0.00     0.257 C 
BRANCH  17  18
HETATM   18  C7  UNL     1       2.551  32.032   7.689  1.00  0.00     0.061 C 
BRANCH  18  19
HETATM   19  C6  UNL     1       3.227  32.746   6.553  1.00  0.00     0.009 C 
BRANCH  19  20
HETATM   20  C5  UNL     1       2.732  32.117   5.262  1.00  0.00     0.027 C 
BRANCH  20  21
HETATM   21  C4  UNL     1       1.950  33.174   4.545  1.00  0.00    -0.025 C 
HETATM   22  C2  UNL     1       1.954  33.299   3.236  1.00  0.00    -0.091 C 
HETATM   23  C1  UNL     1       1.163  34.359   2.587  1.00  0.00     0.042 C 
HETATM   24  C3  UNL     1       2.759  32.371   2.418  1.00  0.00     0.042 C 
ENDBRANCH  20  21
ENDBRANCH  19  20
ENDBRANCH  18  19
ENDBRANCH  17  18
BRANCH  17  25
HETATM   25  O1  UNL     1       3.868  31.765   9.685  1.00  0.00    -0.371 OA
ATOM     26  H1  UNL     1       4.568  31.298  10.127  1.00  0.00     0.212 HD
ENDBRANCH  17  25
ENDBRANCH  16  17
ENDBRANCH   1  16
BRANCH   7  27
HETATM   27  O3  UNL     1       8.435  28.826   1.519  1.00  0.00    -0.205 OA
BRANCH  27  28
HETATM   28  O4  UNL     1       9.489  29.666   1.458  1.00  0.00    -0.245 OA
ATOM     29  H4  UNL     1      10.136  29.526   0.777  1.00  0.00     0.254 HD
ENDBRANCH  27  28
ENDBRANCH   7  27
TORSDOF 9
ENDMDL
MODEL 4
REMARK VINA RESULT: -8.335670438      1.639      2.376
REMARK  9 active torsions:
REMARK  status: ('A' for Active; 'I' for Inactive)
REMARK    1  A    between atoms: C4_4  and  C5_5 
REMARK    2  A    between atoms: C5_5  and  C6_6 
REMARK    3  A    between atoms: C6_6  and  C7_7 
REMARK    4  A    between atoms: C7_7  and  C8_8 
REMARK    5  A    between atoms: C8_8  and  O1_9 
REMARK    6  A    between atoms: C8_8  and  O2_11 
REMARK    7  A    between atoms: O2_11  and  C9_12 
REMARK    8  A    between atoms: C15_18  and  O3_19 
REMARK    9  A    between atoms: O3_19  and  O4_20 
ROOT
HETATM    1  C9  UNL     1       5.319  28.960   7.333  1.00  0.00     0.158 C 
HETATM    2  C10 UNL     1       5.367  29.065   5.887  1.00  0.00     0.009 C 
HETATM    3  C11 UNL     1       6.195  29.125   4.882  1.00  0.00    -0.071 C 
HETATM    4  C12 UNL     1       5.243  29.225   3.701  1.00  0.00     0.017 C 
HETATM    5  C13 UNL     1       4.939  27.879   3.120  1.00  0.00     0.015 C 
HETATM    6  C14 UNL     1       5.798  30.202   2.679  1.00  0.00     0.076 C 
HETATM    7  C15 UNL     1       6.867  29.624   1.869  1.00  0.00     0.081 C 
HETATM    8  C16 UNL     1       7.819  28.807   2.236  1.00  0.00     0.009 C 
HETATM    9  C17 UNL     1       8.077  28.239   3.583  1.00  0.00     0.040 C 
HETATM   10  C18 UNL     1       7.636  29.118   4.705  1.00  0.00     0.037 C 
HETATM   11  C19 UNL     1       8.493  28.769   5.928  1.00  0.00     0.012 C 
HETATM   12  C20 UNL     1       9.584  29.843   6.078  1.00  0.00     0.028 C 
HETATM   13  C21 UNL     1       9.294  27.478   5.716  1.00  0.00     0.028 C 
HETATM   14  C22 UNL     1       7.591  28.698   6.996  1.00  0.00    -0.170 C 
HETATM   15  C23 UNL     1       6.664  28.647   8.046  1.00  0.00     0.116 C 
ENDROOT
BRANCH   1  16
HETATM   16  O2  UNL     1       4.896  30.182   7.843  1.00  0.00    -0.352 OA
BRANCH  16  17
HETATM   17  C8  UNL     1       3.869  30.091   8.737  1.00  0.00     0.257 C 
BRANCH  17  18
HETATM   18  C7  UNL     1       2.987  31.304   8.593  1.00  0.00     0.061 C 
BRANCH  18  19
HETATM   19  C6  UNL     1       3.470  32.266   7.545  1.00  0.00     0.009 C 
BRANCH  19  20
HETATM   20  C5  UNL     1       2.357  32.421   6.523  1.00  0.00     0.027 C 
BRANCH  20  21
HETATM   21  C4  UNL     1       2.983  32.223   5.177  1.00  0.00    -0.025 C 
HETATM   22  C2  UNL     1       2.519  32.790   4.086  1.00  0.00    -0.091 C 
HETATM   23  C1  UNL     1       3.180  32.558   2.788  1.00  0.00     0.042 C 
HETATM   24  C3  UNL     1       1.330  33.660   4.164  1.00  0.00     0.042 C 
ENDBRANCH  20  21
ENDBRANCH  19  20
ENDBRANCH  18  19
ENDBRANCH  17  18
BRANCH  17  25
HETATM   25  O1  UNL     1       4.239  29.842  10.038  1.00  0.00    -0.371 OA
ATOM     26  H1  UNL     1       4.826  29.101  10.124  1.00  0.00     0.212 HD
ENDBRANCH  17  25
ENDBRANCH  16  17
ENDBRANCH   1  16
BRANCH   7  27
HETATM   27  O3  UNL     1       6.861  30.000   0.535  1.00  0.00    -0.205 OA
BRANCH  27  28
HETATM   28  O4  UNL     1       5.976  30.938   0.140  1.00  0.00    -0.245 OA
ATOM     29  H4  UNL     1       5.408  31.325   0.796  1.00  0.00     0.254 HD
ENDBRANCH  27  28
ENDBRANCH   7  27
TORSDOF 9
ENDMDL
MODEL 5
REMARK VINA RESULT: -8.260555097      2.140      3.648
REMARK  9 active torsions:
REMARK  status: ('A' for Active; 'I' for Inactive)
REMARK    1  A    between atoms: C4_4  and  C5_5 
REMARK    2  A    between atoms: C5_5  and  C6_6 
REMARK    3  A    between atoms: C6_6  and  C7_7 
REMARK    4  A    between atoms: C7_7  and  C8_8 
REMARK    5  A    between atoms: C8_8  and  O1_9 
REMARK    6  A    between atoms: C8_8  and  O2_11 
REMARK    7  A    between atoms: O2_11  and  C9_12 
REMARK    8  A    between atoms: C15_18  and  O3_19 
REMARK    9  A    between atoms: O3_19  and  O4_20 
ROOT
HETATM    1  C9  UNL     1       4.907  30.324   6.148  1.00  0.00     0.158 C 
HETATM    2  C10 UNL     1       5.895  29.344   6.559  1.00  0.00     0.009 C 
HETATM    3  C11 UNL     1       6.645  28.380   6.106  1.00  0.00    -0.071 C 
HETATM    4  C12 UNL     1       7.372  27.934   7.365  1.00  0.00     0.017 C 
HETATM    5  C13 UNL     1       8.690  28.628   7.519  1.00  0.00     0.015 C 
HETATM    6  C14 UNL     1       7.492  26.420   7.375  1.00  0.00     0.076 C 
HETATM    7  C15 UNL     1       8.551  25.933   6.496  1.00  0.00     0.081 C 
HETATM    8  C16 UNL     1       8.907  26.379   5.320  1.00  0.00     0.009 C 
HETATM    9  C17 UNL     1       8.329  27.509   4.551  1.00  0.00     0.040 C 
HETATM   10  C18 UNL     1       6.881  27.747   4.821  1.00  0.00     0.037 C 
HETATM   11  C19 UNL     1       6.287  28.428   3.582  1.00  0.00     0.012 C 
HETATM   12  C20 UNL     1       5.524  27.371   2.766  1.00  0.00     0.028 C 
HETATM   13  C21 UNL     1       7.377  28.905   2.613  1.00  0.00     0.028 C 
HETATM   14  C22 UNL     1       5.493  29.466   4.083  1.00  0.00    -0.170 C 
HETATM   15  C23 UNL     1       4.696  30.488   4.617  1.00  0.00     0.116 C 
ENDROOT
BRANCH   1  16
HETATM   16  O2  UNL     1       3.675  29.941   6.662  1.00  0.00    -0.352 OA
BRANCH  16  17
HETATM   17  C8  UNL     1       3.288  30.636   7.771  1.00  0.00     0.257 C 
BRANCH  17  18
HETATM   18  C7  UNL     1       3.270  32.107   7.444  1.00  0.00     0.061 C 
BRANCH  18  19
HETATM   19  C6  UNL     1       2.108  32.508   6.580  1.00  0.00     0.009 C 
BRANCH  19  20
HETATM   20  C5  UNL     1       2.665  33.286   5.400  1.00  0.00     0.027 C 
BRANCH  20  21
HETATM   21  C4  UNL     1       1.658  33.168   4.299  1.00  0.00    -0.025 C 
HETATM   22  C2  UNL     1       1.994  33.124   3.029  1.00  0.00    -0.091 C 
HETATM   23  C1  UNL     1       0.957  33.007   1.988  1.00  0.00     0.042 C 
HETATM   24  C3  UNL     1       3.418  33.194   2.648  1.00  0.00     0.042 C 
ENDBRANCH  20  21
ENDBRANCH  19  20
ENDBRANCH  18  19
ENDBRANCH  17  18
BRANCH  17  25
HETATM   25  O1  UNL     1       3.983  30.346   8.921  1.00  0.00    -0.371 OA
ATOM     26  H1  UNL     1       3.478  30.499   9.712  1.00  0.00     0.212 HD
ENDBRANCH  17  25
ENDBRANCH  16  17
ENDBRANCH   1  16
BRANCH   7  27
HETATM   27  O3  UNL     1       9.268  24.852   6.985  1.00  0.00    -0.205 OA
BRANCH  27  28
HETATM   28  O4  UNL     1       9.689  24.892   8.266  1.00  0.00    -0.245 OA
ATOM     29  H4  UNL     1       9.079  25.188   8.931  1.00  0.00     0.254 HD
ENDBRANCH  27  28
ENDBRANCH   7  27
TORSDOF 9
ENDMDL
