MODEL 1
REMARK VINA RESULT: -8.430425325      0.000      0.000
REMARK  9 active torsions:
REMARK  status: ('A' for Active; 'I' for Inactive)
REMARK    1  A    between atoms: C4_4  and  O1_5 
REMARK    2  A    between atoms: O1_5  and  O2_6 
REMARK    3  A    between atoms: C5_8  and  O3_9 
REMARK    4  A    between atoms: C9_14  and  C10_15 
REMARK    5  A    between atoms: C11_16  and  C12_17 
REMARK    6  A    between atoms: C13_18  and  C14_19 
REMARK    7  A    between atoms: C14_19  and  C15_20 
REMARK    8  A    between atoms: C16_21  and  C17_22 
REMARK    9  A    between atoms: C21_26  and  O4_27 
ROOT
HETATM    1  C1  UNL     1       8.431  30.477   4.997  1.00  0.00     0.043 C 
HETATM    2  C2  UNL     1       7.640  29.543   5.837  1.00  0.00    -0.084 C 
HETATM    3  C3  UNL     1       8.374  28.986   6.779  1.00  0.00     0.013 C 
HETATM    4  C4  UNL     1       8.238  28.028   7.889  1.00  0.00     0.212 C 
HETATM    5  C5  UNL     1       7.152  27.039   7.800  1.00  0.00     0.154 C 
HETATM    6  C6  UNL     1       5.778  27.369   7.504  1.00  0.00     0.039 C 
HETATM    7  C7  UNL     1       5.210  28.720   7.748  1.00  0.00    -0.008 C 
HETATM    8  C8  UNL     1       5.722  29.225   9.115  1.00  0.00     0.011 C 
HETATM    9  C9  UNL     1       5.348  29.722   6.687  1.00  0.00     0.016 C 
HETATM   10  C22 UNL     1       6.205  29.388   5.501  1.00  0.00     0.042 C 
ENDROOT
BRANCH   9  11
HETATM   11  C10 UNL     1       4.110  30.338   6.152  1.00  0.00    -0.021 C 
HETATM   12  C11 UNL     1       4.012  31.489   5.525  1.00  0.00    -0.004 C 
BRANCH  12  13
HETATM   13  C12 UNL     1       2.723  31.967   5.053  1.00  0.00    -0.004 C 
HETATM   14  C13 UNL     1       2.099  32.923   5.701  1.00  0.00    -0.023 C 
BRANCH  14  15
HETATM   15  C14 UNL     1       0.768  33.425   5.226  1.00  0.00     0.054 C 
BRANCH  15  16
HETATM   16  C15 UNL     1       0.871  34.740   4.615  1.00  0.00    -0.020 C 
HETATM   17  C16 UNL     1       1.071  35.024   3.366  1.00  0.00     0.033 C 
BRANCH  17  18
HETATM   18  C17 UNL     1       1.234  34.080   2.311  1.00  0.00     0.078 A 
HETATM   19  C18 UNL     1       2.492  33.736   1.783  1.00  0.00     0.049 A 
HETATM   20  C19 UNL     1       2.247  32.814   0.801  1.00  0.00    -0.001 A 
HETATM   21  C20 UNL     1       3.225  32.116  -0.082  1.00  0.00     0.053 C 
HETATM   22  C21 UNL     1       0.883  32.624   0.756  1.00  0.00     0.189 A 
HETATM   23  O5  UNL     1       0.354  33.390   1.659  1.00  0.00    -0.288 OA
BRANCH  22  24
HETATM   24  O4  UNL     1       0.186  31.777  -0.090  1.00  0.00    -0.340 OA
ATOM     25  H4  UNL     1      -0.641  31.954  -0.524  1.00  0.00     0.220 HD
ENDBRANCH  22  24
ENDBRANCH  17  18
ENDBRANCH  15  16
ENDBRANCH  14  15
ENDBRANCH  12  13
ENDBRANCH   9  11
BRANCH   5  26
HETATM   26  O3  UNL     1       7.578  26.066   6.848  1.00  0.00    -0.393 OA
ATOM     27  H3  UNL     1       6.886  26.009   6.200  1.00  0.00     0.210 HD
ENDBRANCH   5  26
BRANCH   4  28
HETATM   28  O1  UNL     1       9.444  27.271   7.850  1.00  0.00    -0.231 OA
BRANCH  28  29
HETATM   29  O2  UNL     1       9.565  26.461   8.850  1.00  0.00    -0.250 OA
ATOM     30  H2  UNL     1       9.982  26.862   9.604  1.00  0.00     0.253 HD
ENDBRANCH  28  29
ENDBRANCH   4  28
TORSDOF 9
ENDMDL
MODEL 2
REMARK VINA RESULT: -8.350657989      2.110      3.225
REMARK  9 active torsions:
REMARK  status: ('A' for Active; 'I' for Inactive)
REMARK    1  A    between atoms: C4_4  and  O1_5 
REMARK    2  A    between atoms: O1_5  and  O2_6 
REMARK    3  A    between atoms: C5_8  and  O3_9 
REMARK    4  A    between atoms: C9_14  and  C10_15 
REMARK    5  A    between atoms: C11_16  and  C12_17 
REMARK    6  A    between atoms: C13_18  and  C14_19 
REMARK    7  A    between atoms: C14_19  and  C15_20 
REMARK    8  A    between atoms: C16_21  and  C17_22 
REMARK    9  A    between atoms: C21_26  and  O4_27 
ROOT
HETATM    1  C1  UNL     1       6.758  26.680   7.611  1.00  0.00     0.043 C 
HETATM    2  C2  UNL     1       7.274  27.396   6.417  1.00  0.00    -0.084 C 
HETATM    3  C3  UNL     1       7.974  26.603   5.632  1.00  0.00     0.013 C 
HETATM    4  C4  UNL     1       8.723  26.654   4.366  1.00  0.00     0.212 C 
HETATM    5  C5  UNL     1       9.265  27.957   3.951  1.00  0.00     0.154 C 
HETATM    6  C6  UNL     1       8.493  29.176   3.904  1.00  0.00     0.039 C 
HETATM    7  C7  UNL     1       7.012  29.181   3.776  1.00  0.00    -0.008 C 
HETATM    8  C8  UNL     1       6.609  28.115   2.734  1.00  0.00     0.011 C 
HETATM    9  C9  UNL     1       6.219  29.099   5.005  1.00  0.00     0.016 C 
HETATM   10  C22 UNL     1       6.934  28.834   6.297  1.00  0.00     0.042 C 
ENDROOT
BRANCH   9  11
HETATM   11  C10 UNL     1       5.250  30.188   5.277  1.00  0.00    -0.021 C 
HETATM   12  C11 UNL     1       4.268  30.167   6.150  1.00  0.00    -0.004 C 
BRANCH  12  13
HETATM   13  C12 UNL     1       3.393  31.317   6.309  1.00  0.00    -0.004 C 
HETATM   14  C13 UNL     1       3.246  32.171   5.322  1.00  0.00    -0.023 C 
BRANCH  14  15
HETATM   15  C14 UNL     1       2.349  33.363   5.471  1.00  0.00     0.054 C 
BRANCH  15  16
HETATM   16  C15 UNL     1       1.180  33.273   4.611  1.00  0.00    -0.020 C 
HETATM   17  C16 UNL     1       1.142  33.271   3.315  1.00  0.00     0.033 C 
BRANCH  17  18
HETATM   18  C17 UNL     1       2.270  33.360   2.448  1.00  0.00     0.078 A 
HETATM   19  C18 UNL     1       2.825  32.241   1.802  1.00  0.00     0.049 A 
HETATM   20  C19 UNL     1       3.878  32.717   1.067  1.00  0.00    -0.001 A 
HETATM   21  C20 UNL     1       4.815  31.958   0.190  1.00  0.00     0.053 C 
HETATM   22  C21 UNL     1       3.936  34.077   1.278  1.00  0.00     0.189 A 
HETATM   23  O5  UNL     1       2.974  34.386   2.090  1.00  0.00    -0.288 OA
BRANCH  22  24
HETATM   24  O4  UNL     1       4.846  34.968   0.732  1.00  0.00    -0.340 OA
ATOM     25  H4  UNL     1       5.179  35.763   1.132  1.00  0.00     0.220 HD
ENDBRANCH  22  24
ENDBRANCH  17  18
ENDBRANCH  15  16
ENDBRANCH  14  15
ENDBRANCH  12  13
ENDBRANCH   9  11
BRANCH   5  26
HETATM   26  O3  UNL     1      10.401  28.196   4.777  1.00  0.00    -0.393 OA
ATOM     27  H3  UNL     1      10.952  28.805   4.299  1.00  0.00     0.210 HD
ENDBRANCH   5  26
BRANCH   4  28
HETATM   28  O1  UNL     1       9.860  25.828   4.597  1.00  0.00    -0.231 OA
BRANCH  28  29
HETATM   29  O2  UNL     1       9.863  25.288   5.772  1.00  0.00    -0.250 OA
ATOM     30  H2  UNL     1       9.561  24.388   5.769  1.00  0.00     0.253 HD
ENDBRANCH  28  29
ENDBRANCH   4  28
TORSDOF 9
ENDMDL
MODEL 3
REMARK VINA RESULT: -8.291899128      1.752      9.229
REMARK  9 active torsions:
REMARK  status: ('A' for Active; 'I' for Inactive)
REMARK    1  A    between atoms: C4_4  and  O1_5 
REMARK    2  A    between atoms: O1_5  and  O2_6 
REMARK    3  A    between atoms: C5_8  and  O3_9 
REMARK    4  A    between atoms: C9_14  and  C10_15 
REMARK    5  A    between atoms: C11_16  and  C12_17 
REMARK    6  A    between atoms: C13_18  and  C14_19 
REMARK    7  A    between atoms: C14_19  and  C15_20 
REMARK    8  A    between atoms: C16_21  and  C17_22 
REMARK    9  A    between atoms: C21_26  and  O4_27 
ROOT
HETATM    1  C1  UNL     1       0.840  34.178   5.434  1.00  0.00     0.043 C 
HETATM    2  C2  UNL     1       1.359  33.580   4.178  1.00  0.00    -0.084 C 
HETATM    3  C3  UNL     1       0.966  34.252   3.115  1.00  0.00     0.013 C 
HETATM    4  C4  UNL     1       1.105  34.215   1.649  1.00  0.00     0.212 C 
HETATM    5  C5  UNL     1       1.394  32.913   1.030  1.00  0.00     0.154 C 
HETATM    6  C6  UNL     1       2.447  32.025   1.464  1.00  0.00     0.039 C 
HETATM    7  C7  UNL     1       3.639  32.504   2.211  1.00  0.00    -0.008 C 
HETATM    8  C8  UNL     1       4.123  33.821   1.566  1.00  0.00     0.011 C 
HETATM    9  C9  UNL     1       3.543  32.591   3.671  1.00  0.00     0.016 C 
HETATM   10  C22 UNL     1       2.203  32.369   4.309  1.00  0.00     0.042 C 
ENDROOT
BRANCH   9  11
HETATM   11  C10 UNL     1       4.524  31.826   4.476  1.00  0.00    -0.021 C 
HETATM   12  C11 UNL     1       4.368  30.614   4.962  1.00  0.00    -0.004 C 
BRANCH  12  13
HETATM   13  C12 UNL     1       5.426  29.986   5.737  1.00  0.00    -0.004 C 
HETATM   14  C13 UNL     1       5.145  29.404   6.880  1.00  0.00    -0.023 C 
BRANCH  14  15
HETATM   15  C14 UNL     1       6.226  28.753   7.691  1.00  0.00     0.054 C 
BRANCH  15  16
HETATM   16  C15 UNL     1       6.253  27.313   7.501  1.00  0.00    -0.020 C 
HETATM   17  C16 UNL     1       7.006  26.629   6.698  1.00  0.00     0.033 C 
BRANCH  17  18
HETATM   18  C17 UNL     1       7.987  27.167   5.814  1.00  0.00     0.078 A 
HETATM   19  C18 UNL     1       7.728  27.427   4.456  1.00  0.00     0.049 A 
HETATM   20  C19 UNL     1       8.894  27.929   3.942  1.00  0.00    -0.001 A 
HETATM   21  C20 UNL     1       9.178  28.373   2.547  1.00  0.00     0.053 C 
HETATM   22  C21 UNL     1       9.809  27.962   4.971  1.00  0.00     0.189 A 
HETATM   23  O5  UNL     1       9.217  27.505   6.031  1.00  0.00    -0.288 OA
BRANCH  22  24
HETATM   24  O4  UNL     1      11.122  28.398   4.908  1.00  0.00    -0.340 OA
ATOM     25  H4  UNL     1      11.870  27.915   4.578  1.00  0.00     0.220 HD
ENDBRANCH  22  24
ENDBRANCH  17  18
ENDBRANCH  15  16
ENDBRANCH  14  15
ENDBRANCH  12  13
ENDBRANCH   9  11
BRANCH   5  26
HETATM   26  O3  UNL     1       0.172  32.179   1.057  1.00  0.00    -0.393 OA
ATOM     27  H3  UNL     1       0.415  31.262   1.093  1.00  0.00     0.210 HD
ENDBRANCH   5  26
BRANCH   4  28
HETATM   28  O1  UNL     1      -0.181  34.587   1.165  1.00  0.00    -0.231 OA
BRANCH  28  29
HETATM   29  O2  UNL     1      -0.568  35.744   1.595  1.00  0.00    -0.250 OA
ATOM     30  H2  UNL     1      -1.408  36.010   1.239  1.00  0.00     0.253 HD
ENDBRANCH  28  29
ENDBRANCH   4  28
TORSDOF 9
ENDMDL
MODEL 4
REMARK VINA RESULT: -8.276659090      2.584      3.529
REMARK  9 active torsions:
REMARK  status: ('A' for Active; 'I' for Inactive)
REMARK    1  A    between atoms: C4_4  and  O1_5 
REMARK    2  A    between atoms: O1_5  and  O2_6 
REMARK    3  A    between atoms: C5_8  and  O3_9 
REMARK    4  A    between atoms: C9_14  and  C10_15 
REMARK    5  A    between atoms: C11_16  and  C12_17 
REMARK    6  A    between atoms: C13_18  and  C14_19 
REMARK    7  A    between atoms: C14_19  and  C15_20 
REMARK    8  A    between atoms: C16_21  and  C17_22 
REMARK    9  A    between atoms: C21_26  and  O4_27 
ROOT
HETATM    1  C1  UNL     1       8.674  29.141   6.855  1.00  0.00     0.043 C 
HETATM    2  C2  UNL     1       8.299  29.137   5.418  1.00  0.00    -0.084 C 
HETATM    3  C3  UNL     1       8.850  28.132   4.768  1.00  0.00     0.013 C 
HETATM    4  C4  UNL     1       8.898  27.566   3.410  1.00  0.00     0.212 C 
HETATM    5  C5  UNL     1       8.641  28.479   2.286  1.00  0.00     0.154 C 
HETATM    6  C6  UNL     1       7.508  29.371   2.211  1.00  0.00     0.039 C 
HETATM    7  C7  UNL     1       6.249  29.130   2.963  1.00  0.00    -0.008 C 
HETATM    8  C8  UNL     1       5.904  27.628   2.868  1.00  0.00     0.011 C 
HETATM    9  C9  UNL     1       6.161  29.645   4.332  1.00  0.00     0.016 C 
HETATM   10  C22 UNL     1       7.399  30.220   4.956  1.00  0.00     0.042 C 
ENDROOT
BRANCH   9  11
HETATM   11  C10 UNL     1       5.056  30.580   4.650  1.00  0.00    -0.021 C 
HETATM   12  C11 UNL     1       4.191  30.471   5.634  1.00  0.00    -0.004 C 
BRANCH  12  13
HETATM   13  C12 UNL     1       3.156  31.473   5.824  1.00  0.00    -0.004 C 
HETATM   14  C13 UNL     1       3.164  32.571   5.104  1.00  0.00    -0.023 C 
BRANCH  14  15
HETATM   15  C14 UNL     1       2.104  33.614   5.289  1.00  0.00     0.054 C 
BRANCH  15  16
HETATM   16  C15 UNL     1       1.000  33.437   4.360  1.00  0.00    -0.020 C 
HETATM   17  C16 UNL     1       1.054  33.331   3.069  1.00  0.00     0.033 C 
BRANCH  17  18
HETATM   18  C17 UNL     1       2.240  33.367   2.278  1.00  0.00     0.078 A 
HETATM   19  C18 UNL     1       2.842  32.210   1.754  1.00  0.00     0.049 A 
HETATM   20  C19 UNL     1       3.943  32.641   1.063  1.00  0.00    -0.001 A 
HETATM   21  C20 UNL     1       4.942  31.830   0.309  1.00  0.00     0.053 C 
HETATM   22  C21 UNL     1       3.983  34.013   1.180  1.00  0.00     0.189 A 
HETATM   23  O5  UNL     1       2.965  34.371   1.899  1.00  0.00    -0.288 OA
BRANCH  22  24
HETATM   24  O4  UNL     1       4.926  34.870   0.638  1.00  0.00    -0.340 OA
ATOM     25  H4  UNL     1       4.763  35.622   0.080  1.00  0.00     0.220 HD
ENDBRANCH  22  24
ENDBRANCH  17  18
ENDBRANCH  15  16
ENDBRANCH  14  15
ENDBRANCH  12  13
ENDBRANCH   9  11
BRANCH   5  26
HETATM   26  O3  UNL     1       9.821  29.265   2.135  1.00  0.00    -0.393 OA
ATOM     27  H3  UNL     1      10.215  28.995   1.314  1.00  0.00     0.210 HD
ENDBRANCH   5  26
BRANCH   4  28
HETATM   28  O1  UNL     1      10.249  27.144   3.253  1.00  0.00    -0.231 OA
BRANCH  28  29
HETATM   29  O2  UNL     1      11.037  27.621   4.161  1.00  0.00    -0.250 OA
ATOM     30  H2  UNL     1      10.597  28.210   4.763  1.00  0.00     0.253 HD
ENDBRANCH  28  29
ENDBRANCH   4  28
TORSDOF 9
ENDMDL
MODEL 5
REMARK VINA RESULT: -8.257771972      1.841      2.845
REMARK  9 active torsions:
REMARK  status: ('A' for Active; 'I' for Inactive)
REMARK    1  A    between atoms: C4_4  and  O1_5 
REMARK    2  A    between atoms: O1_5  and  O2_6 
REMARK    3  A    between atoms: C5_8  and  O3_9 
REMARK    4  A    between atoms: C9_14  and  C10_15 
REMARK    5  A    between atoms: C11_16  and  C12_17 
REMARK    6  A    between atoms: C13_18  and  C14_19 
REMARK    7  A    between atoms: C14_19  and  C15_20 
REMARK    8  A    between atoms: C16_21  and  C17_22 
REMARK    9  A    between atoms: C21_26  and  O4_27 
ROOT
HETATM    1  C1  UNL     1       6.330  27.712   7.773  1.00  0.00     0.043 C 
HETATM    2  C2  UNL     1       6.420  28.223   6.382  1.00  0.00    -0.084 C 
HETATM    3  C3  UNL     1       7.098  27.406   5.601  1.00  0.00     0.013 C 
HETATM    4  C4  UNL     1       7.539  27.302   4.200  1.00  0.00     0.212 C 
HETATM    5  C5  UNL     1       7.687  28.554   3.442  1.00  0.00     0.154 C 
HETATM    6  C6  UNL     1       6.677  29.583   3.374  1.00  0.00     0.039 C 
HETATM    7  C7  UNL     1       5.237  29.307   3.616  1.00  0.00    -0.008 C 
HETATM    8  C8  UNL     1       4.868  27.984   2.910  1.00  0.00     0.011 C 
HETATM    9  C9  UNL     1       4.752  29.366   4.997  1.00  0.00     0.016 C 
HETATM   10  C22 UNL     1       5.760  29.519   6.099  1.00  0.00     0.042 C 
ENDROOT
BRANCH   9  11
HETATM   11  C10 UNL     1       3.648  30.307   5.304  1.00  0.00    -0.021 C 
HETATM   12  C11 UNL     1       3.760  31.502   5.841  1.00  0.00    -0.004 C 
BRANCH  12  13
HETATM   13  C12 UNL     1       2.581  32.317   6.083  1.00  0.00    -0.004 C 
HETATM   14  C13 UNL     1       1.918  32.831   5.072  1.00  0.00    -0.023 C 
BRANCH  14  15
HETATM   15  C14 UNL     1       0.701  33.674   5.306  1.00  0.00     0.054 C 
BRANCH  15  16
HETATM   16  C15 UNL     1       0.805  34.970   4.655  1.00  0.00    -0.020 C 
HETATM   17  C16 UNL     1       1.020  35.216   3.401  1.00  0.00     0.033 C 
BRANCH  17  18
HETATM   18  C17 UNL     1       1.202  34.240   2.378  1.00  0.00     0.078 A 
HETATM   19  C18 UNL     1       2.467  33.902   1.863  1.00  0.00     0.049 A 
HETATM   20  C19 UNL     1       2.240  32.944   0.912  1.00  0.00    -0.001 A 
HETATM   21  C20 UNL     1       3.232  32.235   0.054  1.00  0.00     0.053 C 
HETATM   22  C21 UNL     1       0.880  32.728   0.872  1.00  0.00     0.189 A 
HETATM   23  O5  UNL     1       0.336  33.513   1.748  1.00  0.00    -0.288 OA
BRANCH  22  24
HETATM   24  O4  UNL     1       0.200  31.840   0.054  1.00  0.00    -0.340 OA
ATOM     25  H4  UNL     1       0.560  31.085  -0.396  1.00  0.00     0.220 HD
ENDBRANCH  22  24
ENDBRANCH  17  18
ENDBRANCH  15  16
ENDBRANCH  14  15
ENDBRANCH  12  13
ENDBRANCH   9  11
BRANCH   5  26
HETATM   26  O3  UNL     1       8.891  29.159   3.907  1.00  0.00    -0.393 OA
ATOM     27  H3  UNL     1       8.849  30.070   3.641  1.00  0.00     0.210 HD
ENDBRANCH   5  26
BRANCH   4  28
HETATM   28  O1  UNL     1       8.851  26.753   4.286  1.00  0.00    -0.231 OA
BRANCH  28  29
HETATM   29  O2  UNL     1       9.258  26.239   3.171  1.00  0.00    -0.250 OA
ATOM     30  H2  UNL     1      10.170  25.974   3.195  1.00  0.00     0.253 HD
ENDBRANCH  28  29
ENDBRANCH   4  28
TORSDOF 9
ENDMDL
