MODEL 1
REMARK VINA RESULT: -7.018901612      0.000      0.000
REMARK  9 active torsions:
REMARK  status: ('A' for Active; 'I' for Inactive)
REMARK    1  A    between atoms: C2_2  and  C3_3 
REMARK    2  A    between atoms: C3_3  and  C4_4 
REMARK    3  A    between atoms: N1_5  and  C5_7 
REMARK    4  A    between atoms: C7_10  and  O1_11 
REMARK    5  A    between atoms: C9_15  and  O2_16 
REMARK    6  A    between atoms: C10_18  and  S1_19 
REMARK    7  A    between atoms: S1_19  and  C11_20 
REMARK    8  A    between atoms: C11_20  and  C12_22 
REMARK    9  A    between atoms: C12_22  and  O4_24 
ROOT
HETATM    1  C5  UNL     1       5.670  29.466   7.383  1.00  0.00     0.076 A 
HETATM    2  C6  UNL     1       4.943  30.190   8.301  1.00  0.00     0.097 A 
HETATM    3 CL1  UNL     1       5.066  29.814  10.024  1.00  0.00    -0.079 Cl
HETATM    4  C7  UNL     1       4.094  31.225   7.970  1.00  0.00     0.114 A 
HETATM    5  C8  UNL     1       4.001  31.514   6.625  1.00  0.00     0.103 A 
HETATM    6 CL2  UNL     1       2.951  32.812   6.084  1.00  0.00    -0.078 Cl
HETATM    7  C9  UNL     1       4.707  30.820   5.665  1.00  0.00     0.109 A 
HETATM    8  C10 UNL     1       5.547  29.790   6.047  1.00  0.00     0.071 A 
ENDROOT
BRANCH   8   9
HETATM    9  S1  UNL     1       6.453  28.863   4.864  1.00  0.00    -0.045 SA
BRANCH   9  10
HETATM   10  C11 UNL     1       8.189  29.226   4.828  1.00  0.00     0.219 C 
HETATM   11  O3  UNL     1       8.494  30.413   5.024  1.00  0.00    -0.282 OA
BRANCH  10  12
HETATM   12  C12 UNL     1       9.281  28.274   4.592  1.00  0.00     0.195 C 
HETATM   13  C13 UNL     1       9.021  26.881   5.105  1.00  0.00     0.048 C 
BRANCH  12  14
HETATM   14  O4  UNL     1      10.470  28.702   5.235  1.00  0.00    -0.388 OA
ATOM     15  H4  UNL     1      10.886  29.401   4.745  1.00  0.00     0.210 HD
ENDBRANCH  12  14
ENDBRANCH  10  12
ENDBRANCH   9  10
ENDBRANCH   8   9
BRANCH   1  16
HETATM   16  N1  UNL     1       6.529  28.409   7.801  1.00  0.00    -0.367 N 
HETATM   17  C4  UNL     1       7.675  28.723   8.298  1.00  0.00     0.061 C 
ATOM     18  H1  UNL     1       6.244  27.434   7.710  1.00  0.00     0.165 HD
BRANCH  17  19
HETATM   19  C3  UNL     1       8.632  27.673   8.760  1.00  0.00     0.044 C 
BRANCH  19  20
HETATM   20  C2  UNL     1       8.643  27.605  10.268  1.00  0.00     0.001 C 
HETATM   21  C1  UNL     1       9.374  26.358  10.716  1.00  0.00     0.005 C 
ENDBRANCH  19  20
ENDBRANCH  17  19
ENDBRANCH   1  16
BRANCH   7  22
HETATM   22  O2  UNL     1       4.580  31.150   4.301  1.00  0.00    -0.357 OA
ATOM     23  H2  UNL     1       4.347  30.487   3.662  1.00  0.00     0.217 HD
ENDBRANCH   7  22
BRANCH   4  24
HETATM   24  O1  UNL     1       3.372  31.938   8.924  1.00  0.00    -0.357 OA
ATOM     25  H1  UNL     1       2.481  31.715   9.162  1.00  0.00     0.217 HD
ENDBRANCH   4  24
TORSDOF 9
ENDMDL
MODEL 2
REMARK VINA RESULT: -6.815997855      1.114      1.272
REMARK  9 active torsions:
REMARK  status: ('A' for Active; 'I' for Inactive)
REMARK    1  A    between atoms: C2_2  and  C3_3 
REMARK    2  A    between atoms: C3_3  and  C4_4 
REMARK    3  A    between atoms: N1_5  and  C5_7 
REMARK    4  A    between atoms: C7_10  and  O1_11 
REMARK    5  A    between atoms: C9_15  and  O2_16 
REMARK    6  A    between atoms: C10_18  and  S1_19 
REMARK    7  A    between atoms: S1_19  and  C11_20 
REMARK    8  A    between atoms: C11_20  and  C12_22 
REMARK    9  A    between atoms: C12_22  and  O4_24 
ROOT
HETATM    1  C5  UNL     1       5.470  29.695   7.166  1.00  0.00     0.076 A 
HETATM    2  C6  UNL     1       4.808  30.504   8.063  1.00  0.00     0.097 A 
HETATM    3 CL1  UNL     1       4.961  30.210   9.800  1.00  0.00    -0.079 Cl
HETATM    4  C7  UNL     1       4.007  31.565   7.700  1.00  0.00     0.114 A 
HETATM    5  C8  UNL     1       3.891  31.790   6.345  1.00  0.00     0.103 A 
HETATM    6 CL2  UNL     1       2.897  33.114   5.763  1.00  0.00    -0.078 Cl
HETATM    7  C9  UNL     1       4.532  31.010   5.404  1.00  0.00     0.109 A 
HETATM    8  C10 UNL     1       5.325  29.957   5.819  1.00  0.00     0.071 A 
ENDROOT
BRANCH   8   9
HETATM    9  S1  UNL     1       6.147  28.922   4.663  1.00  0.00    -0.045 SA
BRANCH   9  10
HETATM   10  C11 UNL     1       7.674  29.584   4.050  1.00  0.00     0.219 C 
HETATM   11  O3  UNL     1       8.337  30.248   4.862  1.00  0.00    -0.282 OA
BRANCH  10  12
HETATM   12  C12 UNL     1       8.219  29.427   2.695  1.00  0.00     0.195 C 
HETATM   13  C13 UNL     1       7.361  28.609   1.764  1.00  0.00     0.048 C 
BRANCH  12  14
HETATM   14  O4  UNL     1       9.475  28.770   2.730  1.00  0.00    -0.388 OA
ATOM     15  H4  UNL     1       9.655  28.341   1.903  1.00  0.00     0.210 HD
ENDBRANCH  12  14
ENDBRANCH  10  12
ENDBRANCH   9  10
ENDBRANCH   8   9
BRANCH   1  16
HETATM   16  N1  UNL     1       6.282  28.616   7.617  1.00  0.00    -0.367 N 
HETATM   17  C4  UNL     1       7.488  28.880   7.985  1.00  0.00     0.061 C 
ATOM     18  H1  UNL     1       5.920  27.663   7.648  1.00  0.00     0.165 HD
BRANCH  17  19
HETATM   19  C3  UNL     1       8.402  27.803   8.471  1.00  0.00     0.044 C 
BRANCH  19  20
HETATM   20  C2  UNL     1       8.513  27.853   9.976  1.00  0.00     0.001 C 
HETATM   21  C1  UNL     1       9.217  26.610  10.476  1.00  0.00     0.005 C 
ENDBRANCH  19  20
ENDBRANCH  17  19
ENDBRANCH   1  16
BRANCH   7  22
HETATM   22  O2  UNL     1       4.384  31.276   4.029  1.00  0.00    -0.357 OA
ATOM     23  H2  UNL     1       4.240  32.163   3.720  1.00  0.00     0.217 HD
ENDBRANCH   7  22
BRANCH   4  24
HETATM   24  O1  UNL     1       3.352  32.365   8.634  1.00  0.00    -0.357 OA
ATOM     25  H1  UNL     1       3.747  33.144   9.006  1.00  0.00     0.217 HD
ENDBRANCH   4  24
TORSDOF 9
ENDMDL
MODEL 3
REMARK VINA RESULT: -6.722654302      1.669      2.128
REMARK  9 active torsions:
REMARK  status: ('A' for Active; 'I' for Inactive)
REMARK    1  A    between atoms: C2_2  and  C3_3 
REMARK    2  A    between atoms: C3_3  and  C4_4 
REMARK    3  A    between atoms: N1_5  and  C5_7 
REMARK    4  A    between atoms: C7_10  and  O1_11 
REMARK    5  A    between atoms: C9_15  and  O2_16 
REMARK    6  A    between atoms: C10_18  and  S1_19 
REMARK    7  A    between atoms: S1_19  and  C11_20 
REMARK    8  A    between atoms: C11_20  and  C12_22 
REMARK    9  A    between atoms: C12_22  and  O4_24 
ROOT
HETATM    1  C5  UNL     1       4.720  30.365   6.328  1.00  0.00     0.076 A 
HETATM    2  C6  UNL     1       3.985  31.486   6.645  1.00  0.00     0.097 A 
HETATM    3 CL1  UNL     1       3.526  31.798   8.324  1.00  0.00    -0.079 Cl
HETATM    4  C7  UNL     1       3.563  32.418   5.722  1.00  0.00     0.114 A 
HETATM    5  C8  UNL     1       3.924  32.170   4.415  1.00  0.00     0.103 A 
HETATM    6 CL2  UNL     1       3.442  33.289   3.151  1.00  0.00    -0.078 Cl
HETATM    7  C9  UNL     1       4.659  31.064   4.043  1.00  0.00     0.109 A 
HETATM    8  C10 UNL     1       5.059  30.157   5.007  1.00  0.00     0.071 A 
ENDROOT
BRANCH   8   9
HETATM    9  S1  UNL     1       5.980  28.723   4.586  1.00  0.00    -0.045 SA
BRANCH   9  10
HETATM   10  C11 UNL     1       7.684  29.037   4.205  1.00  0.00     0.219 C 
HETATM   11  O3  UNL     1       7.903  29.536   3.090  1.00  0.00    -0.282 OA
BRANCH  10  12
HETATM   12  C12 UNL     1       8.841  28.766   5.067  1.00  0.00     0.195 C 
HETATM   13  C13 UNL     1       9.245  29.915   5.955  1.00  0.00     0.048 C 
BRANCH  12  14
HETATM   14  O4  UNL     1       9.988  28.464   4.290  1.00  0.00    -0.388 OA
ATOM     15  H4  UNL     1      10.775  28.795   4.707  1.00  0.00     0.210 HD
ENDBRANCH  12  14
ENDBRANCH  10  12
ENDBRANCH   9  10
ENDBRANCH   8   9
BRANCH   1  16
HETATM   16  N1  UNL     1       5.122  29.445   7.339  1.00  0.00    -0.367 N 
HETATM   17  C4  UNL     1       6.234  29.667   7.950  1.00  0.00     0.061 C 
ATOM     18  H1  UNL     1       4.545  28.637   7.572  1.00  0.00     0.165 HD
BRANCH  17  19
HETATM   19  C3  UNL     1       6.723  28.748   9.022  1.00  0.00     0.044 C 
BRANCH  19  20
HETATM   20  C2  UNL     1       7.508  27.610   8.415  1.00  0.00     0.001 C 
HETATM   21  C1  UNL     1       8.924  27.626   8.946  1.00  0.00     0.005 C 
ENDBRANCH  19  20
ENDBRANCH  17  19
ENDBRANCH   1  16
BRANCH   7  22
HETATM   22  O2  UNL     1       5.004  30.850   2.695  1.00  0.00    -0.357 OA
ATOM     23  H2  UNL     1       5.672  30.216   2.460  1.00  0.00     0.217 HD
ENDBRANCH   7  22
BRANCH   4  24
HETATM   24  O1  UNL     1       2.820  33.542   6.076  1.00  0.00    -0.357 OA
ATOM     25  H1  UNL     1       1.926  33.676   5.786  1.00  0.00     0.217 HD
ENDBRANCH   4  24
TORSDOF 9
ENDMDL
MODEL 4
REMARK VINA RESULT: -6.690041783      1.804      1.931
REMARK  9 active torsions:
REMARK  status: ('A' for Active; 'I' for Inactive)
REMARK    1  A    between atoms: C2_2  and  C3_3 
REMARK    2  A    between atoms: C3_3  and  C4_4 
REMARK    3  A    between atoms: N1_5  and  C5_7 
REMARK    4  A    between atoms: C7_10  and  O1_11 
REMARK    5  A    between atoms: C9_15  and  O2_16 
REMARK    6  A    between atoms: C10_18  and  S1_19 
REMARK    7  A    between atoms: S1_19  and  C11_20 
REMARK    8  A    between atoms: C11_20  and  C12_22 
REMARK    9  A    between atoms: C12_22  and  O4_24 
ROOT
HETATM    1  C5  UNL     1       6.057  29.296   7.675  1.00  0.00     0.076 A 
HETATM    2  C6  UNL     1       5.138  29.835   8.548  1.00  0.00     0.097 A 
HETATM    3 CL1  UNL     1       5.066  29.265  10.221  1.00  0.00    -0.079 Cl
HETATM    4  C7  UNL     1       4.236  30.820   8.208  1.00  0.00     0.114 A 
HETATM    5  C8  UNL     1       4.297  31.260   6.903  1.00  0.00     0.103 A 
HETATM    6 CL2  UNL     1       3.196  32.513   6.355  1.00  0.00    -0.078 Cl
HETATM    7  C9  UNL     1       5.197  30.755   5.989  1.00  0.00     0.109 A 
HETATM    8  C10 UNL     1       6.082  29.768   6.378  1.00  0.00     0.071 A 
ENDROOT
BRANCH   8   9
HETATM    9  S1  UNL     1       7.236  29.077   5.249  1.00  0.00    -0.045 SA
BRANCH   9  10
HETATM   10  C11 UNL     1       6.504  28.067   3.988  1.00  0.00     0.219 C 
HETATM   11  O3  UNL     1       5.274  28.170   3.863  1.00  0.00    -0.282 OA
BRANCH  10  12
HETATM   12  C12 UNL     1       7.202  27.135   3.093  1.00  0.00     0.195 C 
HETATM   13  C13 UNL     1       7.256  27.571   1.652  1.00  0.00     0.048 C 
BRANCH  12  14
HETATM   14  O4  UNL     1       6.562  25.870   3.086  1.00  0.00    -0.388 OA
ATOM     15  H4  UNL     1       7.202  25.168   3.060  1.00  0.00     0.210 HD
ENDBRANCH  12  14
ENDBRANCH  10  12
ENDBRANCH   9  10
ENDBRANCH   8   9
BRANCH   1  16
HETATM   16  N1  UNL     1       6.959  28.279   8.100  1.00  0.00    -0.367 N 
HETATM   17  C4  UNL     1       8.062  28.644   8.656  1.00  0.00     0.061 C 
ATOM     18  H1  UNL     1       6.738  27.292   7.969  1.00  0.00     0.165 HD
BRANCH  17  19
HETATM   19  C3  UNL     1       9.060  27.638   9.128  1.00  0.00     0.044 C 
BRANCH  19  20
HETATM   20  C2  UNL     1       8.829  27.319  10.586  1.00  0.00     0.001 C 
HETATM   21  C1  UNL     1       9.625  26.091  10.972  1.00  0.00     0.005 C 
ENDBRANCH  19  20
ENDBRANCH  17  19
ENDBRANCH   1  16
BRANCH   7  22
HETATM   22  O2  UNL     1       5.222  31.235   4.665  1.00  0.00    -0.357 OA
ATOM     23  H2  UNL     1       6.042  31.299   4.188  1.00  0.00     0.217 HD
ENDBRANCH   7  22
BRANCH   4  24
HETATM   24  O1  UNL     1       3.319  31.344   9.116  1.00  0.00    -0.357 OA
ATOM     25  H1  UNL     1       2.445  31.613   8.862  1.00  0.00     0.217 HD
ENDBRANCH   4  24
TORSDOF 9
ENDMDL
MODEL 5
REMARK VINA RESULT: -6.510162036      2.650      5.180
REMARK  9 active torsions:
REMARK  status: ('A' for Active; 'I' for Inactive)
REMARK    1  A    between atoms: C2_2  and  C3_3 
REMARK    2  A    between atoms: C3_3  and  C4_4 
REMARK    3  A    between atoms: N1_5  and  C5_7 
REMARK    4  A    between atoms: C7_10  and  O1_11 
REMARK    5  A    between atoms: C9_15  and  O2_16 
REMARK    6  A    between atoms: C10_18  and  S1_19 
REMARK    7  A    between atoms: S1_19  and  C11_20 
REMARK    8  A    between atoms: C11_20  and  C12_22 
REMARK    9  A    between atoms: C12_22  and  O4_24 
ROOT
HETATM    1  C5  UNL     1       6.338  28.945   6.166  1.00  0.00     0.076 A 
HETATM    2  C6  UNL     1       5.831  29.247   7.411  1.00  0.00     0.097 A 
HETATM    3 CL1  UNL     1       4.329  30.167   7.556  1.00  0.00    -0.079 Cl
HETATM    4  C7  UNL     1       6.427  28.874   8.597  1.00  0.00     0.114 A 
HETATM    5  C8  UNL     1       7.598  28.158   8.478  1.00  0.00     0.103 A 
HETATM    6 CL2  UNL     1       8.446  27.628   9.921  1.00  0.00    -0.078 Cl
HETATM    7  C9  UNL     1       8.148  27.829   7.256  1.00  0.00     0.109 A 
HETATM    8  C10 UNL     1       7.513  28.226   6.094  1.00  0.00     0.071 A 
ENDROOT
BRANCH   8   9
HETATM    9  S1  UNL     1       8.181  27.850   4.515  1.00  0.00    -0.045 SA
BRANCH   9  10
HETATM   10  C11 UNL     1       7.748  26.242   3.905  1.00  0.00     0.219 C 
HETATM   11  O3  UNL     1       6.695  26.180   3.252  1.00  0.00    -0.282 OA
BRANCH  10  12
HETATM   12  C12 UNL     1       8.502  24.997   4.097  1.00  0.00     0.195 C 
HETATM   13  C13 UNL     1       7.648  23.771   4.299  1.00  0.00     0.048 C 
BRANCH  12  14
HETATM   14  O4  UNL     1       9.327  25.079   5.246  1.00  0.00    -0.388 OA
ATOM     15  H4  UNL     1       8.803  25.171   6.033  1.00  0.00     0.210 HD
ENDBRANCH  12  14
ENDBRANCH  10  12
ENDBRANCH   9  10
ENDBRANCH   8   9
BRANCH   1  16
HETATM   16  N1  UNL     1       5.665  29.365   4.983  1.00  0.00    -0.367 N 
HETATM   17  C4  UNL     1       5.706  30.615   4.676  1.00  0.00     0.061 C 
ATOM     18  H1  UNL     1       5.167  28.696   4.396  1.00  0.00     0.165 HD
BRANCH  17  19
HETATM   19  C3  UNL     1       5.025  31.134   3.452  1.00  0.00     0.044 C 
BRANCH  19  20
HETATM   20  C2  UNL     1       4.465  32.512   3.710  1.00  0.00     0.001 C 
HETATM   21  C1  UNL     1       3.547  32.472   4.912  1.00  0.00     0.005 C 
ENDBRANCH  19  20
ENDBRANCH  17  19
ENDBRANCH   1  16
BRANCH   7  22
HETATM   22  O2  UNL     1       9.348  27.096   7.183  1.00  0.00    -0.357 OA
ATOM     23  H2  UNL     1       9.406  26.312   6.648  1.00  0.00     0.217 HD
ENDBRANCH   7  22
BRANCH   4  24
HETATM   24  O1  UNL     1       5.887  29.196   9.841  1.00  0.00    -0.357 OA
ATOM     25  H1  UNL     1       6.247  28.864  10.655  1.00  0.00     0.217 HD
ENDBRANCH   4  24
TORSDOF 9
ENDMDL
