MODEL 1
REMARK VINA RESULT: -7.867629163      0.000      0.000
REMARK  7 active torsions:
REMARK  status: ('A' for Active; 'I' for Inactive)
REMARK    1  A    between atoms: C2_2  and  C3_3 
REMARK    2  A    between atoms: C3_3  and  N1_4 
REMARK    3  A    between atoms: C4_5  and  O1_6 
REMARK    4  A    between atoms: C6_9  and  N2_10 
REMARK    5  A    between atoms: N2_10  and  N3_12 
REMARK    6  A    between atoms: C7_14  and  C8_15 
REMARK    7  A    between atoms: C15_25  and  O2_26 
ROOT
HETATM    1  N2  UNL     1       3.815  32.203   2.154  1.00  0.00    -0.297 N 
ATOM      2  H2  UNL     1       2.951  32.711   1.962  1.00  0.00     0.187 HD
ENDROOT
BRANCH   1   3
HETATM    3  C6  UNL     1       4.843  32.232   1.169  1.00  0.00     0.103 A 
HETATM    4  C5  UNL     1       5.213  33.341   0.453  1.00  0.00     0.091 A 
HETATM    5  C4  UNL     1       6.232  32.932  -0.381  1.00  0.00     0.146 A 
HETATM    6  N1  UNL     1       6.499  31.644  -0.210  1.00  0.00    -0.303 N 
HETATM    7  C15 UNL     1       5.657  31.207   0.734  1.00  0.00     0.173 A 
BRANCH   5   8
HETATM    8  O1  UNL     1       6.876  33.789  -1.274  1.00  0.00    -0.346 OA
ATOM      9  H1  UNL     1       6.688  34.712  -1.393  1.00  0.00     0.219 HD
ENDBRANCH   5   8
BRANCH   6  10
HETATM   10  C3  UNL     1       7.498  30.867  -0.902  1.00  0.00     0.160 C 
BRANCH  10  11
HETATM   11  C2  UNL     1       8.801  31.005  -0.214  1.00  0.00    -0.017 C 
HETATM   12  C1  UNL     1       9.179  30.149   0.717  1.00  0.00     0.008 C 
ENDBRANCH  10  11
ENDBRANCH   6  10
BRANCH   7  13
HETATM   13  O2  UNL     1       5.587  29.914   1.225  1.00  0.00    -0.344 OA
ATOM     14  H2  UNL     1       4.791  29.428   1.403  1.00  0.00     0.219 HD
ENDBRANCH   7  13
ENDBRANCH   1   3
BRANCH   1  15
HETATM   15  N3  UNL     1       3.920  31.530   3.349  1.00  0.00    -0.310 N 
HETATM   16  C7  UNL     1       4.802  31.868   4.214  1.00  0.00     0.120 C 
ATOM     17  H3  UNL     1       3.288  30.755   3.548  1.00  0.00     0.186 HD
BRANCH  16  18
HETATM   18  C8  UNL     1       4.941  31.174   5.494  1.00  0.00     0.006 A 
HETATM   19  C9  UNL     1       5.858  30.151   5.617  1.00  0.00     0.039 A 
HETATM   20  C10 UNL     1       6.023  29.469   6.806  1.00  0.00     0.042 A 
HETATM   21 CL1  UNL     1       7.160  28.171   7.024  1.00  0.00    -0.084 Cl
HETATM   22  C11 UNL     1       5.233  29.850   7.876  1.00  0.00    -0.017 A 
HETATM   23  C12 UNL     1       5.381  29.140   9.177  1.00  0.00     0.052 C 
HETATM   24  C13 UNL     1       4.313  30.875   7.761  1.00  0.00     0.064 A 
HETATM   25 CL2  UNL     1       3.340  31.308   9.168  1.00  0.00    -0.082 Cl
HETATM   26  C14 UNL     1       4.174  31.535   6.558  1.00  0.00     0.068 A 
HETATM   27 CL3  UNL     1       2.994  32.822   6.472  1.00  0.00    -0.082 Cl
ENDBRANCH  16  18
ENDBRANCH   1  15
TORSDOF 7
ENDMDL
MODEL 2
REMARK VINA RESULT: -7.712164967      0.646      2.204
REMARK  7 active torsions:
REMARK  status: ('A' for Active; 'I' for Inactive)
REMARK    1  A    between atoms: C2_2  and  C3_3 
REMARK    2  A    between atoms: C3_3  and  N1_4 
REMARK    3  A    between atoms: C4_5  and  O1_6 
REMARK    4  A    between atoms: C6_9  and  N2_10 
REMARK    5  A    between atoms: N2_10  and  N3_12 
REMARK    6  A    between atoms: C7_14  and  C8_15 
REMARK    7  A    between atoms: C15_25  and  O2_26 
ROOT
HETATM    1  N2  UNL     1       3.740  32.248   2.217  1.00  0.00    -0.297 N 
ATOM      2  H2  UNL     1       2.874  32.746   2.007  1.00  0.00     0.187 HD
ENDROOT
BRANCH   1   3
HETATM    3  C6  UNL     1       4.775  32.260   1.238  1.00  0.00     0.103 A 
HETATM    4  C5  UNL     1       5.169  33.363   0.527  1.00  0.00     0.091 A 
HETATM    5  C4  UNL     1       6.186  32.937  -0.301  1.00  0.00     0.146 A 
HETATM    6  N1  UNL     1       6.428  31.644  -0.131  1.00  0.00    -0.303 N 
HETATM    7  C15 UNL     1       5.572  31.221   0.807  1.00  0.00     0.173 A 
BRANCH   5   8
HETATM    8  O1  UNL     1       6.851  33.783  -1.189  1.00  0.00    -0.346 OA
ATOM      9  H1  UNL     1       6.452  34.476  -1.702  1.00  0.00     0.219 HD
ENDBRANCH   5   8
BRANCH   6  10
HETATM   10  C3  UNL     1       7.418  30.849  -0.818  1.00  0.00     0.160 C 
BRANCH  10  11
HETATM   11  C2  UNL     1       8.727  30.997  -0.146  1.00  0.00    -0.017 C 
HETATM   12  C1  UNL     1       9.121  30.148   0.784  1.00  0.00     0.008 C 
ENDBRANCH  10  11
ENDBRANCH   6  10
BRANCH   7  13
HETATM   13  O2  UNL     1       5.475  29.929   1.296  1.00  0.00    -0.344 OA
ATOM     14  H2  UNL     1       6.115  29.238   1.174  1.00  0.00     0.219 HD
ENDBRANCH   7  13
ENDBRANCH   1   3
BRANCH   1  15
HETATM   15  N3  UNL     1       3.840  31.604   3.428  1.00  0.00    -0.310 N 
HETATM   16  C7  UNL     1       4.853  31.794   4.187  1.00  0.00     0.120 C 
ATOM     17  H3  UNL     1       3.099  30.969   3.724  1.00  0.00     0.186 HD
BRANCH  16  18
HETATM   18  C8  UNL     1       4.993  31.126   5.481  1.00  0.00     0.006 A 
HETATM   19  C9  UNL     1       4.186  31.507   6.533  1.00  0.00     0.039 A 
HETATM   20  C10 UNL     1       4.283  30.905   7.772  1.00  0.00     0.042 A 
HETATM   21 CL1  UNL     1       3.297  31.340   9.137  1.00  0.00    -0.084 Cl
HETATM   22  C11 UNL     1       5.223  29.900   7.922  1.00  0.00    -0.017 A 
HETATM   23  C12 UNL     1       5.359  29.224   9.242  1.00  0.00     0.052 C 
HETATM   24  C13 UNL     1       6.034  29.512   6.872  1.00  0.00     0.064 A 
HETATM   25 CL2  UNL     1       7.209  28.223   7.134  1.00  0.00    -0.082 Cl
HETATM   26  C14 UNL     1       5.910  30.136   5.648  1.00  0.00     0.068 A 
HETATM   27 CL3  UNL     1       6.963  29.603   4.358  1.00  0.00    -0.082 Cl
ENDBRANCH  16  18
ENDBRANCH   1  15
TORSDOF 7
ENDMDL
MODEL 3
REMARK VINA RESULT: -7.665738827      4.617      6.086
REMARK  7 active torsions:
REMARK  status: ('A' for Active; 'I' for Inactive)
REMARK    1  A    between atoms: C2_2  and  C3_3 
REMARK    2  A    between atoms: C3_3  and  N1_4 
REMARK    3  A    between atoms: C4_5  and  O1_6 
REMARK    4  A    between atoms: C6_9  and  N2_10 
REMARK    5  A    between atoms: N2_10  and  N3_12 
REMARK    6  A    between atoms: C7_14  and  C8_15 
REMARK    7  A    between atoms: C15_25  and  O2_26 
ROOT
HETATM    1  N2  UNL     1       9.114  28.601   4.025  1.00  0.00    -0.297 N 
ATOM      2  H2  UNL     1       9.667  29.256   3.472  1.00  0.00     0.187 HD
ENDROOT
BRANCH   1   3
HETATM    3  C6  UNL     1       9.231  27.212   3.735  1.00  0.00     0.103 A 
HETATM    4  C5  UNL     1       9.387  26.683   2.480  1.00  0.00     0.091 A 
HETATM    5  C4  UNL     1       9.455  25.316   2.651  1.00  0.00     0.146 A 
HETATM    6  N1  UNL     1       9.351  24.990   3.932  1.00  0.00    -0.303 N 
HETATM    7  C15 UNL     1       9.213  26.140   4.603  1.00  0.00     0.173 A 
BRANCH   5   8
HETATM    8  O1  UNL     1       9.616  24.423   1.590  1.00  0.00    -0.346 OA
ATOM      9  H1  UNL     1      10.184  24.548   0.840  1.00  0.00     0.219 HD
ENDBRANCH   5   8
BRANCH   6  10
HETATM   10  C3  UNL     1       9.380  23.661   4.494  1.00  0.00     0.160 C 
BRANCH  10  11
HETATM   11  C2  UNL     1       8.117  22.960   4.175  1.00  0.00    -0.017 C 
HETATM   12  C1  UNL     1       7.032  23.134   4.907  1.00  0.00     0.008 C 
ENDBRANCH  10  11
ENDBRANCH   6  10
BRANCH   7  13
HETATM   13  O2  UNL     1       9.070  26.269   5.974  1.00  0.00    -0.344 OA
ATOM     14  H2  UNL     1       9.687  26.688   6.562  1.00  0.00     0.219 HD
ENDBRANCH   7  13
ENDBRANCH   1   3
BRANCH   1  15
HETATM   15  N3  UNL     1       8.299  29.112   5.009  1.00  0.00    -0.310 N 
HETATM   16  C7  UNL     1       7.028  29.129   4.861  1.00  0.00     0.120 C 
ATOM     17  H3  UNL     1       8.713  29.480   5.866  1.00  0.00     0.186 HD
BRANCH  16  18
HETATM   18  C8  UNL     1       6.132  29.664   5.885  1.00  0.00     0.006 A 
HETATM   19  C9  UNL     1       6.204  29.176   7.173  1.00  0.00     0.039 A 
HETATM   20  C10 UNL     1       5.378  29.651   8.172  1.00  0.00     0.042 A 
HETATM   21 CL1  UNL     1       5.419  29.077   9.813  1.00  0.00    -0.084 Cl
HETATM   22  C11 UNL     1       4.470  30.639   7.835  1.00  0.00    -0.017 A 
HETATM   23  C12 UNL     1       3.560  31.180   8.884  1.00  0.00     0.052 C 
HETATM   24  C13 UNL     1       4.392  31.134   6.546  1.00  0.00     0.064 A 
HETATM   25 CL2  UNL     1       3.211  32.394   6.187  1.00  0.00    -0.082 Cl
HETATM   26  C14 UNL     1       5.233  30.635   5.573  1.00  0.00     0.068 A 
HETATM   27 CL3  UNL     1       5.088  31.299   3.961  1.00  0.00    -0.082 Cl
ENDBRANCH  16  18
ENDBRANCH   1  15
TORSDOF 7
ENDMDL
MODEL 4
REMARK VINA RESULT: -7.664445023      2.150      3.738
REMARK  7 active torsions:
REMARK  status: ('A' for Active; 'I' for Inactive)
REMARK    1  A    between atoms: C2_2  and  C3_3 
REMARK    2  A    between atoms: C3_3  and  N1_4 
REMARK    3  A    between atoms: C4_5  and  O1_6 
REMARK    4  A    between atoms: C6_9  and  N2_10 
REMARK    5  A    between atoms: N2_10  and  N3_12 
REMARK    6  A    between atoms: C7_14  and  C8_15 
REMARK    7  A    between atoms: C15_25  and  O2_26 
ROOT
HETATM    1  N2  UNL     1       8.515  29.110   3.333  1.00  0.00    -0.297 N 
ATOM      2  H2  UNL     1       9.194  28.414   3.643  1.00  0.00     0.187 HD
ENDROOT
BRANCH   1   3
HETATM    3  C6  UNL     1       8.446  29.408   1.941  1.00  0.00     0.103 A 
HETATM    4  C5  UNL     1       9.428  29.123   1.029  1.00  0.00     0.091 A 
HETATM    5  C4  UNL     1       8.960  29.576  -0.186  1.00  0.00     0.146 A 
HETATM    6  N1  UNL     1       7.754  30.115  -0.061  1.00  0.00    -0.303 N 
HETATM    7  C15 UNL     1       7.431  30.018   1.235  1.00  0.00     0.173 A 
BRANCH   5   8
HETATM    8  O1  UNL     1       9.685  29.463  -1.373  1.00  0.00    -0.346 OA
ATOM      9  H1  UNL     1       9.434  28.949  -2.131  1.00  0.00     0.219 HD
ENDBRANCH   5   8
BRANCH   6  10
HETATM   10  C3  UNL     1       6.949  30.692  -1.110  1.00  0.00     0.160 C 
BRANCH  10  11
HETATM   11  C2  UNL     1       7.301  32.119  -1.278  1.00  0.00    -0.017 C 
HETATM   12  C1  UNL     1       6.413  33.074  -1.072  1.00  0.00     0.008 C 
ENDBRANCH  10  11
ENDBRANCH   6  10
BRANCH   7  13
HETATM   13  O2  UNL     1       6.253  30.458   1.814  1.00  0.00    -0.344 OA
ATOM     14  H2  UNL     1       6.144  30.734   2.716  1.00  0.00     0.219 HD
ENDBRANCH   7  13
ENDBRANCH   1   3
BRANCH   1  15
HETATM   15  N3  UNL     1       7.718  29.706   4.283  1.00  0.00    -0.310 N 
HETATM   16  C7  UNL     1       6.873  29.016   4.954  1.00  0.00     0.120 C 
ATOM     17  H3  UNL     1       7.802  30.707   4.455  1.00  0.00     0.186 HD
BRANCH  16  18
HETATM   18  C8  UNL     1       6.011  29.616   5.971  1.00  0.00     0.006 A 
HETATM   19  C9  UNL     1       5.137  30.622   5.614  1.00  0.00     0.039 A 
HETATM   20  C10 UNL     1       4.305  31.217   6.540  1.00  0.00     0.042 A 
HETATM   21 CL1  UNL     1       3.182  32.488   6.153  1.00  0.00    -0.084 Cl
HETATM   22  C11 UNL     1       4.378  30.768   7.847  1.00  0.00    -0.017 A 
HETATM   23  C12 UNL     1       3.496  31.384   8.878  1.00  0.00     0.052 C 
HETATM   24  C13 UNL     1       5.251  29.761   8.212  1.00  0.00     0.064 A 
HETATM   25 CL2  UNL     1       5.291  29.237   9.897  1.00  0.00    -0.082 Cl
HETATM   26  C14 UNL     1       6.069  29.188   7.260  1.00  0.00     0.068 A 
HETATM   27 CL3  UNL     1       7.152  27.919   7.782  1.00  0.00    -0.082 Cl
ENDBRANCH  16  18
ENDBRANCH   1  15
TORSDOF 7
ENDMDL
MODEL 5
REMARK VINA RESULT: -7.628321744      2.663      4.167
REMARK  7 active torsions:
REMARK  status: ('A' for Active; 'I' for Inactive)
REMARK    1  A    between atoms: C2_2  and  C3_3 
REMARK    2  A    between atoms: C3_3  and  N1_4 
REMARK    3  A    between atoms: C4_5  and  O1_6 
REMARK    4  A    between atoms: C6_9  and  N2_10 
REMARK    5  A    between atoms: N2_10  and  N3_12 
REMARK    6  A    between atoms: C7_14  and  C8_15 
REMARK    7  A    between atoms: C15_25  and  O2_26 
ROOT
HETATM    1  N2  UNL     1       8.667  28.604   3.833  1.00  0.00    -0.297 N 
ATOM      2  H2  UNL     1       9.528  28.166   4.160  1.00  0.00     0.187 HD
ENDROOT
BRANCH   1   3
HETATM    3  C6  UNL     1       8.335  28.485   2.453  1.00  0.00     0.103 A 
HETATM    4  C5  UNL     1       7.587  27.473   1.910  1.00  0.00     0.091 A 
HETATM    5  C4  UNL     1       7.509  27.740   0.560  1.00  0.00     0.146 A 
HETATM    6  N1  UNL     1       8.163  28.854   0.257  1.00  0.00    -0.303 N 
HETATM    7  C15 UNL     1       8.672  29.317   1.406  1.00  0.00     0.173 A 
BRANCH   5   8
HETATM    8  O1  UNL     1       6.821  26.925  -0.340  1.00  0.00    -0.346 OA
ATOM      9  H1  UNL     1       6.804  25.976  -0.329  1.00  0.00     0.219 HD
ENDBRANCH   5   8
BRANCH   6  10
HETATM   10  C3  UNL     1       8.301  29.449  -1.050  1.00  0.00     0.160 C 
BRANCH  10  11
HETATM   11  C2  UNL     1       7.316  30.542  -1.205  1.00  0.00    -0.017 C 
HETATM   12  C1  UNL     1       7.695  31.806  -1.250  1.00  0.00     0.008 C 
ENDBRANCH  10  11
ENDBRANCH   6  10
BRANCH   7  13
HETATM   13  O2  UNL     1       9.432  30.464   1.553  1.00  0.00    -0.344 OA
ATOM     14  H2  UNL     1      10.232  30.541   2.061  1.00  0.00     0.219 HD
ENDBRANCH   7  13
ENDBRANCH   1   3
BRANCH   1  15
HETATM   15  N3  UNL     1       7.894  29.277   4.751  1.00  0.00    -0.310 N 
HETATM   16  C7  UNL     1       6.823  28.750   5.214  1.00  0.00     0.120 C 
ATOM     17  H3  UNL     1       8.177  30.205   5.065  1.00  0.00     0.186 HD
BRANCH  16  18
HETATM   18  C8  UNL     1       5.977  29.437   6.190  1.00  0.00     0.006 A 
HETATM   19  C9  UNL     1       5.143  30.453   5.772  1.00  0.00     0.039 A 
HETATM   20  C10 UNL     1       4.328  31.128   6.658  1.00  0.00     0.042 A 
HETATM   21 CL1  UNL     1       3.256  32.417   6.194  1.00  0.00    -0.084 Cl
HETATM   22  C11 UNL     1       4.376  30.749   7.988  1.00  0.00    -0.017 A 
HETATM   23  C12 UNL     1       3.512  31.452   8.976  1.00  0.00     0.052 C 
HETATM   24  C13 UNL     1       5.209  29.731   8.414  1.00  0.00     0.064 A 
HETATM   25 CL2  UNL     1       5.220  29.299  10.125  1.00  0.00    -0.082 Cl
HETATM   26  C14 UNL     1       6.011  29.078   7.501  1.00  0.00     0.068 A 
HETATM   27 CL3  UNL     1       7.043  27.800   8.100  1.00  0.00    -0.082 Cl
ENDBRANCH  16  18
ENDBRANCH   1  15
TORSDOF 7
ENDMDL
