MODEL 1
REMARK VINA RESULT: -8.088230711      0.000      0.000
REMARK  7 active torsions:
REMARK  status: ('A' for Active; 'I' for Inactive)
REMARK    1  A    between atoms: C2_2  and  C3_3 
REMARK    2  A    between atoms: C3_3  and  C4_4 
REMARK    3  A    between atoms: C4_4  and  C5_5 
REMARK    4  A    between atoms: C5_5  and  C6_6 
REMARK    5  A    between atoms: C6_6  and  C7_7 
REMARK    6  A    between atoms: C11_14  and  O3_15 
REMARK    7  A    between atoms: C14_21  and  O4_22 
ROOT
HETATM    1  C7  UNL     1       5.071  30.195   6.809  1.00  0.00    -0.014 A 
HETATM    2  C8  UNL     1       4.736  30.317   8.181  1.00  0.00     0.116 A 
HETATM    3 CL1  UNL     1       5.455  29.201   9.318  1.00  0.00    -0.077 Cl
HETATM    4  C9  UNL     1       3.866  31.316   8.506  1.00  0.00     0.310 A 
HETATM    5  O1  UNL     1       3.572  31.419   9.744  1.00  0.00    -0.258 OA
HETATM    6  O2  UNL     1       3.345  32.133   7.639  1.00  0.00    -0.270 OA
HETATM    7  C10 UNL     1       3.651  32.023   6.360  1.00  0.00     0.128 A 
HETATM    8  C11 UNL     1       3.081  32.902   5.464  1.00  0.00     0.124 A 
HETATM    9  C12 UNL     1       3.355  32.839   4.116  1.00  0.00     0.094 A 
HETATM   10 CL2  UNL     1       2.628  33.955   2.995  1.00  0.00    -0.079 Cl
HETATM   11  C13 UNL     1       4.220  31.873   3.652  1.00  0.00     0.092 A 
HETATM   12 CL3  UNL     1       4.630  31.709   1.964  1.00  0.00    -0.079 Cl
HETATM   13  C14 UNL     1       4.811  30.973   4.524  1.00  0.00     0.102 A 
HETATM   14  C15 UNL     1       4.535  31.043   5.876  1.00  0.00     0.044 A 
ENDROOT
BRANCH   1  15
HETATM   15  C6  UNL     1       6.006  29.123   6.462  1.00  0.00     0.041 C 
BRANCH  15  16
HETATM   16  C5  UNL     1       7.452  29.521   6.702  1.00  0.00     0.005 C 
BRANCH  16  17
HETATM   17  C4  UNL     1       8.416  28.394   6.693  1.00  0.00     0.000 C 
BRANCH  17  18
HETATM   18  C3  UNL     1       8.294  27.391   7.785  1.00  0.00    -0.000 C 
BRANCH  18  19
HETATM   19  C2  UNL     1       8.911  28.021   9.040  1.00  0.00    -0.005 C 
HETATM   20  C1  UNL     1       8.932  26.993  10.127  1.00  0.00     0.005 C 
ENDBRANCH  18  19
ENDBRANCH  17  18
ENDBRANCH  16  17
ENDBRANCH  15  16
ENDBRANCH   1  15
BRANCH  13  21
HETATM   21  O4  UNL     1       5.667  30.016   4.037  1.00  0.00    -0.358 OA
ATOM     22  H4  UNL     1       5.471  29.097   4.173  1.00  0.00     0.217 HD
ENDBRANCH  13  21
BRANCH   8  23
HETATM   23  O3  UNL     1       2.203  33.896   5.871  1.00  0.00    -0.356 OA
ATOM     24  H3  UNL     1       2.508  34.694   6.286  1.00  0.00     0.218 HD
ENDBRANCH   8  23
TORSDOF 7
ENDMDL
MODEL 2
REMARK VINA RESULT: -7.987725385      0.861      1.020
REMARK  7 active torsions:
REMARK  status: ('A' for Active; 'I' for Inactive)
REMARK    1  A    between atoms: C2_2  and  C3_3 
REMARK    2  A    between atoms: C3_3  and  C4_4 
REMARK    3  A    between atoms: C4_4  and  C5_5 
REMARK    4  A    between atoms: C5_5  and  C6_6 
REMARK    5  A    between atoms: C6_6  and  C7_7 
REMARK    6  A    between atoms: C11_14  and  O3_15 
REMARK    7  A    between atoms: C14_21  and  O4_22 
ROOT
HETATM    1  C7  UNL     1       4.692  30.646   6.225  1.00  0.00    -0.014 A 
HETATM    2  C8  UNL     1       4.585  30.666   7.638  1.00  0.00     0.116 A 
HETATM    3 CL1  UNL     1       5.466  29.470   8.558  1.00  0.00    -0.077 Cl
HETATM    4  C9  UNL     1       3.788  31.635   8.172  1.00  0.00     0.310 A 
HETATM    5  O1  UNL     1       3.698  31.645   9.445  1.00  0.00    -0.258 OA
HETATM    6  O2  UNL     1       3.142  32.514   7.462  1.00  0.00    -0.270 OA
HETATM    7  C10 UNL     1       3.237  32.500   6.146  1.00  0.00     0.128 A 
HETATM    8  C11 UNL     1       2.538  33.441   5.421  1.00  0.00     0.124 A 
HETATM    9  C12 UNL     1       2.591  33.479   4.045  1.00  0.00     0.094 A 
HETATM   10 CL2  UNL     1       1.705  34.674   3.141  1.00  0.00    -0.079 Cl
HETATM   11  C13 UNL     1       3.361  32.552   3.378  1.00  0.00     0.092 A 
HETATM   12 CL3  UNL     1       3.491  32.515   1.639  1.00  0.00    -0.079 Cl
HETATM   13  C14 UNL     1       4.076  31.591   4.075  1.00  0.00     0.102 A 
HETATM   14  C15 UNL     1       4.022  31.559   5.455  1.00  0.00     0.044 A 
ENDROOT
BRANCH   1  15
HETATM   15  C6  UNL     1       5.549  29.605   5.653  1.00  0.00     0.041 C 
BRANCH  15  16
HETATM   16  C5  UNL     1       7.020  29.980   5.698  1.00  0.00     0.005 C 
BRANCH  16  17
HETATM   17  C4  UNL     1       7.942  28.848   5.954  1.00  0.00     0.000 C 
BRANCH  17  18
HETATM   18  C3  UNL     1       8.875  28.984   7.106  1.00  0.00    -0.000 C 
BRANCH  18  19
HETATM   19  C2  UNL     1       8.877  27.637   7.841  1.00  0.00    -0.005 C 
HETATM   20  C1  UNL     1       8.796  27.898   9.311  1.00  0.00     0.005 C 
ENDBRANCH  18  19
ENDBRANCH  17  18
ENDBRANCH  16  17
ENDBRANCH  15  16
ENDBRANCH   1  15
BRANCH  13  21
HETATM   21  O4  UNL     1       4.833  30.675   3.386  1.00  0.00    -0.358 OA
ATOM     22  H4  UNL     1       5.400  30.081   3.863  1.00  0.00     0.217 HD
ENDBRANCH  13  21
BRANCH   8  23
HETATM   23  O3  UNL     1       1.748  34.400   6.037  1.00  0.00    -0.356 OA
ATOM     24  H3  UNL     1       1.422  34.287   6.922  1.00  0.00     0.218 HD
ENDBRANCH   8  23
TORSDOF 7
ENDMDL
MODEL 3
REMARK VINA RESULT: -7.651752468      1.564      2.205
REMARK  7 active torsions:
REMARK  status: ('A' for Active; 'I' for Inactive)
REMARK    1  A    between atoms: C2_2  and  C3_3 
REMARK    2  A    between atoms: C3_3  and  C4_4 
REMARK    3  A    between atoms: C4_4  and  C5_5 
REMARK    4  A    between atoms: C5_5  and  C6_6 
REMARK    5  A    between atoms: C6_6  and  C7_7 
REMARK    6  A    between atoms: C11_14  and  O3_15 
REMARK    7  A    between atoms: C14_21  and  O4_22 
ROOT
HETATM    1  C7  UNL     1       5.754  29.395   7.639  1.00  0.00    -0.014 A 
HETATM    2  C8  UNL     1       4.984  29.962   8.685  1.00  0.00     0.116 A 
HETATM    3 CL1  UNL     1       5.200  29.350  10.308  1.00  0.00    -0.077 Cl
HETATM    4  C9  UNL     1       4.121  30.958   8.332  1.00  0.00     0.310 A 
HETATM    5  O1  UNL     1       3.433  31.462   9.281  1.00  0.00    -0.258 OA
HETATM    6  O2  UNL     1       3.979  31.394   7.114  1.00  0.00    -0.270 OA
HETATM    7  C10 UNL     1       4.692  30.870   6.137  1.00  0.00     0.128 A 
HETATM    8  C11 UNL     1       4.517  31.351   4.856  1.00  0.00     0.124 A 
HETATM    9  C12 UNL     1       5.228  30.844   3.791  1.00  0.00     0.094 A 
HETATM   10 CL2  UNL     1       4.998  31.461   2.179  1.00  0.00    -0.079 Cl
HETATM   11  C13 UNL     1       6.134  29.831   4.010  1.00  0.00     0.092 A 
HETATM   12 CL3  UNL     1       7.079  29.121   2.727  1.00  0.00    -0.079 Cl
HETATM   13  C14 UNL     1       6.335  29.323   5.283  1.00  0.00     0.102 A 
HETATM   14  C15 UNL     1       5.623  29.836   6.349  1.00  0.00     0.044 A 
ENDROOT
BRANCH   1  15
HETATM   15  C6  UNL     1       6.680  28.327   8.021  1.00  0.00     0.041 C 
BRANCH  15  16
HETATM   16  C5  UNL     1       8.009  28.867   8.519  1.00  0.00     0.005 C 
BRANCH  16  17
HETATM   17  C4  UNL     1       8.951  27.837   9.020  1.00  0.00     0.000 C 
BRANCH  17  18
HETATM   18  C3  UNL     1       8.474  26.970  10.131  1.00  0.00    -0.000 C 
BRANCH  18  19
HETATM   19  C2  UNL     1       9.720  26.371  10.797  1.00  0.00    -0.005 C 
HETATM   20  C1  UNL     1       9.308  25.163  11.576  1.00  0.00     0.005 C 
ENDBRANCH  18  19
ENDBRANCH  17  18
ENDBRANCH  16  17
ENDBRANCH  15  16
ENDBRANCH   1  15
BRANCH  13  21
HETATM   21  O4  UNL     1       7.242  28.309   5.475  1.00  0.00    -0.358 OA
ATOM     22  H4  UNL     1       8.162  28.516   5.584  1.00  0.00     0.217 HD
ENDBRANCH  13  21
BRANCH   8  23
HETATM   23  O3  UNL     1       3.620  32.370   4.575  1.00  0.00    -0.356 OA
ATOM     24  H3  UNL     1       3.066  32.350   3.803  1.00  0.00     0.218 HD
ENDBRANCH   8  23
TORSDOF 7
ENDMDL
MODEL 4
REMARK VINA RESULT: -7.602084522      0.790      1.315
REMARK  7 active torsions:
REMARK  status: ('A' for Active; 'I' for Inactive)
REMARK    1  A    between atoms: C2_2  and  C3_3 
REMARK    2  A    between atoms: C3_3  and  C4_4 
REMARK    3  A    between atoms: C4_4  and  C5_5 
REMARK    4  A    between atoms: C5_5  and  C6_6 
REMARK    5  A    between atoms: C6_6  and  C7_7 
REMARK    6  A    between atoms: C11_14  and  O3_15 
REMARK    7  A    between atoms: C14_21  and  O4_22 
ROOT
HETATM    1  C7  UNL     1       5.061  30.208   6.868  1.00  0.00    -0.014 A 
HETATM    2  C8  UNL     1       4.720  30.331   8.238  1.00  0.00     0.116 A 
HETATM    3 CL1  UNL     1       5.439  29.220   9.380  1.00  0.00    -0.077 Cl
HETATM    4  C9  UNL     1       3.843  31.325   8.558  1.00  0.00     0.310 A 
HETATM    5  O1  UNL     1       3.544  31.429   9.794  1.00  0.00    -0.258 OA
HETATM    6  O2  UNL     1       3.322  32.139   7.686  1.00  0.00    -0.270 OA
HETATM    7  C10 UNL     1       3.635  32.028   6.410  1.00  0.00     0.128 A 
HETATM    8  C11 UNL     1       3.064  32.902   5.509  1.00  0.00     0.124 A 
HETATM    9  C12 UNL     1       3.344  32.838   4.163  1.00  0.00     0.094 A 
HETATM   10 CL2  UNL     1       2.617  33.949   3.036  1.00  0.00    -0.079 Cl
HETATM   11  C13 UNL     1       4.216  31.876   3.704  1.00  0.00     0.092 A 
HETATM   12 CL3  UNL     1       4.633  31.711   2.018  1.00  0.00    -0.079 Cl
HETATM   13  C14 UNL     1       4.808  30.980   4.580  1.00  0.00     0.102 A 
HETATM   14  C15 UNL     1       4.525  31.051   5.931  1.00  0.00     0.044 A 
ENDROOT
BRANCH   1  15
HETATM   15  C6  UNL     1       6.003  29.139   6.526  1.00  0.00     0.041 C 
BRANCH  15  16
HETATM   16  C5  UNL     1       7.449  29.588   6.645  1.00  0.00     0.005 C 
BRANCH  16  17
HETATM   17  C4  UNL     1       8.307  28.707   7.473  1.00  0.00     0.000 C 
BRANCH  17  18
HETATM   18  C3  UNL     1       8.275  27.251   7.168  1.00  0.00    -0.000 C 
BRANCH  18  19
HETATM   19  C2  UNL     1       8.910  27.071   5.783  1.00  0.00    -0.005 C 
HETATM   20  C1  UNL     1       8.553  25.712   5.270  1.00  0.00     0.005 C 
ENDBRANCH  18  19
ENDBRANCH  17  18
ENDBRANCH  16  17
ENDBRANCH  15  16
ENDBRANCH   1  15
BRANCH  13  21
HETATM   21  O4  UNL     1       5.670  30.027   4.098  1.00  0.00    -0.358 OA
ATOM     22  H4  UNL     1       6.208  29.530   4.703  1.00  0.00     0.217 HD
ENDBRANCH  13  21
BRANCH   8  23
HETATM   23  O3  UNL     1       2.180  33.892   5.911  1.00  0.00    -0.356 OA
ATOM     24  H3  UNL     1       1.243  33.739   5.958  1.00  0.00     0.218 HD
ENDBRANCH   8  23
TORSDOF 7
ENDMDL
MODEL 5
REMARK VINA RESULT: -7.534647481      2.087      4.072
REMARK  7 active torsions:
REMARK  status: ('A' for Active; 'I' for Inactive)
REMARK    1  A    between atoms: C2_2  and  C3_3 
REMARK    2  A    between atoms: C3_3  and  C4_4 
REMARK    3  A    between atoms: C4_4  and  C5_5 
REMARK    4  A    between atoms: C5_5  and  C6_6 
REMARK    5  A    between atoms: C6_6  and  C7_7 
REMARK    6  A    between atoms: C11_14  and  O3_15 
REMARK    7  A    between atoms: C14_21  and  O4_22 
ROOT
HETATM    1  C7  UNL     1       6.756  28.681   6.582  1.00  0.00    -0.014 A 
HETATM    2  C8  UNL     1       7.467  28.237   5.440  1.00  0.00     0.116 A 
HETATM    3 CL1  UNL     1       8.646  26.962   5.633  1.00  0.00    -0.077 Cl
HETATM    4  C9  UNL     1       7.165  28.855   4.261  1.00  0.00     0.310 A 
HETATM    5  O1  UNL     1       7.810  28.448   3.237  1.00  0.00    -0.258 OA
HETATM    6  O2  UNL     1       6.282  29.803   4.145  1.00  0.00    -0.270 OA
HETATM    7  C10 UNL     1       5.619  30.220   5.206  1.00  0.00     0.128 A 
HETATM    8  C11 UNL     1       4.691  31.230   5.053  1.00  0.00     0.124 A 
HETATM    9  C12 UNL     1       3.968  31.714   6.120  1.00  0.00     0.094 A 
HETATM   10 CL2  UNL     1       2.800  32.988   5.913  1.00  0.00    -0.079 Cl
HETATM   11  C13 UNL     1       4.177  31.177   7.372  1.00  0.00     0.092 A 
HETATM   12 CL3  UNL     1       3.313  31.723   8.785  1.00  0.00    -0.079 Cl
HETATM   13  C14 UNL     1       5.101  30.162   7.562  1.00  0.00     0.102 A 
HETATM   14  C15 UNL     1       5.822  29.678   6.488  1.00  0.00     0.044 A 
ENDROOT
BRANCH   1  15
HETATM   15  C6  UNL     1       7.081  28.017   7.847  1.00  0.00     0.041 C 
BRANCH  15  16
HETATM   16  C5  UNL     1       8.359  28.553   8.467  1.00  0.00     0.005 C 
BRANCH  16  17
HETATM   17  C4  UNL     1       9.220  27.527   9.103  1.00  0.00     0.000 C 
BRANCH  17  18
HETATM   18  C3  UNL     1       8.832  27.070  10.465  1.00  0.00    -0.000 C 
BRANCH  18  19
HETATM   19  C2  UNL     1       9.905  26.073  10.923  1.00  0.00    -0.005 C 
HETATM   20  C1  UNL     1       9.243  25.002  11.730  1.00  0.00     0.005 C 
ENDBRANCH  18  19
ENDBRANCH  17  18
ENDBRANCH  16  17
ENDBRANCH  15  16
ENDBRANCH   1  15
BRANCH  13  21
HETATM   21  O4  UNL     1       5.295  29.647   8.820  1.00  0.00    -0.358 OA
ATOM     22  H4  UNL     1       6.101  29.187   9.020  1.00  0.00     0.217 HD
ENDBRANCH  13  21
BRANCH   8  23
HETATM   23  O3  UNL     1       4.437  31.808   3.819  1.00  0.00    -0.356 OA
ATOM     24  H3  UNL     1       3.592  32.188   3.608  1.00  0.00     0.218 HD
ENDBRANCH   8  23
TORSDOF 7
ENDMDL
