MODEL 1
REMARK VINA RESULT: -6.402417864      0.000      0.000
REMARK  8 active torsions:
REMARK  status: ('A' for Active; 'I' for Inactive)
REMARK    1  A    between atoms: C2_2  and  C4_4 
REMARK    2  A    between atoms: C4_4  and  N1_5 
REMARK    3  A    between atoms: N1_5  and  C5_7 
REMARK    4  A    between atoms: C5_7  and  C6_8 
REMARK    5  A    between atoms: C6_8  and  N2_9 
REMARK    6  A    between atoms: N2_9  and  C7_11 
REMARK    7  A    between atoms: C8_12  and  O1_13 
REMARK    8  A    between atoms: C10_19  and  C11_20 
ROOT
HETATM    1  C7  UNL     1       5.516  30.305   2.510  1.00  0.00     0.089 A 
HETATM    2  C8  UNL     1       5.483  30.261   1.137  1.00  0.00     0.137 A 
HETATM    3  S1  UNL     1       6.932  29.400   0.759  1.00  0.00    -0.044 SA
HETATM    4  C9  UNL     1       7.512  29.135   2.345  1.00  0.00     0.097 A 
HETATM    5  N3  UNL     1       8.543  28.543   2.913  1.00  0.00    -0.343 N 
ATOM      6  H3  UNL     1       9.256  28.100   2.335  1.00  0.00     0.167 HD
HETATM    7  C10 UNL     1       8.653  28.522   4.206  1.00  0.00     0.107 A 
HETATM    8  S2  UNL     1       7.228  29.383   4.671  1.00  0.00    -0.067 SA
HETATM    9  C12 UNL     1       6.580  29.713   3.100  1.00  0.00     0.070 A 
ENDROOT
BRANCH   1  10
HETATM   10  N2  UNL     1       4.435  30.910   3.215  1.00  0.00    -0.385 N 
ATOM     11  H2  UNL     1       3.517  30.472   3.129  1.00  0.00     0.159 HD
BRANCH  10  12
HETATM   12  C6  UNL     1       4.528  32.094   4.042  1.00  0.00     0.139 C 
BRANCH  12  13
HETATM   13  C5  UNL     1       3.416  32.046   5.096  1.00  0.00     0.138 C 
BRANCH  13  14
HETATM   14  N1  UNL     1       3.888  31.744   6.369  1.00  0.00    -0.400 N 
ATOM     15  H1  UNL     1       3.945  32.492   7.061  1.00  0.00     0.158 HD
BRANCH  14  16
HETATM   16  C4  UNL     1       4.287  30.457   6.736  1.00  0.00     0.059 C 
BRANCH  16  17
HETATM   17  C2  UNL     1       4.172  30.115   8.211  1.00  0.00     0.015 C 
HETATM   18  C1  UNL     1       3.834  31.341   9.037  1.00  0.00     0.015 C 
HETATM   19  C3  UNL     1       5.347  29.352   8.694  1.00  0.00     0.015 C 
ENDBRANCH  16  17
ENDBRANCH  14  16
ENDBRANCH  13  14
ENDBRANCH  12  13
ENDBRANCH  10  12
ENDBRANCH   1  10
BRANCH   2  20
HETATM   20  O1  UNL     1       4.564  30.756   0.218  1.00  0.00    -0.352 OA
ATOM     21  H1  UNL     1       3.939  30.318  -0.347  1.00  0.00     0.218 HD
ENDBRANCH   2  20
BRANCH   7  22
HETATM   22  C11 UNL     1       9.712  27.922   5.101  1.00  0.00     0.237 C 
HETATM   23 CL1  UNL     1       8.891  26.769   6.186  1.00  0.00    -0.076 Cl
HETATM   24 CL2  UNL     1      10.415  29.276   6.015  1.00  0.00    -0.076 Cl
HETATM   25 CL3  UNL     1      10.898  27.145   4.058  1.00  0.00    -0.076 Cl
ENDBRANCH   7  22
TORSDOF 8
ENDMDL
MODEL 2
REMARK VINA RESULT: -6.393623150      0.068      1.119
REMARK  8 active torsions:
REMARK  status: ('A' for Active; 'I' for Inactive)
REMARK    1  A    between atoms: C2_2  and  C4_4 
REMARK    2  A    between atoms: C4_4  and  N1_5 
REMARK    3  A    between atoms: N1_5  and  C5_7 
REMARK    4  A    between atoms: C5_7  and  C6_8 
REMARK    5  A    between atoms: C6_8  and  N2_9 
REMARK    6  A    between atoms: N2_9  and  C7_11 
REMARK    7  A    between atoms: C8_12  and  O1_13 
REMARK    8  A    between atoms: C10_19  and  C11_20 
ROOT
HETATM    1  C7  UNL     1       5.470  30.327   2.500  1.00  0.00     0.089 A 
HETATM    2  C8  UNL     1       5.444  30.263   1.127  1.00  0.00     0.137 A 
HETATM    3  S1  UNL     1       6.889  29.385   0.772  1.00  0.00    -0.044 SA
HETATM    4  C9  UNL     1       7.457  29.139   2.365  1.00  0.00     0.097 A 
HETATM    5  N3  UNL     1       8.480  28.547   2.948  1.00  0.00    -0.343 N 
ATOM      6  H3  UNL     1       9.193  28.090   2.381  1.00  0.00     0.167 HD
HETATM    7  C10 UNL     1       8.581  28.544   4.242  1.00  0.00     0.107 A 
HETATM    8  S2  UNL     1       7.160  29.424   4.685  1.00  0.00    -0.067 SA
HETATM    9  C12 UNL     1       6.525  29.735   3.106  1.00  0.00     0.070 A 
ENDROOT
BRANCH   1  10
HETATM   10  N2  UNL     1       4.388  30.951   3.189  1.00  0.00    -0.385 N 
ATOM     11  H2  UNL     1       3.466  30.525   3.096  1.00  0.00     0.159 HD
BRANCH  10  12
HETATM   12  C6  UNL     1       4.489  32.139   4.010  1.00  0.00     0.139 C 
BRANCH  12  13
HETATM   13  C5  UNL     1       3.392  32.091   5.080  1.00  0.00     0.138 C 
BRANCH  13  14
HETATM   14  N1  UNL     1       3.878  31.761   6.340  1.00  0.00    -0.400 N 
ATOM     15  H1  UNL     1       3.955  32.495   7.044  1.00  0.00     0.158 HD
BRANCH  14  16
HETATM   16  C4  UNL     1       4.265  30.462   6.679  1.00  0.00     0.059 C 
BRANCH  16  17
HETATM   17  C2  UNL     1       4.186  30.103   8.153  1.00  0.00     0.015 C 
HETATM   18  C1  UNL     1       3.851  31.316   9.000  1.00  0.00     0.015 C 
HETATM   19  C3  UNL     1       5.381  29.349   8.602  1.00  0.00     0.015 C 
ENDBRANCH  16  17
ENDBRANCH  14  16
ENDBRANCH  13  14
ENDBRANCH  12  13
ENDBRANCH  10  12
ENDBRANCH   1  10
BRANCH   2  20
HETATM   20  O1  UNL     1       4.535  30.751   0.196  1.00  0.00    -0.352 OA
ATOM     21  H1  UNL     1       3.981  30.309  -0.436  1.00  0.00     0.218 HD
ENDBRANCH   2  20
BRANCH   7  22
HETATM   22  C11 UNL     1       9.630  27.949   5.152  1.00  0.00     0.237 C 
HETATM   23 CL1  UNL     1      10.386  29.301   6.038  1.00  0.00    -0.076 Cl
HETATM   24 CL2  UNL     1      10.805  27.138   4.093  1.00  0.00    -0.076 Cl
HETATM   25 CL3  UNL     1       8.811  26.813   6.219  1.00  0.00    -0.076 Cl
ENDBRANCH   7  22
TORSDOF 8
ENDMDL
MODEL 3
REMARK VINA RESULT: -6.292288069      3.161      4.738
REMARK  8 active torsions:
REMARK  status: ('A' for Active; 'I' for Inactive)
REMARK    1  A    between atoms: C2_2  and  C4_4 
REMARK    2  A    between atoms: C4_4  and  N1_5 
REMARK    3  A    between atoms: N1_5  and  C5_7 
REMARK    4  A    between atoms: C5_7  and  C6_8 
REMARK    5  A    between atoms: C6_8  and  N2_9 
REMARK    6  A    between atoms: N2_9  and  C7_11 
REMARK    7  A    between atoms: C8_12  and  O1_13 
REMARK    8  A    between atoms: C10_19  and  C11_20 
ROOT
HETATM    1  C7  UNL     1       2.928  32.747   5.862  1.00  0.00     0.089 A 
HETATM    2  C8  UNL     1       2.068  33.593   5.204  1.00  0.00     0.137 A 
HETATM    3  S1  UNL     1       2.398  33.238   3.546  1.00  0.00    -0.044 SA
HETATM    4  C9  UNL     1       3.601  32.042   3.758  1.00  0.00     0.097 A 
HETATM    5  N3  UNL     1       4.343  31.269   2.992  1.00  0.00    -0.343 N 
ATOM      6  H3  UNL     1       4.263  31.331   1.977  1.00  0.00     0.167 HD
HETATM    7  C10 UNL     1       5.176  30.428   3.525  1.00  0.00     0.107 A 
HETATM    8  S2  UNL     1       4.914  30.728   5.208  1.00  0.00    -0.067 SA
HETATM    9  C12 UNL     1       3.705  31.960   5.083  1.00  0.00     0.070 A 
ENDROOT
BRANCH   1  10
HETATM   10  N2  UNL     1       2.917  32.712   7.288  1.00  0.00    -0.385 N 
ATOM     11  H2  UNL     1       2.053  32.987   7.755  1.00  0.00     0.159 HD
BRANCH  10  12
HETATM   12  C6  UNL     1       4.028  32.318   8.128  1.00  0.00     0.139 C 
BRANCH  12  13
HETATM   13  C5  UNL     1       3.628  31.066   8.917  1.00  0.00     0.138 C 
BRANCH  13  14
HETATM   14  N1  UNL     1       4.349  29.938   8.544  1.00  0.00    -0.400 N 
ATOM     15  H1  UNL     1       4.178  29.527   7.626  1.00  0.00     0.158 HD
BRANCH  14  16
HETATM   16  C4  UNL     1       5.299  29.344   9.379  1.00  0.00     0.059 C 
BRANCH  16  17
HETATM   17  C2  UNL     1       6.244  28.354   8.720  1.00  0.00     0.015 C 
HETATM   18  C1  UNL     1       7.596  28.340   9.406  1.00  0.00     0.015 C 
HETATM   19  C3  UNL     1       6.299  28.539   7.250  1.00  0.00     0.015 C 
ENDBRANCH  16  17
ENDBRANCH  14  16
ENDBRANCH  13  14
ENDBRANCH  12  13
ENDBRANCH  10  12
ENDBRANCH   1  10
BRANCH   2  20
HETATM   20  O1  UNL     1       1.146  34.522   5.672  1.00  0.00    -0.352 OA
ATOM     21  H1  UNL     1       0.564  35.118   5.216  1.00  0.00     0.218 HD
ENDBRANCH   2  20
BRANCH   7  22
HETATM   22  C11 UNL     1       6.127  29.439   2.893  1.00  0.00     0.237 C 
HETATM   23 CL1  UNL     1       5.890  29.536   1.127  1.00  0.00    -0.076 Cl
HETATM   24 CL2  UNL     1       5.667  27.838   3.516  1.00  0.00    -0.076 Cl
HETATM   25 CL3  UNL     1       7.755  29.894   3.384  1.00  0.00    -0.076 Cl
ENDBRANCH   7  22
TORSDOF 8
ENDMDL
MODEL 4
REMARK VINA RESULT: -6.208590161      3.999      4.879
REMARK  8 active torsions:
REMARK  status: ('A' for Active; 'I' for Inactive)
REMARK    1  A    between atoms: C2_2  and  C4_4 
REMARK    2  A    between atoms: C4_4  and  N1_5 
REMARK    3  A    between atoms: N1_5  and  C5_7 
REMARK    4  A    between atoms: C5_7  and  C6_8 
REMARK    5  A    between atoms: C6_8  and  N2_9 
REMARK    6  A    between atoms: N2_9  and  C7_11 
REMARK    7  A    between atoms: C8_12  and  O1_13 
REMARK    8  A    between atoms: C10_19  and  C11_20 
ROOT
HETATM    1  C7  UNL     1       8.532  28.023   4.671  1.00  0.00     0.089 A 
HETATM    2  C8  UNL     1       9.601  27.300   5.143  1.00  0.00     0.137 A 
HETATM    3  S1  UNL     1      10.672  27.298   3.788  1.00  0.00    -0.044 SA
HETATM    4  C9  UNL     1       9.726  28.207   2.692  1.00  0.00     0.097 A 
HETATM    5  N3  UNL     1       9.838  28.657   1.459  1.00  0.00    -0.343 N 
ATOM      6  H3  UNL     1      10.676  28.451   0.916  1.00  0.00     0.167 HD
HETATM    7  C10 UNL     1       8.883  29.361   0.932  1.00  0.00     0.107 A 
HETATM    8  S2  UNL     1       7.748  29.403   2.236  1.00  0.00    -0.067 SA
HETATM    9  C12 UNL     1       8.631  28.475   3.400  1.00  0.00     0.070 A 
ENDROOT
BRANCH   1  10
HETATM   10  N2  UNL     1       7.433  28.289   5.540  1.00  0.00    -0.385 N 
ATOM     11  H2  UNL     1       6.603  27.704   5.436  1.00  0.00     0.159 HD
BRANCH  10  12
HETATM   12  C6  UNL     1       7.395  29.319   6.556  1.00  0.00     0.139 C 
BRANCH  12  13
HETATM   13  C5  UNL     1       6.927  28.691   7.874  1.00  0.00     0.138 C 
BRANCH  13  14
HETATM   14  N1  UNL     1       5.645  29.086   8.237  1.00  0.00    -0.400 N 
ATOM     15  H1  UNL     1       5.234  28.699   9.088  1.00  0.00     0.158 HD
BRANCH  14  16
HETATM   16  C4  UNL     1       4.896  29.992   7.482  1.00  0.00     0.059 C 
BRANCH  16  17
HETATM   17  C2  UNL     1       3.915  30.857   8.254  1.00  0.00     0.015 C 
HETATM   18  C1  UNL     1       3.693  32.191   7.567  1.00  0.00     0.015 C 
HETATM   19  C3  UNL     1       4.277  30.956   9.689  1.00  0.00     0.015 C 
ENDBRANCH  16  17
ENDBRANCH  14  16
ENDBRANCH  13  14
ENDBRANCH  12  13
ENDBRANCH  10  12
ENDBRANCH   1  10
BRANCH   2  20
HETATM   20  O1  UNL     1       9.838  26.693   6.371  1.00  0.00    -0.352 OA
ATOM     21  H1  UNL     1      10.083  25.805   6.600  1.00  0.00     0.218 HD
ENDBRANCH   2  20
BRANCH   7  22
HETATM   22  C11 UNL     1       8.754  29.991  -0.435  1.00  0.00     0.237 C 
HETATM   23 CL1  UNL     1       7.036  29.887  -0.902  1.00  0.00    -0.076 Cl
HETATM   24 CL2  UNL     1       9.777  29.028  -1.525  1.00  0.00    -0.076 Cl
HETATM   25 CL3  UNL     1       9.320  31.653  -0.299  1.00  0.00    -0.076 Cl
ENDBRANCH   7  22
TORSDOF 8
ENDMDL
MODEL 5
REMARK VINA RESULT: -6.203350075      3.996      4.872
REMARK  8 active torsions:
REMARK  status: ('A' for Active; 'I' for Inactive)
REMARK    1  A    between atoms: C2_2  and  C4_4 
REMARK    2  A    between atoms: C4_4  and  N1_5 
REMARK    3  A    between atoms: N1_5  and  C5_7 
REMARK    4  A    between atoms: C5_7  and  C6_8 
REMARK    5  A    between atoms: C6_8  and  N2_9 
REMARK    6  A    between atoms: N2_9  and  C7_11 
REMARK    7  A    between atoms: C8_12  and  O1_13 
REMARK    8  A    between atoms: C10_19  and  C11_20 
ROOT
HETATM    1  C7  UNL     1       8.539  28.026   4.665  1.00  0.00     0.089 A 
HETATM    2  C8  UNL     1       9.606  27.315   5.158  1.00  0.00     0.137 A 
HETATM    3  S1  UNL     1      10.693  27.302   3.816  1.00  0.00    -0.044 SA
HETATM    4  C9  UNL     1       9.755  28.192   2.698  1.00  0.00     0.097 A 
HETATM    5  N3  UNL     1       9.878  28.628   1.460  1.00  0.00    -0.343 N 
ATOM      6  H3  UNL     1      10.724  28.420   0.930  1.00  0.00     0.167 HD
HETATM    7  C10 UNL     1       8.925  29.320   0.914  1.00  0.00     0.107 A 
HETATM    8  S2  UNL     1       7.776  29.372   2.205  1.00  0.00    -0.067 SA
HETATM    9  C12 UNL     1       8.650  28.463   3.390  1.00  0.00     0.070 A 
ENDROOT
BRANCH   1  10
HETATM   10  N2  UNL     1       7.428  28.296   5.518  1.00  0.00    -0.385 N 
ATOM     11  H2  UNL     1       6.605  27.703   5.415  1.00  0.00     0.159 HD
BRANCH  10  12
HETATM   12  C6  UNL     1       7.370  29.343   6.516  1.00  0.00     0.139 C 
BRANCH  12  13
HETATM   13  C5  UNL     1       6.914  28.729   7.845  1.00  0.00     0.138 C 
BRANCH  13  14
HETATM   14  N1  UNL     1       5.636  29.131   8.217  1.00  0.00    -0.400 N 
ATOM     15  H1  UNL     1       5.240  28.765   9.083  1.00  0.00     0.158 HD
BRANCH  14  16
HETATM   16  C4  UNL     1       4.874  30.015   7.451  1.00  0.00     0.059 C 
BRANCH  16  17
HETATM   17  C2  UNL     1       3.886  30.881   8.213  1.00  0.00     0.015 C 
HETATM   18  C1  UNL     1       3.682  32.220   7.529  1.00  0.00     0.015 C 
HETATM   19  C3  UNL     1       4.227  30.970   9.653  1.00  0.00     0.015 C 
ENDBRANCH  16  17
ENDBRANCH  14  16
ENDBRANCH  13  14
ENDBRANCH  12  13
ENDBRANCH  10  12
ENDBRANCH   1  10
BRANCH   2  20
HETATM   20  O1  UNL     1       9.832  26.725   6.397  1.00  0.00    -0.352 OA
ATOM     21  H1  UNL     1      10.598  26.300   6.763  1.00  0.00     0.218 HD
ENDBRANCH   2  20
BRANCH   7  22
HETATM   22  C11 UNL     1       8.809  29.933  -0.462  1.00  0.00     0.237 C 
HETATM   23 CL1  UNL     1       9.354  31.626  -0.331  1.00  0.00    -0.076 Cl
HETATM   24 CL2  UNL     1       7.088  29.844  -0.901  1.00  0.00    -0.076 Cl
HETATM   25 CL3  UNL     1       9.815  28.978  -1.545  1.00  0.00    -0.076 Cl
ENDBRANCH   7  22
TORSDOF 8
ENDMDL
