MODEL 1
REMARK VINA RESULT: -7.833219374      0.000      0.000
REMARK  9 active torsions:
REMARK  status: ('A' for Active; 'I' for Inactive)
REMARK    1  A    between atoms: C3_4  and  N2_5 
REMARK    2  A    between atoms: N2_5  and  C4_7 
REMARK    3  A    between atoms: C4_7  and  C5_8 
REMARK    4  A    between atoms: C4_7  and  C17_22 
REMARK    5  A    between atoms: C5_8  and  C6_9 
REMARK    6  A    between atoms: C6_9  and  C7_10 
REMARK    7  A    between atoms: C17_22  and  O1_23 
REMARK    8  A    between atoms: C17_22  and  N3_25 
REMARK    9  A    between atoms: N3_25  and  O2_27 
ROOT
HETATM    1  C4  UNL     1       3.685  32.975   2.817  1.00  0.00     0.158 C 
ENDROOT
BRANCH   1   2
HETATM    2  N2  UNL     1       3.849  32.066   1.716  1.00  0.00    -0.376 N 
ATOM      3  H2  UNL     1       3.217  31.268   1.646  1.00  0.00     0.160 HD
BRANCH   2   4
HETATM    4  C3  UNL     1       4.845  32.225   0.726  1.00  0.00     0.063 A 
HETATM    5  C2  UNL     1       5.687  31.327   0.126  1.00  0.00     0.140 A 
HETATM    6  N1  UNL     1       6.480  31.962  -0.768  1.00  0.00    -0.306 N 
HETATM    7  C1  UNL     1       7.497  31.336  -1.594  1.00  0.00     0.177 C 
HETATM    8  N4  UNL     1       6.162  33.239  -0.751  1.00  0.00    -0.308 N 
HETATM    9  C18 UNL     1       5.181  33.446   0.135  1.00  0.00     0.138 A 
ATOM     10  H4  UNL     1       6.598  33.961  -1.326  1.00  0.00     0.186 HD
ENDBRANCH   2   4
ENDBRANCH   1   2
BRANCH   1  11
HETATM   11  C5  UNL     1       4.546  32.515   4.012  1.00  0.00     0.034 C 
BRANCH  11  12
HETATM   12  C6  UNL     1       4.167  31.123   4.322  1.00  0.00     0.013 C 
BRANCH  12  13
HETATM   13  C7  UNL     1       5.284  30.232   4.837  1.00  0.00     0.058 C 
HETATM   14  C8  UNL     1       4.702  29.462   6.002  1.00  0.00     0.010 C 
HETATM   15  C9  UNL     1       5.266  29.949   7.340  1.00  0.00     0.001 C 
HETATM   16  C10 UNL     1       5.898  28.791   8.020  1.00  0.00     0.000 C 
HETATM   17  C11 UNL     1       7.358  28.663   8.002  1.00  0.00     0.000 C 
HETATM   18  C12 UNL     1       8.188  29.436   7.072  1.00  0.00     0.000 C 
HETATM   19  C13 UNL     1       8.278  29.068   5.641  1.00  0.00     0.000 C 
HETATM   20  C14 UNL     1       7.497  27.932   5.138  1.00  0.00     0.006 C 
HETATM   21  C15 UNL     1       6.488  28.106   4.113  1.00  0.00     0.079 C 
HETATM   22  C16 UNL     1       5.882  29.413   3.774  1.00  0.00     0.247 C 
HETATM   23  F1  UNL     1       6.717  30.165   2.969  1.00  0.00    -0.206 F 
HETATM   24  F2  UNL     1       4.820  29.081   2.900  1.00  0.00    -0.206 F 
ENDBRANCH  12  13
ENDBRANCH  11  12
ENDBRANCH   1  11
BRANCH   1  25
HETATM   25  C17 UNL     1       2.283  33.121   3.276  1.00  0.00     0.158 C 
BRANCH  25  26
HETATM   26  O1  UNL     1       1.960  33.837   4.412  1.00  0.00    -0.347 OA
ATOM     27  H1  UNL     1       1.292  34.512   4.405  1.00  0.00     0.219 HD
ENDBRANCH  25  26
BRANCH  25  28
HETATM   28  N3  UNL     1       1.343  32.571   2.603  1.00  0.00    -0.249 N 
ATOM     29  H3  UNL     1       0.763  31.865   3.057  1.00  0.00     0.196 HD
BRANCH  28  30
HETATM   30  O2  UNL     1       1.090  32.889   1.311  1.00  0.00    -0.288 OA
ATOM     31  H2  UNL     1       0.840  32.240   0.664  1.00  0.00     0.244 HD
ENDBRANCH  28  30
ENDBRANCH  25  28
ENDBRANCH   1  25
TORSDOF 9
ENDMDL
MODEL 2
REMARK VINA RESULT: -7.784891065      1.721      2.317
REMARK  9 active torsions:
REMARK  status: ('A' for Active; 'I' for Inactive)
REMARK    1  A    between atoms: C3_4  and  N2_5 
REMARK    2  A    between atoms: N2_5  and  C4_7 
REMARK    3  A    between atoms: C4_7  and  C5_8 
REMARK    4  A    between atoms: C4_7  and  C17_22 
REMARK    5  A    between atoms: C5_8  and  C6_9 
REMARK    6  A    between atoms: C6_9  and  C7_10 
REMARK    7  A    between atoms: C17_22  and  O1_23 
REMARK    8  A    between atoms: C17_22  and  N3_25 
REMARK    9  A    between atoms: N3_25  and  O2_27 
ROOT
HETATM    1  C4  UNL     1       3.714  32.319   4.829  1.00  0.00     0.158 C 
ENDROOT
BRANCH   1   2
HETATM    2  N2  UNL     1       2.894  32.376   3.650  1.00  0.00    -0.376 N 
ATOM      3  H2  UNL     1       1.919  32.087   3.722  1.00  0.00     0.160 HD
BRANCH   2   4
HETATM    4  C3  UNL     1       3.377  32.812   2.394  1.00  0.00     0.063 A 
HETATM    5  C2  UNL     1       4.505  32.490   1.689  1.00  0.00     0.140 A 
HETATM    6  N1  UNL     1       4.535  33.179   0.524  1.00  0.00    -0.306 N 
HETATM    7  C1  UNL     1       5.579  33.097  -0.482  1.00  0.00     0.177 C 
HETATM    8  N4  UNL     1       3.457  33.930   0.475  1.00  0.00    -0.308 N 
HETATM    9  C18 UNL     1       2.727  33.743   1.580  1.00  0.00     0.138 A 
ATOM     10  H4  UNL     1       3.214  34.560  -0.291  1.00  0.00     0.186 HD
ENDBRANCH   2   4
ENDBRANCH   1   2
BRANCH   1  11
HETATM   11  C5  UNL     1       4.169  30.866   5.084  1.00  0.00     0.034 C 
BRANCH  11  12
HETATM   12  C6  UNL     1       5.587  30.769   4.685  1.00  0.00     0.013 C 
BRANCH  12  13
HETATM   13  C7  UNL     1       6.435  29.800   5.490  1.00  0.00     0.058 C 
HETATM   14  C8  UNL     1       5.483  29.086   6.424  1.00  0.00     0.010 C 
HETATM   15  C9  UNL     1       5.665  29.541   7.875  1.00  0.00     0.001 C 
HETATM   16  C10 UNL     1       5.983  28.344   8.694  1.00  0.00     0.000 C 
HETATM   17  C11 UNL     1       7.370  28.106   9.101  1.00  0.00     0.000 C 
HETATM   18  C12 UNL     1       8.491  28.807   8.464  1.00  0.00     0.000 C 
HETATM   19  C13 UNL     1       8.968  28.421   7.118  1.00  0.00     0.000 C 
HETATM   20  C14 UNL     1       8.286  27.343   6.393  1.00  0.00     0.006 C 
HETATM   21  C15 UNL     1       7.636  27.584   5.120  1.00  0.00     0.079 C 
HETATM   22  C16 UNL     1       7.255  28.929   4.637  1.00  0.00     0.247 C 
HETATM   23  F1  UNL     1       8.342  29.610   4.121  1.00  0.00    -0.206 F 
HETATM   24  F2  UNL     1       6.473  28.672   3.486  1.00  0.00    -0.206 F 
ENDBRANCH  12  13
ENDBRANCH  11  12
ENDBRANCH   1  11
BRANCH   1  25
HETATM   25  C17 UNL     1       3.049  32.826   6.052  1.00  0.00     0.158 C 
BRANCH  25  26
HETATM   26  O1  UNL     1       3.610  32.669   7.304  1.00  0.00    -0.347 OA
ATOM     27  H1  UNL     1       3.182  32.991   8.088  1.00  0.00     0.219 HD
ENDBRANCH  25  26
BRANCH  25  28
HETATM   28  N3  UNL     1       1.923  33.427   5.949  1.00  0.00    -0.249 N 
ATOM     29  H3  UNL     1       1.074  32.927   6.214  1.00  0.00     0.196 HD
BRANCH  28  30
HETATM   30  O2  UNL     1       1.816  34.701   5.502  1.00  0.00    -0.288 OA
ATOM     31  H2  UNL     1       1.900  34.928   4.583  1.00  0.00     0.244 HD
ENDBRANCH  28  30
ENDBRANCH  25  28
ENDBRANCH   1  25
TORSDOF 9
ENDMDL
MODEL 3
REMARK VINA RESULT: -7.736979910      1.105      1.434
REMARK  9 active torsions:
REMARK  status: ('A' for Active; 'I' for Inactive)
REMARK    1  A    between atoms: C3_4  and  N2_5 
REMARK    2  A    between atoms: N2_5  and  C4_7 
REMARK    3  A    between atoms: C4_7  and  C5_8 
REMARK    4  A    between atoms: C4_7  and  C17_22 
REMARK    5  A    between atoms: C5_8  and  C6_9 
REMARK    6  A    between atoms: C6_9  and  C7_10 
REMARK    7  A    between atoms: C17_22  and  O1_23 
REMARK    8  A    between atoms: C17_22  and  N3_25 
REMARK    9  A    between atoms: N3_25  and  O2_27 
ROOT
HETATM    1  C4  UNL     1       3.468  32.965   3.946  1.00  0.00     0.158 C 
ENDROOT
BRANCH   1   2
HETATM    2  N2  UNL     1       3.565  32.152   2.765  1.00  0.00    -0.376 N 
ATOM      3  H2  UNL     1       3.064  31.264   2.744  1.00  0.00     0.160 HD
BRANCH   2   4
HETATM    4  C3  UNL     1       4.323  32.526   1.632  1.00  0.00     0.063 A 
HETATM    5  C2  UNL     1       5.003  31.784   0.704  1.00  0.00     0.140 A 
HETATM    6  N1  UNL     1       5.588  32.601  -0.203  1.00  0.00    -0.306 N 
HETATM    7  C1  UNL     1       6.393  32.173  -1.334  1.00  0.00     0.177 C 
HETATM    8  N4  UNL     1       5.299  33.840   0.127  1.00  0.00    -0.308 N 
HETATM    9  C18 UNL     1       4.537  33.847   1.228  1.00  0.00     0.138 A 
ATOM     10  H4  UNL     1       5.607  34.671  -0.379  1.00  0.00     0.186 HD
ENDBRANCH   2   4
ENDBRANCH   1   2
BRANCH   1  11
HETATM   11  C5  UNL     1       4.059  32.209   5.156  1.00  0.00     0.034 C 
BRANCH  11  12
HETATM   12  C6  UNL     1       4.059  30.771   4.823  1.00  0.00     0.013 C 
BRANCH  12  13
HETATM   13  C7  UNL     1       5.333  30.015   5.156  1.00  0.00     0.058 C 
HETATM   14  C8  UNL     1       5.005  29.150   6.353  1.00  0.00     0.010 C 
HETATM   15  C9  UNL     1       5.675  29.671   7.628  1.00  0.00     0.001 C 
HETATM   16  C10 UNL     1       6.526  28.585   8.176  1.00  0.00     0.000 C 
HETATM   17  C11 UNL     1       7.975  28.641   7.969  1.00  0.00     0.000 C 
HETATM   18  C12 UNL     1       8.577  29.534   6.973  1.00  0.00     0.000 C 
HETATM   19  C13 UNL     1       8.525  29.215   5.529  1.00  0.00     0.000 C 
HETATM   20  C14 UNL     1       7.828  28.003   5.084  1.00  0.00     0.006 C 
HETATM   21  C15 UNL     1       6.681  28.075   4.202  1.00  0.00     0.079 C 
HETATM   22  C16 UNL     1       5.882  29.302   3.994  1.00  0.00     0.247 C 
HETATM   23  F1  UNL     1       6.508  30.172   3.121  1.00  0.00    -0.206 F 
HETATM   24  F2  UNL     1       4.763  28.862   3.248  1.00  0.00    -0.206 F 
ENDBRANCH  12  13
ENDBRANCH  11  12
ENDBRANCH   1  11
BRANCH   1  25
HETATM   25  C17 UNL     1       2.085  33.380   4.282  1.00  0.00     0.158 C 
BRANCH  25  26
HETATM   26  O1  UNL     1       1.051  33.267   3.375  1.00  0.00    -0.347 OA
ATOM     27  H1  UNL     1       0.475  32.512   3.364  1.00  0.00     0.219 HD
ENDBRANCH  25  26
BRANCH  25  28
HETATM   28  N3  UNL     1       1.840  33.857   5.444  1.00  0.00    -0.249 N 
ATOM     29  H3  UNL     1       1.946  33.249   6.257  1.00  0.00     0.196 HD
BRANCH  28  30
HETATM   30  O2  UNL     1       1.444  35.139   5.637  1.00  0.00    -0.288 OA
ATOM     31  H2  UNL     1       0.599  35.361   6.012  1.00  0.00     0.244 HD
ENDBRANCH  28  30
ENDBRANCH  25  28
ENDBRANCH   1  25
TORSDOF 9
ENDMDL
MODEL 4
REMARK VINA RESULT: -7.638074914      5.456      8.275
REMARK  9 active torsions:
REMARK  status: ('A' for Active; 'I' for Inactive)
REMARK    1  A    between atoms: C3_4  and  N2_5 
REMARK    2  A    between atoms: N2_5  and  C4_7 
REMARK    3  A    between atoms: C4_7  and  C5_8 
REMARK    4  A    between atoms: C4_7  and  C17_22 
REMARK    5  A    between atoms: C5_8  and  C6_9 
REMARK    6  A    between atoms: C6_9  and  C7_10 
REMARK    7  A    between atoms: C17_22  and  O1_23 
REMARK    8  A    between atoms: C17_22  and  N3_25 
REMARK    9  A    between atoms: N3_25  and  O2_27 
ROOT
HETATM    1  C4  UNL     1       9.520  28.694   6.228  1.00  0.00     0.158 C 
ENDROOT
BRANCH   1   2
HETATM    2  N2  UNL     1       8.955  27.509   6.812  1.00  0.00    -0.376 N 
ATOM      3  H2  UNL     1       8.489  26.840   6.199  1.00  0.00     0.160 HD
BRANCH   2   4
HETATM    4  C3  UNL     1       9.014  27.228   8.197  1.00  0.00     0.063 A 
HETATM    5  C2  UNL     1       9.256  26.069   8.883  1.00  0.00     0.140 A 
HETATM    6  N1  UNL     1       9.201  26.299  10.215  1.00  0.00    -0.306 N 
HETATM    7  C1  UNL     1       9.406  25.308  11.256  1.00  0.00     0.177 C 
HETATM    8  N4  UNL     1       8.930  27.574  10.391  1.00  0.00    -0.308 N 
HETATM    9  C18 UNL     1       8.808  28.176   9.202  1.00  0.00     0.138 A 
ATOM     10  H4  UNL     1       8.828  28.034  11.297  1.00  0.00     0.186 HD
ENDBRANCH   2   4
ENDBRANCH   1   2
BRANCH   1  11
HETATM   11  C5  UNL     1       8.423  29.766   6.048  1.00  0.00     0.034 C 
BRANCH  11  12
HETATM   12  C6  UNL     1       7.122  29.070   6.029  1.00  0.00     0.013 C 
BRANCH  12  13
HETATM   13  C7  UNL     1       5.931  29.883   6.507  1.00  0.00     0.058 C 
HETATM   14  C8  UNL     1       4.900  29.802   5.402  1.00  0.00     0.010 C 
HETATM   15  C9  UNL     1       4.766  31.133   4.655  1.00  0.00     0.001 C 
HETATM   16  C10 UNL     1       3.351  31.572   4.752  1.00  0.00     0.000 C 
HETATM   17  C11 UNL     1       2.994  32.625   5.707  1.00  0.00     0.000 C 
HETATM   18  C12 UNL     1       3.901  33.022   6.789  1.00  0.00     0.000 C 
HETATM   19  C13 UNL     1       4.068  32.181   7.995  1.00  0.00     0.000 C 
HETATM   20  C14 UNL     1       3.341  30.910   8.093  1.00  0.00     0.006 C 
HETATM   21  C15 UNL     1       4.043  29.646   8.201  1.00  0.00     0.079 C 
HETATM   22  C16 UNL     1       5.465  29.466   7.836  1.00  0.00     0.247 C 
HETATM   23  F1  UNL     1       6.306  29.928   8.831  1.00  0.00    -0.206 F 
HETATM   24  F2  UNL     1       5.658  28.065   7.890  1.00  0.00    -0.206 F 
ENDBRANCH  12  13
ENDBRANCH  11  12
ENDBRANCH   1  11
BRANCH   1  25
HETATM   25  C17 UNL     1      10.176  28.469   4.918  1.00  0.00     0.158 C 
BRANCH  25  26
HETATM   26  O1  UNL     1       9.531  28.730   3.726  1.00  0.00    -0.347 OA
ATOM     27  H1  UNL     1       9.953  28.591   2.887  1.00  0.00     0.219 HD
ENDBRANCH  25  26
BRANCH  25  28
HETATM   28  N3  UNL     1      11.374  28.019   4.888  1.00  0.00    -0.249 N 
ATOM     29  H3  UNL     1      12.092  28.500   5.430  1.00  0.00     0.196 HD
BRANCH  28  30
HETATM   30  O2  UNL     1      11.725  26.930   4.163  1.00  0.00    -0.288 OA
ATOM     31  H2  UNL     1      11.374  26.065   4.338  1.00  0.00     0.244 HD
ENDBRANCH  28  30
ENDBRANCH  25  28
ENDBRANCH   1  25
TORSDOF 9
ENDMDL
MODEL 5
REMARK VINA RESULT: -7.637459406      2.029      2.363
REMARK  9 active torsions:
REMARK  status: ('A' for Active; 'I' for Inactive)
REMARK    1  A    between atoms: C3_4  and  N2_5 
REMARK    2  A    between atoms: N2_5  and  C4_7 
REMARK    3  A    between atoms: C4_7  and  C5_8 
REMARK    4  A    between atoms: C4_7  and  C17_22 
REMARK    5  A    between atoms: C5_8  and  C6_9 
REMARK    6  A    between atoms: C6_9  and  C7_10 
REMARK    7  A    between atoms: C17_22  and  O1_23 
REMARK    8  A    between atoms: C17_22  and  N3_25 
REMARK    9  A    between atoms: N3_25  and  O2_27 
ROOT
HETATM    1  C4  UNL     1       3.279  32.779   4.424  1.00  0.00     0.158 C 
ENDROOT
BRANCH   1   2
HETATM    2  N2  UNL     1       2.352  32.982   3.344  1.00  0.00    -0.376 N 
ATOM      3  H2  UNL     1       1.354  32.950   3.548  1.00  0.00     0.160 HD
BRANCH   2   4
HETATM    4  C3  UNL     1       2.761  33.226   2.012  1.00  0.00     0.063 A 
HETATM    5  C2  UNL     1       2.111  33.075   0.817  1.00  0.00     0.140 A 
HETATM    6  N1  UNL     1       2.926  33.436  -0.201  1.00  0.00    -0.306 N 
HETATM    7  C1  UNL     1       2.582  33.410  -1.612  1.00  0.00     0.177 C 
HETATM    8  N4  UNL     1       4.075  33.810   0.317  1.00  0.00    -0.308 N 
HETATM    9  C18 UNL     1       4.024  33.700   1.650  1.00  0.00     0.138 A 
ATOM     10  H4  UNL     1       4.883  34.135  -0.216  1.00  0.00     0.186 HD
ENDBRANCH   2   4
ENDBRANCH   1   2
BRANCH   1  11
HETATM   11  C5  UNL     1       3.703  31.296   4.480  1.00  0.00     0.034 C 
BRANCH  11  12
HETATM   12  C6  UNL     1       5.136  31.231   4.133  1.00  0.00     0.013 C 
BRANCH  12  13
HETATM   13  C7  UNL     1       5.950  30.186   4.876  1.00  0.00     0.058 C 
HETATM   14  C8  UNL     1       5.009  29.560   5.882  1.00  0.00     0.010 C 
HETATM   15  C9  UNL     1       5.341  29.992   7.314  1.00  0.00     0.001 C 
HETATM   16  C10 UNL     1       5.607  28.769   8.111  1.00  0.00     0.000 C 
HETATM   17  C11 UNL     1       6.993  28.402   8.414  1.00  0.00     0.000 C 
HETATM   18  C12 UNL     1       8.123  28.999   7.692  1.00  0.00     0.000 C 
HETATM   19  C13 UNL     1       8.460  28.574   6.315  1.00  0.00     0.000 C 
HETATM   20  C14 UNL     1       7.628  27.566   5.648  1.00  0.00     0.006 C 
HETATM   21  C15 UNL     1       6.910  27.870   4.427  1.00  0.00     0.079 C 
HETATM   22  C16 UNL     1       6.619  29.246   3.968  1.00  0.00     0.247 C 
HETATM   23  F1  UNL     1       7.723  29.824   3.369  1.00  0.00    -0.206 F 
HETATM   24  F2  UNL     1       5.733  29.065   2.880  1.00  0.00    -0.206 F 
ENDBRANCH  12  13
ENDBRANCH  11  12
ENDBRANCH   1  11
BRANCH   1  25
HETATM   25  C17 UNL     1       2.753  33.169   5.753  1.00  0.00     0.158 C 
BRANCH  25  26
HETATM   26  O1  UNL     1       3.435  32.882   6.919  1.00  0.00    -0.347 OA
ATOM     27  H1  UNL     1       4.295  32.479   6.909  1.00  0.00     0.219 HD
ENDBRANCH  25  26
BRANCH  25  28
HETATM   28  N3  UNL     1       1.635  33.789   5.827  1.00  0.00    -0.249 N 
ATOM     29  H3  UNL     1       0.800  33.264   6.087  1.00  0.00     0.196 HD
BRANCH  28  30
HETATM   30  O2  UNL     1       1.520  35.115   5.572  1.00  0.00    -0.288 OA
ATOM     31  H2  UNL     1       1.569  35.471   4.693  1.00  0.00     0.244 HD
ENDBRANCH  28  30
ENDBRANCH  25  28
ENDBRANCH   1  25
TORSDOF 9
ENDMDL
