MODEL 1
REMARK VINA RESULT: -6.927035584      0.000      0.000
REMARK  9 active torsions:
REMARK  status: ('A' for Active; 'I' for Inactive)
REMARK    1  A    between atoms: O1_1  and  C1_3 
REMARK    2  A    between atoms: C3_9  and  S3_10 
REMARK    3  A    between atoms: S3_10  and  C4_11 
REMARK    4  A    between atoms: C4_11  and  C5_12 
REMARK    5  A    between atoms: C5_12  and  C6_13 
REMARK    6  A    between atoms: C6_13  and  C7_14 
REMARK    7  A    between atoms: C7_14  and  N2_15 
REMARK    8  A    between atoms: C12_20  and  O2_21 
REMARK    9  A    between atoms: C12_20  and  C13_23 
ROOT
HETATM    1  C6  UNL     1       5.581  29.052   9.327  1.00  0.00     0.031 C 
ENDROOT
BRANCH   1   2
HETATM    2  C5  UNL     1       4.588  30.213   9.295  1.00  0.00     0.012 C 
BRANCH   2   3
HETATM    3  C4  UNL     1       4.186  30.552   7.900  1.00  0.00     0.080 C 
BRANCH   3   4
HETATM    4  S3  UNL     1       3.432  32.165   7.695  1.00  0.00    -0.118 SA
BRANCH   4   5
HETATM    5  C3  UNL     1       3.379  32.476   5.911  1.00  0.00     0.095 A 
HETATM    6  C1  UNL     1       2.485  33.245   5.216  1.00  0.00     0.166 A 
HETATM    7  N1  UNL     1       2.636  33.312   3.909  1.00  0.00    -0.321 N 
HETATM    8  C2  UNL     1       3.634  32.637   3.352  1.00  0.00     0.146 A 
ATOM      9  H1  UNL     1       2.000  33.869   3.339  1.00  0.00     0.169 HD
HETATM   10  S1  UNL     1       4.027  32.560   1.743  1.00  0.00    -0.052 SA
HETATM   11  S2  UNL     1       4.391  31.886   4.676  1.00  0.00    -0.049 SA
BRANCH   6  12
HETATM   12  O1  UNL     1       1.441  33.936   5.916  1.00  0.00    -0.345 OA
ATOM     13  H1  UNL     1       1.447  34.063   6.858  1.00  0.00     0.219 HD
ENDBRANCH   6  12
ENDBRANCH   4   5
ENDBRANCH   3   4
ENDBRANCH   2   3
ENDBRANCH   1   2
BRANCH   1  14
HETATM   14  C7  UNL     1       5.917  28.730   7.895  1.00  0.00     0.277 C 
BRANCH  14  15
HETATM   15  N2  UNL     1       7.272  28.934   7.510  1.00  0.00     0.133 N 
HETATM   16  C8  UNL     1       7.266  29.623   6.226  1.00  0.00     0.277 C 
HETATM   17  C9  UNL     1       6.651  28.772   5.150  1.00  0.00     0.030 C 
HETATM   18  C10 UNL     1       7.563  27.579   4.956  1.00  0.00     0.007 C 
HETATM   19  C11 UNL     1       8.648  27.553   6.002  1.00  0.00     0.082 C 
HETATM   20  C12 UNL     1       8.079  27.753   7.416  1.00  0.00     0.356 C 
BRANCH  20  21
HETATM   21  O2  UNL     1       7.403  26.594   7.712  1.00  0.00    -0.356 OA
ATOM     22  H2  UNL     1       7.953  25.820   7.722  1.00  0.00     0.213 HD
ENDBRANCH  20  21
BRANCH  20  23
HETATM   23  C13 UNL     1       9.316  27.878   8.310  1.00  0.00     0.448 C 
HETATM   24  F1  UNL     1       8.990  28.437   9.534  1.00  0.00    -0.166 F 
HETATM   25  F2  UNL     1       9.898  26.660   8.557  1.00  0.00    -0.166 F 
HETATM   26  F3  UNL     1      10.204  28.756   7.699  1.00  0.00    -0.166 F 
ENDBRANCH  20  23
ENDBRANCH  14  15
ENDBRANCH   1  14
TORSDOF 9
ENDMDL
MODEL 2
REMARK VINA RESULT: -6.878076729      2.042      3.158
REMARK  9 active torsions:
REMARK  status: ('A' for Active; 'I' for Inactive)
REMARK    1  A    between atoms: O1_1  and  C1_3 
REMARK    2  A    between atoms: C3_9  and  S3_10 
REMARK    3  A    between atoms: S3_10  and  C4_11 
REMARK    4  A    between atoms: C4_11  and  C5_12 
REMARK    5  A    between atoms: C5_12  and  C6_13 
REMARK    6  A    between atoms: C6_13  and  C7_14 
REMARK    7  A    between atoms: C7_14  and  N2_15 
REMARK    8  A    between atoms: C12_20  and  O2_21 
REMARK    9  A    between atoms: C12_20  and  C13_23 
ROOT
HETATM    1  C6  UNL     1       6.848  28.512   3.698  1.00  0.00     0.031 C 
ENDROOT
BRANCH   1   2
HETATM    2  C5  UNL     1       5.333  28.436   3.886  1.00  0.00     0.012 C 
BRANCH   2   3
HETATM    3  C4  UNL     1       4.709  29.790   3.858  1.00  0.00     0.080 C 
BRANCH   3   4
HETATM    4  S3  UNL     1       4.511  30.571   5.458  1.00  0.00    -0.118 SA
BRANCH   4   5
HETATM    5  C3  UNL     1       3.463  32.024   5.186  1.00  0.00     0.095 A 
HETATM    6  C1  UNL     1       2.906  32.848   6.127  1.00  0.00     0.166 A 
HETATM    7  N1  UNL     1       2.160  33.842   5.690  1.00  0.00    -0.321 N 
HETATM    8  C2  UNL     1       1.995  33.982   4.379  1.00  0.00     0.146 A 
ATOM      9  H1  UNL     1       1.719  34.489   6.342  1.00  0.00     0.169 HD
HETATM   10  S1  UNL     1       1.110  35.141   3.590  1.00  0.00    -0.052 SA
HETATM   11  S2  UNL     1       2.903  32.700   3.729  1.00  0.00    -0.049 SA
BRANCH   6  12
HETATM   12  O1  UNL     1       3.148  32.609   7.520  1.00  0.00    -0.345 OA
ATOM     13  H1  UNL     1       2.506  32.207   8.094  1.00  0.00     0.219 HD
ENDBRANCH   6  12
ENDBRANCH   4   5
ENDBRANCH   3   4
ENDBRANCH   2   3
ENDBRANCH   1   2
BRANCH   1  14
HETATM   14  C7  UNL     1       7.466  27.811   4.880  1.00  0.00     0.277 C 
BRANCH  14  15
HETATM   15  N2  UNL     1       7.411  28.509   6.119  1.00  0.00     0.133 N 
HETATM   16  C8  UNL     1       8.220  29.712   5.983  1.00  0.00     0.277 C 
HETATM   17  C9  UNL     1       9.668  29.377   5.759  1.00  0.00     0.030 C 
HETATM   18  C10 UNL     1      10.166  28.703   7.020  1.00  0.00     0.007 C 
HETATM   19  C11 UNL     1       9.030  28.440   7.976  1.00  0.00     0.082 C 
HETATM   20  C12 UNL     1       7.839  27.770   7.270  1.00  0.00     0.356 C 
BRANCH  20  21
HETATM   21  O2  UNL     1       8.247  26.488   6.988  1.00  0.00    -0.356 OA
ATOM     22  H2  UNL     1       7.635  26.000   6.450  1.00  0.00     0.213 HD
ENDBRANCH  20  21
BRANCH  20  23
HETATM   23  C13 UNL     1       6.734  27.745   8.330  1.00  0.00     0.448 C 
HETATM   24  F1  UNL     1       7.187  28.259   9.533  1.00  0.00    -0.166 F 
HETATM   25  F2  UNL     1       5.642  28.487   7.953  1.00  0.00    -0.166 F 
HETATM   26  F3  UNL     1       6.394  26.419   8.570  1.00  0.00    -0.166 F 
ENDBRANCH  20  23
ENDBRANCH  14  15
ENDBRANCH   1  14
TORSDOF 9
ENDMDL
MODEL 3
REMARK VINA RESULT: -6.807274486      2.345      3.690
REMARK  9 active torsions:
REMARK  status: ('A' for Active; 'I' for Inactive)
REMARK    1  A    between atoms: O1_1  and  C1_3 
REMARK    2  A    between atoms: C3_9  and  S3_10 
REMARK    3  A    between atoms: S3_10  and  C4_11 
REMARK    4  A    between atoms: C4_11  and  C5_12 
REMARK    5  A    between atoms: C5_12  and  C6_13 
REMARK    6  A    between atoms: C6_13  and  C7_14 
REMARK    7  A    between atoms: C7_14  and  N2_15 
REMARK    8  A    between atoms: C12_20  and  O2_21 
REMARK    9  A    between atoms: C12_20  and  C13_23 
ROOT
HETATM    1  C6  UNL     1       7.192  28.331   4.245  1.00  0.00     0.031 C 
ENDROOT
BRANCH   1   2
HETATM    2  C5  UNL     1       5.777  27.939   3.821  1.00  0.00     0.012 C 
BRANCH   2   3
HETATM    3  C4  UNL     1       4.804  29.042   4.070  1.00  0.00     0.080 C 
BRANCH   3   4
HETATM    4  S3  UNL     1       5.519  30.682   4.153  1.00  0.00    -0.118 SA
BRANCH   4   5
HETATM    5  C3  UNL     1       4.124  31.839   4.219  1.00  0.00     0.095 A 
HETATM    6  C1  UNL     1       3.467  32.425   3.171  1.00  0.00     0.166 A 
HETATM    7  N1  UNL     1       2.485  33.252   3.465  1.00  0.00    -0.321 N 
HETATM    8  C2  UNL     1       2.197  33.466   4.744  1.00  0.00     0.146 A 
ATOM      9  H1  UNL     1       1.958  33.719   2.727  1.00  0.00     0.169 HD
HETATM   10  S1  UNL     1       1.018  34.454   5.362  1.00  0.00    -0.052 SA
HETATM   11  S2  UNL     1       3.318  32.489   5.568  1.00  0.00    -0.049 SA
BRANCH   6  12
HETATM   12  O1  UNL     1       3.857  32.125   1.824  1.00  0.00    -0.345 OA
ATOM     13  H1  UNL     1       4.044  31.243   1.525  1.00  0.00     0.219 HD
ENDBRANCH   6  12
ENDBRANCH   4   5
ENDBRANCH   3   4
ENDBRANCH   2   3
ENDBRANCH   1   2
BRANCH   1  14
HETATM   14  C7  UNL     1       7.397  27.782   5.632  1.00  0.00     0.277 C 
BRANCH  14  15
HETATM   15  N2  UNL     1       7.289  28.719   6.698  1.00  0.00     0.133 N 
HETATM   16  C8  UNL     1       8.563  29.418   6.799  1.00  0.00     0.277 C 
HETATM   17  C9  UNL     1       9.675  28.481   7.180  1.00  0.00     0.030 C 
HETATM   18  C10 UNL     1       9.378  27.991   8.581  1.00  0.00     0.007 C 
HETATM   19  C11 UNL     1       8.017  28.450   9.037  1.00  0.00     0.082 C 
HETATM   20  C12 UNL     1       6.939  28.172   7.976  1.00  0.00     0.356 C 
BRANCH  20  21
HETATM   21  O2  UNL     1       6.767  26.809   7.969  1.00  0.00    -0.356 OA
ATOM     22  H2  UNL     1       6.129  26.498   8.600  1.00  0.00     0.213 HD
ENDBRANCH  20  21
BRANCH  20  23
HETATM   23  C13 UNL     1       5.682  28.854   8.523  1.00  0.00     0.448 C 
HETATM   24  F1  UNL     1       6.008  29.824   9.455  1.00  0.00    -0.166 F 
HETATM   25  F2  UNL     1       4.957  29.466   7.531  1.00  0.00    -0.166 F 
HETATM   26  F3  UNL     1       4.928  27.898   9.194  1.00  0.00    -0.166 F 
ENDBRANCH  20  23
ENDBRANCH  14  15
ENDBRANCH   1  14
TORSDOF 9
ENDMDL
MODEL 4
REMARK VINA RESULT: -6.790042708      1.589      1.893
REMARK  9 active torsions:
REMARK  status: ('A' for Active; 'I' for Inactive)
REMARK    1  A    between atoms: O1_1  and  C1_3 
REMARK    2  A    between atoms: C3_9  and  S3_10 
REMARK    3  A    between atoms: S3_10  and  C4_11 
REMARK    4  A    between atoms: C4_11  and  C5_12 
REMARK    5  A    between atoms: C5_12  and  C6_13 
REMARK    6  A    between atoms: C6_13  and  C7_14 
REMARK    7  A    between atoms: C7_14  and  N2_15 
REMARK    8  A    between atoms: C12_20  and  O2_21 
REMARK    9  A    between atoms: C12_20  and  C13_23 
ROOT
HETATM    1  C6  UNL     1       5.336  28.893   9.286  1.00  0.00     0.031 C 
ENDROOT
BRANCH   1   2
HETATM    2  C5  UNL     1       4.528  30.188   9.238  1.00  0.00     0.012 C 
BRANCH   2   3
HETATM    3  C4  UNL     1       4.121  30.530   7.844  1.00  0.00     0.080 C 
BRANCH   3   4
HETATM    4  S3  UNL     1       3.825  32.270   7.543  1.00  0.00    -0.118 SA
BRANCH   4   5
HETATM    5  C3  UNL     1       3.347  32.408   5.800  1.00  0.00     0.095 A 
HETATM    6  C1  UNL     1       3.913  31.786   4.720  1.00  0.00     0.166 A 
HETATM    7  N1  UNL     1       3.403  32.054   3.535  1.00  0.00    -0.321 N 
HETATM    8  C2  UNL     1       2.383  32.901   3.462  1.00  0.00     0.146 A 
ATOM      9  H1  UNL     1       3.782  31.621   2.694  1.00  0.00     0.169 HD
HETATM   10  S1  UNL     1       1.577  33.396   2.100  1.00  0.00    -0.052 SA
HETATM   11  S2  UNL     1       2.118  33.341   5.082  1.00  0.00    -0.049 SA
BRANCH   6  12
HETATM   12  O1  UNL     1       5.014  30.887   4.909  1.00  0.00    -0.345 OA
ATOM     13  H1  UNL     1       5.822  30.947   4.412  1.00  0.00     0.219 HD
ENDBRANCH   6  12
ENDBRANCH   4   5
ENDBRANCH   3   4
ENDBRANCH   2   3
ENDBRANCH   1   2
BRANCH   1  14
HETATM   14  C7  UNL     1       6.109  28.816   7.995  1.00  0.00     0.277 C 
BRANCH  14  15
HETATM   15  N2  UNL     1       7.517  28.652   8.119  1.00  0.00     0.133 N 
HETATM   16  C8  UNL     1       8.143  29.364   7.013  1.00  0.00     0.277 C 
HETATM   17  C9  UNL     1       7.767  28.760   5.689  1.00  0.00     0.030 C 
HETATM   18  C10 UNL     1       8.365  27.369   5.653  1.00  0.00     0.007 C 
HETATM   19  C11 UNL     1       8.959  27.003   6.988  1.00  0.00     0.082 C 
HETATM   20  C12 UNL     1       7.987  27.297   8.143  1.00  0.00     0.356 C 
BRANCH  20  21
HETATM   21  O2  UNL     1       6.988  26.360   8.035  1.00  0.00    -0.356 OA
ATOM     22  H2  UNL     1       6.225  26.549   8.569  1.00  0.00     0.213 HD
ENDBRANCH  20  21
BRANCH  20  23
HETATM   23  C13 UNL     1       8.810  27.040   9.408  1.00  0.00     0.448 C 
HETATM   24  F1  UNL     1      10.163  26.990   9.120  1.00  0.00    -0.166 F 
HETATM   25  F2  UNL     1       8.627  28.023  10.350  1.00  0.00    -0.166 F 
HETATM   26  F3  UNL     1       8.465  25.787   9.902  1.00  0.00    -0.166 F 
ENDBRANCH  20  23
ENDBRANCH  14  15
ENDBRANCH   1  14
TORSDOF 9
ENDMDL
MODEL 5
REMARK VINA RESULT: -6.778191207      0.816      1.117
REMARK  9 active torsions:
REMARK  status: ('A' for Active; 'I' for Inactive)
REMARK    1  A    between atoms: O1_1  and  C1_3 
REMARK    2  A    between atoms: C3_9  and  S3_10 
REMARK    3  A    between atoms: S3_10  and  C4_11 
REMARK    4  A    between atoms: C4_11  and  C5_12 
REMARK    5  A    between atoms: C5_12  and  C6_13 
REMARK    6  A    between atoms: C6_13  and  C7_14 
REMARK    7  A    between atoms: C7_14  and  N2_15 
REMARK    8  A    between atoms: C12_20  and  O2_21 
REMARK    9  A    between atoms: C12_20  and  C13_23 
ROOT
HETATM    1  C6  UNL     1       5.331  28.999   9.501  1.00  0.00     0.031 C 
ENDROOT
BRANCH   1   2
HETATM    2  C5  UNL     1       4.501  30.276   9.369  1.00  0.00     0.012 C 
BRANCH   2   3
HETATM    3  C4  UNL     1       4.275  30.639   7.940  1.00  0.00     0.080 C 
BRANCH   3   4
HETATM    4  S3  UNL     1       3.430  32.196   7.675  1.00  0.00    -0.118 SA
BRANCH   4   5
HETATM    5  C3  UNL     1       3.414  32.464   5.882  1.00  0.00     0.095 A 
HETATM    6  C1  UNL     1       2.539  33.223   5.153  1.00  0.00     0.166 A 
HETATM    7  N1  UNL     1       2.715  33.255   3.848  1.00  0.00    -0.321 N 
HETATM    8  C2  UNL     1       3.717  32.558   3.326  1.00  0.00     0.146 A 
ATOM      9  H1  UNL     1       2.095  33.804   3.252  1.00  0.00     0.169 HD
HETATM   10  S1  UNL     1       4.140  32.439   1.727  1.00  0.00    -0.052 SA
HETATM   11  S2  UNL     1       4.443  31.835   4.682  1.00  0.00    -0.049 SA
BRANCH   6  12
HETATM   12  O1  UNL     1       1.489  33.939   5.816  1.00  0.00    -0.345 OA
ATOM     13  H1  UNL     1       0.628  34.065   5.433  1.00  0.00     0.219 HD
ENDBRANCH   6  12
ENDBRANCH   4   5
ENDBRANCH   3   4
ENDBRANCH   2   3
ENDBRANCH   1   2
BRANCH   1  14
HETATM   14  C7  UNL     1       5.984  28.768   8.163  1.00  0.00     0.277 C 
BRANCH  14  15
HETATM   15  N2  UNL     1       7.396  28.587   8.180  1.00  0.00     0.133 N 
HETATM   16  C8  UNL     1       7.939  29.259   7.007  1.00  0.00     0.277 C 
HETATM   17  C9  UNL     1       7.453  28.623   5.735  1.00  0.00     0.030 C 
HETATM   18  C10 UNL     1       8.029  27.223   5.694  1.00  0.00     0.007 C 
HETATM   19  C11 UNL     1       8.723  26.886   6.988  1.00  0.00     0.082 C 
HETATM   20  C12 UNL     1       7.849  27.227   8.207  1.00  0.00     0.356 C 
BRANCH  20  21
HETATM   21  O2  UNL     1       6.834  26.302   8.206  1.00  0.00    -0.356 OA
ATOM     22  H2  UNL     1       7.128  25.408   8.080  1.00  0.00     0.213 HD
ENDBRANCH  20  21
BRANCH  20  23
HETATM   23  C13 UNL     1       8.767  26.994   9.410  1.00  0.00     0.448 C 
HETATM   24  F1  UNL     1       8.574  25.733   9.946  1.00  0.00    -0.166 F 
HETATM   25  F2  UNL     1      10.094  27.098   9.073  1.00  0.00    -0.166 F 
HETATM   26  F3  UNL     1       8.418  27.903  10.403  1.00  0.00    -0.166 F 
ENDBRANCH  20  23
ENDBRANCH  14  15
ENDBRANCH   1  14
TORSDOF 9
ENDMDL
