MODEL 1
REMARK VINA RESULT: -8.450421385      0.000      0.000
REMARK  16 active torsions:
REMARK  status: ('A' for Active; 'I' for Inactive)
REMARK    1  A    between atoms: C1_4  and  O1_5 
REMARK    2  A    between atoms: O1_5  and  C2_6 
REMARK    3  A    between atoms: C2_6  and  C3_8 
REMARK    4  A    between atoms: C3_8  and  C4_9 
REMARK    5  A    between atoms: C4_9  and  C5_10 
REMARK    6  A    between atoms: C5_10  and  C6_11 
REMARK    7  A    between atoms: C8_17  and  O7_18 
REMARK    8  A    between atoms: C9_20  and  O8_21 
REMARK    9  A    between atoms: C11_24  and  O9_25 
REMARK   10  A    between atoms: C11_24  and  C12_27 
REMARK   11  A    between atoms: C13_30  and  C14_31 
REMARK   12  A    between atoms: C17_38  and  C18_39 
REMARK   13  A    between atoms: C19_42  and  C20_43 
REMARK   14  A    between atoms: C20_43  and  O18_44 
REMARK   15  A    between atoms: C21_47  and  C22_48 
REMARK   16  A    between atoms: C22_48  and  O20_49 
ROOT
HETATM    1  C3  UNL     1      84.902   0.888 124.030  1.00  0.00     0.195 C 
HETATM    2  O5  UNL     1      84.754   0.610 125.423  1.00  0.00    -0.294 OA
HETATM    3  C7  UNL     1      84.950   1.451 126.498  1.00  0.00     0.300 C 
HETATM    4  O6  UNL     1      85.342   0.910 127.551  1.00  0.00    -0.262 OA
HETATM    5  C8  UNL     1      84.741   2.866 126.500  1.00  0.00     0.201 C 
HETATM    6  C9  UNL     1      83.317   3.000 125.984  1.00  0.00     0.176 C 
HETATM    7  C10 UNL     1      83.480   3.631 124.658  1.00  0.00     0.107 C 
HETATM    8  C11 UNL     1      83.115   5.100 124.984  1.00  0.00     0.191 C 
HETATM    9  C13 UNL     1      84.189   5.778 125.721  1.00  0.00     0.268 C 
HETATM   10  O14 UNL     1      85.259   5.057 126.077  1.00  0.00    -0.359 OA
HETATM   11  C15 UNL     1      85.473   3.789 125.578  1.00  0.00     0.208 C 
HETATM   12  C16 UNL     1      84.887   3.518 124.200  1.00  0.00     0.138 C 
HETATM   13  O15 UNL     1      85.018   4.469 123.258  1.00  0.00    -0.355 OA
HETATM   14  C17 UNL     1      85.934   4.512 122.262  1.00  0.00     0.254 C 
HETATM   15  C19 UNL     1      86.303   3.119 121.762  1.00  0.00     0.186 C 
HETATM   16  O19 UNL     1      85.334   2.330 122.347  1.00  0.00    -0.360 OA
HETATM   17  C21 UNL     1      85.486   2.221 123.770  1.00  0.00     0.158 C 
ENDROOT
BRANCH   1  18
HETATM   18  C2  UNL     1      85.946  -0.136 123.633  1.00  0.00     0.303 C 
HETATM   19  O2  UNL     1      86.183  -0.502 122.466  1.00  0.00    -0.261 OA
BRANCH  18  20
HETATM   20  O1  UNL     1      86.718  -0.727 124.623  1.00  0.00    -0.272 OA
BRANCH  20  21
HETATM   21  C1  UNL     1      87.836  -1.513 124.385  1.00  0.00     0.230 C 
HETATM   22  N1  UNL     1      88.900  -0.966 123.969  1.00  0.00    -0.390 N 
ATOM     23  H12 UNL     1      88.917   0.043 123.816  1.00  0.00     0.157 HD
ATOM     24  H11 UNL     1      89.722  -1.544 123.794  1.00  0.00     0.157 HD
ENDBRANCH  20  21
ENDBRANCH  18  20
ENDBRANCH   1  18
BRANCH   1  25
HETATM   25  C4  UNL     1      83.679   0.534 123.242  1.00  0.00     0.063 C 
BRANCH  25  26
HETATM   26  C5  UNL     1      83.141  -0.827 123.253  1.00  0.00     0.117 C 
BRANCH  26  27
HETATM   27  C6  UNL     1      81.988  -1.230 122.497  1.00  0.00     0.172 C 
HETATM   28  O3  UNL     1      81.164  -2.103 122.857  1.00  0.00    -0.648 OA
HETATM   29  O4  UNL     1      81.695  -0.639 121.253  1.00  0.00    -0.648 OA
ENDBRANCH  26  27
ENDBRANCH  25  26
ENDBRANCH   1  25
BRANCH  17  30
HETATM   30  C22 UNL     1      86.963   2.126 123.925  1.00  0.00     0.209 C 
BRANCH  30  31
HETATM   31  O20 UNL     1      87.755   1.645 122.880  1.00  0.00    -0.398 OA
ATOM     32  H20 UNL     1      88.479   1.056 123.057  1.00  0.00     0.209 HD
ENDBRANCH  30  31
ENDBRANCH  17  30
BRANCH   5  33
HETATM   33  O7  UNL     1      84.910   3.353 127.792  1.00  0.00    -0.375 OA
ATOM     34  H7  UNL     1      84.193   3.051 128.337  1.00  0.00     0.211 HD
ENDBRANCH   5  33
BRANCH  15  35
HETATM   35  C20 UNL     1      86.167   2.844 120.293  1.00  0.00     0.199 C 
BRANCH  35  36
HETATM   36  O18 UNL     1      86.844   1.773 119.792  1.00  0.00    -0.398 OA
ATOM     37  H18 UNL     1      86.432   1.286 119.087  1.00  0.00     0.209 HD
ENDBRANCH  35  36
ENDBRANCH  15  35
BRANCH   6  38
HETATM   38  O8  UNL     1      82.651   3.557 127.009  1.00  0.00    -0.391 OA
ATOM     39  H8  UNL     1      81.858   3.897 126.611  1.00  0.00     0.210 HD
ENDBRANCH   6  38
BRANCH   8  40
HETATM   40  O9  UNL     1      81.856   5.023 125.672  1.00  0.00    -0.376 OA
ATOM     41  H9  UNL     1      81.995   5.491 126.488  1.00  0.00     0.211 HD
ENDBRANCH   8  40
BRANCH   8  42
HETATM   42  C12 UNL     1      82.606   5.880 123.835  1.00  0.00     0.213 C 
HETATM   43  O10 UNL     1      81.658   5.360 123.195  1.00  0.00    -0.646 OA
HETATM   44  O11 UNL     1      83.098   7.088 123.455  1.00  0.00    -0.646 OA
ENDBRANCH   8  42
BRANCH  14  45
HETATM   45  C18 UNL     1      85.505   5.236 121.038  1.00  0.00     0.205 C 
HETATM   46  O16 UNL     1      86.282   6.035 120.408  1.00  0.00    -0.646 OA
HETATM   47  O17 UNL     1      84.266   5.153 120.426  1.00  0.00    -0.646 OA
ENDBRANCH  14  45
BRANCH   9  48
HETATM   48  C14 UNL     1      83.756   6.651 126.849  1.00  0.00     0.206 C 
HETATM   49  O12 UNL     1      83.321   6.205 127.944  1.00  0.00    -0.646 OA
HETATM   50  O13 UNL     1      83.798   8.042 126.779  1.00  0.00    -0.646 OA
ENDBRANCH   9  48
TORSDOF 16
ENDMDL
MODEL 2
REMARK VINA RESULT: -7.678162461      0.960      1.262
REMARK  16 active torsions:
REMARK  status: ('A' for Active; 'I' for Inactive)
REMARK    1  A    between atoms: C1_4  and  O1_5 
REMARK    2  A    between atoms: O1_5  and  C2_6 
REMARK    3  A    between atoms: C2_6  and  C3_8 
REMARK    4  A    between atoms: C3_8  and  C4_9 
REMARK    5  A    between atoms: C4_9  and  C5_10 
REMARK    6  A    between atoms: C5_10  and  C6_11 
REMARK    7  A    between atoms: C8_17  and  O7_18 
REMARK    8  A    between atoms: C9_20  and  O8_21 
REMARK    9  A    between atoms: C11_24  and  O9_25 
REMARK   10  A    between atoms: C11_24  and  C12_27 
REMARK   11  A    between atoms: C13_30  and  C14_31 
REMARK   12  A    between atoms: C17_38  and  C18_39 
REMARK   13  A    between atoms: C19_42  and  C20_43 
REMARK   14  A    between atoms: C20_43  and  O18_44 
REMARK   15  A    between atoms: C21_47  and  C22_48 
REMARK   16  A    between atoms: C22_48  and  O20_49 
ROOT
HETATM    1  C3  UNL     1      84.776   0.846 123.925  1.00  0.00     0.195 C 
HETATM    2  O5  UNL     1      84.663   0.542 125.316  1.00  0.00    -0.294 OA
HETATM    3  C7  UNL     1      84.909   1.356 126.401  1.00  0.00     0.300 C 
HETATM    4  O6  UNL     1      85.319   0.785 127.431  1.00  0.00    -0.262 OA
HETATM    5  C8  UNL     1      84.732   2.776 126.437  1.00  0.00     0.201 C 
HETATM    6  C9  UNL     1      83.297   2.952 125.967  1.00  0.00     0.176 C 
HETATM    7  C10 UNL     1      83.435   3.606 124.650  1.00  0.00     0.107 C 
HETATM    8  C11 UNL     1      83.113   5.075 125.016  1.00  0.00     0.191 C 
HETATM    9  C13 UNL     1      84.223   5.714 125.733  1.00  0.00     0.268 C 
HETATM   10  O14 UNL     1      85.287   4.962 126.044  1.00  0.00    -0.359 OA
HETATM   11  C15 UNL     1      85.457   3.701 125.513  1.00  0.00     0.208 C 
HETATM   12  C16 UNL     1      84.825   3.472 124.148  1.00  0.00     0.138 C 
HETATM   13  O15 UNL     1      84.950   4.439 123.221  1.00  0.00    -0.355 OA
HETATM   14  C17 UNL     1      85.837   4.482 122.200  1.00  0.00     0.254 C 
HETATM   15  C19 UNL     1      86.159   3.092 121.662  1.00  0.00     0.186 C 
HETATM   16  O19 UNL     1      85.190   2.313 122.259  1.00  0.00    -0.360 OA
HETATM   17  C21 UNL     1      85.382   2.171 123.674  1.00  0.00     0.158 C 
ENDROOT
BRANCH   1  18
HETATM   18  C2  UNL     1      85.784  -0.192 123.477  1.00  0.00     0.303 C 
HETATM   19  O2  UNL     1      86.478  -0.894 124.239  1.00  0.00    -0.261 OA
BRANCH  18  20
HETATM   20  O1  UNL     1      85.970  -0.405 122.118  1.00  0.00    -0.272 OA
BRANCH  20  21
HETATM   21  C1  UNL     1      85.226  -1.289 121.351  1.00  0.00     0.230 C 
HETATM   22  N1  UNL     1      84.763  -0.903 120.237  1.00  0.00    -0.390 N 
ATOM     23  H12 UNL     1      84.945   0.050 119.922  1.00  0.00     0.157 HD
ATOM     24  H11 UNL     1      84.215  -1.554 119.673  1.00  0.00     0.157 HD
ENDBRANCH  20  21
ENDBRANCH  18  20
ENDBRANCH   1  18
BRANCH   1  25
HETATM   25  C4  UNL     1      83.522   0.536 123.167  1.00  0.00     0.063 C 
BRANCH  25  26
HETATM   26  C5  UNL     1      82.839  -0.749 123.330  1.00  0.00     0.117 C 
BRANCH  26  27
HETATM   27  C6  UNL     1      81.788  -1.204 122.463  1.00  0.00     0.172 C 
HETATM   28  O3  UNL     1      80.932  -2.068 122.766  1.00  0.00    -0.648 OA
HETATM   29  O4  UNL     1      81.645  -0.681 121.163  1.00  0.00    -0.648 OA
ENDBRANCH  26  27
ENDBRANCH  25  26
ENDBRANCH   1  25
BRANCH  17  30
HETATM   30  C22 UNL     1      86.860   2.041 123.783  1.00  0.00     0.209 C 
BRANCH  30  31
HETATM   31  O20 UNL     1      87.612   1.580 122.700  1.00  0.00    -0.398 OA
ATOM     32  H20 UNL     1      88.556   1.686 122.689  1.00  0.00     0.209 HD
ENDBRANCH  30  31
ENDBRANCH  17  30
BRANCH   5  33
HETATM   33  O7  UNL     1      84.950   3.232 127.734  1.00  0.00    -0.375 OA
ATOM     34  H7  UNL     1      85.818   3.612 127.790  1.00  0.00     0.211 HD
ENDBRANCH   5  33
BRANCH  15  35
HETATM   35  C20 UNL     1      85.974   2.850 120.192  1.00  0.00     0.199 C 
BRANCH  35  36
HETATM   36  O18 UNL     1      86.409   1.658 119.694  1.00  0.00    -0.398 OA
ATOM     37  H18 UNL     1      85.996   1.341 118.899  1.00  0.00     0.209 HD
ENDBRANCH  35  36
ENDBRANCH  15  35
BRANCH   6  38
HETATM   38  O8  UNL     1      82.673   3.502 127.022  1.00  0.00    -0.391 OA
ATOM     39  H8  UNL     1      81.750   3.400 126.823  1.00  0.00     0.210 HD
ENDBRANCH   6  38
BRANCH   8  40
HETATM   40  O9  UNL     1      81.873   5.012 125.739  1.00  0.00    -0.376 OA
ATOM     41  H9  UNL     1      82.097   5.256 126.630  1.00  0.00     0.211 HD
ENDBRANCH   8  40
BRANCH   8  42
HETATM   42  C12 UNL     1      82.588   5.890 123.899  1.00  0.00     0.213 C 
HETATM   43  O10 UNL     1      81.620   5.397 123.267  1.00  0.00    -0.646 OA
HETATM   44  O11 UNL     1      83.086   7.101 123.538  1.00  0.00    -0.646 OA
ENDBRANCH   8  42
BRANCH  14  45
HETATM   45  C18 UNL     1      85.389   5.241 121.004  1.00  0.00     0.205 C 
HETATM   46  O16 UNL     1      86.161   6.043 120.373  1.00  0.00    -0.646 OA
HETATM   47  O17 UNL     1      84.134   5.190 120.422  1.00  0.00    -0.646 OA
ENDBRANCH  14  45
BRANCH   9  48
HETATM   48  C14 UNL     1      83.843   6.574 126.891  1.00  0.00     0.206 C 
HETATM   49  O12 UNL     1      83.887   7.833 126.865  1.00  0.00    -0.646 OA
HETATM   50  O13 UNL     1      83.406   6.046 128.105  1.00  0.00    -0.646 OA
ENDBRANCH   9  48
TORSDOF 16
ENDMDL
MODEL 3
REMARK VINA RESULT: -7.493835556      1.623      2.158
REMARK  16 active torsions:
REMARK  status: ('A' for Active; 'I' for Inactive)
REMARK    1  A    between atoms: C1_4  and  O1_5 
REMARK    2  A    between atoms: O1_5  and  C2_6 
REMARK    3  A    between atoms: C2_6  and  C3_8 
REMARK    4  A    between atoms: C3_8  and  C4_9 
REMARK    5  A    between atoms: C4_9  and  C5_10 
REMARK    6  A    between atoms: C5_10  and  C6_11 
REMARK    7  A    between atoms: C8_17  and  O7_18 
REMARK    8  A    between atoms: C9_20  and  O8_21 
REMARK    9  A    between atoms: C11_24  and  O9_25 
REMARK   10  A    between atoms: C11_24  and  C12_27 
REMARK   11  A    between atoms: C13_30  and  C14_31 
REMARK   12  A    between atoms: C17_38  and  C18_39 
REMARK   13  A    between atoms: C19_42  and  C20_43 
REMARK   14  A    between atoms: C20_43  and  O18_44 
REMARK   15  A    between atoms: C21_47  and  C22_48 
REMARK   16  A    between atoms: C22_48  and  O20_49 
ROOT
HETATM    1  C3  UNL     1      84.993   0.771 123.354  1.00  0.00     0.195 C 
HETATM    2  O5  UNL     1      85.322   0.003 124.512  1.00  0.00    -0.294 OA
HETATM    3  C7  UNL     1      85.720   0.441 125.757  1.00  0.00     0.300 C 
HETATM    4  O6  UNL     1      86.488  -0.314 126.383  1.00  0.00    -0.262 OA
HETATM    5  C8  UNL     1      85.325   1.671 126.374  1.00  0.00     0.201 C 
HETATM    6  C9  UNL     1      83.808   1.617 126.299  1.00  0.00     0.176 C 
HETATM    7  C10 UNL     1      83.464   2.686 125.338  1.00  0.00     0.107 C 
HETATM    8  C11 UNL     1      83.016   3.813 126.301  1.00  0.00     0.191 C 
HETATM    9  C13 UNL     1      84.158   4.439 126.977  1.00  0.00     0.268 C 
HETATM   10  O14 UNL     1      85.376   3.928 126.758  1.00  0.00    -0.359 OA
HETATM   11  C15 UNL     1      85.601   3.006 125.758  1.00  0.00     0.208 C 
HETATM   12  C16 UNL     1      84.663   3.091 124.562  1.00  0.00     0.138 C 
HETATM   13  O15 UNL     1      84.363   4.309 124.078  1.00  0.00    -0.355 OA
HETATM   14  C17 UNL     1      84.912   4.918 123.001  1.00  0.00     0.254 C 
HETATM   15  C19 UNL     1      85.300   3.921 121.915  1.00  0.00     0.186 C 
HETATM   16  O19 UNL     1      84.679   2.765 122.340  1.00  0.00    -0.360 OA
HETATM   17  C21 UNL     1      85.276   2.213 123.523  1.00  0.00     0.158 C 
ENDROOT
BRANCH   1  18
HETATM   18  C2  UNL     1      85.997   0.240 122.351  1.00  0.00     0.303 C 
HETATM   19  O2  UNL     1      87.193  -0.012 122.598  1.00  0.00    -0.261 OA
BRANCH  18  20
HETATM   20  O1  UNL     1      85.583   0.001 121.048  1.00  0.00    -0.272 OA
BRANCH  20  21
HETATM   21  C1  UNL     1      86.009   0.721 119.942  1.00  0.00     0.230 C 
HETATM   22  N1  UNL     1      87.129   1.313 119.984  1.00  0.00    -0.390 N 
ATOM     23  H12 UNL     1      87.697   1.250 120.829  1.00  0.00     0.157 HD
ATOM     24  H11 UNL     1      87.442   1.843 119.170  1.00  0.00     0.157 HD
ENDBRANCH  20  21
ENDBRANCH  18  20
ENDBRANCH   1  18
BRANCH   1  25
HETATM   25  C4  UNL     1      83.649   0.420 122.796  1.00  0.00     0.063 C 
BRANCH  25  26
HETATM   26  C5  UNL     1      83.010  -0.859 123.112  1.00  0.00     0.117 C 
BRANCH  26  27
HETATM   27  C6  UNL     1      81.800  -1.316 122.489  1.00  0.00     0.172 C 
HETATM   28  O3  UNL     1      81.057  -2.219 122.940  1.00  0.00    -0.648 OA
HETATM   29  O4  UNL     1      81.349  -0.750 121.280  1.00  0.00    -0.648 OA
ENDBRANCH  26  27
ENDBRANCH  25  26
ENDBRANCH   1  25
BRANCH  17  30
HETATM   30  C22 UNL     1      86.727   2.440 123.282  1.00  0.00     0.209 C 
BRANCH  30  31
HETATM   31  O20 UNL     1      87.378   3.533 123.858  1.00  0.00    -0.398 OA
ATOM     32  H20 UNL     1      87.799   4.185 123.311  1.00  0.00     0.209 HD
ENDBRANCH  30  31
ENDBRANCH  17  30
BRANCH   5  33
HETATM   33  O7  UNL     1      85.814   1.708 127.676  1.00  0.00    -0.375 OA
ATOM     34  H7  UNL     1      85.689   2.579 128.033  1.00  0.00     0.211 HD
ENDBRANCH   5  33
BRANCH  15  35
HETATM   35  C20 UNL     1      84.758   4.144 120.533  1.00  0.00     0.199 C 
BRANCH  35  36
HETATM   36  O18 UNL     1      83.694   3.386 120.148  1.00  0.00    -0.398 OA
ATOM     37  H18 UNL     1      82.872   3.836 119.988  1.00  0.00     0.209 HD
ENDBRANCH  35  36
ENDBRANCH  15  35
BRANCH   6  38
HETATM   38  O8  UNL     1      83.418   1.603 127.584  1.00  0.00    -0.391 OA
ATOM     39  H8  UNL     1      84.205   1.827 128.066  1.00  0.00     0.210 HD
ENDBRANCH   6  38
BRANCH   8  40
HETATM   40  O9  UNL     1      82.053   3.195 127.170  1.00  0.00    -0.376 OA
ATOM     41  H9  UNL     1      81.255   3.694 127.045  1.00  0.00     0.211 HD
ENDBRANCH   8  40
BRANCH   8  42
HETATM   42  C12 UNL     1      82.073   4.789 125.712  1.00  0.00     0.213 C 
HETATM   43  O10 UNL     1      80.946   4.338 125.387  1.00  0.00    -0.646 OA
HETATM   44  O11 UNL     1      82.360   6.103 125.514  1.00  0.00    -0.646 OA
ENDBRANCH   8  42
BRANCH  14  45
HETATM   45  C18 UNL     1      84.030   5.890 122.305  1.00  0.00     0.205 C 
HETATM   46  O16 UNL     1      84.437   7.050 121.947  1.00  0.00    -0.646 OA
HETATM   47  O17 UNL     1      82.706   5.691 121.954  1.00  0.00    -0.646 OA
ENDBRANCH  14  45
BRANCH   9  48
HETATM   48  C14 UNL     1      83.975   4.733 128.428  1.00  0.00     0.206 C 
HETATM   49  O12 UNL     1      83.593   5.851 128.866  1.00  0.00    -0.646 OA
HETATM   50  O13 UNL     1      84.216   3.786 129.421  1.00  0.00    -0.646 OA
ENDBRANCH   9  48
TORSDOF 16
ENDMDL
MODEL 4
REMARK VINA RESULT: -7.483471996      2.103      5.964
REMARK  16 active torsions:
REMARK  status: ('A' for Active; 'I' for Inactive)
REMARK    1  A    between atoms: C1_4  and  O1_5 
REMARK    2  A    between atoms: O1_5  and  C2_6 
REMARK    3  A    between atoms: C2_6  and  C3_8 
REMARK    4  A    between atoms: C3_8  and  C4_9 
REMARK    5  A    between atoms: C4_9  and  C5_10 
REMARK    6  A    between atoms: C5_10  and  C6_11 
REMARK    7  A    between atoms: C8_17  and  O7_18 
REMARK    8  A    between atoms: C9_20  and  O8_21 
REMARK    9  A    between atoms: C11_24  and  O9_25 
REMARK   10  A    between atoms: C11_24  and  C12_27 
REMARK   11  A    between atoms: C13_30  and  C14_31 
REMARK   12  A    between atoms: C17_38  and  C18_39 
REMARK   13  A    between atoms: C19_42  and  C20_43 
REMARK   14  A    between atoms: C20_43  and  O18_44 
REMARK   15  A    between atoms: C21_47  and  C22_48 
REMARK   16  A    between atoms: C22_48  and  O20_49 
ROOT
HETATM    1  C3  UNL     1      86.106  -0.280 123.726  1.00  0.00     0.195 C 
HETATM    2  O5  UNL     1      86.063  -1.345 122.777  1.00  0.00    -0.294 OA
HETATM    3  C7  UNL     1      85.252  -1.487 121.671  1.00  0.00     0.300 C 
HETATM    4  O6  UNL     1      84.958  -2.656 121.355  1.00  0.00    -0.262 OA
HETATM    5  C8  UNL     1      84.733  -0.417 120.874  1.00  0.00     0.201 C 
HETATM    6  C9  UNL     1      85.980   0.371 120.509  1.00  0.00     0.176 C 
HETATM    7  C10 UNL     1      85.822   1.643 121.243  1.00  0.00     0.107 C 
HETATM    8  C11 UNL     1      85.338   2.579 120.109  1.00  0.00     0.191 C 
HETATM    9  C13 UNL     1      83.938   2.320 119.748  1.00  0.00     0.268 C 
HETATM   10  O14 UNL     1      83.312   1.301 120.351  1.00  0.00    -0.359 OA
HETATM   11  C15 UNL     1      83.863   0.660 121.440  1.00  0.00     0.208 C 
HETATM   12  C16 UNL     1      84.790   1.506 122.301  1.00  0.00     0.138 C 
HETATM   13  O15 UNL     1      84.418   2.767 122.583  1.00  0.00    -0.355 OA
HETATM   14  C17 UNL     1      83.841   3.213 123.723  1.00  0.00     0.254 C 
HETATM   15  C19 UNL     1      84.322   2.443 124.948  1.00  0.00     0.186 C 
HETATM   16  O19 UNL     1      85.400   1.740 124.450  1.00  0.00    -0.360 OA
HETATM   17  C21 UNL     1      85.015   0.701 123.537  1.00  0.00     0.158 C 
ENDROOT
BRANCH   1  18
HETATM   18  C2  UNL     1      85.814  -1.021 125.015  1.00  0.00     0.303 C 
HETATM   19  O2  UNL     1      85.313  -2.160 125.090  1.00  0.00    -0.261 OA
BRANCH  18  20
HETATM   20  O1  UNL     1      86.121  -0.412 126.224  1.00  0.00    -0.272 OA
BRANCH  20  21
HETATM   21  C1  UNL     1      86.148  -1.064 127.448  1.00  0.00     0.230 C 
HETATM   22  N1  UNL     1      86.989  -1.993 127.637  1.00  0.00    -0.390 N 
ATOM     23  H12 UNL     1      87.632  -2.246 126.886  1.00  0.00     0.157 HD
ATOM     24  H11 UNL     1      87.008  -2.472 128.537  1.00  0.00     0.157 HD
ENDBRANCH  20  21
ENDBRANCH  18  20
ENDBRANCH   1  18
BRANCH   1  25
HETATM   25  C4  UNL     1      87.482   0.284 123.895  1.00  0.00     0.063 C 
BRANCH  25  26
HETATM   26  C5  UNL     1      88.670  -0.530 123.627  1.00  0.00     0.117 C 
BRANCH  26  27
HETATM   27  C6  UNL     1      89.040  -1.674 124.413  1.00  0.00     0.172 C 
HETATM   28  O3  UNL     1      89.299  -1.648 125.639  1.00  0.00    -0.648 OA
HETATM   29  O4  UNL     1      89.134  -2.952 123.831  1.00  0.00    -0.648 OA
ENDBRANCH  26  27
ENDBRANCH  25  26
ENDBRANCH   1  25
BRANCH  17  30
HETATM   30  C22 UNL     1      83.782   0.161 124.172  1.00  0.00     0.209 C 
BRANCH  30  31
HETATM   31  O20 UNL     1      83.195  -1.012 123.694  1.00  0.00    -0.398 OA
ATOM     32  H20 UNL     1      82.694  -1.572 124.275  1.00  0.00     0.209 HD
ENDBRANCH  30  31
ENDBRANCH  17  30
BRANCH   5  33
HETATM   33  O7  UNL     1      84.070  -0.947 119.772  1.00  0.00    -0.375 OA
ATOM     34  H7  UNL     1      83.394  -0.342 119.492  1.00  0.00     0.211 HD
ENDBRANCH   5  33
BRANCH  15  35
HETATM   35  C20 UNL     1      84.892   3.231 126.092  1.00  0.00     0.199 C 
BRANCH  35  36
HETATM   36  O18 UNL     1      85.446   2.530 127.121  1.00  0.00    -0.398 OA
ATOM     37  H18 UNL     1      85.874   1.708 126.909  1.00  0.00     0.209 HD
ENDBRANCH  35  36
ENDBRANCH  15  35
BRANCH   6  38
HETATM   38  O8  UNL     1      86.046   0.275 119.170  1.00  0.00    -0.391 OA
ATOM     39  H8  UNL     1      85.193  -0.060 118.921  1.00  0.00     0.210 HD
ENDBRANCH   6  38
BRANCH   8  40
HETATM   40  O9  UNL     1      86.288   2.395 119.047  1.00  0.00    -0.376 OA
ATOM     41  H9  UNL     1      86.017   1.594 118.614  1.00  0.00     0.211 HD
ENDBRANCH   8  40
BRANCH   8  42
HETATM   42  C12 UNL     1      85.635   4.012 120.322  1.00  0.00     0.213 C 
HETATM   43  O10 UNL     1      86.830   4.292 120.591  1.00  0.00    -0.646 OA
HETATM   44  O11 UNL     1      84.708   5.003 120.244  1.00  0.00    -0.646 OA
ENDBRANCH   8  42
BRANCH  14  45
HETATM   45  C18 UNL     1      84.113   4.635 124.057  1.00  0.00     0.205 C 
HETATM   46  O16 UNL     1      85.185   5.231 123.688  1.00  0.00    -0.646 OA
HETATM   47  O17 UNL     1      83.287   5.483 124.774  1.00  0.00    -0.646 OA
ENDBRANCH  14  45
BRANCH   9  48
HETATM   48  C14 UNL     1      83.630   2.325 118.289  1.00  0.00     0.206 C 
HETATM   49  O12 UNL     1      83.049   3.280 117.707  1.00  0.00    -0.646 OA
HETATM   50  O13 UNL     1      83.962   1.265 117.449  1.00  0.00    -0.646 OA
ENDBRANCH   9  48
TORSDOF 16
ENDMDL
MODEL 5
REMARK VINA RESULT: -7.401059775      1.428      1.737
REMARK  16 active torsions:
REMARK  status: ('A' for Active; 'I' for Inactive)
REMARK    1  A    between atoms: C1_4  and  O1_5 
REMARK    2  A    between atoms: O1_5  and  C2_6 
REMARK    3  A    between atoms: C2_6  and  C3_8 
REMARK    4  A    between atoms: C3_8  and  C4_9 
REMARK    5  A    between atoms: C4_9  and  C5_10 
REMARK    6  A    between atoms: C5_10  and  C6_11 
REMARK    7  A    between atoms: C8_17  and  O7_18 
REMARK    8  A    between atoms: C9_20  and  O8_21 
REMARK    9  A    between atoms: C11_24  and  O9_25 
REMARK   10  A    between atoms: C11_24  and  C12_27 
REMARK   11  A    between atoms: C13_30  and  C14_31 
REMARK   12  A    between atoms: C17_38  and  C18_39 
REMARK   13  A    between atoms: C19_42  and  C20_43 
REMARK   14  A    between atoms: C20_43  and  O18_44 
REMARK   15  A    between atoms: C21_47  and  C22_48 
REMARK   16  A    between atoms: C22_48  and  O20_49 
ROOT
HETATM    1  C3  UNL     1      84.866   0.874 124.354  1.00  0.00     0.195 C 
HETATM    2  O5  UNL     1      85.085   0.265 125.627  1.00  0.00    -0.294 OA
HETATM    3  C7  UNL     1      85.380   0.865 126.833  1.00  0.00     0.300 C 
HETATM    4  O6  UNL     1      86.084   0.199 127.617  1.00  0.00    -0.262 OA
HETATM    5  C8  UNL     1      84.949   2.166 127.245  1.00  0.00     0.201 C 
HETATM    6  C9  UNL     1      83.443   2.103 127.047  1.00  0.00     0.176 C 
HETATM    7  C10 UNL     1      83.196   3.036 125.928  1.00  0.00     0.107 C 
HETATM    8  C11 UNL     1      82.680   4.280 126.691  1.00  0.00     0.191 C 
HETATM    9  C13 UNL     1      83.768   4.990 127.375  1.00  0.00     0.268 C 
HETATM   10  O14 UNL     1      84.994   4.454 127.330  1.00  0.00    -0.359 OA
HETATM   11  C15 UNL     1      85.293   3.407 126.484  1.00  0.00     0.208 C 
HETATM   12  C16 UNL     1      84.461   3.333 125.212  1.00  0.00     0.138 C 
HETATM   13  O15 UNL     1      84.218   4.476 124.547  1.00  0.00    -0.355 OA
HETATM   14  C17 UNL     1      84.864   4.937 123.450  1.00  0.00     0.254 C 
HETATM   15  C19 UNL     1      85.332   3.804 122.543  1.00  0.00     0.186 C 
HETATM   16  O19 UNL     1      84.663   2.715 123.062  1.00  0.00    -0.360 OA
HETATM   17  C21 UNL     1      85.150   2.325 124.355  1.00  0.00     0.158 C 
ENDROOT
BRANCH   1  18
HETATM   18  C2  UNL     1      85.945   0.213 123.520  1.00  0.00     0.303 C 
HETATM   19  O2  UNL     1      85.914   0.083 122.280  1.00  0.00    -0.261 OA
BRANCH  18  20
HETATM   20  O1  UNL     1      87.070  -0.292 124.155  1.00  0.00    -0.272 OA
BRANCH  20  21
HETATM   21  C1  UNL     1      87.331  -1.643 124.337  1.00  0.00     0.230 C 
HETATM   22  N1  UNL     1      86.461  -2.370 124.902  1.00  0.00    -0.390 N 
ATOM     23  H12 UNL     1      85.585  -1.952 125.215  1.00  0.00     0.157 HD
ATOM     24  H11 UNL     1      86.653  -3.363 125.036  1.00  0.00     0.157 HD
ENDBRANCH  20  21
ENDBRANCH  18  20
ENDBRANCH   1  18
BRANCH   1  25
HETATM   25  C4  UNL     1      83.570   0.452 123.733  1.00  0.00     0.063 C 
BRANCH  25  26
HETATM   26  C5  UNL     1      83.287  -0.958 123.460  1.00  0.00     0.117 C 
BRANCH  26  27
HETATM   27  C6  UNL     1      82.433  -1.403 122.393  1.00  0.00     0.172 C 
HETATM   28  O3  UNL     1      82.754  -2.246 121.523  1.00  0.00    -0.648 OA
HETATM   29  O4  UNL     1      81.125  -0.901 122.256  1.00  0.00    -0.648 OA
ENDBRANCH  26  27
ENDBRANCH  25  26
ENDBRANCH   1  25
BRANCH  17  30
HETATM   30  C22 UNL     1      86.619   2.516 124.212  1.00  0.00     0.209 C 
BRANCH  30  31
HETATM   31  O20 UNL     1      87.239   2.334 122.974  1.00  0.00    -0.398 OA
ATOM     32  H20 UNL     1      88.089   1.913 122.918  1.00  0.00     0.209 HD
ENDBRANCH  30  31
ENDBRANCH  17  30
BRANCH   5  33
HETATM   33  O7  UNL     1      85.326   2.375 128.568  1.00  0.00    -0.375 OA
ATOM     34  H7  UNL     1      85.002   3.220 128.856  1.00  0.00     0.211 HD
ENDBRANCH   5  33
BRANCH  15  35
HETATM   35  C20 UNL     1      84.912   3.842 121.102  1.00  0.00     0.199 C 
BRANCH  35  36
HETATM   36  O18 UNL     1      84.200   2.781 120.628  1.00  0.00    -0.398 OA
ATOM     37  H18 UNL     1      84.375   2.501 119.738  1.00  0.00     0.209 HD
ENDBRANCH  35  36
ENDBRANCH  15  35
BRANCH   6  38
HETATM   38  O8  UNL     1      82.945   2.260 128.285  1.00  0.00    -0.391 OA
ATOM     39  H8  UNL     1      82.402   1.492 128.414  1.00  0.00     0.210 HD
ENDBRANCH   6  38
BRANCH   8  40
HETATM   40  O9  UNL     1      81.640   3.784 127.548  1.00  0.00    -0.376 OA
ATOM     41  H9  UNL     1      82.095   3.407 128.292  1.00  0.00     0.211 HD
ENDBRANCH   8  40
BRANCH   8  42
HETATM   42  C12 UNL     1      81.803   5.170 125.899  1.00  0.00     0.213 C 
HETATM   43  O10 UNL     1      80.906   4.602 125.227  1.00  0.00    -0.646 OA
HETATM   44  O11 UNL     1      81.919   6.524 125.868  1.00  0.00    -0.646 OA
ENDBRANCH   8  42
BRANCH  14  45
HETATM   45  C18 UNL     1      84.056   5.808 122.558  1.00  0.00     0.205 C 
HETATM   46  O16 UNL     1      84.528   6.878 122.036  1.00  0.00    -0.646 OA
HETATM   47  O17 UNL     1      82.743   5.598 122.175  1.00  0.00    -0.646 OA
ENDBRANCH  14  45
BRANCH   9  48
HETATM   48  C14 UNL     1      83.466   5.474 128.753  1.00  0.00     0.206 C 
HETATM   49  O12 UNL     1      83.186   6.673 129.021  1.00  0.00    -0.646 OA
HETATM   50  O13 UNL     1      83.471   4.631 129.862  1.00  0.00    -0.646 OA
ENDBRANCH   9  48
TORSDOF 16
ENDMDL
