MODEL 1
REMARK VINA RESULT: -7.736420291      0.000      0.000
REMARK  21 active torsions:
REMARK  status: ('A' for Active; 'I' for Inactive)
REMARK    1  A    between atoms: N1_1  and  C1_5 
REMARK    2  A    between atoms: C1_5  and  C2_6 
REMARK    3  A    between atoms: C4_8  and  C5_9 
REMARK    4  A    between atoms: C5_9  and  O1_10 
REMARK    5  A    between atoms: C6_12  and  O2_13 
REMARK    6  A    between atoms: C7_15  and  O3_16 
REMARK    7  A    between atoms: O3_16  and  C8_17 
REMARK    8  A    between atoms: C9_18  and  O4_19 
REMARK    9  A    between atoms: O4_19  and  C10_20 
REMARK   10  A    between atoms: C12_22  and  N2_23 
REMARK   11  A    between atoms: C12_22  and  C13_27 
REMARK   12  A    between atoms: C13_27  and  O5_28 
REMARK   13  A    between atoms: C15_32  and  N3_33 
REMARK   14  A    between atoms: C18_39  and  N4_40 
REMARK   15  A    between atoms: C19_44  and  O7_45 
REMARK   16  A    between atoms: O7_45  and  C20_46 
REMARK   17  A    between atoms: C21_48  and  C22_49 
REMARK   18  A    between atoms: C22_49  and  N5_50 
REMARK   19  A    between atoms: C23_54  and  O9_55 
REMARK   20  A    between atoms: C24_57  and  N6_58 
REMARK   21  A    between atoms: C25_62  and  O10_63 
ROOT
HETATM    1  C8  UNL     1      85.212   1.646 124.338  1.00  0.00     0.186 C 
HETATM    2  C9  UNL     1      85.856   1.019 123.177  1.00  0.00     0.186 C 
HETATM    3  C15 UNL     1      86.663  -0.227 123.483  1.00  0.00     0.215 C 
HETATM    4  C16 UNL     1      85.823  -1.482 123.466  1.00  0.00     0.037 C 
HETATM    5  C17 UNL     1      84.890  -1.594 124.614  1.00  0.00     0.037 C 
HETATM    6  C18 UNL     1      83.901  -0.481 124.754  1.00  0.00     0.215 C 
HETATM    7  C19 UNL     1      84.503   0.755 125.303  1.00  0.00     0.186 C 
ENDROOT
BRANCH   7   8
HETATM    8  O7  UNL     1      85.243   0.419 126.436  1.00  0.00    -0.349 OA
BRANCH   8   9
HETATM    9  C20 UNL     1      84.510  -0.058 127.491  1.00  0.00     0.291 C 
HETATM   10  O8  UNL     1      83.719   0.954 128.027  1.00  0.00    -0.349 OA
HETATM   11  C21 UNL     1      84.431   1.909 128.725  1.00  0.00     0.181 C 
HETATM   12  C23 UNL     1      85.745   1.432 129.236  1.00  0.00     0.182 C 
HETATM   13  C24 UNL     1      85.523   0.015 129.778  1.00  0.00     0.247 C 
HETATM   14  C25 UNL     1      85.257  -0.830 128.523  1.00  0.00     0.206 C 
BRANCH  11  15
HETATM   15  C22 UNL     1      83.562   2.321 129.892  1.00  0.00     0.264 C 
BRANCH  15  16
HETATM   16  N5  UNL     1      83.569   3.722 130.169  1.00  0.00    -0.077 N 
ATOM     17  H53 UNL     1      84.118   4.220 129.469  1.00  0.00     0.274 HD
ATOM     18  H52 UNL     1      82.649   4.124 129.989  1.00  0.00     0.274 HD
ATOM     19  H51 UNL     1      83.885   3.966 131.108  1.00  0.00     0.274 HD
ENDBRANCH  15  16
ENDBRANCH  11  15
BRANCH  12  20
HETATM   20  O9  UNL     1      86.278   2.279 130.187  1.00  0.00    -0.391 OA
ATOM     21  H9  UNL     1      86.968   1.866 130.693  1.00  0.00     0.210 HD
ENDBRANCH  12  20
BRANCH  13  22
HETATM   22  N6  UNL     1      86.700  -0.480 130.452  1.00  0.00    -0.070 N 
ATOM     23  H63 UNL     1      86.826  -1.481 130.300  1.00  0.00     0.274 HD
ATOM     24  H62 UNL     1      87.555  -0.146 130.007  1.00  0.00     0.274 HD
ATOM     25  H61 UNL     1      86.682  -0.252 131.446  1.00  0.00     0.274 HD
ENDBRANCH  13  22
BRANCH  14  26
HETATM   26  O10 UNL     1      86.481  -1.324 128.136  1.00  0.00    -0.388 OA
ATOM     27  H10 UNL     1      86.563  -2.270 128.127  1.00  0.00     0.210 HD
ENDBRANCH  14  26
ENDBRANCH   8   9
ENDBRANCH   7   8
BRANCH   1  28
HETATM   28  O3  UNL     1      84.363   2.674 123.933  1.00  0.00    -0.348 OA
BRANCH  28  29
HETATM   29  C7  UNL     1      84.857   3.939 124.055  1.00  0.00     0.289 C 
HETATM   30  C6  UNL     1      84.666   4.572 125.415  1.00  0.00     0.179 C 
HETATM   31  C4  UNL     1      83.185   4.580 125.742  1.00  0.00     0.045 C 
HETATM   32  C3  UNL     1      82.575   5.564 124.734  1.00  0.00     0.043 C 
HETATM   33  C2  UNL     1      82.957   5.077 123.371  1.00  0.00     0.150 C 
HETATM   34  O11 UNL     1      84.299   4.870 123.170  1.00  0.00    -0.352 OA
BRANCH  30  35
HETATM   35  O2  UNL     1      85.468   4.107 126.408  1.00  0.00    -0.390 OA
ATOM     36  H2  UNL     1      85.813   3.233 126.265  1.00  0.00     0.210 HD
ENDBRANCH  30  35
BRANCH  31  37
HETATM   37  C5  UNL     1      83.022   5.152 127.138  1.00  0.00     0.171 C 
BRANCH  37  38
HETATM   38  O1  UNL     1      83.613   6.387 127.245  1.00  0.00    -0.400 OA
ATOM     39  H1  UNL     1      83.285   6.987 126.585  1.00  0.00     0.209 HD
ENDBRANCH  37  38
ENDBRANCH  31  37
BRANCH  33  40
HETATM   40  C1  UNL     1      82.534   6.168 122.382  1.00  0.00     0.261 C 
BRANCH  40  41
HETATM   41  N1  UNL     1      81.417   6.868 122.977  1.00  0.00    -0.077 N 
ATOM     42  H13 UNL     1      80.882   6.292 123.628  1.00  0.00     0.274 HD
ATOM     43  H12 UNL     1      81.703   7.585 123.644  1.00  0.00     0.274 HD
ATOM     44  H11 UNL     1      80.852   7.236 122.211  1.00  0.00     0.274 HD
ENDBRANCH  40  41
ENDBRANCH  33  40
ENDBRANCH  28  29
ENDBRANCH   1  28
BRANCH   6  45
HETATM   45  N4  UNL     1      83.103  -0.277 123.565  1.00  0.00    -0.072 N 
ATOM     46  H43 UNL     1      83.672   0.098 122.806  1.00  0.00     0.274 HD
ATOM     47  H42 UNL     1      82.836  -1.169 123.149  1.00  0.00     0.274 HD
ATOM     48  H41 UNL     1      82.283   0.308 123.728  1.00  0.00     0.274 HD
ENDBRANCH   6  45
BRANCH   2  49
HETATM   49  O4  UNL     1      86.757   1.890 122.563  1.00  0.00    -0.351 OA
BRANCH  49  50
HETATM   50  C10 UNL     1      86.387   2.170 121.251  1.00  0.00     0.262 C 
HETATM   51  C11 UNL     1      85.033   1.564 120.923  1.00  0.00     0.104 C 
HETATM   52  C12 UNL     1      85.066   1.582 119.409  1.00  0.00     0.170 C 
HETATM   53  C14 UNL     1      86.538   1.422 119.142  1.00  0.00     0.212 C 
HETATM   54  O6  UNL     1      87.221   1.705 120.283  1.00  0.00    -0.359 OA
BRANCH  52  55
HETATM   55  N2  UNL     1      84.636   2.832 118.849  1.00  0.00    -0.066 N 
ATOM     56  H23 UNL     1      85.343   3.554 118.987  1.00  0.00     0.275 HD
ATOM     57  H22 UNL     1      84.635   2.792 117.830  1.00  0.00     0.275 HD
ATOM     58  H21 UNL     1      83.730   3.139 119.201  1.00  0.00     0.275 HD
ENDBRANCH  52  55
BRANCH  52  59
HETATM   59  C13 UNL     1      84.275   0.414 118.853  1.00  0.00     0.205 C 
BRANCH  59  60
HETATM   60  O5  UNL     1      84.760  -0.762 119.435  1.00  0.00    -0.398 OA
ATOM     61  H5  UNL     1      84.999  -1.363 118.739  1.00  0.00     0.209 HD
ENDBRANCH  59  60
ENDBRANCH  52  59
ENDBRANCH  49  50
ENDBRANCH   2  49
BRANCH   3  62
HETATM   62  N3  UNL     1      87.538  -0.113 124.603  1.00  0.00    -0.072 N 
ATOM     63  H33 UNL     1      87.021  -0.258 125.471  1.00  0.00     0.274 HD
ATOM     64  H32 UNL     1      88.172  -0.912 124.639  1.00  0.00     0.274 HD
ATOM     65  H31 UNL     1      88.066   0.758 124.647  1.00  0.00     0.274 HD
ENDBRANCH   3  62
TORSDOF 21
ENDMDL
MODEL 2
REMARK VINA RESULT: -7.706302928      2.566      6.117
REMARK  21 active torsions:
REMARK  status: ('A' for Active; 'I' for Inactive)
REMARK    1  A    between atoms: N1_1  and  C1_5 
REMARK    2  A    between atoms: C1_5  and  C2_6 
REMARK    3  A    between atoms: C4_8  and  C5_9 
REMARK    4  A    between atoms: C5_9  and  O1_10 
REMARK    5  A    between atoms: C6_12  and  O2_13 
REMARK    6  A    between atoms: C7_15  and  O3_16 
REMARK    7  A    between atoms: O3_16  and  C8_17 
REMARK    8  A    between atoms: C9_18  and  O4_19 
REMARK    9  A    between atoms: O4_19  and  C10_20 
REMARK   10  A    between atoms: C12_22  and  N2_23 
REMARK   11  A    between atoms: C12_22  and  C13_27 
REMARK   12  A    between atoms: C13_27  and  O5_28 
REMARK   13  A    between atoms: C15_32  and  N3_33 
REMARK   14  A    between atoms: C18_39  and  N4_40 
REMARK   15  A    between atoms: C19_44  and  O7_45 
REMARK   16  A    between atoms: O7_45  and  C20_46 
REMARK   17  A    between atoms: C21_48  and  C22_49 
REMARK   18  A    between atoms: C22_49  and  N5_50 
REMARK   19  A    between atoms: C23_54  and  O9_55 
REMARK   20  A    between atoms: C24_57  and  N6_58 
REMARK   21  A    between atoms: C25_62  and  O10_63 
ROOT
HETATM    1  C8  UNL     1      85.167  -0.208 124.429  1.00  0.00     0.186 C 
HETATM    2  C9  UNL     1      84.986  -0.788 123.092  1.00  0.00     0.186 C 
HETATM    3  C15 UNL     1      84.946   0.212 121.955  1.00  0.00     0.215 C 
HETATM    4  C16 UNL     1      86.320   0.546 121.426  1.00  0.00     0.037 C 
HETATM    5  C17 UNL     1      87.135   1.370 122.353  1.00  0.00     0.037 C 
HETATM    6  C18 UNL     1      87.386   0.771 123.700  1.00  0.00     0.215 C 
HETATM    7  C19 UNL     1      86.206   0.851 124.591  1.00  0.00     0.186 C 
ENDROOT
BRANCH   7   8
HETATM    8  O7  UNL     1      85.717   2.156 124.559  1.00  0.00    -0.349 OA
BRANCH   8   9
HETATM    9  C20 UNL     1      84.448   2.315 125.051  1.00  0.00     0.291 C 
HETATM   10  O8  UNL     1      83.725   3.194 124.249  1.00  0.00    -0.349 OA
HETATM   11  C21 UNL     1      84.123   4.510 124.363  1.00  0.00     0.181 C 
HETATM   12  C23 UNL     1      84.814   4.825 125.643  1.00  0.00     0.182 C 
HETATM   13  C24 UNL     1      84.042   4.103 126.754  1.00  0.00     0.247 C 
HETATM   14  C25 UNL     1      84.332   2.615 126.505  1.00  0.00     0.206 C 
BRANCH  11  15
HETATM   15  C22 UNL     1      82.869   5.347 124.254  1.00  0.00     0.264 C 
BRANCH  15  16
HETATM   16  N5  UNL     1      83.040   6.581 123.556  1.00  0.00    -0.077 N 
ATOM     17  H53 UNL     1      83.132   7.353 124.216  1.00  0.00     0.274 HD
ATOM     18  H52 UNL     1      83.959   6.616 123.116  1.00  0.00     0.274 HD
ATOM     19  H51 UNL     1      82.311   6.784 122.872  1.00  0.00     0.274 HD
ENDBRANCH  15  16
ENDBRANCH  11  15
BRANCH  12  20
HETATM   20  O9  UNL     1      84.907   6.185 125.869  1.00  0.00    -0.391 OA
ATOM     21  H9  UNL     1      85.174   6.386 126.758  1.00  0.00     0.210 HD
ENDBRANCH  12  20
BRANCH  13  22
HETATM   22  N6  UNL     1      84.529   4.477 128.061  1.00  0.00    -0.070 N 
ATOM     23  H63 UNL     1      84.973   3.690 128.534  1.00  0.00     0.274 HD
ATOM     24  H62 UNL     1      85.336   5.097 127.996  1.00  0.00     0.274 HD
ATOM     25  H61 UNL     1      83.788   4.886 128.630  1.00  0.00     0.274 HD
ENDBRANCH  13  22
BRANCH  14  26
HETATM   26  O10 UNL     1      85.434   2.314 127.271  1.00  0.00    -0.388 OA
ATOM     27  H10 UNL     1      85.872   1.496 127.065  1.00  0.00     0.210 HD
ENDBRANCH  14  26
ENDBRANCH   8   9
ENDBRANCH   7   8
BRANCH   1  28
HETATM   28  O3  UNL     1      85.361  -1.209 125.378  1.00  0.00    -0.348 OA
BRANCH  28  29
HETATM   29  C7  UNL     1      86.398  -1.019 126.243  1.00  0.00     0.289 C 
HETATM   30  C6  UNL     1      87.147  -2.273 126.630  1.00  0.00     0.179 C 
HETATM   31  C4  UNL     1      86.163  -3.257 127.237  1.00  0.00     0.045 C 
HETATM   32  C3  UNL     1      85.732  -2.603 128.557  1.00  0.00     0.043 C 
HETATM   33  C2  UNL     1      85.198  -1.248 128.214  1.00  0.00     0.150 C 
HETATM   34  O11 UNL     1      86.035  -0.452 127.472  1.00  0.00    -0.352 OA
BRANCH  30  35
HETATM   35  O2  UNL     1      87.966  -2.797 125.682  1.00  0.00    -0.390 OA
ATOM     36  H2  UNL     1      88.284  -2.172 125.041  1.00  0.00     0.210 HD
ENDBRANCH  30  35
BRANCH  31  37
HETATM   37  C5  UNL     1      86.921  -4.534 127.552  1.00  0.00     0.171 C 
BRANCH  37  38
HETATM   38  O1  UNL     1      88.002  -4.288 128.361  1.00  0.00    -0.400 OA
ATOM     39  H1  UNL     1      88.786  -4.121 127.852  1.00  0.00     0.209 HD
ENDBRANCH  37  38
ENDBRANCH  31  37
BRANCH  33  40
HETATM   40  C1  UNL     1      84.970  -0.518 129.541  1.00  0.00     0.261 C 
BRANCH  40  41
HETATM   41  N1  UNL     1      86.162  -0.707 130.338  1.00  0.00    -0.077 N 
ATOM     42  H13 UNL     1      86.644   0.166 130.554  1.00  0.00     0.274 HD
ATOM     43  H12 UNL     1      85.962  -0.987 131.298  1.00  0.00     0.274 HD
ATOM     44  H11 UNL     1      86.750  -1.376 129.840  1.00  0.00     0.274 HD
ENDBRANCH  40  41
ENDBRANCH  33  40
ENDBRANCH  28  29
ENDBRANCH   1  28
BRANCH   6  45
HETATM   45  N4  UNL     1      87.995  -0.539 123.634  1.00  0.00    -0.072 N 
ATOM     46  H43 UNL     1      87.284  -1.269 123.600  1.00  0.00     0.274 HD
ATOM     47  H42 UNL     1      88.435  -0.691 122.727  1.00  0.00     0.274 HD
ATOM     48  H41 UNL     1      88.657  -0.712 124.391  1.00  0.00     0.274 HD
ENDBRANCH   6  45
BRANCH   2  49
HETATM   49  O4  UNL     1      83.782  -1.488 123.000  1.00  0.00    -0.351 OA
BRANCH  49  50
HETATM   50  C10 UNL     1      83.292  -1.496 121.697  1.00  0.00     0.262 C 
HETATM   51  C11 UNL     1      81.813  -1.147 121.667  1.00  0.00     0.104 C 
HETATM   52  C12 UNL     1      81.421  -1.662 120.298  1.00  0.00     0.170 C 
HETATM   53  C14 UNL     1      82.378  -2.812 120.128  1.00  0.00     0.212 C 
HETATM   54  O6  UNL     1      83.386  -2.677 121.031  1.00  0.00    -0.359 OA
BRANCH  52  55
HETATM   55  N2  UNL     1      81.661  -0.714 119.247  1.00  0.00    -0.066 N 
ATOM     56  H23 UNL     1      80.783  -0.353 118.877  1.00  0.00     0.275 HD
ATOM     57  H22 UNL     1      82.054   0.150 119.620  1.00  0.00     0.275 HD
ATOM     58  H21 UNL     1      82.246  -1.084 118.498  1.00  0.00     0.275 HD
ENDBRANCH  52  55
BRANCH  52  59
HETATM   59  C13 UNL     1      79.983  -2.140 120.308  1.00  0.00     0.205 C 
BRANCH  59  60
HETATM   60  O5  UNL     1      79.653  -2.570 119.019  1.00  0.00    -0.398 OA
ATOM     61  H5  UNL     1      80.151  -2.055 118.396  1.00  0.00     0.209 HD
ENDBRANCH  59  60
ENDBRANCH  52  59
ENDBRANCH  49  50
ENDBRANCH   2  49
BRANCH   3  62
HETATM   62  N3  UNL     1      84.106   1.342 122.182  1.00  0.00    -0.072 N 
ATOM     63  H33 UNL     1      83.627   1.252 123.078  1.00  0.00     0.274 HD
ATOM     64  H32 UNL     1      84.672   2.171 122.366  1.00  0.00     0.274 HD
ATOM     65  H31 UNL     1      83.433   1.531 121.439  1.00  0.00     0.274 HD
ENDBRANCH   3  62
TORSDOF 21
ENDMDL
MODEL 3
REMARK VINA RESULT: -7.500642727      2.694      6.001
REMARK  21 active torsions:
REMARK  status: ('A' for Active; 'I' for Inactive)
REMARK    1  A    between atoms: N1_1  and  C1_5 
REMARK    2  A    between atoms: C1_5  and  C2_6 
REMARK    3  A    between atoms: C4_8  and  C5_9 
REMARK    4  A    between atoms: C5_9  and  O1_10 
REMARK    5  A    between atoms: C6_12  and  O2_13 
REMARK    6  A    between atoms: C7_15  and  O3_16 
REMARK    7  A    between atoms: O3_16  and  C8_17 
REMARK    8  A    between atoms: C9_18  and  O4_19 
REMARK    9  A    between atoms: O4_19  and  C10_20 
REMARK   10  A    between atoms: C12_22  and  N2_23 
REMARK   11  A    between atoms: C12_22  and  C13_27 
REMARK   12  A    between atoms: C13_27  and  O5_28 
REMARK   13  A    between atoms: C15_32  and  N3_33 
REMARK   14  A    between atoms: C18_39  and  N4_40 
REMARK   15  A    between atoms: C19_44  and  O7_45 
REMARK   16  A    between atoms: O7_45  and  C20_46 
REMARK   17  A    between atoms: C21_48  and  C22_49 
REMARK   18  A    between atoms: C22_49  and  N5_50 
REMARK   19  A    between atoms: C23_54  and  O9_55 
REMARK   20  A    between atoms: C24_57  and  N6_58 
REMARK   21  A    between atoms: C25_62  and  O10_63 
ROOT
HETATM    1  C8  UNL     1      83.905   4.220 122.359  1.00  0.00     0.186 C 
HETATM    2  C9  UNL     1      83.590   4.784 121.040  1.00  0.00     0.186 C 
HETATM    3  C15 UNL     1      82.882   6.124 121.065  1.00  0.00     0.215 C 
HETATM    4  C16 UNL     1      83.844   7.287 121.132  1.00  0.00     0.037 C 
HETATM    5  C17 UNL     1      84.525   7.427 122.442  1.00  0.00     0.037 C 
HETATM    6  C18 UNL     1      85.332   6.247 122.881  1.00  0.00     0.215 C 
HETATM    7  C19 UNL     1      84.494   5.134 123.382  1.00  0.00     0.186 C 
ENDROOT
BRANCH   7   8
HETATM    8  O7  UNL     1      83.578   5.650 124.297  1.00  0.00    -0.349 OA
BRANCH   8   9
HETATM    9  C20 UNL     1      84.020   5.712 125.593  1.00  0.00     0.291 C 
HETATM   10  O8  UNL     1      83.904   4.467 126.204  1.00  0.00    -0.349 OA
HETATM   11  C21 UNL     1      82.603   4.101 126.481  1.00  0.00     0.181 C 
HETATM   12  C23 UNL     1      81.661   5.248 126.595  1.00  0.00     0.182 C 
HETATM   13  C24 UNL     1      82.389   6.343 127.383  1.00  0.00     0.247 C 
HETATM   14  C25 UNL     1      83.487   6.828 126.424  1.00  0.00     0.206 C 
BRANCH  11  15
HETATM   15  C22 UNL     1      82.639   3.353 127.794  1.00  0.00     0.264 C 
BRANCH  15  16
HETATM   16  N5  UNL     1      83.933   3.274 128.394  1.00  0.00    -0.077 N 
ATOM     17  H53 UNL     1      84.578   2.772 127.784  1.00  0.00     0.274 HD
ATOM     18  H52 UNL     1      84.378   4.191 128.402  1.00  0.00     0.274 HD
ATOM     19  H51 UNL     1      83.941   2.867 129.330  1.00  0.00     0.274 HD
ENDBRANCH  15  16
ENDBRANCH  11  15
BRANCH  12  20
HETATM   20  O9  UNL     1      80.464   4.888 127.182  1.00  0.00    -0.391 OA
ATOM     21  H9  UNL     1      79.990   5.637 127.525  1.00  0.00     0.210 HD
ENDBRANCH  12  20
BRANCH  13  22
HETATM   22  N6  UNL     1      81.504   7.441 127.697  1.00  0.00    -0.070 N 
ATOM     23  H63 UNL     1      80.989   7.753 126.874  1.00  0.00     0.274 HD
ATOM     24  H62 UNL     1      80.717   7.135 128.268  1.00  0.00     0.274 HD
ATOM     25  H61 UNL     1      82.009   8.210 128.137  1.00  0.00     0.274 HD
ENDBRANCH  13  22
BRANCH  14  26
HETATM   26  O10 UNL     1      82.942   7.885 125.733  1.00  0.00    -0.388 OA
ATOM     27  H10 UNL     1      82.632   8.611 126.261  1.00  0.00     0.210 HD
ENDBRANCH  14  26
ENDBRANCH   8   9
ENDBRANCH   7   8
BRANCH   1  28
HETATM   28  O3  UNL     1      84.698   3.082 122.230  1.00  0.00    -0.348 OA
BRANCH  28  29
HETATM   29  C7  UNL     1      85.077   2.484 123.396  1.00  0.00     0.289 C 
HETATM   30  C6  UNL     1      86.544   2.130 123.487  1.00  0.00     0.179 C 
HETATM   31  C4  UNL     1      86.897   1.225 122.321  1.00  0.00     0.045 C 
HETATM   32  C3  UNL     1      86.135  -0.078 122.604  1.00  0.00     0.043 C 
HETATM   33  C2  UNL     1      84.693   0.289 122.752  1.00  0.00     0.150 C 
HETATM   34  O11 UNL     1      84.423   1.275 123.670  1.00  0.00    -0.352 OA
BRANCH  30  35
HETATM   35  O2  UNL     1      87.397   3.169 123.681  1.00  0.00    -0.390 OA
ATOM     36  H2  UNL     1      87.488   3.446 124.586  1.00  0.00     0.210 HD
ENDBRANCH  30  35
BRANCH  31  37
HETATM   37  C5  UNL     1      88.386   0.941 122.391  1.00  0.00     0.171 C 
BRANCH  37  38
HETATM   38  O1  UNL     1      88.652  -0.156 123.173  1.00  0.00    -0.400 OA
ATOM     39  H1  UNL     1      89.012   0.097 124.014  1.00  0.00     0.209 HD
ENDBRANCH  37  38
ENDBRANCH  31  37
BRANCH  33  40
HETATM   40  C1  UNL     1      83.968  -0.968 123.243  1.00  0.00     0.261 C 
BRANCH  40  41
HETATM   41  N1  UNL     1      84.021  -1.933 122.166  1.00  0.00    -0.077 N 
ATOM     42  H13 UNL     1      84.967  -2.104 121.826  1.00  0.00     0.274 HD
ATOM     43  H12 UNL     1      83.818  -2.885 122.470  1.00  0.00     0.274 HD
ATOM     44  H11 UNL     1      83.387  -1.602 121.438  1.00  0.00     0.274 HD
ENDBRANCH  40  41
ENDBRANCH  33  40
ENDBRANCH  28  29
ENDBRANCH   1  28
BRANCH   6  45
HETATM   45  N4  UNL     1      86.331   5.850 121.912  1.00  0.00    -0.072 N 
ATOM     46  H43 UNL     1      85.932   5.811 120.975  1.00  0.00     0.274 HD
ATOM     47  H42 UNL     1      87.015   6.592 121.771  1.00  0.00     0.274 HD
ATOM     48  H41 UNL     1      86.791   4.971 122.148  1.00  0.00     0.274 HD
ENDBRANCH   6  45
BRANCH   2  49
HETATM   49  O4  UNL     1      82.743   3.943 120.317  1.00  0.00    -0.351 OA
BRANCH  49  50
HETATM   50  C10 UNL     1      83.420   3.299 119.285  1.00  0.00     0.262 C 
HETATM   51  C11 UNL     1      82.743   1.988 118.921  1.00  0.00     0.104 C 
HETATM   52  C12 UNL     1      83.855   1.285 118.170  1.00  0.00     0.170 C 
HETATM   53  C14 UNL     1      85.074   1.847 118.850  1.00  0.00     0.212 C 
HETATM   54  O6  UNL     1      84.713   2.965 119.537  1.00  0.00    -0.359 OA
BRANCH  52  55
HETATM   55  N2  UNL     1      83.909   1.638 116.780  1.00  0.00    -0.066 N 
ATOM     56  H23 UNL     1      82.999   1.963 116.452  1.00  0.00     0.275 HD
ATOM     57  H22 UNL     1      84.451   2.491 116.642  1.00  0.00     0.275 HD
ATOM     58  H21 UNL     1      84.260   0.885 116.188  1.00  0.00     0.275 HD
ENDBRANCH  52  55
BRANCH  52  59
HETATM   59  C13 UNL     1      83.756  -0.214 118.368  1.00  0.00     0.205 C 
BRANCH  59  60
HETATM   60  O5  UNL     1      84.679  -0.590 119.349  1.00  0.00    -0.398 OA
ATOM     61  H5  UNL     1      84.304  -1.302 119.854  1.00  0.00     0.209 HD
ENDBRANCH  59  60
ENDBRANCH  52  59
ENDBRANCH  49  50
ENDBRANCH   2  49
BRANCH   3  62
HETATM   62  N3  UNL     1      81.787   6.206 121.975  1.00  0.00    -0.072 N 
ATOM     63  H33 UNL     1      80.925   5.908 121.517  1.00  0.00     0.274 HD
ATOM     64  H32 UNL     1      81.867   5.483 122.690  1.00  0.00     0.274 HD
ATOM     65  H31 UNL     1      81.659   7.120 122.408  1.00  0.00     0.274 HD
ENDBRANCH   3  62
TORSDOF 21
ENDMDL
MODEL 4
REMARK VINA RESULT: -7.477093855      2.193      6.914
REMARK  21 active torsions:
REMARK  status: ('A' for Active; 'I' for Inactive)
REMARK    1  A    between atoms: N1_1  and  C1_5 
REMARK    2  A    between atoms: C1_5  and  C2_6 
REMARK    3  A    between atoms: C4_8  and  C5_9 
REMARK    4  A    between atoms: C5_9  and  O1_10 
REMARK    5  A    between atoms: C6_12  and  O2_13 
REMARK    6  A    between atoms: C7_15  and  O3_16 
REMARK    7  A    between atoms: O3_16  and  C8_17 
REMARK    8  A    between atoms: C9_18  and  O4_19 
REMARK    9  A    between atoms: O4_19  and  C10_20 
REMARK   10  A    between atoms: C12_22  and  N2_23 
REMARK   11  A    between atoms: C12_22  and  C13_27 
REMARK   12  A    between atoms: C13_27  and  O5_28 
REMARK   13  A    between atoms: C15_32  and  N3_33 
REMARK   14  A    between atoms: C18_39  and  N4_40 
REMARK   15  A    between atoms: C19_44  and  O7_45 
REMARK   16  A    between atoms: O7_45  and  C20_46 
REMARK   17  A    between atoms: C21_48  and  C22_49 
REMARK   18  A    between atoms: C22_49  and  N5_50 
REMARK   19  A    between atoms: C23_54  and  O9_55 
REMARK   20  A    between atoms: C24_57  and  N6_58 
REMARK   21  A    between atoms: C25_62  and  O10_63 
ROOT
HETATM    1  C8  UNL     1      84.139   1.846 124.410  1.00  0.00     0.186 C 
HETATM    2  C9  UNL     1      85.040   1.522 125.524  1.00  0.00     0.186 C 
HETATM    3  C15 UNL     1      85.675   0.148 125.460  1.00  0.00     0.215 C 
HETATM    4  C16 UNL     1      86.955   0.136 124.659  1.00  0.00     0.037 C 
HETATM    5  C17 UNL     1      86.749   0.299 123.198  1.00  0.00     0.037 C 
HETATM    6  C18 UNL     1      86.055   1.556 122.780  1.00  0.00     0.215 C 
HETATM    7  C19 UNL     1      84.597   1.515 123.028  1.00  0.00     0.186 C 
ENDROOT
BRANCH   7   8
HETATM    8  O7  UNL     1      84.096   0.317 122.522  1.00  0.00    -0.349 OA
BRANCH   8   9
HETATM    9  C20 UNL     1      84.452   0.038 121.228  1.00  0.00     0.291 C 
HETATM   10  O8  UNL     1      83.482   0.507 120.347  1.00  0.00    -0.349 OA
HETATM   11  C21 UNL     1      82.310  -0.221 120.367  1.00  0.00     0.181 C 
HETATM   12  C23 UNL     1      82.471  -1.614 120.865  1.00  0.00     0.182 C 
HETATM   13  C24 UNL     1      83.765  -2.160 120.248  1.00  0.00     0.247 C 
HETATM   14  C25 UNL     1      84.877  -1.361 120.943  1.00  0.00     0.206 C 
BRANCH  11  15
HETATM   15  C22 UNL     1      81.804  -0.255 118.944  1.00  0.00     0.264 C 
BRANCH  15  16
HETATM   16  N5  UNL     1      80.391  -0.428 118.822  1.00  0.00    -0.077 N 
ATOM     17  H53 UNL     1      80.009   0.234 118.147  1.00  0.00     0.274 HD
ATOM     18  H52 UNL     1      80.180  -1.304 118.345  1.00  0.00     0.274 HD
ATOM     19  H51 UNL     1      79.880  -0.372 119.703  1.00  0.00     0.274 HD
ENDBRANCH  15  16
ENDBRANCH  11  15
BRANCH  12  20
HETATM   20  O9  UNL     1      81.377  -2.406 120.574  1.00  0.00    -0.391 OA
ATOM     21  H9  UNL     1      80.757  -1.969 120.002  1.00  0.00     0.210 HD
ENDBRANCH  12  20
BRANCH  13  22
HETATM   22  N6  UNL     1      83.930  -3.566 120.532  1.00  0.00    -0.070 N 
ATOM     23  H63 UNL     1      84.892  -3.785 120.790  1.00  0.00     0.274 HD
ATOM     24  H62 UNL     1      83.470  -3.829 121.403  1.00  0.00     0.274 HD
ATOM     25  H61 UNL     1      83.612  -4.142 119.753  1.00  0.00     0.274 HD
ENDBRANCH  13  22
BRANCH  14  26
HETATM   26  O10 UNL     1      85.251  -2.111 122.035  1.00  0.00    -0.388 OA
ATOM     27  H10 UNL     1      85.220  -1.666 122.874  1.00  0.00     0.210 HD
ENDBRANCH  14  26
ENDBRANCH   8   9
ENDBRANCH   7   8
BRANCH   1  28
HETATM   28  O3  UNL     1      83.743   3.181 124.470  1.00  0.00    -0.348 OA
BRANCH  28  29
HETATM   29  C7  UNL     1      84.749   4.102 124.479  1.00  0.00     0.289 C 
HETATM   30  C6  UNL     1      84.659   5.137 125.577  1.00  0.00     0.179 C 
HETATM   31  C4  UNL     1      83.326   5.853 125.459  1.00  0.00     0.045 C 
HETATM   32  C3  UNL     1      83.430   6.643 124.147  1.00  0.00     0.043 C 
HETATM   33  C2  UNL     1      83.755   5.654 123.073  1.00  0.00     0.150 C 
HETATM   34  O11 UNL     1      84.853   4.863 123.307  1.00  0.00    -0.352 OA
BRANCH  30  35
HETATM   35  O2  UNL     1      84.969   4.709 126.828  1.00  0.00    -0.390 OA
ATOM     36  H2  UNL     1      84.642   5.259 127.531  1.00  0.00     0.210 HD
ENDBRANCH  30  35
BRANCH  31  37
HETATM   37  C5  UNL     1      83.226   6.836 126.611  1.00  0.00     0.171 C 
BRANCH  37  38
HETATM   38  O1  UNL     1      84.290   7.703 126.624  1.00  0.00    -0.400 OA
ATOM     39  H1  UNL     1      84.221   8.327 127.338  1.00  0.00     0.209 HD
ENDBRANCH  37  38
ENDBRANCH  31  37
BRANCH  33  40
HETATM   40  C1  UNL     1      84.069   6.465 121.811  1.00  0.00     0.261 C 
BRANCH  40  41
HETATM   41  N1  UNL     1      84.368   5.515 120.762  1.00  0.00    -0.077 N 
ATOM     42  H13 UNL     1      84.718   5.955 119.910  1.00  0.00     0.274 HD
ATOM     43  H12 UNL     1      85.189   4.944 120.960  1.00  0.00     0.274 HD
ATOM     44  H11 UNL     1      83.524   4.963 120.610  1.00  0.00     0.274 HD
ENDBRANCH  40  41
ENDBRANCH  33  40
ENDBRANCH  28  29
ENDBRANCH   1  28
BRANCH   6  45
HETATM   45  N4  UNL     1      86.708   2.753 123.263  1.00  0.00    -0.072 N 
ATOM     46  H43 UNL     1      86.641   3.505 122.577  1.00  0.00     0.274 HD
ATOM     47  H42 UNL     1      86.179   3.174 124.025  1.00  0.00     0.274 HD
ATOM     48  H41 UNL     1      87.678   2.597 123.537  1.00  0.00     0.274 HD
ENDBRANCH   6  45
BRANCH   2  49
HETATM   49  O4  UNL     1      84.368   1.553 126.747  1.00  0.00    -0.351 OA
BRANCH  49  50
HETATM   50  C10 UNL     1      85.230   1.307 127.811  1.00  0.00     0.262 C 
HETATM   51  C11 UNL     1      84.545   0.490 128.894  1.00  0.00     0.104 C 
HETATM   52  C12 UNL     1      85.456   0.750 130.075  1.00  0.00     0.170 C 
HETATM   53  C14 UNL     1      85.955   2.136 129.766  1.00  0.00     0.212 C 
HETATM   54  O6  UNL     1      85.712   2.404 128.455  1.00  0.00    -0.359 OA
BRANCH  52  55
HETATM   55  N2  UNL     1      86.583  -0.137 130.126  1.00  0.00    -0.066 N 
ATOM     56  H23 UNL     1      86.278  -1.106 130.221  1.00  0.00     0.275 HD
ATOM     57  H22 UNL     1      87.042  -0.193 129.217  1.00  0.00     0.275 HD
ATOM     58  H21 UNL     1      87.252   0.106 130.857  1.00  0.00     0.275 HD
ENDBRANCH  52  55
BRANCH  52  59
HETATM   59  C13 UNL     1      84.661   0.728 131.366  1.00  0.00     0.205 C 
BRANCH  59  60
HETATM   60  O5  UNL     1      83.914   1.907 131.443  1.00  0.00    -0.398 OA
ATOM     61  H5  UNL     1      83.631   2.023 132.343  1.00  0.00     0.209 HD
ENDBRANCH  59  60
ENDBRANCH  52  59
ENDBRANCH  49  50
ENDBRANCH   2  49
BRANCH   3  62
HETATM   62  N3  UNL     1      84.773  -0.914 125.155  1.00  0.00    -0.072 N 
ATOM     63  H33 UNL     1      85.191  -1.813 125.399  1.00  0.00     0.274 HD
ATOM     64  H32 UNL     1      83.984  -0.905 125.801  1.00  0.00     0.274 HD
ATOM     65  H31 UNL     1      84.441  -0.929 124.191  1.00  0.00     0.274 HD
ENDBRANCH   3  62
TORSDOF 21
ENDMDL
MODEL 5
REMARK VINA RESULT: -7.418384986      2.235      7.231
REMARK  21 active torsions:
REMARK  status: ('A' for Active; 'I' for Inactive)
REMARK    1  A    between atoms: N1_1  and  C1_5 
REMARK    2  A    between atoms: C1_5  and  C2_6 
REMARK    3  A    between atoms: C4_8  and  C5_9 
REMARK    4  A    between atoms: C5_9  and  O1_10 
REMARK    5  A    between atoms: C6_12  and  O2_13 
REMARK    6  A    between atoms: C7_15  and  O3_16 
REMARK    7  A    between atoms: O3_16  and  C8_17 
REMARK    8  A    between atoms: C9_18  and  O4_19 
REMARK    9  A    between atoms: O4_19  and  C10_20 
REMARK   10  A    between atoms: C12_22  and  N2_23 
REMARK   11  A    between atoms: C12_22  and  C13_27 
REMARK   12  A    between atoms: C13_27  and  O5_28 
REMARK   13  A    between atoms: C15_32  and  N3_33 
REMARK   14  A    between atoms: C18_39  and  N4_40 
REMARK   15  A    between atoms: C19_44  and  O7_45 
REMARK   16  A    between atoms: O7_45  and  C20_46 
REMARK   17  A    between atoms: C21_48  and  C22_49 
REMARK   18  A    between atoms: C22_49  and  N5_50 
REMARK   19  A    between atoms: C23_54  and  O9_55 
REMARK   20  A    between atoms: C24_57  and  N6_58 
REMARK   21  A    between atoms: C25_62  and  O10_63 
ROOT
HETATM    1  C8  UNL     1      84.414   1.951 124.539  1.00  0.00     0.186 C 
HETATM    2  C9  UNL     1      85.217   1.395 125.636  1.00  0.00     0.186 C 
HETATM    3  C15 UNL     1      85.662  -0.041 125.444  1.00  0.00     0.215 C 
HETATM    4  C16 UNL     1      86.961  -0.149 124.681  1.00  0.00     0.037 C 
HETATM    5  C17 UNL     1      86.839   0.188 123.241  1.00  0.00     0.037 C 
HETATM    6  C18 UNL     1      86.339   1.564 122.939  1.00  0.00     0.215 C 
HETATM    7  C19 UNL     1      84.879   1.701 123.143  1.00  0.00     0.186 C 
ENDROOT
BRANCH   7   8
HETATM    8  O7  UNL     1      84.243   0.641 122.499  1.00  0.00    -0.349 OA
BRANCH   8   9
HETATM    9  C20 UNL     1      84.755   0.312 121.271  1.00  0.00     0.291 C 
HETATM   10  O8  UNL     1      84.083   1.000 120.266  1.00  0.00    -0.349 OA
HETATM   11  C21 UNL     1      82.797   0.549 120.045  1.00  0.00     0.181 C 
HETATM   12  C23 UNL     1      82.563  -0.853 120.484  1.00  0.00     0.182 C 
HETATM   13  C24 UNL     1      83.798  -1.661 120.067  1.00  0.00     0.247 C 
HETATM   14  C25 UNL     1      84.914  -1.141 120.985  1.00  0.00     0.206 C 
BRANCH  11  15
HETATM   15  C22 UNL     1      82.558   0.653 118.556  1.00  0.00     0.264 C 
BRANCH  15  16
HETATM   16  N5  UNL     1      81.223   1.009 118.194  1.00  0.00    -0.077 N 
ATOM     17  H53 UNL     1      80.940   0.514 117.349  1.00  0.00     0.274 HD
ATOM     18  H52 UNL     1      80.557   0.613 118.859  1.00  0.00     0.274 HD
ATOM     19  H51 UNL     1      81.066   2.011 118.089  1.00  0.00     0.274 HD
ENDBRANCH  15  16
ENDBRANCH  11  15
BRANCH  12  20
HETATM   20  O9  UNL     1      81.394  -1.378 119.966  1.00  0.00    -0.391 OA
ATOM     21  H9  UNL     1      81.155  -2.200 120.377  1.00  0.00     0.210 HD
ENDBRANCH  12  20
BRANCH  13  22
HETATM   22  N6  UNL     1      83.603  -3.074 120.295  1.00  0.00    -0.070 N 
ATOM     23  H63 UNL     1      84.492  -3.572 120.333  1.00  0.00     0.274 HD
ATOM     24  H62 UNL     1      83.280  -3.258 121.245  1.00  0.00     0.274 HD
ATOM     25  H61 UNL     1      82.976  -3.479 119.601  1.00  0.00     0.274 HD
ENDBRANCH  13  22
BRANCH  14  26
HETATM   26  O10 UNL     1      84.916  -1.973 122.081  1.00  0.00    -0.388 OA
ATOM     27  H10 UNL     1      84.217  -2.615 122.116  1.00  0.00     0.210 HD
ENDBRANCH  14  26
ENDBRANCH   8   9
ENDBRANCH   7   8
BRANCH   1  28
HETATM   28  O3  UNL     1      84.201   3.315 124.728  1.00  0.00    -0.348 OA
BRANCH  28  29
HETATM   29  C7  UNL     1      82.937   3.676 125.091  1.00  0.00     0.289 C 
HETATM   30  C6  UNL     1      82.480   5.019 124.568  1.00  0.00     0.179 C 
HETATM   31  C4  UNL     1      83.458   6.080 125.037  1.00  0.00     0.045 C 
HETATM   32  C3  UNL     1      83.261   6.136 126.558  1.00  0.00     0.043 C 
HETATM   33  C2  UNL     1      83.482   4.748 127.073  1.00  0.00     0.150 C 
HETATM   34  O11 UNL     1      82.731   3.767 126.473  1.00  0.00    -0.352 OA
BRANCH  30  35
HETATM   35  O2  UNL     1      82.172   5.072 123.246  1.00  0.00    -0.390 OA
ATOM     36  H2  UNL     1      81.263   4.887 123.040  1.00  0.00     0.210 HD
ENDBRANCH  30  35
BRANCH  31  37
HETATM   37  C5  UNL     1      83.022   7.407 124.442  1.00  0.00     0.171 C 
BRANCH  37  38
HETATM   38  O1  UNL     1      81.655   7.489 124.350  1.00  0.00    -0.400 OA
ATOM     39  H1  UNL     1      81.385   7.863 123.519  1.00  0.00     0.209 HD
ENDBRANCH  37  38
ENDBRANCH  31  37
BRANCH  33  40
HETATM   40  C1  UNL     1      83.078   4.760 128.551  1.00  0.00     0.261 C 
BRANCH  40  41
HETATM   41  N1  UNL     1      82.780   3.392 128.918  1.00  0.00    -0.077 N 
ATOM     42  H13 UNL     1      83.446   2.720 128.537  1.00  0.00     0.274 HD
ATOM     43  H12 UNL     1      82.947   3.196 129.904  1.00  0.00     0.274 HD
ATOM     44  H11 UNL     1      81.818   3.210 128.630  1.00  0.00     0.274 HD
ENDBRANCH  40  41
ENDBRANCH  33  40
ENDBRANCH  28  29
ENDBRANCH   1  28
BRANCH   6  45
HETATM   45  N4  UNL     1      87.128   2.605 123.563  1.00  0.00    -0.072 N 
ATOM     46  H43 UNL     1      88.060   2.650 123.151  1.00  0.00     0.274 HD
ATOM     47  H42 UNL     1      86.784   3.528 123.300  1.00  0.00     0.274 HD
ATOM     48  H41 UNL     1      87.182   2.512 124.577  1.00  0.00     0.274 HD
ENDBRANCH   6  45
BRANCH   2  49
HETATM   49  O4  UNL     1      84.506   1.395 126.837  1.00  0.00    -0.351 OA
BRANCH  49  50
HETATM   50  C10 UNL     1      85.348   1.215 127.931  1.00  0.00     0.262 C 
HETATM   51  C11 UNL     1      84.661   0.414 129.024  1.00  0.00     0.104 C 
HETATM   52  C12 UNL     1      85.532   0.745 130.218  1.00  0.00     0.170 C 
HETATM   53  C14 UNL     1      85.995   2.134 129.872  1.00  0.00     0.212 C 
HETATM   54  O6  UNL     1      85.777   2.349 128.547  1.00  0.00    -0.359 OA
BRANCH  52  55
HETATM   55  N2  UNL     1      86.686  -0.102 130.328  1.00  0.00    -0.066 N 
ATOM     56  H23 UNL     1      87.544   0.434 130.195  1.00  0.00     0.275 HD
ATOM     57  H22 UNL     1      86.824  -0.403 131.293  1.00  0.00     0.275 HD
ATOM     58  H21 UNL     1      86.658  -0.903 129.698  1.00  0.00     0.275 HD
ENDBRANCH  52  55
BRANCH  52  59
HETATM   59  C13 UNL     1      84.706   0.740 131.488  1.00  0.00     0.205 C 
BRANCH  59  60
HETATM   60  O5  UNL     1      83.885   1.873 131.484  1.00  0.00    -0.398 OA
ATOM     61  H5  UNL     1      83.411   1.901 132.306  1.00  0.00     0.209 HD
ENDBRANCH  59  60
ENDBRANCH  52  59
ENDBRANCH  49  50
ENDBRANCH   2  49
BRANCH   3  62
HETATM   62  N3  UNL     1      84.639  -0.931 125.005  1.00  0.00    -0.072 N 
ATOM     63  H33 UNL     1      84.038  -1.191 125.787  1.00  0.00     0.274 HD
ATOM     64  H32 UNL     1      83.965  -0.435 124.421  1.00  0.00     0.274 HD
ATOM     65  H31 UNL     1      84.975  -1.766 124.525  1.00  0.00     0.274 HD
ENDBRANCH   3  62
TORSDOF 21
ENDMDL
