MODEL 1
REMARK VINA RESULT: -8.051437197      0.000      0.000
REMARK  19 active torsions:
REMARK  status: ('A' for Active; 'I' for Inactive)
REMARK    1  A    between atoms: O1_2  and  C2_3 
REMARK    2  A    between atoms: C3_4  and  O2_5 
REMARK    3  A    between atoms: O2_5  and  C4_6 
REMARK    4  A    between atoms: C5_7  and  N1_8 
REMARK    5  A    between atoms: C8_14  and  O3_15 
REMARK    6  A    between atoms: O3_15  and  C9_16 
REMARK    7  A    between atoms: C10_18  and  N2_19 
REMARK    8  A    between atoms: N2_19  and  N3_20 
REMARK    9  A    between atoms: C11_25  and  O5_26 
REMARK   10  A    between atoms: C12_28  and  N5_29 
REMARK   11  A    between atoms: C14_35  and  C15_36 
REMARK   12  A    between atoms: C15_36  and  O7_37 
REMARK   13  A    between atoms: O7_37  and  C16_38 
REMARK   14  A    between atoms: C17_39  and  N6_40 
REMARK   15  A    between atoms: C19_45  and  N7_46 
REMARK   16  A    between atoms: C20_50  and  O8_51 
REMARK   17  A    between atoms: C21_53  and  O9_54 
REMARK   18  A    between atoms: C22_56  and  O10_57 
REMARK   19  A    between atoms: O10_57  and  N8_58 
ROOT
HETATM    1  C2  UNL     1      86.004   0.906 123.064  1.00  0.00     0.186 C 
HETATM    2  C3  UNL     1      85.101   2.134 123.067  1.00  0.00     0.177 C 
HETATM    3  C13 UNL     1      85.024   2.682 124.489  1.00  0.00     0.203 C 
HETATM    4  O6  UNL     1      86.053   2.140 125.258  1.00  0.00    -0.378 OA
HETATM    5  C14 UNL     1      85.858   0.821 125.504  1.00  0.00     0.179 C 
HETATM    6  C22 UNL     1      85.549   0.065 124.249  1.00  0.00     0.221 C 
ENDROOT
BRANCH   2   7
HETATM    7  O2  UNL     1      85.710   3.096 122.279  1.00  0.00    -0.370 OA
BRANCH   7   8
HETATM    8  C4  UNL     1      85.340   4.387 122.630  1.00  0.00     0.189 C 
HETATM    9  C5  UNL     1      86.261   5.307 121.814  1.00  0.00     0.237 C 
HETATM   10  C6  UNL     1      85.682   5.153 120.450  1.00  0.00     0.007 C 
HETATM   11  C7  UNL     1      84.403   4.803 120.520  1.00  0.00     0.006 C 
HETATM   12  C8  UNL     1      84.015   4.693 121.977  1.00  0.00     0.178 C 
BRANCH   9  13
HETATM   13  N1  UNL     1      86.192   6.663 122.300  1.00  0.00    -0.069 N 
ATOM     14  H13 UNL     1      85.241   7.029 122.264  1.00  0.00     0.275 HD
ATOM     15  H12 UNL     1      86.337   6.710 123.309  1.00  0.00     0.275 HD
ATOM     16  H11 UNL     1      86.846   7.262 121.797  1.00  0.00     0.275 HD
ENDBRANCH   9  13
BRANCH  12  17
HETATM   17  O3  UNL     1      83.513   5.931 122.363  1.00  0.00    -0.347 OA
BRANCH  17  18
HETATM   18  C9  UNL     1      83.348   5.943 123.724  1.00  0.00     0.299 C 
HETATM   19  O4  UNL     1      83.995   6.977 124.376  1.00  0.00    -0.319 OA
HETATM   20  C10 UNL     1      84.031   6.749 125.733  1.00  0.00     0.340 C 
HETATM   21  N4  UNL     1      83.138   5.720 126.177  1.00  0.00    -0.355 N 
HETATM   22  C11 UNL     1      81.829   5.769 125.614  1.00  0.00     0.252 C 
ATOM     23  H4  UNL     1      83.419   5.003 126.847  1.00  0.00     0.159 HD
HETATM   24  C12 UNL     1      81.869   6.047 124.118  1.00  0.00     0.286 C 
BRANCH  20  25
HETATM   25  N2  UNL     1      83.843   7.941 126.529  1.00  0.00    -0.095 NA
BRANCH  25  26
HETATM   26  N3  UNL     1      83.415   7.541 127.800  1.00  0.00    -0.344 N 
ATOM     27  H32 UNL     1      83.938   7.668 128.666  1.00  0.00     0.172 HD
ATOM     28  H31 UNL     1      82.497   7.108 127.696  1.00  0.00     0.172 HD
ENDBRANCH  25  26
ENDBRANCH  20  25
BRANCH  22  29
HETATM   29  O5  UNL     1      80.977   6.625 126.289  1.00  0.00    -0.375 OA
ATOM     30  H5  UNL     1      80.118   6.691 125.890  1.00  0.00     0.212 HD
ENDBRANCH  22  29
BRANCH  24  31
HETATM   31  N5  UNL     1      81.430   7.410 123.928  1.00  0.00    -0.066 N 
ATOM     32  H53 UNL     1      81.431   7.943 124.797  1.00  0.00     0.275 HD
ATOM     33  H52 UNL     1      82.111   7.970 123.416  1.00  0.00     0.275 HD
ATOM     34  H51 UNL     1      80.516   7.401 123.477  1.00  0.00     0.275 HD
ENDBRANCH  24  31
ENDBRANCH  17  18
ENDBRANCH  12  17
ENDBRANCH   7   8
ENDBRANCH   2   7
BRANCH   1  35
HETATM   35  O1  UNL     1      87.296   1.317 123.364  1.00  0.00    -0.385 OA
HETATM   36  C1  UNL     1      88.182   0.746 122.485  1.00  0.00     0.202 C 
ENDBRANCH   1  35
BRANCH   6  37
HETATM   37  O10 UNL     1      84.127  -0.020 124.134  1.00  0.00    -0.210 OA
BRANCH  37  38
HETATM   38  N8  UNL     1      83.494  -0.767 123.212  1.00  0.00     0.005 N 
HETATM   39  O11 UNL     1      84.070  -1.717 122.667  1.00  0.00    -0.511 OA
HETATM   40  O12 UNL     1      82.203  -0.489 122.863  1.00  0.00    -0.511 OA
ENDBRANCH  37  38
ENDBRANCH   6  37
BRANCH   5  41
HETATM   41  C15 UNL     1      84.835   0.554 126.598  1.00  0.00     0.203 C 
BRANCH  41  42
HETATM   42  O7  UNL     1      85.155   1.356 127.662  1.00  0.00    -0.379 OA
BRANCH  42  43
HETATM   43  C16 UNL     1      84.110   1.719 128.465  1.00  0.00     0.183 C 
HETATM   44  C17 UNL     1      84.389   1.385 129.916  1.00  0.00     0.217 C 
HETATM   45  C18 UNL     1      83.289   1.866 130.809  1.00  0.00     0.071 C 
HETATM   46  C19 UNL     1      82.793   3.240 130.511  1.00  0.00     0.216 C 
HETATM   47  C20 UNL     1      83.679   3.958 129.532  1.00  0.00     0.179 C 
HETATM   48  C21 UNL     1      83.839   3.188 128.247  1.00  0.00     0.179 C 
BRANCH  44  49
HETATM   49  N6  UNL     1      85.649   1.902 130.359  1.00  0.00    -0.072 N 
ATOM     50  H63 UNL     1      86.319   1.151 130.525  1.00  0.00     0.274 HD
ATOM     51  H62 UNL     1      86.133   2.389 129.604  1.00  0.00     0.274 HD
ATOM     52  H61 UNL     1      85.554   2.499 131.181  1.00  0.00     0.274 HD
ENDBRANCH  44  49
BRANCH  46  53
HETATM   53  N7  UNL     1      82.775   4.047 131.727  1.00  0.00    -0.072 N 
ATOM     54  H73 UNL     1      82.177   3.639 132.446  1.00  0.00     0.274 HD
ATOM     55  H72 UNL     1      83.664   4.002 132.226  1.00  0.00     0.274 HD
ATOM     56  H71 UNL     1      82.508   5.007 131.511  1.00  0.00     0.274 HD
ENDBRANCH  46  53
BRANCH  47  57
HETATM   57  O8  UNL     1      83.008   5.158 129.192  1.00  0.00    -0.391 OA
ATOM     58  H8  UNL     1      82.917   5.156 128.247  1.00  0.00     0.210 HD
ENDBRANCH  47  57
BRANCH  48  59
HETATM   59  O9  UNL     1      84.902   3.762 127.553  1.00  0.00    -0.390 OA
ATOM     60  H9  UNL     1      84.876   3.485 126.644  1.00  0.00     0.210 HD
ENDBRANCH  48  59
ENDBRANCH  42  43
ENDBRANCH  41  42
ENDBRANCH   5  41
TORSDOF 19
ENDMDL
MODEL 2
REMARK VINA RESULT: -8.043653632      5.281      8.887
REMARK  19 active torsions:
REMARK  status: ('A' for Active; 'I' for Inactive)
REMARK    1  A    between atoms: O1_2  and  C2_3 
REMARK    2  A    between atoms: C3_4  and  O2_5 
REMARK    3  A    between atoms: O2_5  and  C4_6 
REMARK    4  A    between atoms: C5_7  and  N1_8 
REMARK    5  A    between atoms: C8_14  and  O3_15 
REMARK    6  A    between atoms: O3_15  and  C9_16 
REMARK    7  A    between atoms: C10_18  and  N2_19 
REMARK    8  A    between atoms: N2_19  and  N3_20 
REMARK    9  A    between atoms: C11_25  and  O5_26 
REMARK   10  A    between atoms: C12_28  and  N5_29 
REMARK   11  A    between atoms: C14_35  and  C15_36 
REMARK   12  A    between atoms: C15_36  and  O7_37 
REMARK   13  A    between atoms: O7_37  and  C16_38 
REMARK   14  A    between atoms: C17_39  and  N6_40 
REMARK   15  A    between atoms: C19_45  and  N7_46 
REMARK   16  A    between atoms: C20_50  and  O8_51 
REMARK   17  A    between atoms: C21_53  and  O9_54 
REMARK   18  A    between atoms: C22_56  and  O10_57 
REMARK   19  A    between atoms: O10_57  and  N8_58 
ROOT
HETATM    1  C2  UNL     1      83.255  -1.345 120.539  1.00  0.00     0.186 C 
HETATM    2  C3  UNL     1      82.913  -0.734 121.894  1.00  0.00     0.177 C 
HETATM    3  C13 UNL     1      81.499  -1.162 122.282  1.00  0.00     0.203 C 
HETATM    4  O6  UNL     1      81.100  -2.238 121.489  1.00  0.00    -0.378 OA
HETATM    5  C14 UNL     1      80.889  -1.867 120.203  1.00  0.00     0.179 C 
HETATM    6  C22 UNL     1      82.042  -1.082 119.658  1.00  0.00     0.221 C 
ENDROOT
BRANCH   2   7
HETATM    7  O2  UNL     1      83.784  -1.277 122.823  1.00  0.00    -0.370 OA
BRANCH   7   8
HETATM    8  C4  UNL     1      84.061  -0.407 123.869  1.00  0.00     0.189 C 
HETATM    9  C5  UNL     1      85.059  -1.156 124.765  1.00  0.00     0.237 C 
HETATM   10  C6  UNL     1      86.294  -1.086 123.937  1.00  0.00     0.007 C 
HETATM   11  C7  UNL     1      86.253  -0.039 123.120  1.00  0.00     0.006 C 
HETATM   12  C8  UNL     1      84.950   0.693 123.345  1.00  0.00     0.178 C 
BRANCH   9  13
HETATM   13  N1  UNL     1      85.201  -0.495 126.038  1.00  0.00    -0.069 N 
ATOM     14  H13 UNL     1      85.416  -1.155 126.784  1.00  0.00     0.275 HD
ATOM     15  H12 UNL     1      86.052   0.067 126.079  1.00  0.00     0.275 HD
ATOM     16  H11 UNL     1      84.373   0.061 126.252  1.00  0.00     0.275 HD
ENDBRANCH   9  13
BRANCH  12  17
HETATM   17  O3  UNL     1      85.191   1.674 124.302  1.00  0.00    -0.347 OA
BRANCH  17  18
HETATM   18  C9  UNL     1      85.244   2.897 123.685  1.00  0.00     0.299 C 
HETATM   19  O4  UNL     1      84.483   2.998 122.535  1.00  0.00    -0.319 OA
HETATM   20  C10 UNL     1      84.821   4.130 121.827  1.00  0.00     0.340 C 
HETATM   21  N4  UNL     1      85.599   5.075 122.572  1.00  0.00    -0.355 N 
HETATM   22  C11 UNL     1      85.147   5.317 123.902  1.00  0.00     0.252 C 
ATOM     23  H4  UNL     1      86.417   5.542 122.179  1.00  0.00     0.159 HD
HETATM   24  C12 UNL     1      84.771   4.025 124.613  1.00  0.00     0.286 C 
BRANCH  20  25
HETATM   25  N2  UNL     1      83.693   4.793 121.215  1.00  0.00    -0.095 NA
BRANCH  25  26
HETATM   26  N3  UNL     1      84.136   6.029 120.731  1.00  0.00    -0.344 N 
ATOM     27  H32 UNL     1      84.915   6.567 121.110  1.00  0.00     0.172 HD
ATOM     28  H31 UNL     1      83.544   6.283 119.940  1.00  0.00     0.172 HD
ENDBRANCH  25  26
ENDBRANCH  20  25
BRANCH  22  29
HETATM   29  O5  UNL     1      84.149   6.271 123.974  1.00  0.00    -0.375 OA
ATOM     30  H5  UNL     1      83.284   5.900 124.102  1.00  0.00     0.212 HD
ENDBRANCH  22  29
BRANCH  24  31
HETATM   31  N5  UNL     1      83.329   3.989 124.692  1.00  0.00    -0.066 N 
ATOM     32  H53 UNL     1      82.901   3.635 123.837  1.00  0.00     0.275 HD
ATOM     33  H52 UNL     1      82.992   3.267 125.329  1.00  0.00     0.275 HD
ATOM     34  H51 UNL     1      82.991   4.917 124.942  1.00  0.00     0.275 HD
ENDBRANCH  24  31
ENDBRANCH  17  18
ENDBRANCH  12  17
ENDBRANCH   7   8
ENDBRANCH   2   7
BRANCH   1  35
HETATM   35  O1  UNL     1      83.322  -2.725 120.690  1.00  0.00    -0.385 OA
HETATM   36  C1  UNL     1      84.463  -3.202 120.095  1.00  0.00     0.202 C 
ENDBRANCH   1  35
BRANCH   6  37
HETATM   37  O10 UNL     1      81.740   0.305 119.827  1.00  0.00    -0.210 OA
BRANCH  37  38
HETATM   38  N8  UNL     1      82.155   1.270 118.987  1.00  0.00     0.005 N 
HETATM   39  O11 UNL     1      82.119   2.460 119.328  1.00  0.00    -0.511 OA
HETATM   40  O12 UNL     1      82.624   0.951 117.745  1.00  0.00    -0.511 OA
ENDBRANCH  37  38
ENDBRANCH   6  37
BRANCH   5  41
HETATM   41  C15 UNL     1      79.562  -1.154 119.989  1.00  0.00     0.203 C 
BRANCH  41  42
HETATM   42  O7  UNL     1      79.422  -0.943 118.642  1.00  0.00    -0.379 OA
BRANCH  42  43
HETATM   43  C16 UNL     1      78.384  -0.135 118.274  1.00  0.00     0.183 C 
HETATM   44  C17 UNL     1      78.881   1.149 117.644  1.00  0.00     0.217 C 
HETATM   45  C18 UNL     1      77.748   1.994 117.154  1.00  0.00     0.071 C 
HETATM   46  C19 UNL     1      76.678   1.251 116.428  1.00  0.00     0.216 C 
HETATM   47  C20 UNL     1      77.086  -0.162 116.117  1.00  0.00     0.179 C 
HETATM   48  C21 UNL     1      77.479  -0.922 117.356  1.00  0.00     0.179 C 
BRANCH  44  49
HETATM   49  N6  UNL     1      79.813   0.907 116.583  1.00  0.00    -0.072 N 
ATOM     50  H63 UNL     1      80.418   0.115 116.797  1.00  0.00     0.274 HD
ATOM     51  H62 UNL     1      79.342   0.533 115.758  1.00  0.00     0.274 HD
ATOM     52  H61 UNL     1      80.359   1.736 116.351  1.00  0.00     0.274 HD
ENDBRANCH  44  49
BRANCH  46  53
HETATM   53  N7  UNL     1      76.392   1.894 115.150  1.00  0.00    -0.072 N 
ATOM     54  H73 UNL     1      76.547   2.902 115.187  1.00  0.00     0.274 HD
ATOM     55  H72 UNL     1      77.089   1.660 114.442  1.00  0.00     0.274 HD
ATOM     56  H71 UNL     1      75.447   1.666 114.842  1.00  0.00     0.274 HD
ENDBRANCH  46  53
BRANCH  47  57
HETATM   57  O8  UNL     1      75.934  -0.807 115.606  1.00  0.00    -0.391 OA
ATOM     58  H8  UNL     1      76.080  -0.918 114.674  1.00  0.00     0.210 HD
ENDBRANCH  47  57
BRANCH  48  59
HETATM   59  O9  UNL     1      78.129  -2.082 116.941  1.00  0.00    -0.390 OA
ATOM     60  H9  UNL     1      78.088  -2.148 115.994  1.00  0.00     0.210 HD
ENDBRANCH  48  59
ENDBRANCH  42  43
ENDBRANCH  41  42
ENDBRANCH   5  41
TORSDOF 19
ENDMDL
MODEL 3
REMARK VINA RESULT: -8.017585575      2.380      3.343
REMARK  19 active torsions:
REMARK  status: ('A' for Active; 'I' for Inactive)
REMARK    1  A    between atoms: O1_2  and  C2_3 
REMARK    2  A    between atoms: C3_4  and  O2_5 
REMARK    3  A    between atoms: O2_5  and  C4_6 
REMARK    4  A    between atoms: C5_7  and  N1_8 
REMARK    5  A    between atoms: C8_14  and  O3_15 
REMARK    6  A    between atoms: O3_15  and  C9_16 
REMARK    7  A    between atoms: C10_18  and  N2_19 
REMARK    8  A    between atoms: N2_19  and  N3_20 
REMARK    9  A    between atoms: C11_25  and  O5_26 
REMARK   10  A    between atoms: C12_28  and  N5_29 
REMARK   11  A    between atoms: C14_35  and  C15_36 
REMARK   12  A    between atoms: C15_36  and  O7_37 
REMARK   13  A    between atoms: O7_37  and  C16_38 
REMARK   14  A    between atoms: C17_39  and  N6_40 
REMARK   15  A    between atoms: C19_45  and  N7_46 
REMARK   16  A    between atoms: C20_50  and  O8_51 
REMARK   17  A    between atoms: C21_53  and  O9_54 
REMARK   18  A    between atoms: C22_56  and  O10_57 
REMARK   19  A    between atoms: O10_57  and  N8_58 
ROOT
HETATM    1  C2  UNL     1      85.681   1.068 121.740  1.00  0.00     0.186 C 
HETATM    2  C3  UNL     1      85.353   2.162 122.751  1.00  0.00     0.177 C 
HETATM    3  C13 UNL     1      85.682   1.650 124.151  1.00  0.00     0.203 C 
HETATM    4  O6  UNL     1      86.496   0.521 124.059  1.00  0.00    -0.378 OA
HETATM    5  C14 UNL     1      85.821  -0.548 123.570  1.00  0.00     0.179 C 
HETATM    6  C22 UNL     1      85.080  -0.207 122.315  1.00  0.00     0.221 C 
ENDROOT
BRANCH   2   7
HETATM    7  O2  UNL     1      86.193   3.231 122.488  1.00  0.00    -0.370 OA
BRANCH   7   8
HETATM    8  C4  UNL     1      85.600   4.457 122.758  1.00  0.00     0.189 C 
HETATM    9  C5  UNL     1      86.324   5.465 121.853  1.00  0.00     0.237 C 
HETATM   10  C6  UNL     1      85.761   5.109 120.521  1.00  0.00     0.007 C 
HETATM   11  C7  UNL     1      84.569   4.540 120.653  1.00  0.00     0.006 C 
HETATM   12  C8  UNL     1      84.231   4.469 122.125  1.00  0.00     0.178 C 
BRANCH   9  13
HETATM   13  N1  UNL     1      86.017   6.818 122.246  1.00  0.00    -0.069 N 
ATOM     14  H13 UNL     1      85.375   6.844 123.038  1.00  0.00     0.275 HD
ATOM     15  H12 UNL     1      86.818   7.276 122.681  1.00  0.00     0.275 HD
ATOM     16  H11 UNL     1      85.661   7.353 121.454  1.00  0.00     0.275 HD
ENDBRANCH   9  13
BRANCH  12  17
HETATM   17  O3  UNL     1      83.518   5.621 122.438  1.00  0.00    -0.347 OA
BRANCH  17  18
HETATM   18  C9  UNL     1      83.321   5.672 123.794  1.00  0.00     0.299 C 
HETATM   19  O4  UNL     1      84.013   6.678 124.442  1.00  0.00    -0.319 OA
HETATM   20  C10 UNL     1      84.002   6.477 125.804  1.00  0.00     0.340 C 
HETATM   21  N4  UNL     1      83.038   5.512 126.245  1.00  0.00    -0.355 N 
HETATM   22  C11 UNL     1      81.749   5.629 125.648  1.00  0.00     0.252 C 
ATOM     23  H4  UNL     1      83.259   4.794 126.936  1.00  0.00     0.159 HD
HETATM   24  C12 UNL     1      81.841   5.872 124.149  1.00  0.00     0.286 C 
BRANCH  20  25
HETATM   25  N2  UNL     1      83.868   7.694 126.572  1.00  0.00    -0.095 NA
BRANCH  25  26
HETATM   26  N3  UNL     1      83.394   7.346 127.842  1.00  0.00    -0.344 N 
ATOM     27  H32 UNL     1      83.005   6.439 128.099  1.00  0.00     0.172 HD
ATOM     28  H31 UNL     1      83.509   8.157 128.449  1.00  0.00     0.172 HD
ENDBRANCH  25  26
ENDBRANCH  20  25
BRANCH  22  29
HETATM   29  O5  UNL     1      80.934   6.548 126.285  1.00  0.00    -0.375 OA
ATOM     30  H5  UNL     1      80.260   6.906 125.719  1.00  0.00     0.212 HD
ENDBRANCH  22  29
BRANCH  24  31
HETATM   31  N5  UNL     1      81.491   7.255 123.921  1.00  0.00    -0.066 N 
ATOM     32  H53 UNL     1      80.505   7.441 124.103  1.00  0.00     0.275 HD
ATOM     33  H52 UNL     1      81.886   7.878 124.625  1.00  0.00     0.275 HD
ATOM     34  H51 UNL     1      81.768   7.512 122.974  1.00  0.00     0.275 HD
ENDBRANCH  24  31
ENDBRANCH  17  18
ENDBRANCH  12  17
ENDBRANCH   7   8
ENDBRANCH   2   7
BRANCH   1  35
HETATM   35  O1  UNL     1      87.056   0.874 121.742  1.00  0.00    -0.385 OA
HETATM   36  C1  UNL     1      87.589   1.315 120.556  1.00  0.00     0.202 C 
ENDBRANCH   1  35
BRANCH   6  37
HETATM   37  O10 UNL     1      83.741   0.132 122.681  1.00  0.00    -0.210 OA
BRANCH  37  38
HETATM   38  N8  UNL     1      82.649  -0.426 122.130  1.00  0.00     0.005 N 
HETATM   39  O11 UNL     1      81.943  -1.206 122.782  1.00  0.00    -0.511 OA
HETATM   40  O12 UNL     1      82.302  -0.141 120.840  1.00  0.00    -0.511 OA
ENDBRANCH  37  38
ENDBRANCH   6  37
BRANCH   5  41
HETATM   41  C15 UNL     1      84.923  -1.219 124.599  1.00  0.00     0.203 C 
BRANCH  41  42
HETATM   42  O7  UNL     1      85.494  -1.025 125.830  1.00  0.00    -0.379 OA
BRANCH  42  43
HETATM   43  C16 UNL     1      85.297  -2.026 126.738  1.00  0.00     0.183 C 
HETATM   44  C17 UNL     1      86.442  -3.018 126.722  1.00  0.00     0.217 C 
HETATM   45  C18 UNL     1      86.277  -4.062 127.780  1.00  0.00     0.071 C 
HETATM   46  C19 UNL     1      85.844  -3.547 129.110  1.00  0.00     0.216 C 
HETATM   47  C20 UNL     1      85.909  -2.047 129.180  1.00  0.00     0.179 C 
HETATM   48  C21 UNL     1      85.092  -1.396 128.095  1.00  0.00     0.179 C 
BRANCH  44  49
HETATM   49  N6  UNL     1      87.716  -2.377 126.854  1.00  0.00    -0.072 N 
ATOM     50  H63 UNL     1      88.460  -2.947 126.452  1.00  0.00     0.274 HD
ATOM     51  H62 UNL     1      87.785  -1.564 126.240  1.00  0.00     0.274 HD
ATOM     52  H61 UNL     1      87.925  -2.128 127.820  1.00  0.00     0.274 HD
ENDBRANCH  44  49
BRANCH  46  53
HETATM   53  N7  UNL     1      86.722  -4.052 130.160  1.00  0.00    -0.072 N 
ATOM     54  H73 UNL     1      86.471  -3.681 131.077  1.00  0.00     0.274 HD
ATOM     55  H72 UNL     1      86.560  -5.042 130.348  1.00  0.00     0.274 HD
ATOM     56  H71 UNL     1      87.697  -3.864 129.929  1.00  0.00     0.274 HD
ENDBRANCH  46  53
BRANCH  47  57
HETATM   57  O8  UNL     1      85.302  -1.678 130.405  1.00  0.00    -0.391 OA
ATOM     58  H8  UNL     1      85.995  -1.333 130.955  1.00  0.00     0.210 HD
ENDBRANCH  47  57
BRANCH  48  59
HETATM   59  O9  UNL     1      85.464  -0.054 128.048  1.00  0.00    -0.390 OA
ATOM     60  H9  UNL     1      85.091   0.406 128.791  1.00  0.00     0.210 HD
ENDBRANCH  48  59
ENDBRANCH  42  43
ENDBRANCH  41  42
ENDBRANCH   5  41
TORSDOF 19
ENDMDL
MODEL 4
REMARK VINA RESULT: -7.889343712      3.482      7.074
REMARK  19 active torsions:
REMARK  status: ('A' for Active; 'I' for Inactive)
REMARK    1  A    between atoms: O1_2  and  C2_3 
REMARK    2  A    between atoms: C3_4  and  O2_5 
REMARK    3  A    between atoms: O2_5  and  C4_6 
REMARK    4  A    between atoms: C5_7  and  N1_8 
REMARK    5  A    between atoms: C8_14  and  O3_15 
REMARK    6  A    between atoms: O3_15  and  C9_16 
REMARK    7  A    between atoms: C10_18  and  N2_19 
REMARK    8  A    between atoms: N2_19  and  N3_20 
REMARK    9  A    between atoms: C11_25  and  O5_26 
REMARK   10  A    between atoms: C12_28  and  N5_29 
REMARK   11  A    between atoms: C14_35  and  C15_36 
REMARK   12  A    between atoms: C15_36  and  O7_37 
REMARK   13  A    between atoms: O7_37  and  C16_38 
REMARK   14  A    between atoms: C17_39  and  N6_40 
REMARK   15  A    between atoms: C19_45  and  N7_46 
REMARK   16  A    between atoms: C20_50  and  O8_51 
REMARK   17  A    between atoms: C21_53  and  O9_54 
REMARK   18  A    between atoms: C22_56  and  O10_57 
REMARK   19  A    between atoms: O10_57  and  N8_58 
ROOT
HETATM    1  C2  UNL     1      84.426   1.713 128.935  1.00  0.00     0.186 C 
HETATM    2  C3  UNL     1      84.150   1.041 127.594  1.00  0.00     0.177 C 
HETATM    3  C13 UNL     1      84.469   2.031 126.476  1.00  0.00     0.203 C 
HETATM    4  O6  UNL     1      85.237   3.079 126.981  1.00  0.00    -0.378 OA
HETATM    5  C14 UNL     1      84.518   3.880 127.805  1.00  0.00     0.179 C 
HETATM    6  C22 UNL     1      83.781   3.088 128.840  1.00  0.00     0.221 C 
ENDROOT
BRANCH   2   7
HETATM    7  O2  UNL     1      85.029  -0.022 127.476  1.00  0.00    -0.370 OA
BRANCH   7   8
HETATM    8  C4  UNL     1      85.663  -0.057 126.241  1.00  0.00     0.189 C 
HETATM    9  C5  UNL     1      86.728  -1.157 126.366  1.00  0.00     0.237 C 
HETATM   10  C6  UNL     1      85.880  -2.381 126.340  1.00  0.00     0.007 C 
HETATM   11  C7  UNL     1      84.736  -2.145 125.708  1.00  0.00     0.006 C 
HETATM   12  C8  UNL     1      84.729  -0.704 125.249  1.00  0.00     0.178 C 
BRANCH   9  13
HETATM   13  N1  UNL     1      87.656  -1.097 125.264  1.00  0.00    -0.069 N 
ATOM     14  H13 UNL     1      88.082  -2.005 125.080  1.00  0.00     0.275 HD
ATOM     15  H12 UNL     1      87.177  -0.968 124.373  1.00  0.00     0.275 HD
ATOM     16  H11 UNL     1      88.360  -0.376 125.422  1.00  0.00     0.275 HD
ENDBRANCH   9  13
BRANCH  12  17
HETATM   17  O3  UNL     1      85.241  -0.684 123.956  1.00  0.00    -0.347 OA
BRANCH  17  18
HETATM   18  C9  UNL     1      84.318  -1.226 123.101  1.00  0.00     0.299 C 
HETATM   19  O4  UNL     1      83.045  -0.697 123.213  1.00  0.00    -0.319 OA
HETATM   20  C10 UNL     1      82.131  -1.486 122.550  1.00  0.00     0.340 C 
HETATM   21  N4  UNL     1      82.720  -2.436 121.654  1.00  0.00    -0.355 N 
HETATM   22  C11 UNL     1      83.772  -1.928 120.837  1.00  0.00     0.252 C 
ATOM     23  H4  UNL     1      82.408  -3.407 121.603  1.00  0.00     0.159 HD
HETATM   24  C12 UNL     1      84.728  -1.050 121.632  1.00  0.00     0.286 C 
BRANCH  20  25
HETATM   25  N2  UNL     1      81.102  -0.736 121.866  1.00  0.00    -0.095 NA
BRANCH  25  26
HETATM   26  N3  UNL     1      80.430  -1.616 121.011  1.00  0.00    -0.344 N 
ATOM     27  H32 UNL     1      80.556  -2.628 120.988  1.00  0.00     0.172 HD
ATOM     28  H31 UNL     1      79.801  -1.064 120.428  1.00  0.00     0.172 HD
ENDBRANCH  25  26
ENDBRANCH  20  25
BRANCH  22  29
HETATM   29  O5  UNL     1      83.319  -1.311 119.685  1.00  0.00    -0.375 OA
ATOM     30  H5  UNL     1      84.018  -1.074 119.087  1.00  0.00     0.212 HD
ENDBRANCH  22  29
BRANCH  24  31
HETATM   31  N5  UNL     1      84.474   0.317 121.239  1.00  0.00    -0.066 N 
ATOM     32  H53 UNL     1      84.537   0.450 120.230  1.00  0.00     0.275 HD
ATOM     33  H52 UNL     1      83.495   0.580 121.355  1.00  0.00     0.275 HD
ATOM     34  H51 UNL     1      85.106   0.930 121.753  1.00  0.00     0.275 HD
ENDBRANCH  24  31
ENDBRANCH  17  18
ENDBRANCH  12  17
ENDBRANCH   7   8
ENDBRANCH   2   7
BRANCH   1  35
HETATM   35  O1  UNL     1      85.793   1.941 129.032  1.00  0.00    -0.385 OA
HETATM   36  C1  UNL     1      86.256   1.484 130.241  1.00  0.00     0.202 C 
ENDBRANCH   1  35
BRANCH   6  37
HETATM   37  O10 UNL     1      82.458   2.857 128.349  1.00  0.00    -0.210 OA
BRANCH  37  38
HETATM   38  N8  UNL     1      81.342   3.162 129.033  1.00  0.00     0.005 N 
HETATM   39  O11 UNL     1      81.227   2.848 130.225  1.00  0.00    -0.511 OA
HETATM   40  O12 UNL     1      80.315   3.825 128.423  1.00  0.00    -0.511 OA
ENDBRANCH  37  38
ENDBRANCH   6  37
BRANCH   5  41
HETATM   41  C15 UNL     1      83.602   4.843 127.065  1.00  0.00     0.203 C 
BRANCH  41  42
HETATM   42  O7  UNL     1      83.803   6.090 127.597  1.00  0.00    -0.379 OA
BRANCH  42  43
HETATM   43  C16 UNL     1      82.673   6.772 127.950  1.00  0.00     0.183 C 
HETATM   44  C17 UNL     1      82.305   6.517 129.397  1.00  0.00     0.217 C 
HETATM   45  C18 UNL     1      81.125   7.336 129.815  1.00  0.00     0.071 C 
HETATM   46  C19 UNL     1      81.152   8.755 129.361  1.00  0.00     0.216 C 
HETATM   47  C20 UNL     1      82.489   9.138 128.791  1.00  0.00     0.179 C 
HETATM   48  C21 UNL     1      82.897   8.237 127.656  1.00  0.00     0.179 C 
BRANCH  44  49
HETATM   49  N6  UNL     1      83.406   6.747 130.285  1.00  0.00    -0.072 N 
ATOM     50  H63 UNL     1      83.698   7.724 130.265  1.00  0.00     0.274 HD
ATOM     51  H62 UNL     1      83.112   6.685 131.260  1.00  0.00     0.274 HD
ATOM     52  H61 UNL     1      84.191   6.124 130.096  1.00  0.00     0.274 HD
ENDBRANCH  44  49
BRANCH  46  53
HETATM   53  N7  UNL     1      80.906   9.652 130.486  1.00  0.00    -0.072 N 
ATOM     54  H73 UNL     1      79.937   9.969 130.515  1.00  0.00     0.274 HD
ATOM     55  H72 UNL     1      80.930   9.158 131.378  1.00  0.00     0.274 HD
ATOM     56  H71 UNL     1      81.560  10.434 130.466  1.00  0.00     0.274 HD
ENDBRANCH  46  53
BRANCH  47  57
HETATM   57  O8  UNL     1      82.330  10.429 128.232  1.00  0.00    -0.391 OA
ATOM     58  H8  UNL     1      83.016  10.527 127.582  1.00  0.00     0.210 HD
ENDBRANCH  47  57
BRANCH  48  59
HETATM   59  O9  UNL     1      84.251   8.463 127.415  1.00  0.00    -0.390 OA
ATOM     60  H9  UNL     1      84.392   9.385 127.233  1.00  0.00     0.210 HD
ENDBRANCH  48  59
ENDBRANCH  42  43
ENDBRANCH  41  42
ENDBRANCH   5  41
TORSDOF 19
ENDMDL
MODEL 5
REMARK VINA RESULT: -7.882738160      5.365      8.971
REMARK  19 active torsions:
REMARK  status: ('A' for Active; 'I' for Inactive)
REMARK    1  A    between atoms: O1_2  and  C2_3 
REMARK    2  A    between atoms: C3_4  and  O2_5 
REMARK    3  A    between atoms: O2_5  and  C4_6 
REMARK    4  A    between atoms: C5_7  and  N1_8 
REMARK    5  A    between atoms: C8_14  and  O3_15 
REMARK    6  A    between atoms: O3_15  and  C9_16 
REMARK    7  A    between atoms: C10_18  and  N2_19 
REMARK    8  A    between atoms: N2_19  and  N3_20 
REMARK    9  A    between atoms: C11_25  and  O5_26 
REMARK   10  A    between atoms: C12_28  and  N5_29 
REMARK   11  A    between atoms: C14_35  and  C15_36 
REMARK   12  A    between atoms: C15_36  and  O7_37 
REMARK   13  A    between atoms: O7_37  and  C16_38 
REMARK   14  A    between atoms: C17_39  and  N6_40 
REMARK   15  A    between atoms: C19_45  and  N7_46 
REMARK   16  A    between atoms: C20_50  and  O8_51 
REMARK   17  A    between atoms: C21_53  and  O9_54 
REMARK   18  A    between atoms: C22_56  and  O10_57 
REMARK   19  A    between atoms: O10_57  and  N8_58 
ROOT
HETATM    1  C2  UNL     1      83.207  -1.369 120.494  1.00  0.00     0.186 C 
HETATM    2  C3  UNL     1      82.849  -0.795 121.860  1.00  0.00     0.177 C 
HETATM    3  C13 UNL     1      81.421  -1.210 122.208  1.00  0.00     0.203 C 
HETATM    4  O6  UNL     1      81.020  -2.253 121.375  1.00  0.00    -0.378 OA
HETATM    5  C14 UNL     1      80.840  -1.838 120.097  1.00  0.00     0.179 C 
HETATM    6  C22 UNL     1      82.016  -1.057 119.599  1.00  0.00     0.221 C 
ENDROOT
BRANCH   2   7
HETATM    7  O2  UNL     1      83.693  -1.381 122.788  1.00  0.00    -0.370 OA
BRANCH   7   8
HETATM    8  C4  UNL     1      83.846  -0.612 123.933  1.00  0.00     0.189 C 
HETATM    9  C5  UNL     1      84.549  -1.529 124.946  1.00  0.00     0.237 C 
HETATM   10  C6  UNL     1      85.928  -1.569 124.384  1.00  0.00     0.007 C 
HETATM   11  C7  UNL     1      86.172  -0.482 123.662  1.00  0.00     0.006 C 
HETATM   12  C8  UNL     1      84.941   0.395 123.684  1.00  0.00     0.178 C 
BRANCH   9  13
HETATM   13  N1  UNL     1      84.501  -0.962 126.270  1.00  0.00    -0.069 N 
ATOM     14  H13 UNL     1      85.421  -0.954 126.711  1.00  0.00     0.275 HD
ATOM     15  H12 UNL     1      84.333   0.044 126.245  1.00  0.00     0.275 HD
ATOM     16  H11 UNL     1      83.812  -1.444 126.846  1.00  0.00     0.275 HD
ENDBRANCH   9  13
BRANCH  12  17
HETATM   17  O3  UNL     1      85.089   1.283 124.744  1.00  0.00    -0.347 OA
BRANCH  17  18
HETATM   18  C9  UNL     1      84.735   2.540 124.328  1.00  0.00     0.299 C 
HETATM   19  O4  UNL     1      84.912   3.534 125.273  1.00  0.00    -0.319 OA
HETATM   20  C10 UNL     1      84.264   4.688 124.891  1.00  0.00     0.340 C 
HETATM   21  N4  UNL     1      83.864   4.707 123.515  1.00  0.00    -0.355 N 
HETATM   22  C11 UNL     1      84.846   4.240 122.593  1.00  0.00     0.252 C 
ATOM     23  H4  UNL     1      82.944   5.031 123.218  1.00  0.00     0.159 HD
HETATM   24  C12 UNL     1      85.533   2.977 123.091  1.00  0.00     0.286 C 
BRANCH  20  25
HETATM   25  N2  UNL     1      84.991   5.896 125.210  1.00  0.00    -0.095 NA
BRANCH  25  26
HETATM   26  N3  UNL     1      84.284   6.567 126.213  1.00  0.00    -0.344 N 
ATOM     27  H32 UNL     1      83.408   7.072 126.082  1.00  0.00     0.172 HD
ATOM     28  H31 UNL     1      84.801   6.455 127.086  1.00  0.00     0.172 HD
ENDBRANCH  25  26
ENDBRANCH  20  25
BRANCH  22  29
HETATM   29  O5  UNL     1      85.747   5.219 122.214  1.00  0.00    -0.375 OA
ATOM     30  H5  UNL     1      86.084   5.097 121.334  1.00  0.00     0.212 HD
ENDBRANCH  22  29
BRANCH  24  31
HETATM   31  N5  UNL     1      86.864   3.354 123.506  1.00  0.00    -0.066 N 
ATOM     32  H53 UNL     1      87.145   2.898 124.374  1.00  0.00     0.275 HD
ATOM     33  H52 UNL     1      87.586   2.965 122.900  1.00  0.00     0.275 HD
ATOM     34  H51 UNL     1      86.914   4.371 123.567  1.00  0.00     0.275 HD
ENDBRANCH  24  31
ENDBRANCH  17  18
ENDBRANCH  12  17
ENDBRANCH   7   8
ENDBRANCH   2   7
BRANCH   1  35
HETATM   35  O1  UNL     1      83.248  -2.753 120.602  1.00  0.00    -0.385 OA
HETATM   36  C1  UNL     1      84.436  -3.223 120.102  1.00  0.00     0.202 C 
ENDBRANCH   1  35
BRANCH   6  37
HETATM   37  O10 UNL     1      81.734   0.329 119.806  1.00  0.00    -0.210 OA
BRANCH  37  38
HETATM   38  N8  UNL     1      82.115   1.305 118.963  1.00  0.00     0.005 N 
HETATM   39  O11 UNL     1      82.087   2.491 119.318  1.00  0.00    -0.511 OA
HETATM   40  O12 UNL     1      82.541   1.003 117.701  1.00  0.00    -0.511 OA
ENDBRANCH  37  38
ENDBRANCH   6  37
BRANCH   5  41
HETATM   41  C15 UNL     1      79.529  -1.097 119.881  1.00  0.00     0.203 C 
BRANCH  41  42
HETATM   42  O7  UNL     1      79.377  -0.918 118.531  1.00  0.00    -0.379 OA
BRANCH  42  43
HETATM   43  C16 UNL     1      78.317  -0.143 118.152  1.00  0.00     0.183 C 
HETATM   44  C17 UNL     1      78.780   1.168 117.551  1.00  0.00     0.217 C 
HETATM   45  C18 UNL     1      77.627   1.978 117.048  1.00  0.00     0.071 C 
HETATM   46  C19 UNL     1      76.601   1.207 116.289  1.00  0.00     0.216 C 
HETATM   47  C20 UNL     1      77.067  -0.185 115.967  1.00  0.00     0.179 C 
HETATM   48  C21 UNL     1      77.461  -0.948 117.204  1.00  0.00     0.179 C 
BRANCH  44  49
HETATM   49  N6  UNL     1      79.742   0.976 116.507  1.00  0.00    -0.072 N 
ATOM     50  H63 UNL     1      80.423   1.734 116.488  1.00  0.00     0.274 HD
ATOM     51  H62 UNL     1      80.368   0.199 116.721  1.00  0.00     0.274 HD
ATOM     52  H61 UNL     1      79.302   0.853 115.594  1.00  0.00     0.274 HD
ENDBRANCH  44  49
BRANCH  46  53
HETATM   53  N7  UNL     1      76.318   1.858 115.014  1.00  0.00    -0.072 N 
ATOM     54  H73 UNL     1      75.318   1.884 114.814  1.00  0.00     0.274 HD
ATOM     55  H72 UNL     1      76.489   2.863 115.054  1.00  0.00     0.274 HD
ATOM     56  H71 UNL     1      76.844   1.412 114.264  1.00  0.00     0.274 HD
ENDBRANCH  46  53
BRANCH  47  57
HETATM   57  O8  UNL     1      75.951  -0.864 115.422  1.00  0.00    -0.391 OA
ATOM     58  H8  UNL     1      76.006  -1.761 115.731  1.00  0.00     0.210 HD
ENDBRANCH  47  57
BRANCH  48  59
HETATM   59  O9  UNL     1      78.163  -2.077 116.786  1.00  0.00    -0.390 OA
ATOM     60  H9  UNL     1      77.588  -2.834 116.802  1.00  0.00     0.210 HD
ENDBRANCH  48  59
ENDBRANCH  42  43
ENDBRANCH  41  42
ENDBRANCH   5  41
TORSDOF 19
ENDMDL
