MODEL 1
REMARK VINA RESULT: -9.238670032      0.000      0.000
REMARK  17 active torsions:
REMARK  status: ('A' for Active; 'I' for Inactive)
REMARK    1  A    between atoms: C4_9  and  C5_10 
REMARK       I    between atoms: C5_10  and  N3_12 
REMARK    2  A    between atoms: N3_12  and  C6_14 
REMARK    3  A    between atoms: C6_14  and  C7_15 
REMARK    4  A    between atoms: C6_14  and  C8_18 
REMARK    5  A    between atoms: C8_18  and  C9_19 
REMARK    6  A    between atoms: C8_18  and  S2_35 
REMARK    7  A    between atoms: C9_19  and  S1_20 
REMARK    8  A    between atoms: S1_20  and  C10_21 
REMARK    9  A    between atoms: C11_23  and  O7_24 
REMARK   10  A    between atoms: C11_23  and  C12_26 
REMARK   11  A    between atoms: C12_26  and  O8_27 
REMARK   12  A    between atoms: C13_29  and  O9_30 
REMARK   13  A    between atoms: C14_32  and  O10_33 
REMARK   14  A    between atoms: S2_35  and  N4_36 
REMARK   15  A    between atoms: C17_45  and  N5_46 
REMARK   16  A    between atoms: N5_46  and  C18_48 
REMARK   17  A    between atoms: C18_48  and  O15_49 
ROOT
HETATM    1  C6  UNL     1      85.777   3.293 120.396  1.00  0.00     0.207 C 
ENDROOT
BRANCH   1   2
HETATM    2  N3  UNL     1      84.466   2.723 120.107  1.00  0.00    -0.340 N 
HETATM    3  C5  UNL     1      84.332   1.942 118.935  1.00  0.00     0.275 C 
HETATM    4  O3  UNL     1      85.302   1.729 118.153  1.00  0.00    -0.266 OA
ATOM      5  H3  UNL     1      83.673   2.882 120.728  1.00  0.00     0.163 HD
BRANCH   3   6
HETATM    6  C4  UNL     1      83.016   1.371 118.637  1.00  0.00     0.177 A 
HETATM    7  N2  UNL     1      82.181   1.959 117.748  1.00  0.00    -0.340 N 
HETATM    8  C3  UNL     1      80.998   1.354 117.546  1.00  0.00     0.146 A 
ATOM      9  H2  UNL     1      82.437   2.816 117.257  1.00  0.00     0.167 HD
HETATM   10  C2  UNL     1      80.054   1.853 116.661  1.00  0.00     0.319 A 
HETATM   11  C16 UNL     1      80.639   0.179 118.213  1.00  0.00     0.142 A 
HETATM   12  O1  UNL     1      78.897   1.260 116.464  1.00  0.00    -0.256 OA
HETATM   13  O2  UNL     1      80.283   2.905 116.013  1.00  0.00    -0.257 OA
HETATM   14  C1  UNL     1      78.535   0.166 117.071  1.00  0.00     0.190 A 
HETATM   15  N1  UNL     1      77.286  -0.476 116.859  1.00  0.00    -0.072 NA
HETATM   16  C17 UNL     1      79.405  -0.413 117.973  1.00  0.00     0.115 A 
HETATM   17  O14 UNL     1      81.486  -0.338 119.056  1.00  0.00    -0.269 OA
HETATM   18  C15 UNL     1      82.651   0.206 119.293  1.00  0.00     0.321 A 
HETATM   19  O13 UNL     1      83.428  -0.339 120.119  1.00  0.00    -0.257 OA
BRANCH  16  20
HETATM   20  N5  UNL     1      79.046  -1.598 118.649  1.00  0.00    -0.363 N 
ATOM     21  H5  UNL     1      78.992  -2.479 118.137  1.00  0.00     0.162 HD
BRANCH  20  22
HETATM   22  C18 UNL     1      78.756  -1.572 120.057  1.00  0.00     0.287 C 
BRANCH  22  23
HETATM   23  O15 UNL     1      79.570  -2.447 120.783  1.00  0.00    -0.382 OA
ATOM     24  H15 UNL     1      79.159  -2.736 121.589  1.00  0.00     0.211 HD
ENDBRANCH  22  23
ENDBRANCH  20  22
ENDBRANCH  16  20
ENDBRANCH   3   6
ENDBRANCH   1   2
BRANCH   1  25
HETATM   25  C7  UNL     1      85.390   4.753 120.612  1.00  0.00     0.198 C 
HETATM   26  O4  UNL     1      86.332   5.553 120.913  1.00  0.00    -0.646 OA
HETATM   27  O5  UNL     1      84.095   5.154 120.473  1.00  0.00    -0.646 OA
ENDBRANCH   1  25
BRANCH   1  28
HETATM   28  C8  UNL     1      86.323   2.835 121.769  1.00  0.00     0.171 C 
BRANCH  28  29
HETATM   29  C9  UNL     1      85.196   2.666 122.712  1.00  0.00     0.101 C 
BRANCH  29  30
HETATM   30  S1  UNL     1      85.144   3.669 124.137  1.00  0.00    -0.133 SA
BRANCH  30  31
HETATM   31  C10 UNL     1      83.617   4.201 124.835  1.00  0.00     0.218 C 
HETATM   32  O6  UNL     1      83.843   4.996 125.974  1.00  0.00    -0.332 OA
HETATM   33  C11 UNL     1      84.036   6.289 125.614  1.00  0.00     0.213 C 
HETATM   34  C13 UNL     1      83.727   6.439 124.163  1.00  0.00     0.214 C 
HETATM   35  C14 UNL     1      82.982   5.189 123.839  1.00  0.00     0.191 C 
BRANCH  33  36
HETATM   36  O7  UNL     1      85.379   6.688 125.812  1.00  0.00    -0.362 OA
ATOM     37  H7  UNL     1      85.773   6.998 125.005  1.00  0.00     0.213 HD
ENDBRANCH  33  36
BRANCH  33  38
HETATM   38  C12 UNL     1      83.209   7.259 126.469  1.00  0.00     0.235 C 
BRANCH  38  39
HETATM   39  O8  UNL     1      81.898   6.842 126.579  1.00  0.00    -0.395 OA
ATOM     40  H8  UNL     1      81.846   5.933 126.853  1.00  0.00     0.209 HD
ENDBRANCH  38  39
ENDBRANCH  33  38
BRANCH  34  41
HETATM   41  O9  UNL     1      84.936   6.400 123.433  1.00  0.00    -0.387 OA
ATOM     42  H9  UNL     1      84.771   6.713 122.551  1.00  0.00     0.210 HD
ENDBRANCH  34  41
BRANCH  35  43
HETATM   43  O10 UNL     1      81.630   5.237 124.084  1.00  0.00    -0.389 OA
ATOM     44  H10 UNL     1      81.317   4.348 124.198  1.00  0.00     0.210 HD
ENDBRANCH  35  43
ENDBRANCH  30  31
ENDBRANCH  29  30
ENDBRANCH  28  29
BRANCH  28  45
HETATM   45  S2  UNL     1      87.024   1.221 121.388  1.00  0.00     0.231 S 
HETATM   46  O11 UNL     1      86.128   0.107 121.645  1.00  0.00    -0.206 OA
HETATM   47  O12 UNL     1      88.264   1.068 122.308  1.00  0.00    -0.206 OA
BRANCH  45  48
HETATM   48  N4  UNL     1      87.786   1.244 119.814  1.00  0.00    -0.328 N 
ATOM     49  H42 UNL     1      87.273   1.243 118.932  1.00  0.00     0.168 HD
ATOM     50  H41 UNL     1      88.801   1.260 119.912  1.00  0.00     0.168 HD
ENDBRANCH  45  48
ENDBRANCH  28  45
ENDBRANCH   1  28
TORSDOF 17
ENDMDL
MODEL 2
REMARK VINA RESULT: -9.181906482      2.288      3.108
REMARK  17 active torsions:
REMARK  status: ('A' for Active; 'I' for Inactive)
REMARK    1  A    between atoms: C4_9  and  C5_10 
REMARK       I    between atoms: C5_10  and  N3_12 
REMARK    2  A    between atoms: N3_12  and  C6_14 
REMARK    3  A    between atoms: C6_14  and  C7_15 
REMARK    4  A    between atoms: C6_14  and  C8_18 
REMARK    5  A    between atoms: C8_18  and  C9_19 
REMARK    6  A    between atoms: C8_18  and  S2_35 
REMARK    7  A    between atoms: C9_19  and  S1_20 
REMARK    8  A    between atoms: S1_20  and  C10_21 
REMARK    9  A    between atoms: C11_23  and  O7_24 
REMARK   10  A    between atoms: C11_23  and  C12_26 
REMARK   11  A    between atoms: C12_26  and  O8_27 
REMARK   12  A    between atoms: C13_29  and  O9_30 
REMARK   13  A    between atoms: C14_32  and  O10_33 
REMARK   14  A    between atoms: S2_35  and  N4_36 
REMARK   15  A    between atoms: C17_45  and  N5_46 
REMARK   16  A    between atoms: N5_46  and  C18_48 
REMARK   17  A    between atoms: C18_48  and  O15_49 
ROOT
HETATM    1  C6  UNL     1      85.970   0.222 122.430  1.00  0.00     0.207 C 
ENDROOT
BRANCH   1   2
HETATM    2  N3  UNL     1      84.770   0.545 121.668  1.00  0.00    -0.340 N 
HETATM    3  C5  UNL     1      84.493  -0.230 120.517  1.00  0.00     0.275 C 
HETATM    4  O3  UNL     1      85.245  -1.177 120.145  1.00  0.00    -0.266 OA
ATOM      5  H3  UNL     1      84.150   1.303 121.955  1.00  0.00     0.163 HD
BRANCH   3   6
HETATM    6  C4  UNL     1      83.290   0.092 119.744  1.00  0.00     0.177 A 
HETATM    7  N2  UNL     1      83.308   1.049 118.787  1.00  0.00    -0.340 N 
HETATM    8  C3  UNL     1      82.152   1.266 118.136  1.00  0.00     0.146 A 
ATOM      9  H2  UNL     1      84.154   1.576 118.570  1.00  0.00     0.167 HD
HETATM   10  C2  UNL     1      82.036   2.217 117.133  1.00  0.00     0.319 A 
HETATM   11  C16 UNL     1      80.989   0.548 118.425  1.00  0.00     0.142 A 
HETATM   12  O1  UNL     1      80.905   2.428 116.496  1.00  0.00    -0.256 OA
HETATM   13  O2  UNL     1      83.027   2.915 116.800  1.00  0.00    -0.257 OA
HETATM   14  C1  UNL     1      79.805   1.775 116.744  1.00  0.00     0.190 A 
HETATM   15  N1  UNL     1      78.583   2.002 116.057  1.00  0.00    -0.072 NA
HETATM   16  C17 UNL     1      79.815   0.806 117.726  1.00  0.00     0.115 A 
HETATM   17  O14 UNL     1      81.036  -0.360 119.357  1.00  0.00    -0.269 OA
HETATM   18  C15 UNL     1      82.132  -0.615 120.024  1.00  0.00     0.321 A 
HETATM   19  O13 UNL     1      82.117  -1.504 120.914  1.00  0.00    -0.257 OA
BRANCH  16  20
HETATM   20  N5  UNL     1      78.642   0.078 118.021  1.00  0.00    -0.363 N 
ATOM     21  H5  UNL     1      77.940   0.478 118.645  1.00  0.00     0.162 HD
BRANCH  20  22
HETATM   22  C18 UNL     1      78.431  -1.223 117.448  1.00  0.00     0.287 C 
BRANCH  22  23
HETATM   23  O15 UNL     1      78.800  -2.253 118.319  1.00  0.00    -0.382 OA
ATOM     24  H15 UNL     1      78.114  -2.901 118.422  1.00  0.00     0.211 HD
ENDBRANCH  22  23
ENDBRANCH  20  22
ENDBRANCH  16  20
ENDBRANCH   3   6
ENDBRANCH   1   2
BRANCH   1  25
HETATM   25  C7  UNL     1      86.923   1.283 121.886  1.00  0.00     0.198 C 
HETATM   26  O4  UNL     1      88.166   1.035 121.985  1.00  0.00    -0.646 OA
HETATM   27  O5  UNL     1      86.438   2.423 121.319  1.00  0.00    -0.646 OA
ENDBRANCH   1  25
BRANCH   1  28
HETATM   28  C8  UNL     1      85.823   0.574 123.929  1.00  0.00     0.171 C 
BRANCH  28  29
HETATM   29  C9  UNL     1      84.440   1.028 124.192  1.00  0.00     0.101 C 
BRANCH  29  30
HETATM   30  S1  UNL     1      84.187   2.298 125.358  1.00  0.00    -0.133 SA
BRANCH  30  31
HETATM   31  C10 UNL     1      85.195   3.741 125.384  1.00  0.00     0.218 C 
HETATM   32  O6  UNL     1      85.684   4.028 124.095  1.00  0.00    -0.332 OA
HETATM   33  C11 UNL     1      84.783   4.769 123.405  1.00  0.00     0.213 C 
HETATM   34  C13 UNL     1      83.694   5.194 124.331  1.00  0.00     0.214 C 
HETATM   35  C14 UNL     1      84.271   4.936 125.681  1.00  0.00     0.191 C 
BRANCH  33  36
HETATM   36  O7  UNL     1      84.191   4.024 122.358  1.00  0.00    -0.362 OA
ATOM     37  H7  UNL     1      84.669   4.126 121.543  1.00  0.00     0.213 HD
ENDBRANCH  33  36
BRANCH  33  38
HETATM   38  C12 UNL     1      85.433   5.973 122.710  1.00  0.00     0.235 C 
BRANCH  38  39
HETATM   39  O8  UNL     1      84.625   7.089 122.775  1.00  0.00    -0.395 OA
ATOM     40  H8  UNL     1      84.807   7.602 123.554  1.00  0.00     0.209 HD
ENDBRANCH  38  39
ENDBRANCH  33  38
BRANCH  34  41
HETATM   41  O9  UNL     1      82.597   4.317 124.177  1.00  0.00    -0.387 OA
ATOM     42  H9  UNL     1      82.068   4.348 124.965  1.00  0.00     0.210 HD
ENDBRANCH  34  41
BRANCH  35  43
HETATM   43  O10 UNL     1      85.039   5.958 126.190  1.00  0.00    -0.389 OA
ATOM     44  H10 UNL     1      85.327   6.502 125.467  1.00  0.00     0.210 HD
ENDBRANCH  35  43
ENDBRANCH  30  31
ENDBRANCH  29  30
ENDBRANCH  28  29
BRANCH  28  45
HETATM   45  S2  UNL     1      86.086  -1.018 124.728  1.00  0.00     0.231 S 
HETATM   46  O11 UNL     1      86.689  -0.931 126.046  1.00  0.00    -0.206 OA
HETATM   47  O12 UNL     1      87.052  -1.805 123.803  1.00  0.00    -0.206 OA
BRANCH  45  48
HETATM   48  N4  UNL     1      84.645  -2.004 124.609  1.00  0.00    -0.328 N 
ATOM     49  H42 UNL     1      83.713  -1.686 124.874  1.00  0.00     0.168 HD
ATOM     50  H41 UNL     1      84.876  -2.926 124.240  1.00  0.00     0.168 HD
ENDBRANCH  45  48
ENDBRANCH  28  45
ENDBRANCH   1  28
TORSDOF 17
ENDMDL
MODEL 3
REMARK VINA RESULT: -9.166854941      6.137      8.993
REMARK  17 active torsions:
REMARK  status: ('A' for Active; 'I' for Inactive)
REMARK    1  A    between atoms: C4_9  and  C5_10 
REMARK       I    between atoms: C5_10  and  N3_12 
REMARK    2  A    between atoms: N3_12  and  C6_14 
REMARK    3  A    between atoms: C6_14  and  C7_15 
REMARK    4  A    between atoms: C6_14  and  C8_18 
REMARK    5  A    between atoms: C8_18  and  C9_19 
REMARK    6  A    between atoms: C8_18  and  S2_35 
REMARK    7  A    between atoms: C9_19  and  S1_20 
REMARK    8  A    between atoms: S1_20  and  C10_21 
REMARK    9  A    between atoms: C11_23  and  O7_24 
REMARK   10  A    between atoms: C11_23  and  C12_26 
REMARK   11  A    between atoms: C12_26  and  O8_27 
REMARK   12  A    between atoms: C13_29  and  O9_30 
REMARK   13  A    between atoms: C14_32  and  O10_33 
REMARK   14  A    between atoms: S2_35  and  N4_36 
REMARK   15  A    between atoms: C17_45  and  N5_46 
REMARK   16  A    between atoms: N5_46  and  C18_48 
REMARK   17  A    between atoms: C18_48  and  O15_49 
ROOT
HETATM    1  C6  UNL     1      83.385   5.213 125.343  1.00  0.00     0.207 C 
ENDROOT
BRANCH   1   2
HETATM    2  N3  UNL     1      83.646   3.798 125.583  1.00  0.00    -0.340 N 
HETATM    3  C5  UNL     1      84.797   3.458 126.332  1.00  0.00     0.275 C 
HETATM    4  O3  UNL     1      85.585   4.335 126.790  1.00  0.00    -0.266 OA
ATOM      5  H3  UNL     1      83.019   3.077 125.223  1.00  0.00     0.163 HD
BRANCH   3   6
HETATM    6  C4  UNL     1      85.067   2.038 126.572  1.00  0.00     0.177 A 
HETATM    7  N2  UNL     1      85.066   1.527 127.825  1.00  0.00    -0.340 N 
HETATM    8  C3  UNL     1      85.325   0.213 127.936  1.00  0.00     0.146 A 
ATOM      9  H2  UNL     1      84.879   2.108 128.642  1.00  0.00     0.167 HD
HETATM   10  C2  UNL     1      85.353  -0.434 129.162  1.00  0.00     0.319 A 
HETATM   11  C16 UNL     1      85.582  -0.592 126.822  1.00  0.00     0.142 A 
HETATM   12  O1  UNL     1      85.606  -1.721 129.269  1.00  0.00    -0.256 OA
HETATM   13  O2  UNL     1      85.135   0.203 130.223  1.00  0.00    -0.257 OA
HETATM   14  C1  UNL     1      85.849  -2.495 128.250  1.00  0.00     0.190 A 
HETATM   15  N1  UNL     1      86.121  -3.884 128.364  1.00  0.00    -0.072 NA
HETATM   16  C17 UNL     1      85.844  -1.947 126.983  1.00  0.00     0.115 A 
HETATM   17  O14 UNL     1      85.567  -0.040 125.643  1.00  0.00    -0.269 OA
HETATM   18  C15 UNL     1      85.322   1.233 125.474  1.00  0.00     0.321 A 
HETATM   19  O13 UNL     1      85.322   1.710 124.310  1.00  0.00    -0.257 OA
BRANCH  16  20
HETATM   20  N5  UNL     1      86.103  -2.756 125.856  1.00  0.00    -0.363 N 
ATOM     21  H5  UNL     1      85.406  -3.434 125.546  1.00  0.00     0.162 HD
BRANCH  20  22
HETATM   22  C18 UNL     1      87.344  -2.629 125.141  1.00  0.00     0.287 C 
BRANCH  22  23
HETATM   23  O15 UNL     1      87.171  -2.057 123.877  1.00  0.00    -0.382 OA
ATOM     24  H15 UNL     1      87.973  -2.061 123.367  1.00  0.00     0.211 HD
ENDBRANCH  22  23
ENDBRANCH  20  22
ENDBRANCH  16  20
ENDBRANCH   3   6
ENDBRANCH   1   2
BRANCH   1  25
HETATM   25  C7  UNL     1      82.904   5.152 123.895  1.00  0.00     0.198 C 
HETATM   26  O4  UNL     1      83.738   4.725 123.036  1.00  0.00    -0.646 OA
HETATM   27  O5  UNL     1      81.636   5.532 123.571  1.00  0.00    -0.646 OA
ENDBRANCH   1  25
BRANCH   1  28
HETATM   28  C8  UNL     1      82.157   5.722 126.132  1.00  0.00     0.171 C 
BRANCH  28  29
HETATM   29  C9  UNL     1      81.565   4.602 126.895  1.00  0.00     0.101 C 
BRANCH  29  30
HETATM   30  S1  UNL     1      80.067   4.870 127.744  1.00  0.00    -0.133 SA
BRANCH  30  31
HETATM   31  C10 UNL     1      79.480   3.739 128.959  1.00  0.00     0.218 C 
HETATM   32  O6  UNL     1      80.533   2.941 129.445  1.00  0.00    -0.332 OA
HETATM   33  C11 UNL     1      81.173   3.573 130.459  1.00  0.00     0.213 C 
HETATM   34  C13 UNL     1      80.398   4.790 130.837  1.00  0.00     0.214 C 
HETATM   35  C14 UNL     1      79.073   4.567 130.192  1.00  0.00     0.191 C 
BRANCH  33  36
HETATM   36  O7  UNL     1      82.469   3.991 130.075  1.00  0.00    -0.362 OA
ATOM     37  H7  UNL     1      82.996   4.230 130.829  1.00  0.00     0.213 HD
ENDBRANCH  33  36
BRANCH  33  38
HETATM   38  C12 UNL     1      81.400   2.652 131.666  1.00  0.00     0.235 C 
BRANCH  38  39
HETATM   39  O8  UNL     1      80.204   2.228 132.207  1.00  0.00    -0.395 OA
ATOM     40  H8  UNL     1      80.305   1.401 132.665  1.00  0.00     0.209 HD
ENDBRANCH  38  39
ENDBRANCH  33  38
BRANCH  34  41
HETATM   41  O9  UNL     1      80.979   5.914 130.209  1.00  0.00    -0.387 OA
ATOM     42  H9  UNL     1      80.351   6.284 129.601  1.00  0.00     0.210 HD
ENDBRANCH  34  41
BRANCH  35  43
HETATM   43  O10 UNL     1      78.182   3.827 130.933  1.00  0.00    -0.389 OA
ATOM     44  H10 UNL     1      78.602   3.586 131.750  1.00  0.00     0.210 HD
ENDBRANCH  35  43
ENDBRANCH  30  31
ENDBRANCH  29  30
ENDBRANCH  28  29
BRANCH  28  45
HETATM   45  S2  UNL     1      82.894   6.897 127.280  1.00  0.00     0.231 S 
HETATM   46  O11 UNL     1      84.034   7.619 126.743  1.00  0.00    -0.206 OA
HETATM   47  O12 UNL     1      83.378   6.059 128.493  1.00  0.00    -0.206 OA
BRANCH  45  48
HETATM   48  N4  UNL     1      81.653   7.873 128.033  1.00  0.00    -0.328 N 
ATOM     49  H42 UNL     1      80.973   8.430 127.515  1.00  0.00     0.168 HD
ATOM     50  H41 UNL     1      81.712   7.801 129.048  1.00  0.00     0.168 HD
ENDBRANCH  45  48
ENDBRANCH  28  45
ENDBRANCH   1  28
TORSDOF 17
ENDMDL
MODEL 4
REMARK VINA RESULT: -9.140920848      1.069      2.322
REMARK  17 active torsions:
REMARK  status: ('A' for Active; 'I' for Inactive)
REMARK    1  A    between atoms: C4_9  and  C5_10 
REMARK       I    between atoms: C5_10  and  N3_12 
REMARK    2  A    between atoms: N3_12  and  C6_14 
REMARK    3  A    between atoms: C6_14  and  C7_15 
REMARK    4  A    between atoms: C6_14  and  C8_18 
REMARK    5  A    between atoms: C8_18  and  C9_19 
REMARK    6  A    between atoms: C8_18  and  S2_35 
REMARK    7  A    between atoms: C9_19  and  S1_20 
REMARK    8  A    between atoms: S1_20  and  C10_21 
REMARK    9  A    between atoms: C11_23  and  O7_24 
REMARK   10  A    between atoms: C11_23  and  C12_26 
REMARK   11  A    between atoms: C12_26  and  O8_27 
REMARK   12  A    between atoms: C13_29  and  O9_30 
REMARK   13  A    between atoms: C14_32  and  O10_33 
REMARK   14  A    between atoms: S2_35  and  N4_36 
REMARK   15  A    between atoms: C17_45  and  N5_46 
REMARK   16  A    between atoms: N5_46  and  C18_48 
REMARK   17  A    between atoms: C18_48  and  O15_49 
ROOT
HETATM    1  C6  UNL     1      85.820   3.267 120.419  1.00  0.00     0.207 C 
ENDROOT
BRANCH   1   2
HETATM    2  N3  UNL     1      84.501   2.707 120.148  1.00  0.00    -0.340 N 
HETATM    3  C5  UNL     1      84.383   1.786 119.081  1.00  0.00     0.275 C 
HETATM    4  O3  UNL     1      85.375   1.443 118.375  1.00  0.00    -0.266 OA
ATOM      5  H3  UNL     1      83.690   2.971 120.709  1.00  0.00     0.163 HD
BRANCH   3   6
HETATM    6  C4  UNL     1      83.059   1.224 118.801  1.00  0.00     0.177 A 
HETATM    7  N2  UNL     1      82.640   0.085 119.399  1.00  0.00    -0.340 N 
HETATM    8  C3  UNL     1      81.409  -0.346 119.074  1.00  0.00     0.146 A 
ATOM      9  H2  UNL     1      83.227  -0.420 120.064  1.00  0.00     0.167 HD
HETATM   10  C2  UNL     1      80.861  -1.498 119.617  1.00  0.00     0.319 A 
HETATM   11  C16 UNL     1      80.597   0.340 118.166  1.00  0.00     0.142 A 
HETATM   12  O1  UNL     1      79.656  -1.918 119.297  1.00  0.00    -0.256 OA
HETATM   13  O2  UNL     1      81.513  -2.185 120.443  1.00  0.00    -0.257 OA
HETATM   14  C1  UNL     1      78.878  -1.301 118.455  1.00  0.00     0.190 A 
HETATM   15  N1  UNL     1      77.576  -1.752 118.109  1.00  0.00    -0.072 NA
HETATM   16  C17 UNL     1      79.330  -0.142 117.858  1.00  0.00     0.115 A 
HETATM   17  O14 UNL     1      81.058   1.430 117.624  1.00  0.00    -0.269 OA
HETATM   18  C15 UNL     1      82.247   1.897 117.902  1.00  0.00     0.321 A 
HETATM   19  O13 UNL     1      82.638   2.956 117.346  1.00  0.00    -0.257 OA
BRANCH  16  20
HETATM   20  N5  UNL     1      78.514   0.553 116.940  1.00  0.00    -0.363 N 
ATOM     21  H5  UNL     1      77.797   1.195 117.282  1.00  0.00     0.162 HD
BRANCH  20  22
HETATM   22  C18 UNL     1      78.686   0.363 115.526  1.00  0.00     0.287 C 
BRANCH  22  23
HETATM   23  O15 UNL     1      79.556   1.304 114.966  1.00  0.00    -0.382 OA
ATOM     24  H15 UNL     1      80.416   0.940 114.790  1.00  0.00     0.211 HD
ENDBRANCH  22  23
ENDBRANCH  20  22
ENDBRANCH  16  20
ENDBRANCH   3   6
ENDBRANCH   1   2
BRANCH   1  25
HETATM   25  C7  UNL     1      85.452   4.738 120.598  1.00  0.00     0.198 C 
HETATM   26  O4  UNL     1      86.403   5.531 120.888  1.00  0.00    -0.646 OA
HETATM   27  O5  UNL     1      84.164   5.154 120.439  1.00  0.00    -0.646 OA
ENDBRANCH   1  25
BRANCH   1  28
HETATM   28  C8  UNL     1      86.364   2.838 121.801  1.00  0.00     0.171 C 
BRANCH  28  29
HETATM   29  C9  UNL     1      85.235   2.680 122.744  1.00  0.00     0.101 C 
BRANCH  29  30
HETATM   30  S1  UNL     1      85.175   3.703 124.154  1.00  0.00    -0.133 SA
BRANCH  30  31
HETATM   31  C10 UNL     1      83.645   4.223 124.852  1.00  0.00     0.218 C 
HETATM   32  O6  UNL     1      83.865   5.028 125.986  1.00  0.00    -0.332 OA
HETATM   33  C11 UNL     1      84.042   6.320 125.616  1.00  0.00     0.213 C 
HETATM   34  C13 UNL     1      83.727   6.457 124.166  1.00  0.00     0.214 C 
HETATM   35  C14 UNL     1      82.996   5.197 123.852  1.00  0.00     0.191 C 
BRANCH  33  36
HETATM   36  O7  UNL     1      85.381   6.736 125.808  1.00  0.00    -0.362 OA
ATOM     37  H7  UNL     1      85.602   6.788 126.730  1.00  0.00     0.213 HD
ENDBRANCH  33  36
BRANCH  33  38
HETATM   38  C12 UNL     1      83.206   7.286 126.468  1.00  0.00     0.235 C 
BRANCH  38  39
HETATM   39  O8  UNL     1      81.904   6.849 126.594  1.00  0.00    -0.395 OA
ATOM     40  H8  UNL     1      81.505   7.175 127.393  1.00  0.00     0.209 HD
ENDBRANCH  38  39
ENDBRANCH  33  38
BRANCH  34  41
HETATM   41  O9  UNL     1      84.934   6.427 123.432  1.00  0.00    -0.387 OA
ATOM     42  H9  UNL     1      85.035   7.254 122.976  1.00  0.00     0.210 HD
ENDBRANCH  34  41
BRANCH  35  43
HETATM   43  O10 UNL     1      81.644   5.231 124.101  1.00  0.00    -0.389 OA
ATOM     44  H10 UNL     1      81.219   4.610 123.521  1.00  0.00     0.210 HD
ENDBRANCH  35  43
ENDBRANCH  30  31
ENDBRANCH  29  30
ENDBRANCH  28  29
BRANCH  28  45
HETATM   45  S2  UNL     1      87.075   1.222 121.453  1.00  0.00     0.231 S 
HETATM   46  O11 UNL     1      86.166   0.110 121.672  1.00  0.00    -0.206 OA
HETATM   47  O12 UNL     1      88.275   1.066 122.425  1.00  0.00    -0.206 OA
BRANCH  45  48
HETATM   48  N4  UNL     1      87.905   1.241 119.913  1.00  0.00    -0.328 N 
ATOM     49  H42 UNL     1      87.654   1.854 119.137  1.00  0.00     0.168 HD
ATOM     50  H41 UNL     1      88.664   0.560 119.910  1.00  0.00     0.168 HD
ENDBRANCH  45  48
ENDBRANCH  28  45
ENDBRANCH   1  28
TORSDOF 17
ENDMDL
MODEL 5
REMARK VINA RESULT: -9.065068418      4.488      8.641
REMARK  17 active torsions:
REMARK  status: ('A' for Active; 'I' for Inactive)
REMARK    1  A    between atoms: C4_9  and  C5_10 
REMARK       I    between atoms: C5_10  and  N3_12 
REMARK    2  A    between atoms: N3_12  and  C6_14 
REMARK    3  A    between atoms: C6_14  and  C7_15 
REMARK    4  A    between atoms: C6_14  and  C8_18 
REMARK    5  A    between atoms: C8_18  and  C9_19 
REMARK    6  A    between atoms: C8_18  and  S2_35 
REMARK    7  A    between atoms: C9_19  and  S1_20 
REMARK    8  A    between atoms: S1_20  and  C10_21 
REMARK    9  A    between atoms: C11_23  and  O7_24 
REMARK   10  A    between atoms: C11_23  and  C12_26 
REMARK   11  A    between atoms: C12_26  and  O8_27 
REMARK   12  A    between atoms: C13_29  and  O9_30 
REMARK   13  A    between atoms: C14_32  and  O10_33 
REMARK   14  A    between atoms: S2_35  and  N4_36 
REMARK   15  A    between atoms: C17_45  and  N5_46 
REMARK   16  A    between atoms: N5_46  and  C18_48 
REMARK   17  A    between atoms: C18_48  and  O15_49 
ROOT
HETATM    1  C6  UNL     1      84.419   4.663 124.325  1.00  0.00     0.207 C 
ENDROOT
BRANCH   1   2
HETATM    2  N3  UNL     1      85.014   3.510 124.992  1.00  0.00    -0.340 N 
HETATM    3  C5  UNL     1      84.314   2.282 124.933  1.00  0.00     0.275 C 
HETATM    4  O3  UNL     1      83.211   2.164 124.325  1.00  0.00    -0.266 OA
ATOM      5  H3  UNL     1      85.904   3.587 125.484  1.00  0.00     0.163 HD
BRANCH   3   6
HETATM    6  C4  UNL     1      84.904   1.122 125.605  1.00  0.00     0.177 A 
HETATM    7  N2  UNL     1      85.592   0.184 124.913  1.00  0.00    -0.340 N 
HETATM    8  C3  UNL     1      86.093  -0.839 125.624  1.00  0.00     0.146 A 
ATOM      9  H2  UNL     1      85.724   0.252 123.903  1.00  0.00     0.167 HD
HETATM   10  C2  UNL     1      86.818  -1.865 125.036  1.00  0.00     0.319 A 
HETATM   11  C16 UNL     1      85.919  -0.940 127.008  1.00  0.00     0.142 A 
HETATM   12  O1  UNL     1      87.308  -2.866 125.734  1.00  0.00    -0.256 OA
HETATM   13  O2  UNL     1      87.029  -1.865 123.797  1.00  0.00    -0.257 OA
HETATM   14  C1  UNL     1      87.162  -2.986 127.022  1.00  0.00     0.190 A 
HETATM   15  N1  UNL     1      87.691  -4.066 127.778  1.00  0.00    -0.072 NA
HETATM   16  C17 UNL     1      86.455  -2.016 127.704  1.00  0.00     0.115 A 
HETATM   17  O14 UNL     1      85.248  -0.005 127.617  1.00  0.00    -0.269 OA
HETATM   18  C15 UNL     1      84.737   1.014 126.977  1.00  0.00     0.321 A 
HETATM   19  O13 UNL     1      84.097   1.886 127.619  1.00  0.00    -0.257 OA
BRANCH  16  20
HETATM   20  N5  UNL     1      86.276  -2.114 129.101  1.00  0.00    -0.363 N 
ATOM     21  H5  UNL     1      86.962  -1.698 129.731  1.00  0.00     0.162 HD
BRANCH  20  22
HETATM   22  C18 UNL     1      85.132  -2.798 129.640  1.00  0.00     0.287 C 
BRANCH  22  23
HETATM   23  O15 UNL     1      85.392  -4.148 129.895  1.00  0.00    -0.382 OA
ATOM     24  H15 UNL     1      85.216  -4.697 129.141  1.00  0.00     0.211 HD
ENDBRANCH  22  23
ENDBRANCH  20  22
ENDBRANCH  16  20
ENDBRANCH   3   6
ENDBRANCH   1   2
BRANCH   1  25
HETATM   25  C7  UNL     1      84.259   5.605 125.515  1.00  0.00     0.198 C 
HETATM   26  O4  UNL     1      83.255   5.404 126.269  1.00  0.00    -0.646 OA
HETATM   27  O5  UNL     1      85.167   6.596 125.740  1.00  0.00    -0.646 OA
ENDBRANCH   1  25
BRANCH   1  28
HETATM   28  C8  UNL     1      85.425   5.385 123.399  1.00  0.00     0.171 C 
BRANCH  28  29
HETATM   29  C9  UNL     1      86.254   4.381 122.697  1.00  0.00     0.101 C 
BRANCH  29  30
HETATM   30  S1  UNL     1      85.468   3.251 121.628  1.00  0.00    -0.133 SA
BRANCH  30  31
HETATM   31  C10 UNL     1      86.293   1.809 121.042  1.00  0.00     0.218 C 
HETATM   32  O6  UNL     1      85.905   0.679 121.786  1.00  0.00    -0.332 OA
HETATM   33  C11 UNL     1      84.773   0.142 121.270  1.00  0.00     0.213 C 
HETATM   34  C13 UNL     1      84.465   0.814 119.974  1.00  0.00     0.214 C 
HETATM   35  C14 UNL     1      85.739   1.509 119.637  1.00  0.00     0.191 C 
BRANCH  33  36
HETATM   36  O7  UNL     1      83.666   0.339 122.130  1.00  0.00    -0.362 OA
ATOM     37  H7  UNL     1      83.124   1.064 121.842  1.00  0.00     0.213 HD
ENDBRANCH  33  36
BRANCH  33  38
HETATM   38  C12 UNL     1      84.875  -1.381 121.105  1.00  0.00     0.235 C 
BRANCH  38  39
HETATM   39  O8  UNL     1      85.190  -1.727 119.807  1.00  0.00    -0.395 OA
ATOM     40  H8  UNL     1      84.649  -1.257 119.183  1.00  0.00     0.209 HD
ENDBRANCH  38  39
ENDBRANCH  33  38
BRANCH  34  41
HETATM   41  O9  UNL     1      83.494   1.815 120.199  1.00  0.00    -0.387 OA
ATOM     42  H9  UNL     1      83.808   2.398 120.880  1.00  0.00     0.210 HD
ENDBRANCH  34  41
BRANCH  35  43
HETATM   43  O10 UNL     1      86.662   0.741 118.966  1.00  0.00    -0.389 OA
ATOM     44  H10 UNL     1      86.520   0.853 118.034  1.00  0.00     0.210 HD
ENDBRANCH  35  43
ENDBRANCH  30  31
ENDBRANCH  29  30
ENDBRANCH  28  29
BRANCH  28  45
HETATM   45  S2  UNL     1      84.344   6.196 122.210  1.00  0.00     0.231 S 
HETATM   46  O11 UNL     1      84.891   6.279 120.867  1.00  0.00    -0.206 OA
HETATM   47  O12 UNL     1      84.135   7.639 122.739  1.00  0.00    -0.206 OA
BRANCH  45  48
HETATM   48  N4  UNL     1      82.717   5.564 122.336  1.00  0.00    -0.328 N 
ATOM     49  H42 UNL     1      82.106   5.397 121.537  1.00  0.00     0.168 HD
ATOM     50  H41 UNL     1      82.479   5.390 123.313  1.00  0.00     0.168 HD
ENDBRANCH  45  48
ENDBRANCH  28  45
ENDBRANCH   1  28
TORSDOF 17
ENDMDL
