MODEL 1
REMARK VINA RESULT: -5.665971549      0.000      0.000
REMARK  7 active torsions:
REMARK  status: ('A' for Active; 'I' for Inactive)
REMARK    1  A    between atoms: C2_2  and  C3_3 
REMARK    2  A    between atoms: C3_3  and  C4_4 
REMARK    3  A    between atoms: C4_4  and  O1_5 
REMARK    4  A    between atoms: O1_5  and  C5_6 
REMARK    5  A    between atoms: C8_9  and  C9_10 
REMARK    6  A    between atoms: C9_10  and  C11_12 
REMARK    7  A    between atoms: C11_12  and  O2_14 
ROOT
HETATM    1  C5  UNL     1     -32.028 -22.990 -35.957  1.00  0.00     0.121 C 
HETATM    2  C6  UNL     1     -31.150 -24.118 -35.458  1.00  0.00     0.032 C 
HETATM    3  C7  UNL     1     -29.946 -24.116 -36.407  1.00  0.00     0.007 C 
HETATM    4  C8  UNL     1     -30.428 -24.442 -37.799  1.00  0.00    -0.008 C 
HETATM    5  C13 UNL     1     -31.898 -24.458 -37.957  1.00  0.00     0.007 C 
HETATM    6  C14 UNL     1     -32.683 -23.445 -37.211  1.00  0.00     0.032 C 
ENDROOT
BRANCH   4   7
HETATM    7  C9  UNL     1     -29.827 -25.783 -38.148  1.00  0.00     0.014 C 
HETATM    8  C10 UNL     1     -30.790 -26.925 -37.910  1.00  0.00     0.013 C 
BRANCH   7   9
HETATM    9  C11 UNL     1     -29.195 -25.851 -39.497  1.00  0.00     0.118 C 
HETATM   10  C12 UNL     1     -27.846 -25.123 -39.389  1.00  0.00     0.040 C 
BRANCH   9  11
HETATM   11  O2  UNL     1     -28.847 -27.162 -39.858  1.00  0.00    -0.396 OA
ATOM     12  H2  UNL     1     -28.176 -27.185 -40.530  1.00  0.00     0.210 HD
ENDBRANCH   9  11
ENDBRANCH   7   9
ENDBRANCH   4   7
BRANCH   1  13
HETATM   13  O1  UNL     1     -32.908 -22.540 -34.990  1.00  0.00    -0.386 OA
BRANCH  13  14
HETATM   14  C4  UNL     1     -32.299 -22.264 -33.774  1.00  0.00     0.168 C 
BRANCH  14  15
HETATM   15  C3  UNL     1     -31.826 -20.807 -33.855  1.00  0.00     0.026 C 
BRANCH  15  16
HETATM   16  C2  UNL     1     -33.118 -19.976 -33.910  1.00  0.00    -0.002 C 
HETATM   17  C1  UNL     1     -32.954 -18.781 -33.036  1.00  0.00     0.005 C 
ENDBRANCH  15  16
ENDBRANCH  14  15
ENDBRANCH  13  14
ENDBRANCH   1  13
TORSDOF 7
ENDMDL
MODEL 2
REMARK VINA RESULT: -5.588104855      2.526      7.650
REMARK  7 active torsions:
REMARK  status: ('A' for Active; 'I' for Inactive)
REMARK    1  A    between atoms: C2_2  and  C3_3 
REMARK    2  A    between atoms: C3_3  and  C4_4 
REMARK    3  A    between atoms: C4_4  and  O1_5 
REMARK    4  A    between atoms: O1_5  and  C5_6 
REMARK    5  A    between atoms: C8_9  and  C9_10 
REMARK    6  A    between atoms: C9_10  and  C11_12 
REMARK    7  A    between atoms: C11_12  and  O2_14 
ROOT
HETATM    1  C5  UNL     1     -31.130 -21.561 -35.177  1.00  0.00     0.121 C 
HETATM    2  C6  UNL     1     -31.704 -21.111 -33.851  1.00  0.00     0.032 C 
HETATM    3  C7  UNL     1     -32.328 -19.742 -34.146  1.00  0.00     0.007 C 
HETATM    4  C8  UNL     1     -31.231 -18.792 -34.559  1.00  0.00    -0.008 C 
HETATM    5  C13 UNL     1     -29.917 -19.427 -34.792  1.00  0.00     0.007 C 
HETATM    6  C14 UNL     1     -29.902 -20.765 -35.433  1.00  0.00     0.032 C 
ENDROOT
BRANCH   4   7
HETATM    7  C9  UNL     1     -31.147 -17.750 -33.468  1.00  0.00     0.014 C 
HETATM    8  C10 UNL     1     -29.732 -17.545 -32.976  1.00  0.00     0.013 C 
BRANCH   7   9
HETATM    9  C11 UNL     1     -31.826 -16.461 -33.785  1.00  0.00     0.118 C 
HETATM   10  C12 UNL     1     -31.354 -16.046 -35.187  1.00  0.00     0.040 C 
BRANCH   9  11
HETATM   11  O2  UNL     1     -33.215 -16.609 -33.922  1.00  0.00    -0.396 OA
ATOM     12  H2  UNL     1     -33.568 -17.268 -33.336  1.00  0.00     0.210 HD
ENDBRANCH   9  11
ENDBRANCH   7   9
ENDBRANCH   4   7
BRANCH   1  13
HETATM   13  O1  UNL     1     -30.939 -22.929 -35.233  1.00  0.00    -0.386 OA
BRANCH  13  14
HETATM   14  C4  UNL     1     -30.001 -23.318 -36.179  1.00  0.00     0.168 C 
BRANCH  14  15
HETATM   15  C3  UNL     1     -30.756 -24.184 -37.196  1.00  0.00     0.026 C 
BRANCH  15  16
HETATM   16  C2  UNL     1     -29.730 -25.227 -37.664  1.00  0.00    -0.002 C 
HETATM   17  C1  UNL     1     -30.442 -26.505 -37.943  1.00  0.00     0.005 C 
ENDBRANCH  15  16
ENDBRANCH  14  15
ENDBRANCH  13  14
ENDBRANCH   1  13
TORSDOF 7
ENDMDL
MODEL 3
REMARK VINA RESULT: -5.490359362      3.215      7.176
REMARK  7 active torsions:
REMARK  status: ('A' for Active; 'I' for Inactive)
REMARK    1  A    between atoms: C2_2  and  C3_3 
REMARK    2  A    between atoms: C3_3  and  C4_4 
REMARK    3  A    between atoms: C4_4  and  O1_5 
REMARK    4  A    between atoms: O1_5  and  C5_6 
REMARK    5  A    between atoms: C8_9  and  C9_10 
REMARK    6  A    between atoms: C9_10  and  C11_12 
REMARK    7  A    between atoms: C11_12  and  O2_14 
ROOT
HETATM    1  C5  UNL     1     -31.040 -21.556 -35.130  1.00  0.00     0.121 C 
HETATM    2  C6  UNL     1     -31.595 -21.134 -33.787  1.00  0.00     0.032 C 
HETATM    3  C7  UNL     1     -32.295 -19.797 -34.064  1.00  0.00     0.007 C 
HETATM    4  C8  UNL     1     -31.259 -18.794 -34.508  1.00  0.00    -0.008 C 
HETATM    5  C13 UNL     1     -29.922 -19.364 -34.781  1.00  0.00     0.007 C 
HETATM    6  C14 UNL     1     -29.860 -20.700 -35.422  1.00  0.00     0.032 C 
ENDROOT
BRANCH   4   7
HETATM    7  C9  UNL     1     -31.194 -17.748 -33.420  1.00  0.00     0.014 C 
HETATM    8  C10 UNL     1     -29.786 -17.533 -32.912  1.00  0.00     0.013 C 
BRANCH   7   9
HETATM    9  C11 UNL     1     -31.876 -16.464 -33.750  1.00  0.00     0.118 C 
HETATM   10  C12 UNL     1     -31.358 -16.030 -35.130  1.00  0.00     0.040 C 
BRANCH   9  11
HETATM   11  O2  UNL     1     -33.257 -16.627 -33.941  1.00  0.00    -0.396 OA
ATOM     12  H2  UNL     1     -33.499 -16.614 -34.859  1.00  0.00     0.210 HD
ENDBRANCH   9  11
ENDBRANCH   7   9
ENDBRANCH   4   7
BRANCH   1  13
HETATM   13  O1  UNL     1     -30.783 -22.913 -35.192  1.00  0.00    -0.386 OA
BRANCH  13  14
HETATM   14  C4  UNL     1     -31.922 -23.683 -35.378  1.00  0.00     0.168 C 
BRANCH  14  15
HETATM   15  C3  UNL     1     -32.555 -23.197 -36.689  1.00  0.00     0.026 C 
BRANCH  15  16
HETATM   16  C2  UNL     1     -34.057 -23.476 -36.528  1.00  0.00    -0.002 C 
HETATM   17  C1  UNL     1     -34.600 -22.573 -35.475  1.00  0.00     0.005 C 
ENDBRANCH  15  16
ENDBRANCH  14  15
ENDBRANCH  13  14
ENDBRANCH   1  13
TORSDOF 7
ENDMDL
MODEL 4
REMARK VINA RESULT: -5.473969810      2.538      6.416
REMARK  7 active torsions:
REMARK  status: ('A' for Active; 'I' for Inactive)
REMARK    1  A    between atoms: C2_2  and  C3_3 
REMARK    2  A    between atoms: C3_3  and  C4_4 
REMARK    3  A    between atoms: C4_4  and  O1_5 
REMARK    4  A    between atoms: O1_5  and  C5_6 
REMARK    5  A    between atoms: C8_9  and  C9_10 
REMARK    6  A    between atoms: C9_10  and  C11_12 
REMARK    7  A    between atoms: C11_12  and  O2_14 
ROOT
HETATM    1  C5  UNL     1     -32.132 -24.412 -34.734  1.00  0.00     0.121 C 
HETATM    2  C6  UNL     1     -31.579 -23.687 -33.526  1.00  0.00     0.032 C 
HETATM    3  C7  UNL     1     -32.146 -22.266 -33.638  1.00  0.00     0.007 C 
HETATM    4  C8  UNL     1     -31.601 -21.627 -34.891  1.00  0.00    -0.008 C 
HETATM    5  C13 UNL     1     -30.873 -22.548 -35.789  1.00  0.00     0.007 C 
HETATM    6  C14 UNL     1     -31.393 -23.930 -35.930  1.00  0.00     0.032 C 
ENDROOT
BRANCH   4   7
HETATM    7  C9  UNL     1     -30.711 -20.496 -34.432  1.00  0.00     0.014 C 
HETATM    8  C10 UNL     1     -29.261 -20.720 -34.796  1.00  0.00     0.013 C 
BRANCH   7   9
HETATM    9  C11 UNL     1     -31.185 -19.136 -34.818  1.00  0.00     0.118 C 
HETATM   10  C12 UNL     1     -31.861 -18.535 -33.576  1.00  0.00     0.040 C 
BRANCH   9  11
HETATM   11  O2  UNL     1     -30.124 -18.257 -35.087  1.00  0.00    -0.396 OA
ATOM     12  H2  UNL     1     -29.368 -18.704 -35.449  1.00  0.00     0.210 HD
ENDBRANCH   9  11
ENDBRANCH   7   9
ENDBRANCH   4   7
BRANCH   1  13
HETATM   13  O1  UNL     1     -32.119 -25.786 -34.577  1.00  0.00    -0.386 OA
BRANCH  13  14
HETATM   14  C4  UNL     1     -33.163 -26.426 -35.228  1.00  0.00     0.168 C 
BRANCH  14  15
HETATM   15  C3  UNL     1     -32.536 -27.611 -35.974  1.00  0.00     0.026 C 
BRANCH  15  16
HETATM   16  C2  UNL     1     -32.461 -27.158 -37.441  1.00  0.00    -0.002 C 
HETATM   17  C1  UNL     1     -31.030 -27.094 -37.848  1.00  0.00     0.005 C 
ENDBRANCH  15  16
ENDBRANCH  14  15
ENDBRANCH  13  14
ENDBRANCH   1  13
TORSDOF 7
ENDMDL
MODEL 5
REMARK VINA RESULT: -5.403909767      2.143      7.191
REMARK  7 active torsions:
REMARK  status: ('A' for Active; 'I' for Inactive)
REMARK    1  A    between atoms: C2_2  and  C3_3 
REMARK    2  A    between atoms: C3_3  and  C4_4 
REMARK    3  A    between atoms: C4_4  and  O1_5 
REMARK    4  A    between atoms: O1_5  and  C5_6 
REMARK    5  A    between atoms: C8_9  and  C9_10 
REMARK    6  A    between atoms: C9_10  and  C11_12 
REMARK    7  A    between atoms: C11_12  and  O2_14 
ROOT
HETATM    1  C5  UNL     1     -29.801 -23.031 -35.720  1.00  0.00     0.121 C 
HETATM    2  C6  UNL     1     -30.353 -22.836 -34.324  1.00  0.00     0.032 C 
HETATM    3  C7  UNL     1     -31.564 -21.915 -34.515  1.00  0.00     0.007 C 
HETATM    4  C8  UNL     1     -31.081 -20.588 -35.047  1.00  0.00    -0.008 C 
HETATM    5  C13 UNL     1     -29.660 -20.565 -35.455  1.00  0.00     0.007 C 
HETATM    6  C14 UNL     1     -29.112 -21.775 -36.115  1.00  0.00     0.032 C 
ENDROOT
BRANCH   4   7
HETATM    7  C9  UNL     1     -31.351 -19.576 -33.958  1.00  0.00     0.014 C 
HETATM    8  C10 UNL     1     -30.764 -18.220 -34.273  1.00  0.00     0.013 C 
BRANCH   7   9
HETATM    9  C11 UNL     1     -32.777 -19.488 -33.531  1.00  0.00     0.118 C 
HETATM   10  C12 UNL     1     -32.936 -18.148 -32.796  1.00  0.00     0.040 C 
BRANCH   9  11
HETATM   11  O2  UNL     1     -33.655 -19.384 -34.622  1.00  0.00    -0.396 OA
ATOM     12  H2  UNL     1     -34.471 -19.848 -34.474  1.00  0.00     0.210 HD
ENDBRANCH   9  11
ENDBRANCH   7   9
ENDBRANCH   4   7
BRANCH   1  13
HETATM   13  O1  UNL     1     -29.014 -24.164 -35.823  1.00  0.00    -0.386 OA
BRANCH  13  14
HETATM   14  C4  UNL     1     -28.434 -24.322 -37.073  1.00  0.00     0.168 C 
BRANCH  14  15
HETATM   15  C3  UNL     1     -29.464 -25.071 -37.929  1.00  0.00     0.026 C 
BRANCH  15  16
HETATM   16  C2  UNL     1     -28.971 -24.903 -39.375  1.00  0.00    -0.002 C 
HETATM   17  C1  UNL     1     -27.649 -25.576 -39.509  1.00  0.00     0.005 C 
ENDBRANCH  15  16
ENDBRANCH  14  15
ENDBRANCH  13  14
ENDBRANCH   1  13
TORSDOF 7
ENDMDL
