MODEL 1
REMARK VINA RESULT: -5.779543568      0.000      0.000
REMARK  9 active torsions:
REMARK  status: ('A' for Active; 'I' for Inactive)
REMARK    1  A    between atoms: C2_2  and  C3_3 
REMARK    2  A    between atoms: C3_3  and  C4_4 
REMARK    3  A    between atoms: C4_4  and  C5_5 
REMARK    4  A    between atoms: C5_5  and  C6_6 
REMARK    5  A    between atoms: C6_6  and  C7_7 
REMARK    6  A    between atoms: C7_7  and  C8_8 
REMARK    7  A    between atoms: C8_8  and  O1_9 
REMARK    8  A    between atoms: O1_9  and  C9_10 
REMARK    9  A    between atoms: C14_15  and  O2_16 
ROOT
HETATM    1  O1  UNL     1     -29.764 -20.267 -35.363  1.00  0.00    -0.348 OA
ENDROOT
BRANCH   1   2
HETATM    2  C8  UNL     1     -29.164 -21.494 -35.230  1.00  0.00     0.176 C 
BRANCH   2   3
HETATM    3  C7  UNL     1     -28.415 -21.875 -36.481  1.00  0.00     0.027 C 
BRANCH   3   4
HETATM    4  C6  UNL     1     -28.803 -23.327 -36.763  1.00  0.00     0.002 C 
BRANCH   4   5
HETATM    5  C5  UNL     1     -27.712 -24.016 -37.574  1.00  0.00     0.000 C 
BRANCH   5   6
HETATM    6  C4  UNL     1     -28.406 -25.181 -38.286  1.00  0.00     0.000 C 
BRANCH   6   7
HETATM    7  C3  UNL     1     -27.895 -25.184 -39.707  1.00  0.00    -0.000 C 
BRANCH   7   8
HETATM    8  C2  UNL     1     -28.819 -24.302 -40.546  1.00  0.00    -0.005 C 
HETATM    9  C1  UNL     1     -27.941 -23.278 -41.236  1.00  0.00     0.005 C 
ENDBRANCH   7   8
ENDBRANCH   6   7
ENDBRANCH   5   6
ENDBRANCH   4   5
ENDBRANCH   3   4
ENDBRANCH   2   3
ENDBRANCH   1   2
BRANCH   1  10
HETATM   10  C9  UNL     1     -30.785 -19.745 -34.619  1.00  0.00     0.101 A 
HETATM   11  C10 UNL     1     -31.847 -20.438 -34.085  1.00  0.00     0.039 A 
HETATM   12  C11 UNL     1     -32.856 -19.817 -33.336  1.00  0.00     0.003 A 
HETATM   13  C12 UNL     1     -32.834 -18.465 -33.094  1.00  0.00     0.003 A 
HETATM   14  C13 UNL     1     -31.779 -17.756 -33.619  1.00  0.00     0.039 A 
HETATM   15  C14 UNL     1     -30.789 -18.356 -34.352  1.00  0.00     0.099 A 
BRANCH  15  16
HETATM   16  O2  UNL     1     -29.718 -17.640 -34.886  1.00  0.00    -0.358 OA
ATOM     17  H2  UNL     1     -29.253 -17.083 -34.272  1.00  0.00     0.217 HD
ENDBRANCH  15  16
ENDBRANCH   1  10
TORSDOF 9
ENDMDL
MODEL 2
REMARK VINA RESULT: -5.503270393      1.657      2.255
REMARK  9 active torsions:
REMARK  status: ('A' for Active; 'I' for Inactive)
REMARK    1  A    between atoms: C2_2  and  C3_3 
REMARK    2  A    between atoms: C3_3  and  C4_4 
REMARK    3  A    between atoms: C4_4  and  C5_5 
REMARK    4  A    between atoms: C5_5  and  C6_6 
REMARK    5  A    between atoms: C6_6  and  C7_7 
REMARK    6  A    between atoms: C7_7  and  C8_8 
REMARK    7  A    between atoms: C8_8  and  O1_9 
REMARK    8  A    between atoms: O1_9  and  C9_10 
REMARK    9  A    between atoms: C14_15  and  O2_16 
ROOT
HETATM    1  O1  UNL     1     -29.881 -20.001 -35.259  1.00  0.00    -0.348 OA
ENDROOT
BRANCH   1   2
HETATM    2  C8  UNL     1     -29.077 -21.069 -34.951  1.00  0.00     0.176 C 
BRANCH   2   3
HETATM    3  C7  UNL     1     -28.743 -21.874 -36.182  1.00  0.00     0.027 C 
BRANCH   3   4
HETATM    4  C6  UNL     1     -29.652 -23.102 -36.126  1.00  0.00     0.002 C 
BRANCH   4   5
HETATM    5  C5  UNL     1     -29.209 -24.134 -37.155  1.00  0.00     0.000 C 
BRANCH   5   6
HETATM    6  C4  UNL     1     -30.501 -24.690 -37.760  1.00  0.00     0.000 C 
BRANCH   6   7
HETATM    7  C3  UNL     1     -30.150 -26.022 -38.379  1.00  0.00    -0.000 C 
BRANCH   7   8
HETATM    8  C2  UNL     1     -31.021 -27.094 -37.723  1.00  0.00    -0.005 C 
HETATM    9  C1  UNL     1     -32.457 -26.623 -37.837  1.00  0.00     0.005 C 
ENDBRANCH   7   8
ENDBRANCH   6   7
ENDBRANCH   5   6
ENDBRANCH   4   5
ENDBRANCH   3   4
ENDBRANCH   2   3
ENDBRANCH   1   2
BRANCH   1  10
HETATM   10  C9  UNL     1     -30.862 -19.438 -34.491  1.00  0.00     0.101 A 
HETATM   11  C10 UNL     1     -31.958 -20.080 -33.963  1.00  0.00     0.039 A 
HETATM   12  C11 UNL     1     -32.922 -19.419 -33.188  1.00  0.00     0.003 A 
HETATM   13  C12 UNL     1     -32.817 -18.077 -32.913  1.00  0.00     0.003 A 
HETATM   14  C13 UNL     1     -31.726 -17.419 -33.432  1.00  0.00     0.039 A 
HETATM   15  C14 UNL     1     -30.781 -18.058 -34.190  1.00  0.00     0.099 A 
BRANCH  15  16
HETATM   16  O2  UNL     1     -29.674 -17.394 -34.718  1.00  0.00    -0.358 OA
ATOM     17  H2  UNL     1     -28.828 -17.755 -34.477  1.00  0.00     0.217 HD
ENDBRANCH  15  16
ENDBRANCH   1  10
TORSDOF 9
ENDMDL
MODEL 3
REMARK VINA RESULT: -5.474913083      2.628      3.958
REMARK  9 active torsions:
REMARK  status: ('A' for Active; 'I' for Inactive)
REMARK    1  A    between atoms: C2_2  and  C3_3 
REMARK    2  A    between atoms: C3_3  and  C4_4 
REMARK    3  A    between atoms: C4_4  and  C5_5 
REMARK    4  A    between atoms: C5_5  and  C6_6 
REMARK    5  A    between atoms: C6_6  and  C7_7 
REMARK    6  A    between atoms: C7_7  and  C8_8 
REMARK    7  A    between atoms: C8_8  and  O1_9 
REMARK    8  A    between atoms: O1_9  and  C9_10 
REMARK    9  A    between atoms: C14_15  and  O2_16 
ROOT
HETATM    1  O1  UNL     1     -32.327 -18.979 -35.178  1.00  0.00    -0.348 OA
ENDROOT
BRANCH   1   2
HETATM    2  C8  UNL     1     -32.513 -20.338 -35.208  1.00  0.00     0.176 C 
BRANCH   2   3
HETATM    3  C7  UNL     1     -32.931 -20.862 -33.857  1.00  0.00     0.027 C 
BRANCH   3   4
HETATM    4  C6  UNL     1     -32.303 -22.253 -33.746  1.00  0.00     0.002 C 
BRANCH   4   5
HETATM    5  C5  UNL     1     -30.787 -22.158 -33.863  1.00  0.00     0.000 C 
BRANCH   5   6
HETATM    6  C4  UNL     1     -30.350 -23.442 -34.575  1.00  0.00     0.000 C 
BRANCH   6   7
HETATM    7  C3  UNL     1     -30.014 -23.055 -35.994  1.00  0.00    -0.000 C 
BRANCH   7   8
HETATM    8  C2  UNL     1     -30.578 -24.129 -36.925  1.00  0.00    -0.005 C 
HETATM    9  C1  UNL     1     -32.021 -23.757 -37.201  1.00  0.00     0.005 C 
ENDBRANCH   7   8
ENDBRANCH   6   7
ENDBRANCH   5   6
ENDBRANCH   4   5
ENDBRANCH   3   4
ENDBRANCH   2   3
ENDBRANCH   1   2
BRANCH   1  10
HETATM   10  C9  UNL     1     -31.454 -18.266 -34.403  1.00  0.00     0.101 A 
HETATM   11  C10 UNL     1     -30.113 -18.522 -34.232  1.00  0.00     0.039 A 
HETATM   12  C11 UNL     1     -29.292 -17.739 -33.410  1.00  0.00     0.003 A 
HETATM   13  C12 UNL     1     -29.793 -16.658 -32.725  1.00  0.00     0.003 A 
HETATM   14  C13 UNL     1     -31.132 -16.387 -32.885  1.00  0.00     0.039 A 
HETATM   15  C14 UNL     1     -31.941 -17.149 -33.686  1.00  0.00     0.099 A 
BRANCH  15  16
HETATM   16  O2  UNL     1     -33.298 -16.876 -33.851  1.00  0.00    -0.358 OA
ATOM     17  H2  UNL     1     -33.505 -16.000 -34.159  1.00  0.00     0.217 HD
ENDBRANCH  15  16
ENDBRANCH   1  10
TORSDOF 9
ENDMDL
MODEL 4
REMARK VINA RESULT: -5.471297359      1.887      7.474
REMARK  9 active torsions:
REMARK  status: ('A' for Active; 'I' for Inactive)
REMARK    1  A    between atoms: C2_2  and  C3_3 
REMARK    2  A    between atoms: C3_3  and  C4_4 
REMARK    3  A    between atoms: C4_4  and  C5_5 
REMARK    4  A    between atoms: C5_5  and  C6_6 
REMARK    5  A    between atoms: C6_6  and  C7_7 
REMARK    6  A    between atoms: C7_7  and  C8_8 
REMARK    7  A    between atoms: C8_8  and  O1_9 
REMARK    8  A    between atoms: O1_9  and  C9_10 
REMARK    9  A    between atoms: C14_15  and  O2_16 
ROOT
HETATM    1  O1  UNL     1     -29.112 -22.888 -35.726  1.00  0.00    -0.348 OA
ENDROOT
BRANCH   1   2
HETATM    2  C8  UNL     1     -28.973 -21.524 -35.684  1.00  0.00     0.176 C 
BRANCH   2   3
HETATM    3  C7  UNL     1     -30.260 -20.856 -35.271  1.00  0.00     0.027 C 
BRANCH   3   4
HETATM    4  C6  UNL     1     -30.836 -21.732 -34.157  1.00  0.00     0.002 C 
BRANCH   4   5
HETATM    5  C5  UNL     1     -32.175 -21.178 -33.689  1.00  0.00     0.000 C 
BRANCH   5   6
HETATM    6  C4  UNL     1     -32.148 -19.688 -34.043  1.00  0.00     0.000 C 
BRANCH   6   7
HETATM    7  C3  UNL     1     -32.978 -18.981 -32.999  1.00  0.00    -0.000 C 
BRANCH   7   8
HETATM    8  C2  UNL     1     -32.362 -17.604 -32.753  1.00  0.00    -0.005 C 
HETATM    9  C1  UNL     1     -30.930 -17.670 -33.246  1.00  0.00     0.005 C 
ENDBRANCH   7   8
ENDBRANCH   6   7
ENDBRANCH   5   6
ENDBRANCH   4   5
ENDBRANCH   3   4
ENDBRANCH   2   3
ENDBRANCH   1   2
BRANCH   1  10
HETATM   10  C9  UNL     1     -28.967 -23.716 -36.805  1.00  0.00     0.101 A 
HETATM   11  C10 UNL     1     -27.997 -23.631 -37.777  1.00  0.00     0.039 A 
HETATM   12  C11 UNL     1     -27.927 -24.523 -38.856  1.00  0.00     0.003 A 
HETATM   13  C12 UNL     1     -28.838 -25.543 -38.997  1.00  0.00     0.003 A 
HETATM   14  C13 UNL     1     -29.814 -25.643 -38.033  1.00  0.00     0.039 A 
HETATM   15  C14 UNL     1     -29.888 -24.775 -36.976  1.00  0.00     0.099 A 
BRANCH  15  16
HETATM   16  O2  UNL     1     -30.876 -24.874 -35.997  1.00  0.00    -0.358 OA
ATOM     17  H2  UNL     1     -31.295 -25.724 -35.925  1.00  0.00     0.217 HD
ENDBRANCH  15  16
ENDBRANCH   1  10
TORSDOF 9
ENDMDL
MODEL 5
REMARK VINA RESULT: -5.463972408      1.271      1.793
REMARK  9 active torsions:
REMARK  status: ('A' for Active; 'I' for Inactive)
REMARK    1  A    between atoms: C2_2  and  C3_3 
REMARK    2  A    between atoms: C3_3  and  C4_4 
REMARK    3  A    between atoms: C4_4  and  C5_5 
REMARK    4  A    between atoms: C5_5  and  C6_6 
REMARK    5  A    between atoms: C6_6  and  C7_7 
REMARK    6  A    between atoms: C7_7  and  C8_8 
REMARK    7  A    between atoms: C8_8  and  O1_9 
REMARK    8  A    between atoms: O1_9  and  C9_10 
REMARK    9  A    between atoms: C14_15  and  O2_16 
ROOT
HETATM    1  O1  UNL     1     -29.967 -20.035 -35.328  1.00  0.00    -0.348 OA
ENDROOT
BRANCH   1   2
HETATM    2  C8  UNL     1     -29.139 -21.089 -35.029  1.00  0.00     0.176 C 
BRANCH   2   3
HETATM    3  C7  UNL     1     -29.292 -22.205 -36.031  1.00  0.00     0.027 C 
BRANCH   3   4
HETATM    4  C6  UNL     1     -27.986 -22.222 -36.826  1.00  0.00     0.002 C 
BRANCH   4   5
HETATM    5  C5  UNL     1     -27.885 -23.502 -37.646  1.00  0.00     0.000 C 
BRANCH   5   6
HETATM    6  C4  UNL     1     -29.185 -24.265 -37.376  1.00  0.00     0.000 C 
BRANCH   6   7
HETATM    7  C3  UNL     1     -29.712 -24.710 -38.719  1.00  0.00    -0.000 C 
BRANCH   7   8
HETATM    8  C2  UNL     1     -29.772 -26.237 -38.723  1.00  0.00    -0.005 C 
HETATM    9  C1  UNL     1     -30.770 -26.640 -37.657  1.00  0.00     0.005 C 
ENDBRANCH   7   8
ENDBRANCH   6   7
ENDBRANCH   5   6
ENDBRANCH   4   5
ENDBRANCH   3   4
ENDBRANCH   2   3
ENDBRANCH   1   2
BRANCH   1  10
HETATM   10  C9  UNL     1     -30.913 -19.455 -34.529  1.00  0.00     0.101 A 
HETATM   11  C10 UNL     1     -32.005 -20.077 -33.970  1.00  0.00     0.039 A 
HETATM   12  C11 UNL     1     -32.931 -19.400 -33.164  1.00  0.00     0.003 A 
HETATM   13  C12 UNL     1     -32.790 -18.061 -32.888  1.00  0.00     0.003 A 
HETATM   14  C13 UNL     1     -31.702 -17.424 -33.437  1.00  0.00     0.039 A 
HETATM   15  C14 UNL     1     -30.793 -18.079 -34.226  1.00  0.00     0.099 A 
BRANCH  15  16
HETATM   16  O2  UNL     1     -29.690 -17.436 -34.785  1.00  0.00    -0.358 OA
ATOM     17  H2  UNL     1     -29.597 -16.517 -34.563  1.00  0.00     0.217 HD
ENDBRANCH  15  16
ENDBRANCH   1  10
TORSDOF 9
ENDMDL
