MODEL 1
REMARK VINA RESULT: -5.459448256      0.000      0.000
REMARK  9 active torsions:
REMARK  status: ('A' for Active; 'I' for Inactive)
REMARK    1  A    between atoms: C2_2  and  C3_3 
REMARK    2  A    between atoms: C3_3  and  C4_4 
REMARK    3  A    between atoms: C4_4  and  O1_5 
REMARK    4  A    between atoms: O1_5  and  C5_6 
REMARK    5  A    between atoms: C5_6  and  C6_7 
REMARK    6  A    between atoms: C10_11  and  C11_12 
REMARK    7  A    between atoms: C11_12  and  C12_13 
REMARK    8  A    between atoms: C12_13  and  C13_14 
REMARK    9  A    between atoms: C13_14  and  O2_15 
ROOT
HETATM    1  C6  UNL     1     -29.862 -21.524 -35.389  1.00  0.00    -0.034 A 
HETATM    2  C7  UNL     1     -30.834 -22.238 -34.717  1.00  0.00     0.009 A 
HETATM    3  C8  UNL     1     -31.839 -21.585 -33.999  1.00  0.00     0.001 A 
HETATM    4  C9  UNL     1     -31.897 -20.223 -33.935  1.00  0.00     0.007 A 
HETATM    5  C10 UNL     1     -30.933 -19.494 -34.601  1.00  0.00    -0.058 A 
HETATM    6  C14 UNL     1     -29.944 -20.150 -35.308  1.00  0.00     0.016 A 
ENDROOT
BRANCH   1   7
HETATM    7  C5  UNL     1     -28.797 -22.224 -36.150  1.00  0.00     0.206 C 
BRANCH   7   8
HETATM    8  O1  UNL     1     -28.895 -23.598 -36.080  1.00  0.00    -0.387 OA
BRANCH   8   9
HETATM    9  C4  UNL     1     -28.414 -24.121 -37.270  1.00  0.00     0.168 C 
BRANCH   9  10
HETATM   10  C3  UNL     1     -29.567 -24.645 -38.140  1.00  0.00     0.026 C 
BRANCH  10  11
HETATM   11  C2  UNL     1     -30.594 -25.349 -37.311  1.00  0.00    -0.002 C 
HETATM   12  C1  UNL     1     -30.768 -26.794 -37.696  1.00  0.00     0.005 C 
ENDBRANCH  10  11
ENDBRANCH   9  10
ENDBRANCH   8   9
ENDBRANCH   7   8
ENDBRANCH   1   7
BRANCH   5  13
HETATM   13  C11 UNL     1     -30.986 -18.017 -34.539  1.00  0.00     0.041 C 
BRANCH  13  14
HETATM   14  C12 UNL     1     -30.880 -17.474 -33.135  1.00  0.00     0.030 C 
BRANCH  14  15
HETATM   15  C13 UNL     1     -32.014 -16.556 -32.773  1.00  0.00     0.164 C 
BRANCH  15  16
HETATM   16  O2  UNL     1     -32.960 -16.591 -33.823  1.00  0.00    -0.401 OA
ATOM     17  H2  UNL     1     -33.591 -15.895 -33.676  1.00  0.00     0.209 HD
ENDBRANCH  15  16
ENDBRANCH  14  15
ENDBRANCH  13  14
ENDBRANCH   5  13
TORSDOF 9
ENDMDL
MODEL 2
REMARK VINA RESULT: -5.442880661      1.132      2.015
REMARK  9 active torsions:
REMARK  status: ('A' for Active; 'I' for Inactive)
REMARK    1  A    between atoms: C2_2  and  C3_3 
REMARK    2  A    between atoms: C3_3  and  C4_4 
REMARK    3  A    between atoms: C4_4  and  O1_5 
REMARK    4  A    between atoms: O1_5  and  C5_6 
REMARK    5  A    between atoms: C5_6  and  C6_7 
REMARK    6  A    between atoms: C10_11  and  C11_12 
REMARK    7  A    between atoms: C11_12  and  C12_13 
REMARK    8  A    between atoms: C12_13  and  C13_14 
REMARK    9  A    between atoms: C13_14  and  O2_15 
ROOT
HETATM    1  C6  UNL     1     -30.950 -22.384 -34.434  1.00  0.00    -0.034 A 
HETATM    2  C7  UNL     1     -29.871 -22.018 -35.214  1.00  0.00     0.009 A 
HETATM    3  C8  UNL     1     -29.589 -20.672 -35.465  1.00  0.00     0.001 A 
HETATM    4  C9  UNL     1     -30.365 -19.675 -34.950  1.00  0.00     0.007 A 
HETATM    5  C10 UNL     1     -31.446 -20.023 -34.168  1.00  0.00    -0.058 A 
HETATM    6  C14 UNL     1     -31.716 -21.356 -33.926  1.00  0.00     0.016 A 
ENDROOT
BRANCH   1   7
HETATM    7  C5  UNL     1     -31.244 -23.815 -34.171  1.00  0.00     0.206 C 
BRANCH   7   8
HETATM    8  O1  UNL     1     -30.795 -24.653 -35.171  1.00  0.00    -0.387 OA
BRANCH   8   9
HETATM    9  C4  UNL     1     -31.873 -24.953 -35.990  1.00  0.00     0.168 C 
BRANCH   9  10
HETATM   10  C3  UNL     1     -31.564 -24.590 -37.451  1.00  0.00     0.026 C 
BRANCH  10  11
HETATM   11  C2  UNL     1     -30.366 -25.332 -37.952  1.00  0.00    -0.002 C 
HETATM   12  C1  UNL     1     -30.595 -26.817 -38.049  1.00  0.00     0.005 C 
ENDBRANCH  10  11
ENDBRANCH   9  10
ENDBRANCH   8   9
ENDBRANCH   7   8
ENDBRANCH   1   7
BRANCH   5  13
HETATM   13  C11 UNL     1     -32.294 -18.951 -33.603  1.00  0.00     0.041 C 
BRANCH  13  14
HETATM   14  C12 UNL     1     -31.500 -17.809 -33.015  1.00  0.00     0.030 C 
BRANCH  14  15
HETATM   15  C13 UNL     1     -32.014 -16.460 -33.434  1.00  0.00     0.164 C 
BRANCH  15  16
HETATM   16  O2  UNL     1     -33.303 -16.633 -33.987  1.00  0.00    -0.401 OA
ATOM     17  H2  UNL     1     -33.799 -17.201 -33.410  1.00  0.00     0.209 HD
ENDBRANCH  15  16
ENDBRANCH  14  15
ENDBRANCH  13  14
ENDBRANCH   5  13
TORSDOF 9
ENDMDL
MODEL 3
REMARK VINA RESULT: -5.441908047      1.239      1.793
REMARK  9 active torsions:
REMARK  status: ('A' for Active; 'I' for Inactive)
REMARK    1  A    between atoms: C2_2  and  C3_3 
REMARK    2  A    between atoms: C3_3  and  C4_4 
REMARK    3  A    between atoms: C4_4  and  O1_5 
REMARK    4  A    between atoms: O1_5  and  C5_6 
REMARK    5  A    between atoms: C5_6  and  C6_7 
REMARK    6  A    between atoms: C10_11  and  C11_12 
REMARK    7  A    between atoms: C11_12  and  C12_13 
REMARK    8  A    between atoms: C12_13  and  C13_14 
REMARK    9  A    between atoms: C13_14  and  O2_15 
ROOT
HETATM    1  C6  UNL     1     -29.540 -21.664 -35.729  1.00  0.00    -0.034 A 
HETATM    2  C7  UNL     1     -30.599 -22.438 -35.298  1.00  0.00     0.009 A 
HETATM    3  C8  UNL     1     -31.648 -21.877 -34.563  1.00  0.00     0.001 A 
HETATM    4  C9  UNL     1     -31.664 -20.550 -34.247  1.00  0.00     0.007 A 
HETATM    5  C10 UNL     1     -30.614 -19.762 -34.670  1.00  0.00    -0.058 A 
HETATM    6  C14 UNL     1     -29.583 -20.326 -35.396  1.00  0.00     0.016 A 
ENDROOT
BRANCH   1   7
HETATM    7  C5  UNL     1     -28.430 -22.265 -36.509  1.00  0.00     0.206 C 
BRANCH   7   8
HETATM    8  O1  UNL     1     -28.559 -23.629 -36.672  1.00  0.00    -0.387 OA
BRANCH   8   9
HETATM    9  C4  UNL     1     -27.854 -23.990 -37.810  1.00  0.00     0.168 C 
BRANCH   9  10
HETATM   10  C3  UNL     1     -28.811 -24.453 -38.920  1.00  0.00     0.026 C 
BRANCH  10  11
HETATM   11  C2  UNL     1     -28.093 -24.609 -40.223  1.00  0.00    -0.002 C 
HETATM   12  C1  UNL     1     -28.039 -23.331 -41.018  1.00  0.00     0.005 C 
ENDBRANCH  10  11
ENDBRANCH   9  10
ENDBRANCH   8   9
ENDBRANCH   7   8
ENDBRANCH   1   7
BRANCH   5  13
HETATM   13  C11 UNL     1     -30.622 -18.322 -34.333  1.00  0.00     0.041 C 
BRANCH  13  14
HETATM   14  C12 UNL     1     -31.570 -17.976 -33.210  1.00  0.00     0.030 C 
BRANCH  14  15
HETATM   15  C13 UNL     1     -32.078 -16.564 -33.285  1.00  0.00     0.164 C 
BRANCH  15  16
HETATM   16  O2  UNL     1     -33.302 -16.573 -33.990  1.00  0.00    -0.401 OA
ATOM     17  H2  UNL     1     -33.430 -15.713 -34.373  1.00  0.00     0.209 HD
ENDBRANCH  15  16
ENDBRANCH  14  15
ENDBRANCH  13  14
ENDBRANCH   5  13
TORSDOF 9
ENDMDL
MODEL 4
REMARK VINA RESULT: -5.431511055      1.224      2.171
REMARK  9 active torsions:
REMARK  status: ('A' for Active; 'I' for Inactive)
REMARK    1  A    between atoms: C2_2  and  C3_3 
REMARK    2  A    between atoms: C3_3  and  C4_4 
REMARK    3  A    between atoms: C4_4  and  O1_5 
REMARK    4  A    between atoms: O1_5  and  C5_6 
REMARK    5  A    between atoms: C5_6  and  C6_7 
REMARK    6  A    between atoms: C10_11  and  C11_12 
REMARK    7  A    between atoms: C11_12  and  C12_13 
REMARK    8  A    between atoms: C12_13  and  C13_14 
REMARK    9  A    between atoms: C13_14  and  O2_15 
ROOT
HETATM    1  C6  UNL     1     -30.842 -22.761 -35.570  1.00  0.00    -0.034 A 
HETATM    2  C7  UNL     1     -29.602 -22.309 -35.974  1.00  0.00     0.009 A 
HETATM    3  C8  UNL     1     -29.182 -21.006 -35.690  1.00  0.00     0.001 A 
HETATM    4  C9  UNL     1     -29.980 -20.137 -35.005  1.00  0.00     0.007 A 
HETATM    5  C10 UNL     1     -31.222 -20.572 -34.592  1.00  0.00    -0.058 A 
HETATM    6  C14 UNL     1     -31.627 -21.862 -34.878  1.00  0.00     0.016 A 
ENDROOT
BRANCH   1   7
HETATM    7  C5  UNL     1     -31.281 -24.145 -35.874  1.00  0.00     0.206 C 
BRANCH   7   8
HETATM    8  O1  UNL     1     -30.282 -24.922 -36.424  1.00  0.00    -0.387 OA
BRANCH   8   9
HETATM    9  C4  UNL     1     -30.719 -25.363 -37.664  1.00  0.00     0.168 C 
BRANCH   9  10
HETATM   10  C3  UNL     1     -30.858 -26.893 -37.679  1.00  0.00     0.026 C 
BRANCH  10  11
HETATM   11  C2  UNL     1     -32.274 -27.310 -37.436  1.00  0.00    -0.002 C 
HETATM   12  C1  UNL     1     -32.532 -27.697 -36.004  1.00  0.00     0.005 C 
ENDBRANCH  10  11
ENDBRANCH   9  10
ENDBRANCH   8   9
ENDBRANCH   7   8
ENDBRANCH   1   7
BRANCH   5  13
HETATM   13  C11 UNL     1     -32.095 -19.638 -33.848  1.00  0.00     0.041 C 
BRANCH  13  14
HETATM   14  C12 UNL     1     -31.486 -18.268 -33.666  1.00  0.00     0.030 C 
BRANCH  14  15
HETATM   15  C13 UNL     1     -32.382 -17.323 -32.916  1.00  0.00     0.164 C 
BRANCH  15  16
HETATM   16  O2  UNL     1     -33.147 -16.600 -33.859  1.00  0.00    -0.401 OA
ATOM     17  H2  UNL     1     -33.752 -17.203 -34.275  1.00  0.00     0.209 HD
ENDBRANCH  15  16
ENDBRANCH  14  15
ENDBRANCH  13  14
ENDBRANCH   5  13
TORSDOF 9
ENDMDL
MODEL 5
REMARK VINA RESULT: -5.422183829      1.316      1.850
REMARK  9 active torsions:
REMARK  status: ('A' for Active; 'I' for Inactive)
REMARK    1  A    between atoms: C2_2  and  C3_3 
REMARK    2  A    between atoms: C3_3  and  C4_4 
REMARK    3  A    between atoms: C4_4  and  O1_5 
REMARK    4  A    between atoms: O1_5  and  C5_6 
REMARK    5  A    between atoms: C5_6  and  C6_7 
REMARK    6  A    between atoms: C10_11  and  C11_12 
REMARK    7  A    between atoms: C11_12  and  C12_13 
REMARK    8  A    between atoms: C12_13  and  C13_14 
REMARK    9  A    between atoms: C13_14  and  O2_15 
ROOT
HETATM    1  C6  UNL     1     -30.830 -22.866 -35.460  1.00  0.00    -0.034 A 
HETATM    2  C7  UNL     1     -31.597 -23.590 -34.569  1.00  0.00     0.009 A 
HETATM    3  C8  UNL     1     -32.386 -22.947 -33.611  1.00  0.00     0.001 A 
HETATM    4  C9  UNL     1     -32.427 -21.585 -33.522  1.00  0.00     0.007 A 
HETATM    5  C10 UNL     1     -31.667 -20.847 -34.405  1.00  0.00    -0.058 A 
HETATM    6  C14 UNL     1     -30.891 -21.493 -35.348  1.00  0.00     0.016 A 
ENDROOT
BRANCH   1   7
HETATM    7  C5  UNL     1     -29.995 -23.555 -36.475  1.00  0.00     0.206 C 
BRANCH   7   8
HETATM    8  O1  UNL     1     -30.136 -24.928 -36.452  1.00  0.00    -0.387 OA
BRANCH   8   9
HETATM    9  C4  UNL     1     -30.504 -25.340 -37.723  1.00  0.00     0.168 C 
BRANCH   9  10
HETATM   10  C3  UNL     1     -30.757 -26.855 -37.753  1.00  0.00     0.026 C 
BRANCH  10  11
HETATM   11  C2  UNL     1     -32.202 -27.167 -37.528  1.00  0.00    -0.002 C 
HETATM   12  C1  UNL     1     -32.498 -27.584 -36.112  1.00  0.00     0.005 C 
ENDBRANCH  10  11
ENDBRANCH   9  10
ENDBRANCH   8   9
ENDBRANCH   7   8
ENDBRANCH   1   7
BRANCH   5  13
HETATM   13  C11 UNL     1     -31.705 -19.371 -34.318  1.00  0.00     0.041 C 
BRANCH  13  14
HETATM   14  C12 UNL     1     -32.672 -18.859 -33.278  1.00  0.00     0.030 C 
BRANCH  14  15
HETATM   15  C13 UNL     1     -32.435 -17.420 -32.914  1.00  0.00     0.164 C 
BRANCH  15  16
HETATM   16  O2  UNL     1     -33.131 -16.611 -33.841  1.00  0.00    -0.401 OA
ATOM     17  H2  UNL     1     -33.891 -17.096 -34.144  1.00  0.00     0.209 HD
ENDBRANCH  15  16
ENDBRANCH  14  15
ENDBRANCH  13  14
ENDBRANCH   5  13
TORSDOF 9
ENDMDL
