MODEL 1
REMARK VINA RESULT: -5.101473581      0.000      0.000
REMARK  2 active torsions:
REMARK  status: ('A' for Active; 'I' for Inactive)
REMARK    1  A    between atoms: O1_1  and  C1_3 
REMARK    2  A    between atoms: C1_3  and  C2_4 
ROOT
HETATM    1  C2  UNL     1       6.244  -5.151  33.573  1.00  0.00     0.210 C 
HETATM    2  C3  UNL     1       5.267  -3.998  33.339  1.00  0.00     0.037 C 
HETATM    3  C4  UNL     1       6.141  -2.897  32.724  1.00  0.00     0.041 C 
HETATM    4  C5  UNL     1       7.270  -3.751  32.143  1.00  0.00     0.126 C 
HETATM    5  C6  UNL     1       6.778  -4.505  30.951  1.00  0.00     0.039 C 
HETATM    6  C7  UNL     1       7.705  -4.091  29.828  1.00  0.00     0.002 C 
HETATM    7  C8  UNL     1       8.109  -2.688  30.239  1.00  0.00     0.002 C 
HETATM    8  C9  UNL     1       8.438  -2.916  31.719  1.00  0.00     0.039 C 
HETATM    9  N1  UNL     1       7.559  -4.622  33.261  1.00  0.00    -0.060 N 
ATOM     10  H11 UNL     1       8.279  -5.324  33.088  1.00  0.00     0.278 HD
ATOM     11  H12 UNL     1       8.044  -4.179  34.041  1.00  0.00     0.278 HD
ENDROOT
BRANCH   1  12
HETATM   12  C1  UNL     1       6.157  -5.535  35.052  1.00  0.00     0.197 C 
BRANCH  12  13
HETATM   13  O1  UNL     1       7.419  -5.631  35.602  1.00  0.00    -0.399 OA
ATOM     14  H1  UNL     1       8.068  -5.767  34.922  1.00  0.00     0.209 HD
ENDBRANCH  12  13
ENDBRANCH   1  12
TORSDOF 2
ENDMDL
MODEL 2
REMARK VINA RESULT: -4.918303863      3.426      4.896
REMARK  2 active torsions:
REMARK  status: ('A' for Active; 'I' for Inactive)
REMARK    1  A    between atoms: O1_1  and  C1_3 
REMARK    2  A    between atoms: C1_3  and  C2_4 
ROOT
HETATM    1  C2  UNL     1       5.479  -5.051  34.929  1.00  0.00     0.210 C 
HETATM    2  C3  UNL     1       5.123  -5.717  33.599  1.00  0.00     0.037 C 
HETATM    3  C4  UNL     1       3.601  -5.892  33.673  1.00  0.00     0.041 C 
HETATM    4  C5  UNL     1       3.258  -4.795  34.683  1.00  0.00     0.126 C 
HETATM    5  C6  UNL     1       3.418  -3.451  34.050  1.00  0.00     0.039 C 
HETATM    6  C7  UNL     1       2.064  -2.793  34.206  1.00  0.00     0.002 C 
HETATM    7  C8  UNL     1       1.121  -3.980  34.205  1.00  0.00     0.002 C 
HETATM    8  C9  UNL     1       1.850  -4.915  35.178  1.00  0.00     0.039 C 
HETATM    9  N1  UNL     1       4.252  -5.041  35.704  1.00  0.00    -0.060 N 
ATOM     10  H11 UNL     1       4.239  -4.387  36.488  1.00  0.00     0.278 HD
ATOM     11  H12 UNL     1       4.092  -5.872  36.273  1.00  0.00     0.278 HD
ENDROOT
BRANCH   1  12
HETATM   12  C1  UNL     1       6.538  -5.920  35.611  1.00  0.00     0.197 C 
BRANCH  12  13
HETATM   13  O1  UNL     1       7.802  -5.425  35.365  1.00  0.00    -0.399 OA
ATOM     14  H1  UNL     1       8.443  -6.125  35.385  1.00  0.00     0.209 HD
ENDBRANCH  12  13
ENDBRANCH   1  12
TORSDOF 2
ENDMDL
MODEL 3
REMARK VINA RESULT: -4.738346707      1.960      4.218
REMARK  2 active torsions:
REMARK  status: ('A' for Active; 'I' for Inactive)
REMARK    1  A    between atoms: O1_1  and  C1_3 
REMARK    2  A    between atoms: C1_3  and  C2_4 
ROOT
HETATM    1  C2  UNL     1       6.945  -4.325  33.388  1.00  0.00     0.210 C 
HETATM    2  C3  UNL     1       6.630  -5.086  32.099  1.00  0.00     0.037 C 
HETATM    3  C4  UNL     1       5.745  -6.249  32.567  1.00  0.00     0.041 C 
HETATM    4  C5  UNL     1       5.195  -5.654  33.866  1.00  0.00     0.126 C 
HETATM    5  C6  UNL     1       4.209  -4.576  33.555  1.00  0.00     0.039 C 
HETATM    6  C7  UNL     1       2.936  -5.011  34.249  1.00  0.00     0.002 C 
HETATM    7  C8  UNL     1       3.057  -6.523  34.238  1.00  0.00     0.002 C 
HETATM    8  C9  UNL     1       4.509  -6.688  34.703  1.00  0.00     0.039 C 
HETATM    9  N1  UNL     1       6.403  -5.135  34.465  1.00  0.00    -0.060 N 
ATOM     10  H11 UNL     1       6.272  -4.646  35.351  1.00  0.00     0.278 HD
ATOM     11  H12 UNL     1       7.039  -5.839  34.838  1.00  0.00     0.278 HD
ENDROOT
BRANCH   1  12
HETATM   12  C1  UNL     1       8.468  -4.226  33.504  1.00  0.00     0.197 C 
BRANCH  12  13
HETATM   13  O1  UNL     1       8.920  -4.972  34.573  1.00  0.00    -0.399 OA
ATOM     14  H1  UNL     1       8.548  -5.845  34.551  1.00  0.00     0.209 HD
ENDBRANCH  12  13
ENDBRANCH   1  12
TORSDOF 2
ENDMDL
MODEL 4
REMARK VINA RESULT: -4.655994124      3.035      5.110
REMARK  2 active torsions:
REMARK  status: ('A' for Active; 'I' for Inactive)
REMARK    1  A    between atoms: O1_1  and  C1_3 
REMARK    2  A    between atoms: C1_3  and  C2_4 
ROOT
HETATM    1  C2  UNL     1       4.986  -5.080  33.912  1.00  0.00     0.210 C 
HETATM    2  C3  UNL     1       4.858  -5.054  35.436  1.00  0.00     0.037 C 
HETATM    3  C4  UNL     1       3.694  -4.088  35.690  1.00  0.00     0.041 C 
HETATM    4  C5  UNL     1       2.964  -4.198  34.349  1.00  0.00     0.126 C 
HETATM    5  C6  UNL     1       2.290  -5.527  34.243  1.00  0.00     0.039 C 
HETATM    6  C7  UNL     1       0.831  -5.197  34.007  1.00  0.00     0.002 C 
HETATM    7  C8  UNL     1       0.680  -3.863  34.712  1.00  0.00     0.002 C 
HETATM    8  C9  UNL     1       1.924  -3.132  34.193  1.00  0.00     0.039 C 
HETATM    9  N1  UNL     1       4.067  -4.068  33.423  1.00  0.00    -0.060 N 
ATOM     10  H11 UNL     1       3.817  -4.149  32.437  1.00  0.00     0.278 HD
ATOM     11  H12 UNL     1       4.458  -3.129  33.345  1.00  0.00     0.278 HD
ENDROOT
BRANCH   1  12
HETATM   12  C1  UNL     1       6.429  -4.707  33.565  1.00  0.00     0.197 C 
BRANCH  12  13
HETATM   13  O1  UNL     1       7.286  -5.098  34.573  1.00  0.00    -0.399 OA
ATOM     14  H1  UNL     1       8.146  -5.294  34.221  1.00  0.00     0.209 HD
ENDBRANCH  12  13
ENDBRANCH   1  12
TORSDOF 2
ENDMDL
MODEL 5
REMARK VINA RESULT: -4.597430377      2.545      4.776
REMARK  2 active torsions:
REMARK  status: ('A' for Active; 'I' for Inactive)
REMARK    1  A    between atoms: O1_1  and  C1_3 
REMARK    2  A    between atoms: C1_3  and  C2_4 
ROOT
HETATM    1  C2  UNL     1       5.893  -5.137  33.604  1.00  0.00     0.210 C 
HETATM    2  C3  UNL     1       5.965  -5.635  35.049  1.00  0.00     0.037 C 
HETATM    3  C4  UNL     1       4.713  -5.037  35.704  1.00  0.00     0.041 C 
HETATM    4  C5  UNL     1       3.838  -4.835  34.465  1.00  0.00     0.126 C 
HETATM    5  C6  UNL     1       3.361  -6.156  33.957  1.00  0.00     0.039 C 
HETATM    6  C7  UNL     1       1.851  -6.042  33.957  1.00  0.00     0.002 C 
HETATM    7  C8  UNL     1       1.597  -5.065  35.088  1.00  0.00     0.002 C 
HETATM    8  C9  UNL     1       2.640  -3.988  34.764  1.00  0.00     0.039 C 
HETATM    9  N1  UNL     1       4.778  -4.208  33.563  1.00  0.00    -0.060 N 
ATOM     10  H11 UNL     1       4.415  -4.007  32.631  1.00  0.00     0.278 HD
ATOM     11  H12 UNL     1       5.011  -3.241  33.786  1.00  0.00     0.278 HD
ENDROOT
BRANCH   1  12
HETATM   12  C1  UNL     1       7.207  -4.411  33.302  1.00  0.00     0.197 C 
BRANCH  12  13
HETATM   13  O1  UNL     1       8.181  -4.777  34.207  1.00  0.00    -0.399 OA
ATOM     14  H1  UNL     1       8.593  -4.008  34.582  1.00  0.00     0.209 HD
ENDBRANCH  12  13
ENDBRANCH   1  12
TORSDOF 2
ENDMDL
