MODEL 1
REMARK VINA RESULT: -5.251459247      0.000      0.000
REMARK  3 active torsions:
REMARK  status: ('A' for Active; 'I' for Inactive)
REMARK    1  A    between atoms: N1_1  and  C1_4 
REMARK    2  A    between atoms: C5_13  and  N4_14 
REMARK    3  A    between atoms: N6_19  and  C6_20 
ROOT
HETATM    1  C1  UNL     1     -61.060  12.611   7.264  1.00  0.00     0.679 A 
HETATM    2  N2  UNL     1     -60.972  13.487   6.255  1.00  0.00    -0.154 N 
ATOM      3  H2  UNL     1     -60.231  13.400   5.559  1.00  0.00     0.187 HD
HETATM    4  C2  UNL     1     -61.881  14.490   6.167  1.00  0.00     0.290 A 
HETATM    5  O1  UNL     1     -61.747  15.273   5.208  1.00  0.00    -0.265 OA
HETATM    6  C3  UNL     1     -62.903  14.673   7.055  1.00  0.00     0.158 A 
HETATM    7  C4  UNL     1     -62.960  13.737   8.093  1.00  0.00     0.128 A 
HETATM    8  N3  UNL     1     -62.051  12.749   8.166  1.00  0.00    -0.186 N 
ATOM      9  H3  UNL     1     -62.115  12.078   8.933  1.00  0.00     0.184 HD
HETATM   10  C5  UNL     1     -64.037  14.086   8.868  1.00  0.00     0.144 A 
HETATM   11  N5  UNL     1     -64.613  15.169   8.344  1.00  0.00    -0.274 N 
ATOM     12  H5  UNL     1     -65.434  15.648   8.712  1.00  0.00     0.189 HD
HETATM   13  N6  UNL     1     -63.921  15.524   7.243  1.00  0.00    -0.222 N 
ENDROOT
BRANCH   1  14
HETATM   14  N1  UNL     1     -60.217  11.642   7.385  1.00  0.00    -0.234 N 
ATOM     15  H12 UNL     1     -59.431  11.574   6.739  1.00  0.00     0.174 HD
ATOM     16  H11 UNL     1     -60.320  10.940   8.117  1.00  0.00     0.174 HD
ENDBRANCH   1  14
BRANCH  10  17
HETATM   17  N4  UNL     1     -64.386  13.426   9.925  1.00  0.00    -0.383 N 
ATOM     18  H42 UNL     1     -64.770  13.789  10.798  1.00  0.00     0.157 HD
ATOM     19  H41 UNL     1     -64.306  12.412   9.996  1.00  0.00     0.157 HD
ENDBRANCH  10  17
BRANCH  13  20
HETATM   20  C6  UNL     1     -64.243  16.620   6.436  1.00  0.00     0.376 C 
HETATM   21  O2  UNL     1     -65.347  17.050   6.080  1.00  0.00    -0.281 OA
ENDBRANCH  13  20
TORSDOF 3
ENDMDL
MODEL 2
REMARK VINA RESULT: -4.696658069      4.905      7.156
REMARK  3 active torsions:
REMARK  status: ('A' for Active; 'I' for Inactive)
REMARK    1  A    between atoms: N1_1  and  C1_4 
REMARK    2  A    between atoms: C5_13  and  N4_14 
REMARK    3  A    between atoms: N6_19  and  C6_20 
ROOT
HETATM    1  C1  UNL     1     -55.623   8.982   6.671  1.00  0.00     0.679 A 
HETATM    2  N2  UNL     1     -56.519   8.656   7.612  1.00  0.00    -0.154 N 
ATOM      3  H2  UNL     1     -56.336   7.883   8.253  1.00  0.00     0.187 HD
HETATM    4  C2  UNL     1     -57.672   9.365   7.703  1.00  0.00     0.290 A 
HETATM    5  O1  UNL     1     -58.466   9.014   8.597  1.00  0.00    -0.265 OA
HETATM    6  C3  UNL     1     -57.990  10.412   6.886  1.00  0.00     0.158 A 
HETATM    7  C4  UNL     1     -57.029  10.722   5.918  1.00  0.00     0.128 A 
HETATM    8  N3  UNL     1     -55.891  10.009   5.840  1.00  0.00    -0.186 N 
ATOM      9  H3  UNL     1     -55.205  10.254   5.125  1.00  0.00     0.184 HD
HETATM   10  C5  UNL     1     -57.525  11.784   5.207  1.00  0.00     0.144 A 
HETATM   11  N5  UNL     1     -58.719  12.114   5.703  1.00  0.00    -0.274 N 
ATOM     12  H5  UNL     1     -59.318  12.869   5.367  1.00  0.00     0.189 HD
HETATM   13  N6  UNL     1     -58.999  11.279   6.722  1.00  0.00    -0.222 N 
ENDROOT
BRANCH   1  14
HETATM   14  N1  UNL     1     -54.514   8.334   6.549  1.00  0.00    -0.234 N 
ATOM     15  H12 UNL     1     -53.696   8.631   7.080  1.00  0.00     0.174 HD
ATOM     16  H11 UNL     1     -54.438   7.528   5.930  1.00  0.00     0.174 HD
ENDBRANCH   1  14
BRANCH  10  17
HETATM   17  N4  UNL     1     -56.886  12.333   4.225  1.00  0.00    -0.383 N 
ATOM     18  H42 UNL     1     -56.812  13.324   3.994  1.00  0.00     0.157 HD
ATOM     19  H41 UNL     1     -56.358  11.795   3.538  1.00  0.00     0.157 HD
ENDBRANCH  10  17
BRANCH  13  20
HETATM   20  C6  UNL     1     -60.174  11.333   7.478  1.00  0.00     0.376 C 
HETATM   21  O2  UNL     1     -60.982  12.258   7.628  1.00  0.00    -0.281 OA
ENDBRANCH  13  20
TORSDOF 3
ENDMDL
MODEL 3
REMARK VINA RESULT: -4.651238251      1.480      3.891
REMARK  3 active torsions:
REMARK  status: ('A' for Active; 'I' for Inactive)
REMARK    1  A    between atoms: N1_1  and  C1_4 
REMARK    2  A    between atoms: C5_13  and  N4_14 
REMARK    3  A    between atoms: N6_19  and  C6_20 
ROOT
HETATM    1  C1  UNL     1     -64.680  16.381   6.426  1.00  0.00     0.679 A 
HETATM    2  N2  UNL     1     -63.704  16.232   5.522  1.00  0.00    -0.154 N 
ATOM      3  H2  UNL     1     -63.680  16.817   4.687  1.00  0.00     0.187 HD
HETATM    4  C2  UNL     1     -62.746  15.294   5.730  1.00  0.00     0.290 A 
HETATM    5  O1  UNL     1     -61.865  15.202   4.855  1.00  0.00    -0.265 OA
HETATM    6  C3  UNL     1     -62.706  14.474   6.823  1.00  0.00     0.158 A 
HETATM    7  C4  UNL     1     -63.743  14.662   7.743  1.00  0.00     0.128 A 
HETATM    8  N3  UNL     1     -64.685  15.596   7.521  1.00  0.00    -0.186 N 
ATOM      9  H3  UNL     1     -65.431  15.713   8.208  1.00  0.00     0.184 HD
HETATM   10  C5  UNL     1     -63.531  13.759   8.752  1.00  0.00     0.144 A 
HETATM   11  N5  UNL     1     -62.431  13.055   8.477  1.00  0.00    -0.274 N 
ATOM     12  H5  UNL     1     -62.036  12.313   9.055  1.00  0.00     0.189 HD
HETATM   13  N6  UNL     1     -61.933  13.491   7.305  1.00  0.00    -0.222 N 
ENDROOT
BRANCH   1  14
HETATM   14  N1  UNL     1     -65.611  17.260   6.267  1.00  0.00    -0.234 N 
ATOM     15  H12 UNL     1     -66.275  17.435   7.022  1.00  0.00     0.174 HD
ATOM     16  H11 UNL     1     -65.698  17.788   5.399  1.00  0.00     0.174 HD
ENDBRANCH   1  14
BRANCH  10  17
HETATM   17  N4  UNL     1     -64.310  13.658   9.781  1.00  0.00    -0.383 N 
ATOM     18  H42 UNL     1     -65.040  12.966   9.955  1.00  0.00     0.157 HD
ATOM     19  H41 UNL     1     -64.270  14.301  10.571  1.00  0.00     0.157 HD
ENDBRANCH  10  17
BRANCH  13  20
HETATM   20  C6  UNL     1     -60.779  12.977   6.705  1.00  0.00     0.376 C 
HETATM   21  O2  UNL     1     -60.644  12.344   5.651  1.00  0.00    -0.281 OA
ENDBRANCH  13  20
TORSDOF 3
ENDMDL
MODEL 4
REMARK VINA RESULT: -4.225784325      6.184      8.456
REMARK  3 active torsions:
REMARK  status: ('A' for Active; 'I' for Inactive)
REMARK    1  A    between atoms: N1_1  and  C1_4 
REMARK    2  A    between atoms: C5_13  and  N4_14 
REMARK    3  A    between atoms: N6_19  and  C6_20 
ROOT
HETATM    1  C1  UNL     1     -57.168  11.799   5.090  1.00  0.00     0.679 A 
HETATM    2  N2  UNL     1     -58.299  11.670   5.796  1.00  0.00    -0.154 N 
ATOM      3  H2  UNL     1     -59.081  12.305   5.638  1.00  0.00     0.187 HD
HETATM    4  C2  UNL     1     -58.392  10.683   6.722  1.00  0.00     0.290 A 
HETATM    5  O1  UNL     1     -59.467  10.613   7.347  1.00  0.00    -0.265 OA
HETATM    6  C3  UNL     1     -57.392   9.792   6.991  1.00  0.00     0.158 A 
HETATM    7  C4  UNL     1     -56.228   9.960   6.232  1.00  0.00     0.128 A 
HETATM    8  N3  UNL     1     -56.152  10.943   5.318  1.00  0.00    -0.186 N 
ATOM      9  H3  UNL     1     -55.292  11.045   4.777  1.00  0.00     0.184 HD
HETATM   10  C5  UNL     1     -55.356   8.986   6.643  1.00  0.00     0.144 A 
HETATM   11  N5  UNL     1     -55.940   8.257   7.596  1.00  0.00    -0.274 N 
ATOM     12  H5  UNL     1     -55.522   7.464   8.083  1.00  0.00     0.189 HD
HETATM   13  N6  UNL     1     -57.176   8.750   7.805  1.00  0.00    -0.222 N 
ENDROOT
BRANCH   1  14
HETATM   14  N1  UNL     1     -57.037  12.723   4.199  1.00  0.00    -0.234 N 
ATOM     15  H12 UNL     1     -56.150  12.826   3.706  1.00  0.00     0.174 HD
ATOM     16  H11 UNL     1     -57.805  13.355   3.976  1.00  0.00     0.174 HD
ENDBRANCH   1  14
BRANCH  10  17
HETATM   17  N4  UNL     1     -54.170   8.848   6.143  1.00  0.00    -0.383 N 
ATOM     18  H42 UNL     1     -53.797   9.249   5.282  1.00  0.00     0.157 HD
ATOM     19  H41 UNL     1     -53.442   8.291   6.590  1.00  0.00     0.157 HD
ENDBRANCH  10  17
BRANCH  13  20
HETATM   20  C6  UNL     1     -58.078   8.229   8.739  1.00  0.00     0.376 C 
HETATM   21  O2  UNL     1     -58.604   7.112   8.800  1.00  0.00    -0.281 OA
ENDBRANCH  13  20
TORSDOF 3
ENDMDL
MODEL 5
REMARK VINA RESULT: -3.718493806      4.894      6.688
REMARK  3 active torsions:
REMARK  status: ('A' for Active; 'I' for Inactive)
REMARK    1  A    between atoms: N1_1  and  C1_4 
REMARK    2  A    between atoms: C5_13  and  N4_14 
REMARK    3  A    between atoms: N6_19  and  C6_20 
ROOT
HETATM    1  C1  UNL     1     -57.867   8.514   8.031  1.00  0.00     0.679 A 
HETATM    2  N2  UNL     1     -56.773   8.623   7.267  1.00  0.00    -0.154 N 
ATOM      3  H2  UNL     1     -56.033   7.922   7.321  1.00  0.00     0.187 HD
HETATM    4  C2  UNL     1     -56.659   9.677   6.420  1.00  0.00     0.290 A 
HETATM    5  O1  UNL     1     -55.619   9.725   5.736  1.00  0.00    -0.265 OA
HETATM    6  C3  UNL     1     -57.603  10.655   6.289  1.00  0.00     0.158 A 
HETATM    7  C4  UNL     1     -58.731  10.504   7.103  1.00  0.00     0.128 A 
HETATM    8  N3  UNL     1     -58.828   9.454   7.938  1.00  0.00    -0.186 N 
ATOM      9  H3  UNL     1     -59.660   9.366   8.521  1.00  0.00     0.184 HD
HETATM   10  C5  UNL     1     -59.549  11.569   6.830  1.00  0.00     0.144 A 
HETATM   11  N5  UNL     1     -58.968  12.334   5.904  1.00  0.00    -0.274 N 
ATOM     12  H5  UNL     1     -59.352  13.193   5.511  1.00  0.00     0.189 HD
HETATM   13  N6  UNL     1     -57.786  11.776   5.577  1.00  0.00    -0.222 N 
ENDROOT
BRANCH   1  14
HETATM   14  N1  UNL     1     -58.016   7.528   8.850  1.00  0.00    -0.234 N 
ATOM     15  H12 UNL     1     -58.783   7.541   9.522  1.00  0.00     0.174 HD
ATOM     16  H11 UNL     1     -57.380   6.731   8.840  1.00  0.00     0.174 HD
ENDBRANCH   1  14
BRANCH  10  17
HETATM   17  N4  UNL     1     -60.692  11.745   7.412  1.00  0.00    -0.383 N 
ATOM     18  H42 UNL     1     -60.931  11.595   8.393  1.00  0.00     0.157 HD
ATOM     19  H41 UNL     1     -61.521  12.073   6.918  1.00  0.00     0.157 HD
ENDBRANCH  10  17
BRANCH  13  20
HETATM   20  C6  UNL     1     -56.903  12.310   4.633  1.00  0.00     0.376 C 
HETATM   21  O2  UNL     1     -56.909  13.412   4.072  1.00  0.00    -0.281 OA
ENDBRANCH  13  20
TORSDOF 3
ENDMDL
