MODEL 1
REMARK VINA RESULT: -6.715181280      0.000      0.000
REMARK  5 active torsions:
REMARK  status: ('A' for Active; 'I' for Inactive)
REMARK    1  A    between atoms: O1_2  and  C2_3 
REMARK    2  A    between atoms: C3_6  and  N2_7 
REMARK    3  A    between atoms: N2_7  and  N3_9 
REMARK    4  A    between atoms: C4_12  and  N4_13 
REMARK    5  A    between atoms: N4_13  and  N5_15 
ROOT
HETATM    1  C2  UNL     1     -58.592  11.421   6.085  1.00  0.00     0.182 A 
HETATM    2  N1  UNL     1     -58.723  10.545   7.115  1.00  0.00    -0.316 N 
ATOM      3  H1  UNL     1     -59.596  10.515   7.641  1.00  0.00     0.169 HD
HETATM    4  C3  UNL     1     -57.717   9.717   7.450  1.00  0.00     0.168 A 
HETATM    5  C4  UNL     1     -56.543   9.780   6.719  1.00  0.00     0.167 A 
HETATM    6  N6  UNL     1     -56.412  10.658   5.686  1.00  0.00    -0.326 N 
ATOM      7  H6  UNL     1     -55.539  10.691   5.158  1.00  0.00     0.168 HD
HETATM    8  C5  UNL     1     -57.423  11.485   5.355  1.00  0.00     0.167 A 
HETATM    9  C6  UNL     1     -57.352  12.423   4.291  1.00  0.00     0.122 C 
HETATM   10  N7  UNL     1     -57.276  13.186   3.416  1.00  0.00    -0.190 NA
ENDROOT
BRANCH   1  11
HETATM   11  O1  UNL     1     -59.649  12.262   5.765  1.00  0.00    -0.339 OA
HETATM   12  C1  UNL     1     -60.635  12.454   6.763  1.00  0.00     0.211 C 
ENDBRANCH   1  11
BRANCH   5  13
HETATM   13  N4  UNL     1     -55.572   8.994   7.027  1.00  0.00    -0.289 N 
ATOM     14  H4  UNL     1     -55.660   8.349   7.812  1.00  0.00     0.188 HD
BRANCH  13  15
HETATM   15  N5  UNL     1     -54.408   9.035   6.282  1.00  0.00    -0.344 N 
ATOM     16  H52 UNL     1     -54.332   9.693   5.506  1.00  0.00     0.176 HD
ATOM     17  H51 UNL     1     -53.642   8.406   6.520  1.00  0.00     0.176 HD
ENDBRANCH  13  15
ENDBRANCH   5  13
BRANCH   4  18
HETATM   18  N2  UNL     1     -57.769   8.862   8.412  1.00  0.00    -0.289 N 
ATOM     19  H2  UNL     1     -57.351   9.119   9.307  1.00  0.00     0.188 HD
BRANCH  18  20
HETATM   20  N3  UNL     1     -58.363   7.604   8.302  1.00  0.00    -0.344 N 
ATOM     21  H32 UNL     1     -58.530   7.251   7.360  1.00  0.00     0.176 HD
ATOM     22  H31 UNL     1     -58.632   7.031   9.102  1.00  0.00     0.176 HD
ENDBRANCH  18  20
ENDBRANCH   4  18
TORSDOF 5
ENDMDL
MODEL 2
REMARK VINA RESULT: -6.325516479      1.239      3.118
REMARK  5 active torsions:
REMARK  status: ('A' for Active; 'I' for Inactive)
REMARK    1  A    between atoms: O1_2  and  C2_3 
REMARK    2  A    between atoms: C3_6  and  N2_7 
REMARK    3  A    between atoms: N2_7  and  N3_9 
REMARK    4  A    between atoms: C4_12  and  N4_13 
REMARK    5  A    between atoms: N4_13  and  N5_15 
ROOT
HETATM    1  C2  UNL     1     -57.549  11.490   5.463  1.00  0.00     0.182 A 
HETATM    2  N1  UNL     1     -56.437  10.736   5.657  1.00  0.00    -0.316 N 
ATOM      3  H1  UNL     1     -55.622  10.879   5.060  1.00  0.00     0.169 HD
HETATM    4  C3  UNL     1     -56.393   9.804   6.626  1.00  0.00     0.168 A 
HETATM    5  C4  UNL     1     -57.512   9.630   7.422  1.00  0.00     0.167 A 
HETATM    6  N6  UNL     1     -58.628  10.386   7.228  1.00  0.00    -0.326 N 
ATOM      7  H6  UNL     1     -59.444  10.245   7.824  1.00  0.00     0.168 HD
HETATM    8  C5  UNL     1     -58.666  11.319   6.256  1.00  0.00     0.167 A 
HETATM    9  C6  UNL     1     -59.796  12.140   6.000  1.00  0.00     0.122 C 
HETATM   10  N7  UNL     1     -60.732  12.803   5.805  1.00  0.00    -0.190 NA
ENDROOT
BRANCH   1  11
HETATM   11  O1  UNL     1     -57.561  12.443   4.455  1.00  0.00    -0.339 OA
HETATM   12  C1  UNL     1     -56.513  13.395   4.465  1.00  0.00     0.211 C 
ENDBRANCH   1  11
BRANCH   5  13
HETATM   13  N4  UNL     1     -57.486   8.743   8.353  1.00  0.00    -0.289 N 
ATOM     14  H4  UNL     1     -56.864   8.854   9.154  1.00  0.00     0.188 HD
BRANCH  13  15
HETATM   15  N5  UNL     1     -58.311   7.637   8.255  1.00  0.00    -0.344 N 
ATOM     16  H52 UNL     1     -58.078   6.792   8.776  1.00  0.00     0.176 HD
ATOM     17  H51 UNL     1     -59.140   7.685   7.663  1.00  0.00     0.176 HD
ENDBRANCH  13  15
ENDBRANCH   5  13
BRANCH   4  18
HETATM   18  N2  UNL     1     -55.374   9.053   6.868  1.00  0.00    -0.289 N 
ATOM     19  H2  UNL     1     -55.286   8.649   7.800  1.00  0.00     0.188 HD
BRANCH  18  20
HETATM   20  N3  UNL     1     -54.383   8.761   5.929  1.00  0.00    -0.344 N 
ATOM     21  H32 UNL     1     -53.933   7.849   5.999  1.00  0.00     0.176 HD
ATOM     22  H31 UNL     1     -54.094   9.402   5.190  1.00  0.00     0.176 HD
ENDBRANCH  18  20
ENDBRANCH   4  18
TORSDOF 5
ENDMDL
MODEL 3
REMARK VINA RESULT: -5.884325339      2.079      5.201
REMARK  5 active torsions:
REMARK  status: ('A' for Active; 'I' for Inactive)
REMARK    1  A    between atoms: O1_2  and  C2_3 
REMARK    2  A    between atoms: C3_6  and  N2_7 
REMARK    3  A    between atoms: N2_7  and  N3_9 
REMARK    4  A    between atoms: C4_12  and  N4_13 
REMARK    5  A    between atoms: N4_13  and  N5_15 
ROOT
HETATM    1  C2  UNL     1     -56.514   9.316   6.692  1.00  0.00     0.182 A 
HETATM    2  N1  UNL     1     -56.243  10.278   5.773  1.00  0.00    -0.316 N 
ATOM      3  H1  UNL     1     -55.329  10.298   5.320  1.00  0.00     0.169 HD
HETATM    4  C3  UNL     1     -57.164  11.204   5.450  1.00  0.00     0.168 A 
HETATM    5  C4  UNL     1     -58.396  11.154   6.078  1.00  0.00     0.167 A 
HETATM    6  N6  UNL     1     -58.668  10.189   7.000  1.00  0.00    -0.326 N 
ATOM      7  H6  UNL     1     -59.582  10.167   7.454  1.00  0.00     0.168 HD
HETATM    8  C5  UNL     1     -57.742   9.264   7.320  1.00  0.00     0.167 A 
HETATM    9  C6  UNL     1     -57.960   8.233   8.272  1.00  0.00     0.122 C 
HETATM   10  N7  UNL     1     -58.156   7.394   9.055  1.00  0.00    -0.190 NA
ENDROOT
BRANCH   1  11
HETATM   11  O1  UNL     1     -55.543   8.376   7.003  1.00  0.00    -0.339 OA
HETATM   12  C1  UNL     1     -54.203   8.832   7.042  1.00  0.00     0.211 C 
ENDBRANCH   1  11
BRANCH   5  13
HETATM   13  N4  UNL     1     -59.287  12.032   5.780  1.00  0.00    -0.289 N 
ATOM     14  H4  UNL     1     -59.196  12.592   4.932  1.00  0.00     0.188 HD
BRANCH  13  15
HETATM   15  N5  UNL     1     -60.370  12.209   6.621  1.00  0.00    -0.344 N 
ATOM     16  H52 UNL     1     -61.252  11.744   6.407  1.00  0.00     0.176 HD
ATOM     17  H51 UNL     1     -60.270  12.803   7.444  1.00  0.00     0.176 HD
ENDBRANCH  13  15
ENDBRANCH   5  13
BRANCH   4  18
HETATM   18  N2  UNL     1     -56.978  12.144   4.588  1.00  0.00    -0.289 N 
ATOM     19  H2  UNL     1     -57.592  12.177   3.774  1.00  0.00     0.188 HD
BRANCH  18  20
HETATM   20  N3  UNL     1     -55.987  13.120   4.703  1.00  0.00    -0.344 N 
ATOM     21  H32 UNL     1     -56.025  13.724   5.523  1.00  0.00     0.176 HD
ATOM     22  H31 UNL     1     -55.240  13.254   4.021  1.00  0.00     0.176 HD
ENDBRANCH  18  20
ENDBRANCH   4  18
TORSDOF 5
ENDMDL
MODEL 4
REMARK VINA RESULT: -5.203503432      2.083      4.286
REMARK  5 active torsions:
REMARK  status: ('A' for Active; 'I' for Inactive)
REMARK    1  A    between atoms: O1_2  and  C2_3 
REMARK    2  A    between atoms: C3_6  and  N2_7 
REMARK    3  A    between atoms: N2_7  and  N3_9 
REMARK    4  A    between atoms: C4_12  and  N4_13 
REMARK    5  A    between atoms: N4_13  and  N5_15 
ROOT
HETATM    1  C2  UNL     1     -57.500   9.380   7.710  1.00  0.00     0.182 A 
HETATM    2  N1  UNL     1     -58.510  10.206   7.336  1.00  0.00    -0.316 N 
ATOM      3  H1  UNL     1     -59.384  10.204   7.862  1.00  0.00     0.169 HD
HETATM    4  C3  UNL     1     -58.375  11.028   6.279  1.00  0.00     0.168 A 
HETATM    5  C4  UNL     1     -57.180  11.012   5.582  1.00  0.00     0.167 A 
HETATM    6  N6  UNL     1     -56.166  10.183   5.958  1.00  0.00    -0.326 N 
ATOM      7  H6  UNL     1     -55.292  10.183   5.432  1.00  0.00     0.168 HD
HETATM    8  C5  UNL     1     -56.307   9.362   7.017  1.00  0.00     0.167 A 
HETATM    9  C6  UNL     1     -55.292   8.474   7.461  1.00  0.00     0.122 C 
HETATM   10  N7  UNL     1     -54.448   7.752   7.811  1.00  0.00    -0.190 NA
ENDROOT
BRANCH   1  11
HETATM   11  O1  UNL     1     -57.672   8.544   8.805  1.00  0.00    -0.339 OA
HETATM   12  C1  UNL     1     -58.042   7.205   8.532  1.00  0.00     0.211 C 
ENDBRANCH   1  11
BRANCH   5  13
HETATM   13  N4  UNL     1     -57.035  11.792   4.570  1.00  0.00    -0.289 N 
ATOM     14  H4  UNL     1     -57.551  11.619   3.707  1.00  0.00     0.188 HD
BRANCH  13  15
HETATM   15  N5  UNL     1     -56.171  12.868   4.664  1.00  0.00    -0.344 N 
ATOM     16  H52 UNL     1     -56.341  13.697   4.095  1.00  0.00     0.176 HD
ATOM     17  H51 UNL     1     -55.376  12.814   5.301  1.00  0.00     0.176 HD
ENDBRANCH  13  15
ENDBRANCH   5  13
BRANCH   4  18
HETATM   18  N2  UNL     1     -59.289  11.838   5.867  1.00  0.00    -0.289 N 
ATOM     19  H2  UNL     1     -59.201  12.222   4.925  1.00  0.00     0.188 HD
BRANCH  18  20
HETATM   20  N3  UNL     1     -60.391  12.222   6.632  1.00  0.00    -0.344 N 
ATOM     21  H32 UNL     1     -60.236  12.359   7.630  1.00  0.00     0.176 HD
ATOM     22  H31 UNL     1     -61.325  12.370   6.249  1.00  0.00     0.176 HD
ENDBRANCH  18  20
ENDBRANCH   4  18
TORSDOF 5
ENDMDL
MODEL 5
REMARK VINA RESULT: -4.331918593      3.797      6.442
REMARK  5 active torsions:
REMARK  status: ('A' for Active; 'I' for Inactive)
REMARK    1  A    between atoms: O1_2  and  C2_3 
REMARK    2  A    between atoms: C3_6  and  N2_7 
REMARK    3  A    between atoms: N2_7  and  N3_9 
REMARK    4  A    between atoms: C4_12  and  N4_13 
REMARK    5  A    between atoms: N4_13  and  N5_15 
ROOT
HETATM    1  C2  UNL     1     -60.436  12.558   5.942  1.00  0.00     0.182 A 
HETATM    2  N1  UNL     1     -61.279  13.578   5.635  1.00  0.00    -0.316 N 
ATOM      3  H1  UNL     1     -61.297  13.946   4.684  1.00  0.00     0.169 HD
HETATM    4  C3  UNL     1     -62.090  14.109   6.568  1.00  0.00     0.168 A 
HETATM    5  C4  UNL     1     -62.045  13.590   7.851  1.00  0.00     0.167 A 
HETATM    6  N6  UNL     1     -61.199  12.568   8.159  1.00  0.00    -0.326 N 
ATOM      7  H6  UNL     1     -61.179  12.198   9.109  1.00  0.00     0.168 HD
HETATM    8  C5  UNL     1     -60.389  12.040   7.220  1.00  0.00     0.167 A 
HETATM    9  C6  UNL     1     -59.485  10.974   7.474  1.00  0.00     0.122 C 
HETATM   10  N7  UNL     1     -58.750  10.101   7.701  1.00  0.00    -0.190 NA
ENDROOT
BRANCH   1  11
HETATM   11  O1  UNL     1     -59.612  12.033   4.957  1.00  0.00    -0.339 OA
HETATM   12  C1  UNL     1     -58.241  12.383   5.019  1.00  0.00     0.211 C 
ENDBRANCH   1  11
BRANCH   5  13
HETATM   13  N4  UNL     1     -62.814  14.087   8.754  1.00  0.00    -0.289 N 
ATOM     14  H4  UNL     1     -62.483  14.840   9.357  1.00  0.00     0.188 HD
BRANCH  13  15
HETATM   15  N5  UNL     1     -64.096  13.589   8.898  1.00  0.00    -0.344 N 
ATOM     16  H52 UNL     1     -64.420  13.297   9.820  1.00  0.00     0.176 HD
ATOM     17  H51 UNL     1     -64.699  13.520   8.078  1.00  0.00     0.176 HD
ENDBRANCH  13  15
ENDBRANCH   5  13
BRANCH   4  18
HETATM   18  N2  UNL     1     -62.914  15.075   6.350  1.00  0.00    -0.289 N 
ATOM     19  H2  UNL     1     -63.913  14.873   6.398  1.00  0.00     0.188 HD
BRANCH  18  20
HETATM   20  N3  UNL     1     -62.521  16.380   6.053  1.00  0.00    -0.344 N 
ATOM     21  H32 UNL     1     -61.542  16.616   6.211  1.00  0.00     0.176 HD
ATOM     22  H31 UNL     1     -63.152  17.096   5.691  1.00  0.00     0.176 HD
ENDBRANCH  18  20
ENDBRANCH   4  18
TORSDOF 5
ENDMDL
