MODEL 1
REMARK VINA RESULT: -5.702774656      0.000      0.000
REMARK  3 active torsions:
REMARK  status: ('A' for Active; 'I' for Inactive)
REMARK    1  A    between atoms: C4_9  and  C5_10 
REMARK    2  A    between atoms: C5_10  and  N4_11 
REMARK    3  A    between atoms: C6_15  and  N5_16 
ROOT
HETATM    1  C1  UNL     1     -65.120  16.634   5.903  1.00  0.00     0.164 C 
HETATM    2  N1  UNL     1     -64.023  15.900   6.479  1.00  0.00    -0.269 N 
HETATM    3  C2  UNL     1     -62.830  16.084   5.833  1.00  0.00     0.330 C 
HETATM    4  O1  UNL     1     -62.715  17.068   5.107  1.00  0.00    -0.246 OA
HETATM    5  N2  UNL     1     -61.769  15.246   5.937  1.00  0.00    -0.296 N 
ATOM      6  H2  UNL     1     -60.906  15.604   5.530  1.00  0.00     0.171 HD
HETATM    7  C3  UNL     1     -61.660  14.027   6.485  1.00  0.00     0.130 C 
HETATM    8  N3  UNL     1     -60.471  13.247   6.270  1.00  0.00    -0.082 NA
HETATM    9  C4  UNL     1     -62.534  13.384   7.382  1.00  0.00     0.040 C 
HETATM   10  C6  UNL     1     -63.595  13.997   8.023  1.00  0.00     0.106 C 
HETATM   11  C7  UNL     1     -64.241  15.124   7.561  1.00  0.00     0.278 C 
HETATM   12  O2  UNL     1     -65.224  15.516   8.259  1.00  0.00    -0.265 OA
ENDROOT
BRANCH   9  13
HETATM   13  C5  UNL     1     -62.355  11.938   7.384  1.00  0.00     0.274 C 
BRANCH  13  14
HETATM   14  N4  UNL     1     -62.962  11.211   6.320  1.00  0.00    -0.075 N 
ATOM     15  H43 UNL     1     -63.944  11.042   6.540  1.00  0.00     0.274 HD
ATOM     16  H42 UNL     1     -63.053  11.816   5.503  1.00  0.00     0.274 HD
ATOM     17  H41 UNL     1     -62.518  10.334   6.047  1.00  0.00     0.274 HD
ENDBRANCH  13  14
ENDBRANCH   9  13
BRANCH  10  18
HETATM   18  N5  UNL     1     -63.982  13.474   9.117  1.00  0.00    -0.394 N 
ATOM     19  H52 UNL     1     -64.079  12.459   9.170  1.00  0.00     0.156 HD
ATOM     20  H51 UNL     1     -64.180  14.114   9.886  1.00  0.00     0.156 HD
ENDBRANCH  10  18
TORSDOF 3
ENDMDL
MODEL 2
REMARK VINA RESULT: -4.207499233      7.405      9.606
REMARK  3 active torsions:
REMARK  status: ('A' for Active; 'I' for Inactive)
REMARK    1  A    between atoms: C4_9  and  C5_10 
REMARK    2  A    between atoms: C5_10  and  N4_11 
REMARK    3  A    between atoms: C6_15  and  N5_16 
ROOT
HETATM    1  C1  UNL     1     -56.380   5.983   8.416  1.00  0.00     0.164 C 
HETATM    2  N1  UNL     1     -56.550   7.395   8.186  1.00  0.00    -0.269 N 
HETATM    3  C2  UNL     1     -57.782   7.873   8.541  1.00  0.00     0.330 C 
HETATM    4  O1  UNL     1     -58.460   7.199   9.313  1.00  0.00    -0.246 OA
HETATM    5  N2  UNL     1     -58.307   9.040   8.091  1.00  0.00    -0.296 N 
ATOM      6  H2  UNL     1     -59.156   9.335   8.573  1.00  0.00     0.171 HD
HETATM    7  C3  UNL     1     -57.899   9.873   7.123  1.00  0.00     0.130 C 
HETATM    8  N3  UNL     1     -58.759  10.941   6.687  1.00  0.00    -0.082 NA
HETATM    9  C4  UNL     1     -56.643   9.942   6.492  1.00  0.00     0.040 C 
HETATM   10  C6  UNL     1     -55.513   9.263   6.913  1.00  0.00     0.106 C 
HETATM   11  C7  UNL     1     -55.530   8.107   7.663  1.00  0.00     0.278 C 
HETATM   12  O2  UNL     1     -54.395   7.601   7.915  1.00  0.00    -0.265 OA
ENDROOT
BRANCH   9  13
HETATM   13  C5  UNL     1     -56.710  10.615   5.202  1.00  0.00     0.274 C 
BRANCH  13  14
HETATM   14  N4  UNL     1     -56.502  12.024   5.197  1.00  0.00    -0.075 N 
ATOM     15  H43 UNL     1     -56.022  12.300   6.054  1.00  0.00     0.274 HD
ATOM     16  H42 UNL     1     -55.796  12.262   4.500  1.00  0.00     0.274 HD
ATOM     17  H41 UNL     1     -57.324  12.612   5.064  1.00  0.00     0.274 HD
ENDBRANCH  13  14
ENDBRANCH   9  13
BRANCH  10  18
HETATM   18  N5  UNL     1     -54.390   9.762   6.580  1.00  0.00    -0.394 N 
ATOM     19  H52 UNL     1     -54.119   9.750   5.596  1.00  0.00     0.156 HD
ATOM     20  H51 UNL     1     -53.818  10.145   7.333  1.00  0.00     0.156 HD
ENDBRANCH  10  18
TORSDOF 3
ENDMDL
MODEL 3
REMARK VINA RESULT: -3.626446632      2.130      4.266
REMARK  3 active torsions:
REMARK  status: ('A' for Active; 'I' for Inactive)
REMARK    1  A    between atoms: C4_9  and  C5_10 
REMARK    2  A    between atoms: C5_10  and  N4_11 
REMARK    3  A    between atoms: C6_15  and  N5_16 
ROOT
HETATM    1  C1  UNL     1     -60.428  12.739   5.595  1.00  0.00     0.164 C 
HETATM    2  N1  UNL     1     -61.161  13.462   6.604  1.00  0.00    -0.269 N 
HETATM    3  C2  UNL     1     -61.323  12.773   7.775  1.00  0.00     0.330 C 
HETATM    4  O1  UNL     1     -60.572  11.825   7.994  1.00  0.00    -0.246 OA
HETATM    5  N2  UNL     1     -62.263  13.064   8.708  1.00  0.00    -0.296 N 
ATOM      6  H2  UNL     1     -62.149  12.569   9.592  1.00  0.00     0.171 HD
HETATM    7  C3  UNL     1     -63.316  13.893   8.667  1.00  0.00     0.130 C 
HETATM    8  N3  UNL     1     -64.297  13.859   9.719  1.00  0.00    -0.082 NA
HETATM    9  C4  UNL     1     -63.583  14.933   7.757  1.00  0.00     0.040 C 
HETATM   10  C6  UNL     1     -62.679  15.419   6.830  1.00  0.00     0.106 C 
HETATM   11  C7  UNL     1     -61.611  14.704   6.331  1.00  0.00     0.278 C 
HETATM   12  O2  UNL     1     -60.917  15.299   5.453  1.00  0.00    -0.265 OA
ENDROOT
BRANCH   9  13
HETATM   13  C5  UNL     1     -64.996  15.288   7.725  1.00  0.00     0.274 C 
BRANCH  13  14
HETATM   14  N4  UNL     1     -65.862  14.420   7.002  1.00  0.00    -0.075 N 
ATOM     15  H43 UNL     1     -65.583  14.399   6.021  1.00  0.00     0.274 HD
ATOM     16  H42 UNL     1     -65.678  13.453   7.270  1.00  0.00     0.274 HD
ATOM     17  H41 UNL     1     -66.863  14.606   7.067  1.00  0.00     0.274 HD
ENDBRANCH  13  14
ENDBRANCH   9  13
BRANCH  10  18
HETATM   18  N5  UNL     1     -62.858  16.614   6.429  1.00  0.00    -0.394 N 
ATOM     19  H52 UNL     1     -62.417  17.377   6.944  1.00  0.00     0.156 HD
ATOM     20  H51 UNL     1     -63.448  16.737   5.606  1.00  0.00     0.156 HD
ENDBRANCH  10  18
TORSDOF 3
ENDMDL
