MODEL 1
REMARK VINA RESULT: -7.276282760      0.000      0.000
REMARK  3 active torsions:
REMARK  status: ('A' for Active; 'I' for Inactive)
REMARK       I    between atoms: C1_2  and  N1_3 
REMARK       I    between atoms: C1_2  and  N2_14 
REMARK    1  A    between atoms: N1_3  and  C2_5 
REMARK    2  A    between atoms: C7_10  and  C8_11 
REMARK    3  A    between atoms: C8_11  and  O2_12 
ROOT
HETATM    1  O1  UNL     1       8.841   9.164  46.598  1.00  0.00    -0.247 OA
HETATM    2  C1  UNL     1       8.820   9.572  45.379  1.00  0.00     0.318 C 
HETATM    3  N1  UNL     1       8.095  10.755  45.079  1.00  0.00    -0.338 N 
ATOM      4  H1  UNL     1       8.064  11.096  44.118  1.00  0.00     0.164 HD
HETATM    5  N2  UNL     1       9.530   8.790  44.441  1.00  0.00    -0.331 N 
HETATM    6  C9  UNL     1       9.602   9.116  43.051  1.00  0.00     0.128 C 
HETATM    7  C10 UNL     1      11.002   9.055  42.475  1.00  0.00     0.023 C 
HETATM    8  C11 UNL     1      11.900   8.122  43.233  1.00  0.00     0.043 C 
HETATM    9  C12 UNL     1      11.114   7.014  43.898  1.00  0.00     0.098 C 
HETATM   10  C13 UNL     1      12.128   6.076  44.527  1.00  0.00     0.207 C 
HETATM   11  O3  UNL     1      12.999   5.699  43.500  1.00  0.00    -0.386 OA
HETATM   12  C14 UNL     1      12.267   4.945  42.580  1.00  0.00     0.194 C 
HETATM   13  C15 UNL     1      11.093   5.669  42.016  1.00  0.00     0.195 C 
HETATM   14  O4  UNL     1      10.355   6.389  42.923  1.00  0.00    -0.374 OA
HETATM   15  C16 UNL     1      10.211   7.593  44.938  1.00  0.00     0.167 C 
ENDROOT
BRANCH   3  16
HETATM   16  C2  UNL     1       7.393  11.490  46.130  1.00  0.00     0.092 C 
HETATM   17  C3  UNL     1       7.064  12.851  45.593  1.00  0.00     0.026 C 
HETATM   18  C4  UNL     1       6.025  12.851  44.542  1.00  0.00     0.002 C 
HETATM   19  C5  UNL     1       4.852  11.955  44.739  1.00  0.00     0.001 C 
HETATM   20  C6  UNL     1       5.163  10.661  45.426  1.00  0.00     0.009 C 
HETATM   21  C7  UNL     1       6.146  10.801  46.554  1.00  0.00     0.032 C 
BRANCH  21  22
HETATM   22  C8  UNL     1       5.510  11.423  47.744  1.00  0.00     0.170 C 
BRANCH  22  23
HETATM   23  O2  UNL     1       5.856  10.913  48.962  1.00  0.00    -0.400 OA
ATOM     24  H2  UNL     1       6.755  11.049  49.242  1.00  0.00     0.209 HD
ENDBRANCH  22  23
ENDBRANCH  21  22
ENDBRANCH   3  16
TORSDOF 3
ENDMDL
MODEL 2
REMARK VINA RESULT: -7.205580539      1.513      1.938
REMARK  3 active torsions:
REMARK  status: ('A' for Active; 'I' for Inactive)
REMARK       I    between atoms: C1_2  and  N1_3 
REMARK       I    between atoms: C1_2  and  N2_14 
REMARK    1  A    between atoms: N1_3  and  C2_5 
REMARK    2  A    between atoms: C7_10  and  C8_11 
REMARK    3  A    between atoms: C8_11  and  O2_12 
ROOT
HETATM    1  O1  UNL     1       9.054  10.073  46.215  1.00  0.00    -0.247 OA
HETATM    2  C1  UNL     1       7.990   9.612  45.661  1.00  0.00     0.318 C 
HETATM    3  N1  UNL     1       6.742  10.185  46.021  1.00  0.00    -0.338 N 
ATOM      4  H1  UNL     1       5.885   9.834  45.595  1.00  0.00     0.164 HD
HETATM    5  N2  UNL     1       8.167   8.561  44.733  1.00  0.00    -0.331 N 
HETATM    6  C9  UNL     1       7.081   7.948  44.033  1.00  0.00     0.128 C 
HETATM    7  C10 UNL     1       7.314   7.797  42.544  1.00  0.00     0.023 C 
HETATM    8  C11 UNL     1       8.770   7.732  42.189  1.00  0.00     0.043 C 
HETATM    9  C12 UNL     1       9.594   7.168  43.326  1.00  0.00     0.098 C 
HETATM   10  C13 UNL     1      11.016   7.039  42.812  1.00  0.00     0.207 C 
HETATM   11  O3  UNL     1      10.943   6.269  41.648  1.00  0.00    -0.386 OA
HETATM   12  C14 UNL     1      10.528   4.986  42.014  1.00  0.00     0.194 C 
HETATM   13  C15 UNL     1       9.219   4.965  42.727  1.00  0.00     0.195 C 
HETATM   14  O4  UNL     1       9.050   5.943  43.675  1.00  0.00    -0.374 OA
HETATM   15  C16 UNL     1       9.534   8.092  44.496  1.00  0.00     0.167 C 
ENDROOT
BRANCH   3  16
HETATM   16  C2  UNL     1       6.671  11.272  46.996  1.00  0.00     0.092 C 
HETATM   17  C3  UNL     1       7.220  12.507  46.345  1.00  0.00     0.026 C 
HETATM   18  C4  UNL     1       6.358  13.061  45.280  1.00  0.00     0.002 C 
HETATM   19  C5  UNL     1       4.890  13.083  45.529  1.00  0.00     0.001 C 
HETATM   20  C6  UNL     1       4.374  11.924  46.325  1.00  0.00     0.009 C 
HETATM   21  C7  UNL     1       5.279  11.519  47.454  1.00  0.00     0.032 C 
BRANCH  21  22
HETATM   22  C8  UNL     1       5.196  12.488  48.579  1.00  0.00     0.170 C 
BRANCH  22  23
HETATM   23  O2  UNL     1       5.289  11.974  49.840  1.00  0.00    -0.400 OA
ATOM     24  H2  UNL     1       6.128  12.065  50.278  1.00  0.00     0.209 HD
ENDBRANCH  22  23
ENDBRANCH  21  22
ENDBRANCH   3  16
TORSDOF 3
ENDMDL
MODEL 3
REMARK VINA RESULT: -7.122978088      2.436      7.870
REMARK  3 active torsions:
REMARK  status: ('A' for Active; 'I' for Inactive)
REMARK       I    between atoms: C1_2  and  N1_3 
REMARK       I    between atoms: C1_2  and  N2_14 
REMARK    1  A    between atoms: N1_3  and  C2_5 
REMARK    2  A    between atoms: C7_10  and  C8_11 
REMARK    3  A    between atoms: C8_11  and  O2_12 
ROOT
HETATM    1  O1  UNL     1       6.113   9.305  43.105  1.00  0.00    -0.247 OA
HETATM    2  C1  UNL     1       6.686   9.419  44.250  1.00  0.00     0.318 C 
HETATM    3  N1  UNL     1       7.730   8.513  44.573  1.00  0.00    -0.338 N 
ATOM      4  H1  UNL     1       8.197   8.585  45.477  1.00  0.00     0.164 HD
HETATM    5  N2  UNL     1       6.214  10.452  45.091  1.00  0.00    -0.331 N 
HETATM    6  C9  UNL     1       6.753  10.707  46.390  1.00  0.00     0.128 C 
HETATM    7  C10 UNL     1       7.063  12.166  46.654  1.00  0.00     0.023 C 
HETATM    8  C11 UNL     1       6.229  13.095  45.823  1.00  0.00     0.043 C 
HETATM    9  C12 UNL     1       4.897  12.473  45.463  1.00  0.00     0.098 C 
HETATM   10  C13 UNL     1       4.100  13.539  44.733  1.00  0.00     0.207 C 
HETATM   11  O3  UNL     1       4.066  14.650  45.582  1.00  0.00    -0.386 OA
HETATM   12  C14 UNL     1       3.325  14.295  46.712  1.00  0.00     0.194 C 
HETATM   13  C15 UNL     1       3.873  13.114  47.437  1.00  0.00     0.195 C 
HETATM   14  O4  UNL     1       4.285  12.074  46.639  1.00  0.00    -0.374 OA
HETATM   15  C16 UNL     1       5.119  11.284  44.588  1.00  0.00     0.167 C 
ENDROOT
BRANCH   3  16
HETATM   16  C2  UNL     1       8.142   7.477  43.627  1.00  0.00     0.092 C 
HETATM   17  C3  UNL     1       9.442   7.907  43.016  1.00  0.00     0.026 C 
HETATM   18  C4  UNL     1      10.588   7.873  43.948  1.00  0.00     0.002 C 
HETATM   19  C5  UNL     1      10.685   6.709  44.872  1.00  0.00     0.001 C 
HETATM   20  C6  UNL     1       9.368   6.180  45.351  1.00  0.00     0.009 C 
HETATM   21  C7  UNL     1       8.307   6.155  44.286  1.00  0.00     0.032 C 
BRANCH  21  22
HETATM   22  C8  UNL     1       8.543   5.047  43.323  1.00  0.00     0.170 C 
BRANCH  22  23
HETATM   23  O2  UNL     1       8.571   3.783  43.838  1.00  0.00    -0.400 OA
ATOM     24  H2  UNL     1       7.793   3.252  43.707  1.00  0.00     0.209 HD
ENDBRANCH  22  23
ENDBRANCH  21  22
ENDBRANCH   3  16
TORSDOF 3
ENDMDL
MODEL 4
REMARK VINA RESULT: -7.121171931      1.939      7.478
REMARK  3 active torsions:
REMARK  status: ('A' for Active; 'I' for Inactive)
REMARK       I    between atoms: C1_2  and  N1_3 
REMARK       I    between atoms: C1_2  and  N2_14 
REMARK    1  A    between atoms: N1_3  and  C2_5 
REMARK    2  A    between atoms: C7_10  and  C8_11 
REMARK    3  A    between atoms: C8_11  and  O2_12 
ROOT
HETATM    1  O1  UNL     1       8.651   8.501  46.534  1.00  0.00    -0.247 OA
HETATM    2  C1  UNL     1       8.252   8.577  45.315  1.00  0.00     0.318 C 
HETATM    3  N1  UNL     1       8.725   7.608  44.391  1.00  0.00    -0.338 N 
ATOM      4  H1  UNL     1       8.422   7.650  43.418  1.00  0.00     0.164 HD
HETATM    5  N2  UNL     1       7.367   9.634  45.005  1.00  0.00    -0.331 N 
HETATM    6  C9  UNL     1       6.834   9.847  43.696  1.00  0.00     0.128 C 
HETATM    7  C10 UNL     1       5.338  10.084  43.670  1.00  0.00     0.023 C 
HETATM    8  C11 UNL     1       4.819  10.646  44.960  1.00  0.00     0.043 C 
HETATM    9  C12 UNL     1       5.879  11.446  45.684  1.00  0.00     0.098 C 
HETATM   10  C13 UNL     1       5.210  12.058  46.901  1.00  0.00     0.207 C 
HETATM   11  O3  UNL     1       4.105  12.769  46.422  1.00  0.00    -0.386 OA
HETATM   12  C14 UNL     1       4.586  13.829  45.649  1.00  0.00     0.194 C 
HETATM   13  C15 UNL     1       5.448  13.395  44.513  1.00  0.00     0.195 C 
HETATM   14  O4  UNL     1       6.356  12.407  44.809  1.00  0.00    -0.374 OA
HETATM   15  C16 UNL     1       6.997  10.545  46.092  1.00  0.00     0.167 C 
ENDROOT
BRANCH   3  16
HETATM   16  C2  UNL     1       9.642   6.552  44.818  1.00  0.00     0.092 C 
HETATM   17  C3  UNL     1       8.943   5.238  44.632  1.00  0.00     0.026 C 
HETATM   18  C4  UNL     1       8.748   4.852  43.219  1.00  0.00     0.002 C 
HETATM   19  C5  UNL     1       9.876   5.101  42.279  1.00  0.00     0.001 C 
HETATM   20  C6  UNL     1      10.673   6.335  42.572  1.00  0.00     0.009 C 
HETATM   21  C7  UNL     1      10.908   6.565  44.038  1.00  0.00     0.032 C 
BRANCH  21  22
HETATM   22  C8  UNL     1      11.931   5.627  44.570  1.00  0.00     0.170 C 
BRANCH  22  23
HETATM   23  O2  UNL     1      12.246   5.748  45.892  1.00  0.00    -0.400 OA
ATOM     24  H2  UNL     1      12.434   4.943  46.362  1.00  0.00     0.209 HD
ENDBRANCH  22  23
ENDBRANCH  21  22
ENDBRANCH   3  16
TORSDOF 3
ENDMDL
MODEL 5
REMARK VINA RESULT: -7.119716697      3.384      5.294
REMARK  3 active torsions:
REMARK  status: ('A' for Active; 'I' for Inactive)
REMARK       I    between atoms: C1_2  and  N1_3 
REMARK       I    between atoms: C1_2  and  N2_14 
REMARK    1  A    between atoms: N1_3  and  C2_5 
REMARK    2  A    between atoms: C7_10  and  C8_11 
REMARK    3  A    between atoms: C8_11  and  O2_12 
ROOT
HETATM    1  O1  UNL     1       4.644  11.129  43.438  1.00  0.00    -0.247 OA
HETATM    2  C1  UNL     1       5.215  11.596  44.491  1.00  0.00     0.318 C 
HETATM    3  N1  UNL     1       4.871  12.906  44.916  1.00  0.00    -0.338 N 
ATOM      4  H1  UNL     1       5.312  13.297  45.748  1.00  0.00     0.164 HD
HETATM    5  N2  UNL     1       6.145  10.749  45.132  1.00  0.00    -0.331 N 
HETATM    6  C9  UNL     1       6.857  11.125  46.314  1.00  0.00     0.128 C 
HETATM    7  C10 UNL     1       6.847  10.071  47.402  1.00  0.00     0.023 C 
HETATM    8  C11 UNL     1       6.659   8.684  46.862  1.00  0.00     0.043 C 
HETATM    9  C12 UNL     1       7.184   8.562  45.448  1.00  0.00     0.098 C 
HETATM   10  C13 UNL     1       7.050   7.102  45.058  1.00  0.00     0.207 C 
HETATM   11  O3  UNL     1       7.724   6.372  46.042  1.00  0.00    -0.386 OA
HETATM   12  C14 UNL     1       9.080   6.692  45.952  1.00  0.00     0.194 C 
HETATM   13  C15 UNL     1       9.361   8.147  46.112  1.00  0.00     0.195 C 
HETATM   14  O4  UNL     1       8.501   8.987  45.447  1.00  0.00    -0.374 OA
HETATM   15  C16 UNL     1       6.379   9.430  44.538  1.00  0.00     0.167 C 
ENDROOT
BRANCH   3  16
HETATM   16  C2  UNL     1       3.892  13.701  44.176  1.00  0.00     0.092 C 
HETATM   17  C3  UNL     1       3.255  14.656  45.142  1.00  0.00     0.026 C 
HETATM   18  C4  UNL     1       4.154  15.730  45.611  1.00  0.00     0.002 C 
HETATM   19  C5  UNL     1       5.051  16.362  44.603  1.00  0.00     0.001 C 
HETATM   20  C6  UNL     1       5.553  15.431  43.543  1.00  0.00     0.009 C 
HETATM   21  C7  UNL     1       4.517  14.456  43.059  1.00  0.00     0.032 C 
BRANCH  21  22
HETATM   22  C8  UNL     1       3.525  15.124  42.177  1.00  0.00     0.170 C 
BRANCH  22  23
HETATM   23  O2  UNL     1       4.014  16.025  41.275  1.00  0.00    -0.400 OA
ATOM     24  H2  UNL     1       3.721  15.932  40.376  1.00  0.00     0.209 HD
ENDBRANCH  22  23
ENDBRANCH  21  22
ENDBRANCH   3  16
TORSDOF 3
ENDMDL
