MODEL 1
REMARK VINA RESULT: -7.748705312      0.000      0.000
REMARK  2 active torsions:
REMARK  status: ('A' for Active; 'I' for Inactive)
REMARK    1  A    between atoms: C2_2  and  N1_3 
REMARK       I    between atoms: N1_3  and  C3_5 
REMARK       I    between atoms: C3_5  and  N2_7 
REMARK    2  A    between atoms: N2_7  and  C4_9 
ROOT
HETATM    1  N1  UNL     1       9.912   8.153  44.381  1.00  0.00    -0.332 N 
ATOM      2  H1  UNL     1      10.309   9.065  44.158  1.00  0.00     0.165 HD
HETATM    3  C3  UNL     1       8.682   8.110  45.059  1.00  0.00     0.317 C 
HETATM    4  O1  UNL     1       8.166   7.013  45.349  1.00  0.00    -0.247 OA
HETATM    5  N2  UNL     1       8.022   9.298  45.417  1.00  0.00    -0.329 N 
ATOM      6  H2  UNL     1       8.461  10.186  45.171  1.00  0.00     0.165 HD
ENDROOT
BRANCH   5   7
HETATM    7  C4  UNL     1       6.751   9.333  46.117  1.00  0.00     0.189 C 
HETATM    8  C5  UNL     1       5.739   9.951  45.188  1.00  0.00     0.074 C 
HETATM    9  C6  UNL     1       5.759  11.384  45.571  1.00  0.00     0.073 C 
HETATM   10  C7  UNL     1       4.450  11.831  46.234  1.00  0.00     0.039 C 
HETATM   11  C10 UNL     1       5.881  12.346  44.451  1.00  0.00     0.039 C 
HETATM   12  O2  UNL     1       6.766  11.565  46.546  1.00  0.00    -0.308 OA
HETATM   13  C8  UNL     1       4.793  13.319  46.389  1.00  0.00     0.003 C 
HETATM   14  C9  UNL     1       5.340  13.638  45.025  1.00  0.00     0.003 C 
HETATM   15  C11 UNL     1       6.880  10.346  47.197  1.00  0.00     0.282 C 
HETATM   16  O3  UNL     1       7.058  10.111  48.443  1.00  0.00    -0.263 OA
ENDBRANCH   5   7
BRANCH   1  17
HETATM   17  C2  UNL     1      10.644   6.967  43.984  1.00  0.00     0.056 C 
HETATM   18  C1  UNL     1      11.387   6.406  45.167  1.00  0.00     0.040 C 
HETATM   19  C12 UNL     1       9.808   5.942  43.244  1.00  0.00     0.171 C 
HETATM   20  S1  UNL     1      11.194   5.524  42.215  1.00  0.00     0.149 S 
HETATM   21  O4  UNL     1      10.884   5.348  40.778  1.00  0.00    -0.228 OA
HETATM   22  O5  UNL     1      12.153   4.576  42.828  1.00  0.00    -0.228 OA
HETATM   23  C13 UNL     1      11.435   7.201  42.739  1.00  0.00     0.171 C 
ENDBRANCH   1  17
TORSDOF 2
ENDMDL
MODEL 2
REMARK VINA RESULT: -7.711358764      2.126      2.904
REMARK  2 active torsions:
REMARK  status: ('A' for Active; 'I' for Inactive)
REMARK    1  A    between atoms: C2_2  and  N1_3 
REMARK       I    between atoms: N1_3  and  C3_5 
REMARK       I    between atoms: C3_5  and  N2_7 
REMARK    2  A    between atoms: N2_7  and  C4_9 
ROOT
HETATM    1  N1  UNL     1       8.155   9.082  44.778  1.00  0.00    -0.332 N 
ATOM      2  H1  UNL     1       8.589   9.714  44.106  1.00  0.00     0.165 HD
HETATM    3  C3  UNL     1       7.025   9.531  45.482  1.00  0.00     0.317 C 
HETATM    4  O1  UNL     1       6.468   8.786  46.312  1.00  0.00    -0.247 OA
HETATM    5  N2  UNL     1       6.512  10.821  45.260  1.00  0.00    -0.329 N 
ATOM      6  H2  UNL     1       6.982  11.415  44.577  1.00  0.00     0.165 HD
ENDROOT
BRANCH   5   7
HETATM    7  C4  UNL     1       5.350  11.354  45.949  1.00  0.00     0.189 C 
HETATM    8  C5  UNL     1       4.442  11.954  44.907  1.00  0.00     0.074 C 
HETATM    9  C6  UNL     1       4.839  13.384  44.895  1.00  0.00     0.073 C 
HETATM   10  C7  UNL     1       3.738  14.301  45.439  1.00  0.00     0.039 C 
HETATM   11  C10 UNL     1       5.095  13.968  43.558  1.00  0.00     0.039 C 
HETATM   12  O2  UNL     1       5.939  13.542  45.769  1.00  0.00    -0.308 OA
HETATM   13  C8  UNL     1       4.441  15.642  45.187  1.00  0.00     0.003 C 
HETATM   14  C9  UNL     1       4.932  15.456  43.778  1.00  0.00     0.003 C 
HETATM   15  C11 UNL     1       5.810  12.539  46.719  1.00  0.00     0.282 C 
HETATM   16  O3  UNL     1       6.030  12.589  47.979  1.00  0.00    -0.263 OA
ENDBRANCH   5   7
BRANCH   1  17
HETATM   17  C2  UNL     1       8.734   7.765  44.959  1.00  0.00     0.056 C 
HETATM   18  C1  UNL     1       7.737   6.711  44.559  1.00  0.00     0.040 C 
HETATM   19  C12 UNL     1      10.096   7.594  44.316  1.00  0.00     0.171 C 
HETATM   20  S1  UNL     1      10.617   6.550  45.655  1.00  0.00     0.149 S 
HETATM   21  O4  UNL     1      11.988   6.801  46.156  1.00  0.00    -0.228 OA
HETATM   22  O5  UNL     1      10.180   5.139  45.543  1.00  0.00    -0.228 OA
HETATM   23  C13 UNL     1       9.364   7.623  46.305  1.00  0.00     0.171 C 
ENDBRANCH   1  17
TORSDOF 2
ENDMDL
MODEL 3
REMARK VINA RESULT: -7.448040071      2.034      2.652
REMARK  2 active torsions:
REMARK  status: ('A' for Active; 'I' for Inactive)
REMARK    1  A    between atoms: C2_2  and  N1_3 
REMARK       I    between atoms: N1_3  and  C3_5 
REMARK       I    between atoms: C3_5  and  N2_7 
REMARK    2  A    between atoms: N2_7  and  C4_9 
ROOT
HETATM    1  N1  UNL     1       8.537   9.140  46.039  1.00  0.00    -0.332 N 
ATOM      2  H1  UNL     1       9.153   9.857  45.655  1.00  0.00     0.165 HD
HETATM    3  C3  UNL     1       7.249   9.519  46.452  1.00  0.00     0.317 C 
HETATM    4  O1  UNL     1       6.469   8.671  46.927  1.00  0.00    -0.247 OA
HETATM    5  N2  UNL     1       6.826  10.855  46.335  1.00  0.00    -0.329 N 
ATOM      6  H2  UNL     1       7.479  11.534  45.943  1.00  0.00     0.165 HD
ENDROOT
BRANCH   5   7
HETATM    7  C4  UNL     1       5.512  11.322  46.739  1.00  0.00     0.189 C 
HETATM    8  C5  UNL     1       4.749  11.665  45.486  1.00  0.00     0.074 C 
HETATM    9  C6  UNL     1       4.994  13.121  45.330  1.00  0.00     0.073 C 
HETATM   10  C7  UNL     1       3.726  13.955  45.547  1.00  0.00     0.039 C 
HETATM   11  C10 UNL     1       5.424  13.557  43.982  1.00  0.00     0.039 C 
HETATM   12  O2  UNL     1       5.898  13.525  46.338  1.00  0.00    -0.308 OA
HETATM   13  C8  UNL     1       4.323  15.330  45.219  1.00  0.00     0.003 C 
HETATM   14  C9  UNL     1       5.074  15.029  43.951  1.00  0.00     0.003 C 
HETATM   15  C11 UNL     1       5.704  12.644  47.391  1.00  0.00     0.282 C 
HETATM   16  O3  UNL     1       5.690  12.880  48.649  1.00  0.00    -0.263 OA
ENDBRANCH   5   7
BRANCH   1  17
HETATM   17  C2  UNL     1       9.035   7.782  46.132  1.00  0.00     0.056 C 
HETATM   18  C1  UNL     1       9.626   7.548  47.497  1.00  0.00     0.040 C 
HETATM   19  C12 UNL     1       8.035   6.725  45.710  1.00  0.00     0.171 C 
HETATM   20  S1  UNL     1       9.339   5.743  45.011  1.00  0.00     0.149 S 
HETATM   21  O4  UNL     1       9.036   5.134  43.695  1.00  0.00    -0.228 OA
HETATM   22  O5  UNL     1      10.081   4.916  45.991  1.00  0.00    -0.228 OA
HETATM   23  C13 UNL     1       9.887   7.428  44.958  1.00  0.00     0.171 C 
ENDBRANCH   1  17
TORSDOF 2
ENDMDL
MODEL 4
REMARK VINA RESULT: -7.388258879      2.007      2.779
REMARK  2 active torsions:
REMARK  status: ('A' for Active; 'I' for Inactive)
REMARK    1  A    between atoms: C2_2  and  N1_3 
REMARK       I    between atoms: N1_3  and  C3_5 
REMARK       I    between atoms: C3_5  and  N2_7 
REMARK    2  A    between atoms: N2_7  and  C4_9 
ROOT
HETATM    1  N1  UNL     1       8.212   7.958  45.735  1.00  0.00    -0.332 N 
ATOM      2  H1  UNL     1       7.342   7.444  45.875  1.00  0.00     0.165 HD
HETATM    3  C3  UNL     1       8.137   9.334  45.462  1.00  0.00     0.317 C 
HETATM    4  O1  UNL     1       9.179   9.995  45.286  1.00  0.00    -0.247 OA
HETATM    5  N2  UNL     1       6.891   9.980  45.385  1.00  0.00    -0.329 N 
ATOM      6  H2  UNL     1       6.049   9.421  45.533  1.00  0.00     0.165 HD
ENDROOT
BRANCH   5   7
HETATM    7  C4  UNL     1       6.733  11.396  45.108  1.00  0.00     0.189 C 
HETATM    8  C5  UNL     1       6.818  12.127  46.422  1.00  0.00     0.074 C 
HETATM    9  C6  UNL     1       5.397  12.256  46.830  1.00  0.00     0.073 C 
HETATM   10  C7  UNL     1       4.910  13.710  46.801  1.00  0.00     0.039 C 
HETATM   11  C10 UNL     1       5.090  11.855  48.222  1.00  0.00     0.039 C 
HETATM   12  O2  UNL     1       4.604  11.566  45.886  1.00  0.00    -0.308 OA
HETATM   13  C8  UNL     1       3.498  13.467  47.353  1.00  0.00     0.003 C 
HETATM   14  C9  UNL     1       3.793  12.572  48.526  1.00  0.00     0.003 C 
HETATM   15  C11 UNL     1       5.319  11.602  44.698  1.00  0.00     0.282 C 
HETATM   16  O3  UNL     1       4.890  11.770  43.503  1.00  0.00    -0.263 OA
ENDBRANCH   5   7
BRANCH   1  17
HETATM   17  C2  UNL     1       9.464   7.233  45.828  1.00  0.00     0.056 C 
HETATM   18  C1  UNL     1      10.006   7.330  47.229  1.00  0.00     0.040 C 
HETATM   19  C12 UNL     1       9.400   5.816  45.294  1.00  0.00     0.171 C 
HETATM   20  S1  UNL     1      11.059   5.954  44.675  1.00  0.00     0.149 S 
HETATM   21  O4  UNL     1      11.278   5.394  43.322  1.00  0.00    -0.228 OA
HETATM   22  O5  UNL     1      12.116   5.724  45.688  1.00  0.00    -0.228 OA
HETATM   23  C13 UNL     1      10.394   7.597  44.718  1.00  0.00     0.171 C 
ENDBRANCH   1  17
TORSDOF 2
ENDMDL
MODEL 5
REMARK VINA RESULT: -7.351168369      1.634      1.936
REMARK  2 active torsions:
REMARK  status: ('A' for Active; 'I' for Inactive)
REMARK    1  A    between atoms: C2_2  and  N1_3 
REMARK       I    between atoms: N1_3  and  C3_5 
REMARK       I    between atoms: C3_5  and  N2_7 
REMARK    2  A    between atoms: N2_7  and  C4_9 
ROOT
HETATM    1  N1  UNL     1       8.843   8.646  42.525  1.00  0.00    -0.332 N 
ATOM      2  H1  UNL     1       8.463   9.050  41.669  1.00  0.00     0.165 HD
HETATM    3  C3  UNL     1       8.294   9.051  43.753  1.00  0.00     0.317 C 
HETATM    4  O1  UNL     1       8.733   8.579  44.820  1.00  0.00    -0.247 OA
HETATM    5  N2  UNL     1       7.248   9.989  43.794  1.00  0.00    -0.329 N 
ATOM      6  H2  UNL     1       6.903  10.363  42.909  1.00  0.00     0.165 HD
ENDROOT
BRANCH   5   7
HETATM    7  C4  UNL     1       6.631  10.455  45.022  1.00  0.00     0.189 C 
HETATM    8  C5  UNL     1       5.191  10.771  44.714  1.00  0.00     0.074 C 
HETATM    9  C6  UNL     1       5.220  12.224  44.416  1.00  0.00     0.073 C 
HETATM   10  C7  UNL     1       4.491  13.055  45.480  1.00  0.00     0.039 C 
HETATM   11  C10 UNL     1       4.527  12.638  43.174  1.00  0.00     0.039 C 
HETATM   12  O2  UNL     1       6.566  12.653  44.448  1.00  0.00    -0.308 OA
HETATM   13  C8  UNL     1       4.639  14.428  44.809  1.00  0.00     0.003 C 
HETATM   14  C9  UNL     1       4.238  14.107  43.395  1.00  0.00     0.003 C 
HETATM   15  C11 UNL     1       7.214  11.790  45.319  1.00  0.00     0.282 C 
HETATM   16  O3  UNL     1       8.114  12.050  46.192  1.00  0.00    -0.263 OA
ENDBRANCH   5   7
BRANCH   1  17
HETATM   17  C2  UNL     1       9.921   7.683  42.414  1.00  0.00     0.056 C 
HETATM   18  C1  UNL     1      11.232   8.347  42.741  1.00  0.00     0.040 C 
HETATM   19  C12 UNL     1       9.681   6.394  43.173  1.00  0.00     0.171 C 
HETATM   20  S1  UNL     1      10.503   5.469  41.899  1.00  0.00     0.149 S 
HETATM   21  O4  UNL     1       9.844   4.200  41.514  1.00  0.00    -0.228 OA
HETATM   22  O5  UNL     1      11.982   5.469  41.993  1.00  0.00    -0.228 OA
HETATM   23  C13 UNL     1       9.850   6.926  41.128  1.00  0.00     0.171 C 
ENDBRANCH   1  17
TORSDOF 2
ENDMDL
