MODEL 1
REMARK VINA RESULT: -7.439663700      0.000      0.000
REMARK  4 active torsions:
REMARK  status: ('A' for Active; 'I' for Inactive)
REMARK    1  A    between atoms: N1_1  and  S1_4 
REMARK    2  A    between atoms: S1_4  and  C1_7 
REMARK    3  A    between atoms: C8_14  and  N2_15 
REMARK    4  A    between atoms: N2_15  and  C9_17 
ROOT
HETATM    1  C1  UNL     1       7.843   8.029  46.130  1.00  0.00     0.154 C 
HETATM    2  C2  UNL     1       8.675   6.768  46.038  1.00  0.00     0.051 C 
HETATM    3  C3  UNL     1       9.530   6.932  44.804  1.00  0.00     0.028 C 
HETATM    4  C4  UNL     1       8.931   8.137  44.074  1.00  0.00     0.083 C 
HETATM    5  C5  UNL     1       8.569   7.733  42.698  1.00  0.00     0.025 C 
HETATM    6  C6  UNL     1       7.107   7.523  42.601  1.00  0.00     0.006 C 
HETATM    7  C7  UNL     1       6.371   8.757  43.071  1.00  0.00     0.053 C 
HETATM    8  C8  UNL     1       6.734   9.213  44.425  1.00  0.00     0.099 C 
HETATM    9  C14 UNL     1       5.707   8.639  45.382  1.00  0.00     0.057 C 
HETATM   10  C15 UNL     1       6.409   7.657  46.237  1.00  0.00     0.053 C 
HETATM   11  N3  UNL     1       7.989   8.720  44.901  1.00  0.00    -0.360 N 
ENDROOT
BRANCH   8  12
HETATM   12  N2  UNL     1       6.645  10.628  44.584  1.00  0.00    -0.393 N 
ATOM     13  H2  UNL     1       7.383  11.190  44.161  1.00  0.00     0.156 HD
BRANCH  12  14
HETATM   14  C9  UNL     1       5.664  11.297  45.249  1.00  0.00     0.079 C 
HETATM   15  C10 UNL     1       6.047  12.307  46.281  1.00  0.00     0.025 C 
HETATM   16  C11 UNL     1       4.722  13.107  46.471  1.00  0.00     0.002 C 
HETATM   17  C12 UNL     1       4.462  13.411  44.998  1.00  0.00     0.002 C 
HETATM   18  C13 UNL     1       4.936  12.208  44.202  1.00  0.00     0.025 C 
ENDBRANCH  12  14
ENDBRANCH   8  12
BRANCH   1  19
HETATM   19  S1  UNL     1       8.470   8.953  47.509  1.00  0.00     0.251 S 
HETATM   20  O1  UNL     1       9.662   8.255  48.093  1.00  0.00    -0.203 OA
HETATM   21  O2  UNL     1       8.974  10.282  46.964  1.00  0.00    -0.203 OA
BRANCH  19  22
HETATM   22  N1  UNL     1       7.262   9.310  48.683  1.00  0.00    -0.326 N 
ATOM     23  H12 UNL     1       7.432   9.243  49.686  1.00  0.00     0.168 HD
ATOM     24  H11 UNL     1       6.375   9.590  48.265  1.00  0.00     0.168 HD
ENDBRANCH  19  22
ENDBRANCH   1  19
TORSDOF 4
ENDMDL
MODEL 2
REMARK VINA RESULT: -7.312792116      2.546      3.557
REMARK  4 active torsions:
REMARK  status: ('A' for Active; 'I' for Inactive)
REMARK    1  A    between atoms: N1_1  and  S1_4 
REMARK    2  A    between atoms: S1_4  and  C1_7 
REMARK    3  A    between atoms: C8_14  and  N2_15 
REMARK    4  A    between atoms: N2_15  and  C9_17 
ROOT
HETATM    1  C1  UNL     1       9.857   6.182  43.899  1.00  0.00     0.154 C 
HETATM    2  C2  UNL     1      10.333   5.598  42.586  1.00  0.00     0.051 C 
HETATM    3  C3  UNL     1      10.236   6.722  41.581  1.00  0.00     0.028 C 
HETATM    4  C4  UNL     1       9.421   7.807  42.289  1.00  0.00     0.083 C 
HETATM    5  C5  UNL     1       8.243   8.140  41.460  1.00  0.00     0.025 C 
HETATM    6  C6  UNL     1       7.032   7.502  42.022  1.00  0.00     0.006 C 
HETATM    7  C7  UNL     1       6.865   7.890  43.474  1.00  0.00     0.053 C 
HETATM    8  C8  UNL     1       8.035   7.608  44.326  1.00  0.00     0.099 C 
HETATM    9  C14 UNL     1       7.788   6.270  44.997  1.00  0.00     0.057 C 
HETATM   10  C15 UNL     1       8.782   5.319  44.451  1.00  0.00     0.053 C 
HETATM   11  N3  UNL     1       9.262   7.435  43.612  1.00  0.00    -0.360 N 
ENDROOT
BRANCH   8  12
HETATM   12  N2  UNL     1       8.190   8.541  45.394  1.00  0.00    -0.393 N 
ATOM     13  H2  UNL     1       8.628   8.198  46.249  1.00  0.00     0.156 HD
BRANCH  12  14
HETATM   14  C9  UNL     1       7.806   9.846  45.378  1.00  0.00     0.079 C 
HETATM   15  C10 UNL     1       7.577  10.550  46.675  1.00  0.00     0.025 C 
HETATM   16  C11 UNL     1       7.583  12.048  46.246  1.00  0.00     0.002 C 
HETATM   17  C12 UNL     1       8.903  12.028  45.478  1.00  0.00     0.002 C 
HETATM   18  C13 UNL     1       9.007  10.672  44.803  1.00  0.00     0.025 C 
ENDBRANCH  12  14
ENDBRANCH   8  12
BRANCH   1  19
HETATM   19  S1  UNL     1      11.289   6.332  44.937  1.00  0.00     0.251 S 
HETATM   20  O1  UNL     1      12.085   7.539  44.540  1.00  0.00    -0.203 OA
HETATM   21  O2  UNL     1      10.790   6.591  46.351  1.00  0.00    -0.203 OA
BRANCH  19  22
HETATM   22  N1  UNL     1      12.234   4.893  44.987  1.00  0.00    -0.326 N 
ATOM     23  H12 UNL     1      12.937   4.671  44.282  1.00  0.00     0.168 HD
ATOM     24  H11 UNL     1      12.014   4.302  45.788  1.00  0.00     0.168 HD
ENDBRANCH  19  22
ENDBRANCH   1  19
TORSDOF 4
ENDMDL
MODEL 3
REMARK VINA RESULT: -7.206596164      1.958      2.675
REMARK  4 active torsions:
REMARK  status: ('A' for Active; 'I' for Inactive)
REMARK    1  A    between atoms: N1_1  and  S1_4 
REMARK    2  A    between atoms: S1_4  and  C1_7 
REMARK    3  A    between atoms: C8_14  and  N2_15 
REMARK    4  A    between atoms: N2_15  and  C9_17 
ROOT
HETATM    1  C1  UNL     1       9.699   7.286  44.315  1.00  0.00     0.154 C 
HETATM    2  C2  UNL     1      11.017   6.938  43.656  1.00  0.00     0.051 C 
HETATM    3  C3  UNL     1      11.618   8.255  43.224  1.00  0.00     0.028 C 
HETATM    4  C4  UNL     1      10.481   9.269  43.375  1.00  0.00     0.083 C 
HETATM    5  C5  UNL     1      10.264   9.945  42.078  1.00  0.00     0.025 C 
HETATM    6  C6  UNL     1       9.068   9.387  41.410  1.00  0.00     0.006 C 
HETATM    7  C7  UNL     1       7.871   9.470  42.329  1.00  0.00     0.053 C 
HETATM    8  C8  UNL     1       8.062   8.839  43.648  1.00  0.00     0.099 C 
HETATM    9  C14 UNL     1       7.485   7.439  43.563  1.00  0.00     0.057 C 
HETATM   10  C15 UNL     1       8.616   6.493  43.679  1.00  0.00     0.053 C 
HETATM   11  N3  UNL     1       9.429   8.646  44.022  1.00  0.00    -0.360 N 
ENDROOT
BRANCH   8  12
HETATM   12  N2  UNL     1       7.331   9.484  44.690  1.00  0.00    -0.393 N 
ATOM     13  H2  UNL     1       6.943   8.887  45.421  1.00  0.00     0.156 HD
BRANCH  12  14
HETATM   14  C9  UNL     1       7.104  10.821  44.799  1.00  0.00     0.079 C 
HETATM   15  C10 UNL     1       5.733  11.296  45.150  1.00  0.00     0.025 C 
HETATM   16  C11 UNL     1       5.992  12.772  45.580  1.00  0.00     0.002 C 
HETATM   17  C12 UNL     1       7.109  12.491  46.583  1.00  0.00     0.002 C 
HETATM   18  C13 UNL     1       7.918  11.328  46.038  1.00  0.00     0.025 C 
ENDBRANCH  12  14
ENDBRANCH   8  12
BRANCH   1  19
HETATM   19  S1  UNL     1       9.906   6.993  46.053  1.00  0.00     0.251 S 
HETATM   20  O1  UNL     1      11.358   6.790  46.368  1.00  0.00    -0.203 OA
HETATM   21  O2  UNL     1       9.482   8.264  46.774  1.00  0.00    -0.203 OA
BRANCH  19  22
HETATM   22  N1  UNL     1       8.910   5.717  46.641  1.00  0.00    -0.326 N 
ATOM     23  H12 UNL     1       8.408   5.774  47.526  1.00  0.00     0.168 HD
ATOM     24  H11 UNL     1       8.880   4.915  46.011  1.00  0.00     0.168 HD
ENDBRANCH  19  22
ENDBRANCH   1  19
TORSDOF 4
ENDMDL
MODEL 4
REMARK VINA RESULT: -7.181863882      2.604      3.810
REMARK  4 active torsions:
REMARK  status: ('A' for Active; 'I' for Inactive)
REMARK    1  A    between atoms: N1_1  and  S1_4 
REMARK    2  A    between atoms: S1_4  and  C1_7 
REMARK    3  A    between atoms: C8_14  and  N2_15 
REMARK    4  A    between atoms: N2_15  and  C9_17 
ROOT
HETATM    1  C1  UNL     1       9.926   5.990  43.754  1.00  0.00     0.154 C 
HETATM    2  C2  UNL     1      10.481   5.192  42.593  1.00  0.00     0.051 C 
HETATM    3  C3  UNL     1      10.530   6.150  41.426  1.00  0.00     0.028 C 
HETATM    4  C4  UNL     1       9.714   7.362  41.884  1.00  0.00     0.083 C 
HETATM    5  C5  UNL     1       8.630   7.608  40.909  1.00  0.00     0.025 C 
HETATM    6  C6  UNL     1       7.344   7.111  41.446  1.00  0.00     0.006 C 
HETATM    7  C7  UNL     1       7.074   7.725  42.801  1.00  0.00     0.053 C 
HETATM    8  C8  UNL     1       8.151   7.534  43.790  1.00  0.00     0.099 C 
HETATM    9  C14 UNL     1       7.778   6.326  44.630  1.00  0.00     0.057 C 
HETATM   10  C15 UNL     1       8.763   5.264  44.328  1.00  0.00     0.053 C 
HETATM   11  N3  UNL     1       9.423   7.205  43.227  1.00  0.00    -0.360 N 
ENDROOT
BRANCH   8  12
HETATM   12  N2  UNL     1       8.262   8.614  44.716  1.00  0.00    -0.393 N 
ATOM     13  H2  UNL     1       8.800   9.427  44.417  1.00  0.00     0.156 HD
BRANCH  12  14
HETATM   14  C9  UNL     1       7.716   8.658  45.962  1.00  0.00     0.079 C 
HETATM   15  C10 UNL     1       8.568   9.084  47.111  1.00  0.00     0.025 C 
HETATM   16  C11 UNL     1       7.509   9.403  48.210  1.00  0.00     0.002 C 
HETATM   17  C12 UNL     1       6.632  10.333  47.374  1.00  0.00     0.002 C 
HETATM   18  C13 UNL     1       6.641   9.799  45.953  1.00  0.00     0.025 C 
ENDBRANCH  12  14
ENDBRANCH   8  12
BRANCH   1  19
HETATM   19  S1  UNL     1      11.269   6.243  44.886  1.00  0.00     0.251 S 
HETATM   20  O1  UNL     1      11.930   7.561  44.610  1.00  0.00    -0.203 OA
HETATM   21  O2  UNL     1      10.666   6.348  46.279  1.00  0.00    -0.203 OA
BRANCH  19  22
HETATM   22  N1  UNL     1      12.382   4.929  44.911  1.00  0.00    -0.326 N 
ATOM     23  H12 UNL     1      13.331   5.017  45.272  1.00  0.00     0.168 HD
ATOM     24  H11 UNL     1      11.987   4.069  44.531  1.00  0.00     0.168 HD
ENDBRANCH  19  22
ENDBRANCH   1  19
TORSDOF 4
ENDMDL
MODEL 5
REMARK VINA RESULT: -7.163640487      3.192      4.724
REMARK  4 active torsions:
REMARK  status: ('A' for Active; 'I' for Inactive)
REMARK    1  A    between atoms: N1_1  and  S1_4 
REMARK    2  A    between atoms: S1_4  and  C1_7 
REMARK    3  A    between atoms: C8_14  and  N2_15 
REMARK    4  A    between atoms: N2_15  and  C9_17 
ROOT
HETATM    1  C1  UNL     1      11.171   6.431  43.312  1.00  0.00     0.154 C 
HETATM    2  C2  UNL     1      12.419   7.157  42.858  1.00  0.00     0.051 C 
HETATM    3  C3  UNL     1      12.036   8.617  42.782  1.00  0.00     0.028 C 
HETATM    4  C4  UNL     1      10.509   8.624  42.895  1.00  0.00     0.083 C 
HETATM    5  C5  UNL     1       9.944   9.320  41.720  1.00  0.00     0.025 C 
HETATM    6  C6  UNL     1       9.414   8.333  40.754  1.00  0.00     0.006 C 
HETATM    7  C7  UNL     1       8.422   7.418  41.435  1.00  0.00     0.053 C 
HETATM    8  C8  UNL     1       8.938   6.735  42.636  1.00  0.00     0.099 C 
HETATM    9  C14 UNL     1       9.407   5.359  42.202  1.00  0.00     0.057 C 
HETATM   10  C15 UNL     1      10.878   5.330  42.358  1.00  0.00     0.053 C 
HETATM   11  N3  UNL     1      10.093   7.345  43.217  1.00  0.00    -0.360 N 
ENDROOT
BRANCH   8  12
HETATM   12  N2  UNL     1       7.934   6.495  43.621  1.00  0.00    -0.393 N 
ATOM     13  H2  UNL     1       7.496   5.574  43.621  1.00  0.00     0.156 HD
BRANCH  12  14
HETATM   14  C9  UNL     1       7.507   7.382  44.560  1.00  0.00     0.079 C 
HETATM   15  C10 UNL     1       6.394   8.318  44.219  1.00  0.00     0.025 C 
HETATM   16  C11 UNL     1       5.946   8.827  45.623  1.00  0.00     0.002 C 
HETATM   17  C12 UNL     1       5.774   7.460  46.282  1.00  0.00     0.002 C 
HETATM   18  C13 UNL     1       6.849   6.551  45.714  1.00  0.00     0.025 C 
ENDBRANCH  12  14
ENDBRANCH   8  12
BRANCH   1  19
HETATM   19  S1  UNL     1      11.469   5.901  44.979  1.00  0.00     0.251 S 
HETATM   20  O1  UNL     1      11.809   7.082  45.839  1.00  0.00    -0.203 OA
HETATM   21  O2  UNL     1      10.156   5.345  45.513  1.00  0.00    -0.203 OA
BRANCH  19  22
HETATM   22  N1  UNL     1      12.636   4.639  45.084  1.00  0.00    -0.326 N 
ATOM     23  H12 UNL     1      12.412   3.709  45.436  1.00  0.00     0.168 HD
ATOM     24  H11 UNL     1      13.559   4.926  44.758  1.00  0.00     0.168 HD
ENDBRANCH  19  22
ENDBRANCH   1  19
TORSDOF 4
ENDMDL
