MODEL 1
REMARK VINA RESULT: -7.292705242      0.000      0.000
REMARK  11 active torsions:
REMARK  status: ('A' for Active; 'I' for Inactive)
REMARK    1  A    between atoms: O1_2  and  C2_3 
REMARK    2  A    between atoms: C2_3  and  C3_4 
REMARK    3  A    between atoms: C3_4  and  C4_5 
REMARK    4  A    between atoms: C3_4  and  N3_13 
REMARK    5  A    between atoms: C4_5  and  C5_6 
REMARK    6  A    between atoms: N3_13  and  N4_21 
REMARK    7  A    between atoms: C8_14  and  C9_15 
REMARK       I    between atoms: N4_21  and  C15_23 
REMARK    8  A    between atoms: C15_23  and  C16_25 
REMARK    9  A    between atoms: C16_25  and  N5_26 
REMARK   10  A    between atoms: C16_25  and  C17_30 
REMARK   11  A    between atoms: C17_30  and  C18_31 
ROOT
HETATM    1  N3  UNL     1      11.883  32.009  15.311  1.00  0.00    -0.293 N 
HETATM    2  C8  UNL     1      12.805  32.762  15.970  1.00  0.00     0.122 C 
ENDROOT
BRANCH   1   3
HETATM    3  C3  UNL     1      11.928  30.578  15.148  1.00  0.00     0.137 C 
BRANCH   3   4
HETATM    4  C2  UNL     1      12.149  29.892  16.434  1.00  0.00     0.194 C 
BRANCH   4   5
HETATM    5  O1  UNL     1      10.987  29.549  17.118  1.00  0.00    -0.394 OA
HETATM    6  C1  UNL     1      11.096  29.735  18.507  1.00  0.00     0.201 C 
ENDBRANCH   4   5
ENDBRANCH   3   4
BRANCH   3   7
HETATM    7  C4  UNL     1      10.642  30.139  14.491  1.00  0.00     0.088 C 
BRANCH   7   8
HETATM    8  C5  UNL     1      10.760  29.728  13.113  1.00  0.00     0.027 A 
HETATM    9  C6  UNL     1      10.116  28.760  12.368  1.00  0.00     0.114 A 
HETATM   10  N1  UNL     1      10.569  28.785  11.107  1.00  0.00    -0.360 N 
HETATM   11  C7  UNL     1      11.491  29.750  11.020  1.00  0.00     0.180 A 
ATOM     12  H1  UNL     1      10.264  28.176  10.348  1.00  0.00     0.166 HD
HETATM   13  N2  UNL     1      11.616  30.323  12.214  1.00  0.00    -0.355 N 
ATOM     14  H2  UNL     1      12.253  31.090  12.431  1.00  0.00     0.166 HD
ENDBRANCH   7   8
ENDBRANCH   3   7
ENDBRANCH   1   3
BRANCH   1  15
HETATM   15  N4  UNL     1      10.581  32.470  15.373  1.00  0.00    -0.266 N 
HETATM   16  C15 UNL     1       9.886  32.878  16.529  1.00  0.00     0.267 C 
HETATM   17  O2  UNL     1      10.381  32.875  17.683  1.00  0.00    -0.269 OA
ATOM     18  H4  UNL     1      10.072  32.520  14.492  1.00  0.00     0.190 HD
BRANCH  16  19
HETATM   19  C16 UNL     1       8.458  33.358  16.444  1.00  0.00     0.282 C 
BRANCH  19  20
HETATM   20  N5  UNL     1       8.046  34.027  17.639  1.00  0.00    -0.066 N 
ATOM     21  H53 UNL     1       7.032  34.006  17.744  1.00  0.00     0.275 HD
ATOM     22  H52 UNL     1       8.306  33.495  18.469  1.00  0.00     0.275 HD
ATOM     23  H51 UNL     1       8.402  34.982  17.685  1.00  0.00     0.275 HD
ENDBRANCH  19  20
BRANCH  19  24
HETATM   24  C17 UNL     1       7.640  32.079  16.296  1.00  0.00     0.099 C 
BRANCH  24  25
HETATM   25  C18 UNL     1       7.143  31.898  14.927  1.00  0.00     0.011 A 
HETATM   26  C19 UNL     1       6.070  31.118  14.564  1.00  0.00     0.026 A 
HETATM   27  C20 UNL     1       5.921  31.211  13.190  1.00  0.00     0.019 A 
HETATM   28  C21 UNL     1       6.920  32.055  12.759  1.00  0.00     0.088 A 
HETATM   29  N6  UNL     1       7.647  32.459  13.821  1.00  0.00    -0.369 N 
ATOM     30  H6  UNL     1       8.448  33.089  13.787  1.00  0.00     0.165 HD
ENDBRANCH  24  25
ENDBRANCH  19  24
ENDBRANCH  16  19
ENDBRANCH   1  15
BRANCH   2  31
HETATM   31  C9  UNL     1      14.196  32.892  15.529  1.00  0.00    -0.019 A 
HETATM   32  C10 UNL     1      14.559  33.397  14.305  1.00  0.00     0.013 A 
HETATM   33  C11 UNL     1      15.888  33.534  13.943  1.00  0.00     0.001 A 
HETATM   34  C12 UNL     1      16.893  33.166  14.810  1.00  0.00     0.000 A 
HETATM   35  C13 UNL     1      16.544  32.657  16.042  1.00  0.00     0.001 A 
HETATM   36  C14 UNL     1      15.221  32.527  16.385  1.00  0.00     0.013 A 
ENDBRANCH   2  31
TORSDOF 11
ENDMDL
MODEL 2
REMARK VINA RESULT: -7.235106388      2.301      5.725
REMARK  11 active torsions:
REMARK  status: ('A' for Active; 'I' for Inactive)
REMARK    1  A    between atoms: O1_2  and  C2_3 
REMARK    2  A    between atoms: C2_3  and  C3_4 
REMARK    3  A    between atoms: C3_4  and  C4_5 
REMARK    4  A    between atoms: C3_4  and  N3_13 
REMARK    5  A    between atoms: C4_5  and  C5_6 
REMARK    6  A    between atoms: N3_13  and  N4_21 
REMARK    7  A    between atoms: C8_14  and  C9_15 
REMARK       I    between atoms: N4_21  and  C15_23 
REMARK    8  A    between atoms: C15_23  and  C16_25 
REMARK    9  A    between atoms: C16_25  and  N5_26 
REMARK   10  A    between atoms: C16_25  and  C17_30 
REMARK   11  A    between atoms: C17_30  and  C18_31 
ROOT
HETATM    1  N3  UNL     1       9.829  32.289  15.931  1.00  0.00    -0.293 N 
HETATM    2  C8  UNL     1       8.723  32.933  15.470  1.00  0.00     0.122 C 
ENDROOT
BRANCH   1   3
HETATM    3  C3  UNL     1      10.837  31.660  15.115  1.00  0.00     0.137 C 
BRANCH   3   4
HETATM    4  C2  UNL     1      12.170  31.751  15.734  1.00  0.00     0.194 C 
BRANCH   4   5
HETATM    5  O1  UNL     1      12.973  32.775  15.242  1.00  0.00    -0.394 OA
HETATM    6  C1  UNL     1      13.879  32.335  14.261  1.00  0.00     0.201 C 
ENDBRANCH   4   5
ENDBRANCH   3   4
BRANCH   3   7
HETATM    7  C4  UNL     1      10.423  30.228  14.878  1.00  0.00     0.088 C 
BRANCH   7   8
HETATM    8  C5  UNL     1      10.504  29.778  13.509  1.00  0.00     0.027 A 
HETATM    9  C6  UNL     1      10.010  28.663  12.862  1.00  0.00     0.114 A 
HETATM   10  N1  UNL     1      10.340  28.713  11.564  1.00  0.00    -0.360 N 
HETATM   11  C7  UNL     1      11.034  29.837  11.358  1.00  0.00     0.180 A 
ATOM     12  H1  UNL     1      10.102  28.016  10.857  1.00  0.00     0.166 HD
HETATM   13  N2  UNL     1      11.141  30.484  12.515  1.00  0.00    -0.355 N 
ATOM     14  H2  UNL     1      11.625  31.373  12.645  1.00  0.00     0.166 HD
ENDBRANCH   7   8
ENDBRANCH   3   7
ENDBRANCH   1   3
BRANCH   1  15
HETATM   15  N4  UNL     1      10.365  32.788  17.103  1.00  0.00    -0.266 N 
HETATM   16  C15 UNL     1       9.799  32.707  18.391  1.00  0.00     0.267 C 
HETATM   17  O2  UNL     1       8.701  32.150  18.640  1.00  0.00    -0.269 OA
ATOM     18  H4  UNL     1      11.264  33.264  17.028  1.00  0.00     0.190 HD
BRANCH  16  19
HETATM   19  C16 UNL     1      10.501  33.304  19.584  1.00  0.00     0.282 C 
BRANCH  19  20
HETATM   20  N5  UNL     1      10.378  32.480  20.747  1.00  0.00    -0.066 N 
ATOM     21  H53 UNL     1       9.624  32.804  21.351  1.00  0.00     0.275 HD
ATOM     22  H52 UNL     1      10.011  31.558  20.510  1.00  0.00     0.275 HD
ATOM     23  H51 UNL     1      11.257  32.407  21.259  1.00  0.00     0.275 HD
ENDBRANCH  19  20
BRANCH  19  24
HETATM   24  C17 UNL     1       9.763  34.615  19.838  1.00  0.00     0.099 C 
BRANCH  24  25
HETATM   25  C18 UNL     1      10.139  35.654  18.870  1.00  0.00     0.011 A 
HETATM   26  C19 UNL     1      11.409  36.141  18.676  1.00  0.00     0.026 A 
HETATM   27  C20 UNL     1      11.350  37.104  17.682  1.00  0.00     0.019 A 
HETATM   28  C21 UNL     1      10.028  37.170  17.301  1.00  0.00     0.088 A 
HETATM   29  N6  UNL     1       9.313  36.288  18.029  1.00  0.00    -0.369 N 
ATOM     30  H6  UNL     1       8.308  36.130  17.951  1.00  0.00     0.165 HD
ENDBRANCH  24  25
ENDBRANCH  19  24
ENDBRANCH  16  19
ENDBRANCH   1  15
BRANCH   2  31
HETATM   31  C9  UNL     1       7.653  32.261  14.729  1.00  0.00    -0.019 A 
HETATM   32  C10 UNL     1       7.538  32.301  13.361  1.00  0.00     0.013 A 
HETATM   33  C11 UNL     1       6.529  31.621  12.699  1.00  0.00     0.001 A 
HETATM   34  C12 UNL     1       5.606  30.879  13.401  1.00  0.00     0.000 A 
HETATM   35  C13 UNL     1       5.708  30.829  14.774  1.00  0.00     0.001 A 
HETATM   36  C14 UNL     1       6.715  31.509  15.415  1.00  0.00     0.013 A 
ENDBRANCH   2  31
TORSDOF 11
ENDMDL
MODEL 3
REMARK VINA RESULT: -7.155438137      1.962      4.593
REMARK  11 active torsions:
REMARK  status: ('A' for Active; 'I' for Inactive)
REMARK    1  A    between atoms: O1_2  and  C2_3 
REMARK    2  A    between atoms: C2_3  and  C3_4 
REMARK    3  A    between atoms: C3_4  and  C4_5 
REMARK    4  A    between atoms: C3_4  and  N3_13 
REMARK    5  A    between atoms: C4_5  and  C5_6 
REMARK    6  A    between atoms: N3_13  and  N4_21 
REMARK    7  A    between atoms: C8_14  and  C9_15 
REMARK       I    between atoms: N4_21  and  C15_23 
REMARK    8  A    between atoms: C15_23  and  C16_25 
REMARK    9  A    between atoms: C16_25  and  N5_26 
REMARK   10  A    between atoms: C16_25  and  C17_30 
REMARK   11  A    between atoms: C17_30  and  C18_31 
ROOT
HETATM    1  N3  UNL     1      11.654  31.511  15.138  1.00  0.00    -0.293 N 
HETATM    2  C8  UNL     1      12.853  31.970  14.691  1.00  0.00     0.122 C 
ENDROOT
BRANCH   1   3
HETATM    3  C3  UNL     1      10.911  32.046  16.252  1.00  0.00     0.137 C 
BRANCH   3   4
HETATM    4  C2  UNL     1       9.558  32.468  15.849  1.00  0.00     0.194 C 
BRANCH   4   5
HETATM    5  O1  UNL     1       8.595  31.466  15.901  1.00  0.00    -0.394 OA
HETATM    6  C1  UNL     1       7.454  31.842  16.631  1.00  0.00     0.201 C 
ENDBRANCH   4   5
ENDBRANCH   3   4
BRANCH   3   7
HETATM    7  C4  UNL     1      10.872  30.997  17.337  1.00  0.00     0.088 C 
BRANCH   7   8
HETATM    8  C5  UNL     1      11.848  31.158  18.388  1.00  0.00     0.027 A 
HETATM    9  C6  UNL     1      12.464  32.269  18.930  1.00  0.00     0.114 A 
HETATM   10  N1  UNL     1      13.288  31.891  19.917  1.00  0.00    -0.360 N 
HETATM   11  C7  UNL     1      13.218  30.560  20.026  1.00  0.00     0.180 A 
ATOM     12  H1  UNL     1      13.867  32.510  20.485  1.00  0.00     0.166 HD
HETATM   13  N2  UNL     1      12.360  30.107  19.116  1.00  0.00    -0.355 N 
ATOM     14  H2  UNL     1      12.117  29.126  18.978  1.00  0.00     0.166 HD
ENDBRANCH   7   8
ENDBRANCH   3   7
ENDBRANCH   1   3
BRANCH   1  15
HETATM   15  N4  UNL     1      10.813  30.995  14.170  1.00  0.00    -0.266 N 
HETATM   16  C15 UNL     1      10.716  29.649  13.768  1.00  0.00     0.267 C 
HETATM   17  O2  UNL     1      11.404  28.719  14.259  1.00  0.00    -0.269 OA
ATOM     18  H4  UNL     1      10.199  31.658  13.697  1.00  0.00     0.190 HD
BRANCH  16  19
HETATM   19  C16 UNL     1       9.749  29.230  12.688  1.00  0.00     0.282 C 
BRANCH  19  20
HETATM   20  N5  UNL     1      10.383  28.443  11.676  1.00  0.00    -0.066 N 
ATOM     21  H53 UNL     1      10.966  27.714  12.086  1.00  0.00     0.275 HD
ATOM     22  H52 UNL     1       9.708  27.855  11.188  1.00  0.00     0.275 HD
ATOM     23  H51 UNL     1      10.914  29.018  11.022  1.00  0.00     0.275 HD
ENDBRANCH  19  20
BRANCH  19  24
HETATM   24  C17 UNL     1       9.290  30.545  12.065  1.00  0.00     0.099 C 
BRANCH  24  25
HETATM   25  C18 UNL     1       7.943  30.926  12.512  1.00  0.00     0.011 A 
HETATM   26  C19 UNL     1       6.875  30.071  12.643  1.00  0.00     0.026 A 
HETATM   27  C20 UNL     1       5.790  30.808  13.088  1.00  0.00     0.019 A 
HETATM   28  C21 UNL     1       6.242  32.104  13.213  1.00  0.00     0.088 A 
HETATM   29  N6  UNL     1       7.543  32.154  12.861  1.00  0.00    -0.369 N 
ATOM     30  H6  UNL     1       8.126  32.991  12.862  1.00  0.00     0.165 HD
ENDBRANCH  24  25
ENDBRANCH  19  24
ENDBRANCH  16  19
ENDBRANCH   1  15
BRANCH   2  31
HETATM   31  C9  UNL     1      14.080  31.918  15.488  1.00  0.00    -0.019 A 
HETATM   32  C10 UNL     1      14.474  30.812  16.202  1.00  0.00     0.013 A 
HETATM   33  C11 UNL     1      15.660  30.794  16.915  1.00  0.00     0.001 A 
HETATM   34  C12 UNL     1      16.487  31.895  16.928  1.00  0.00     0.000 A 
HETATM   35  C13 UNL     1      16.106  33.013  16.217  1.00  0.00     0.001 A 
HETATM   36  C14 UNL     1      14.926  33.013  15.515  1.00  0.00     0.013 A 
ENDBRANCH   2  31
TORSDOF 11
ENDMDL
MODEL 4
REMARK VINA RESULT: -7.140218172      1.544      2.525
REMARK  11 active torsions:
REMARK  status: ('A' for Active; 'I' for Inactive)
REMARK    1  A    between atoms: O1_2  and  C2_3 
REMARK    2  A    between atoms: C2_3  and  C3_4 
REMARK    3  A    between atoms: C3_4  and  C4_5 
REMARK    4  A    between atoms: C3_4  and  N3_13 
REMARK    5  A    between atoms: C4_5  and  C5_6 
REMARK    6  A    between atoms: N3_13  and  N4_21 
REMARK    7  A    between atoms: C8_14  and  C9_15 
REMARK       I    between atoms: N4_21  and  C15_23 
REMARK    8  A    between atoms: C15_23  and  C16_25 
REMARK    9  A    between atoms: C16_25  and  N5_26 
REMARK   10  A    between atoms: C16_25  and  C17_30 
REMARK   11  A    between atoms: C17_30  and  C18_31 
ROOT
HETATM    1  N3  UNL     1      12.251  31.928  15.853  1.00  0.00    -0.293 N 
HETATM    2  C8  UNL     1      12.856  31.451  16.974  1.00  0.00     0.122 C 
ENDROOT
BRANCH   1   3
HETATM    3  C3  UNL     1      12.661  31.658  14.498  1.00  0.00     0.137 C 
BRANCH   3   4
HETATM    4  C2  UNL     1      13.997  32.213  14.215  1.00  0.00     0.194 C 
BRANCH   4   5
HETATM    5  O1  UNL     1      14.066  33.602  14.232  1.00  0.00    -0.394 OA
HETATM    6  C1  UNL     1      15.387  34.083  14.242  1.00  0.00     0.201 C 
ENDBRANCH   4   5
ENDBRANCH   3   4
BRANCH   3   7
HETATM    7  C4  UNL     1      12.617  30.164  14.283  1.00  0.00     0.088 C 
BRANCH   7   8
HETATM    8  C5  UNL     1      11.690  29.712  13.272  1.00  0.00     0.027 A 
HETATM    9  C6  UNL     1      11.615  28.553  12.526  1.00  0.00     0.114 A 
HETATM   10  N1  UNL     1      10.540  28.600  11.727  1.00  0.00    -0.360 N 
HETATM   11  C7  UNL     1       9.918  29.764  11.943  1.00  0.00     0.180 A 
ATOM     12  H1  UNL     1      10.248  27.876  11.071  1.00  0.00     0.166 HD
HETATM   13  N2  UNL     1      10.596  30.440  12.865  1.00  0.00    -0.355 N 
ATOM     14  H2  UNL     1      10.342  31.363  13.219  1.00  0.00     0.166 HD
ENDBRANCH   7   8
ENDBRANCH   3   7
ENDBRANCH   1   3
BRANCH   1  15
HETATM   15  N4  UNL     1      10.884  32.106  15.942  1.00  0.00    -0.266 N 
HETATM   16  C15 UNL     1      10.210  33.286  16.315  1.00  0.00     0.267 C 
HETATM   17  O2  UNL     1      10.790  34.358  16.620  1.00  0.00    -0.269 OA
ATOM     18  H4  UNL     1      10.302  31.300  15.714  1.00  0.00     0.190 HD
BRANCH  16  19
HETATM   19  C16 UNL     1       8.703  33.333  16.371  1.00  0.00     0.282 C 
BRANCH  19  20
HETATM   20  N5  UNL     1       8.227  33.721  17.663  1.00  0.00    -0.066 N 
ATOM     21  H53 UNL     1       8.801  33.320  18.404  1.00  0.00     0.275 HD
ATOM     22  H52 UNL     1       8.402  34.710  17.840  1.00  0.00     0.275 HD
ATOM     23  H51 UNL     1       7.242  33.490  17.792  1.00  0.00     0.275 HD
ENDBRANCH  19  20
BRANCH  19  24
HETATM   24  C17 UNL     1       8.273  31.893  16.107  1.00  0.00     0.099 C 
BRANCH  24  25
HETATM   25  C18 UNL     1       7.514  31.765  14.856  1.00  0.00     0.011 A 
HETATM   26  C19 UNL     1       6.391  30.994  14.679  1.00  0.00     0.026 A 
HETATM   27  C20 UNL     1       5.973  31.142  13.368  1.00  0.00     0.019 A 
HETATM   28  C21 UNL     1       6.868  32.011  12.783  1.00  0.00     0.088 A 
HETATM   29  N6  UNL     1       7.791  32.375  13.698  1.00  0.00    -0.369 N 
ATOM     30  H6  UNL     1       8.570  33.012  13.533  1.00  0.00     0.165 HD
ENDBRANCH  24  25
ENDBRANCH  19  24
ENDBRANCH  16  19
ENDBRANCH   1  15
BRANCH   2  31
HETATM   31  C9  UNL     1      14.226  31.800  17.357  1.00  0.00    -0.019 A 
HETATM   32  C10 UNL     1      15.275  30.915  17.307  1.00  0.00     0.013 A 
HETATM   33  C11 UNL     1      16.562  31.298  17.645  1.00  0.00     0.001 A 
HETATM   34  C12 UNL     1      16.828  32.588  18.045  1.00  0.00     0.000 A 
HETATM   35  C13 UNL     1      15.785  33.488  18.102  1.00  0.00     0.001 A 
HETATM   36  C14 UNL     1      14.514  33.092  17.762  1.00  0.00     0.013 A 
ENDBRANCH   2  31
TORSDOF 11
ENDMDL
MODEL 5
REMARK VINA RESULT: -7.046865689      1.818      4.586
REMARK  11 active torsions:
REMARK  status: ('A' for Active; 'I' for Inactive)
REMARK    1  A    between atoms: O1_2  and  C2_3 
REMARK    2  A    between atoms: C2_3  and  C3_4 
REMARK    3  A    between atoms: C3_4  and  C4_5 
REMARK    4  A    between atoms: C3_4  and  N3_13 
REMARK    5  A    between atoms: C4_5  and  C5_6 
REMARK    6  A    between atoms: N3_13  and  N4_21 
REMARK    7  A    between atoms: C8_14  and  C9_15 
REMARK       I    between atoms: N4_21  and  C15_23 
REMARK    8  A    between atoms: C15_23  and  C16_25 
REMARK    9  A    between atoms: C16_25  and  N5_26 
REMARK   10  A    between atoms: C16_25  and  C17_30 
REMARK   11  A    between atoms: C17_30  and  C18_31 
ROOT
HETATM    1  N3  UNL     1      11.777  31.717  15.069  1.00  0.00    -0.293 N 
HETATM    2  C8  UNL     1      13.015  32.041  14.608  1.00  0.00     0.122 C 
ENDROOT
BRANCH   1   3
HETATM    3  C3  UNL     1      11.058  32.414  16.105  1.00  0.00     0.137 C 
BRANCH   3   4
HETATM    4  C2  UNL     1      10.794  31.542  17.264  1.00  0.00     0.194 C 
BRANCH   4   5
HETATM    5  O1  UNL     1       9.665  30.740  17.144  1.00  0.00    -0.394 OA
HETATM    6  C1  UNL     1       8.514  31.465  16.791  1.00  0.00     0.201 C 
ENDBRANCH   4   5
ENDBRANCH   3   4
BRANCH   3   7
HETATM    7  C4  UNL     1      11.857  33.635  16.492  1.00  0.00     0.088 C 
BRANCH   7   8
HETATM    8  C5  UNL     1      11.079  34.786  16.885  1.00  0.00     0.027 A 
HETATM    9  C6  UNL     1       9.783  34.925  17.342  1.00  0.00     0.114 A 
HETATM   10  N1  UNL     1       9.533  36.216  17.599  1.00  0.00    -0.360 N 
HETATM   11  C7  UNL     1      10.638  36.914  17.319  1.00  0.00     0.180 A 
ATOM     12  H1  UNL     1       8.653  36.599  17.946  1.00  0.00     0.166 HD
HETATM   13  N2  UNL     1      11.572  36.070  16.890  1.00  0.00    -0.355 N 
ATOM     14  H2  UNL     1      12.516  36.336  16.606  1.00  0.00     0.166 HD
ENDBRANCH   7   8
ENDBRANCH   3   7
ENDBRANCH   1   3
BRANCH   1  15
HETATM   15  N4  UNL     1      10.917  31.170  14.136  1.00  0.00    -0.266 N 
HETATM   16  C15 UNL     1      10.654  29.801  13.934  1.00  0.00     0.267 C 
HETATM   17  O2  UNL     1      11.184  28.878  14.601  1.00  0.00    -0.269 OA
ATOM     18  H4  UNL     1      10.422  31.825  13.531  1.00  0.00     0.190 HD
BRANCH  16  19
HETATM   19  C16 UNL     1       9.687  29.348  12.868  1.00  0.00     0.282 C 
BRANCH  19  20
HETATM   20  N5  UNL     1      10.322  28.529  11.882  1.00  0.00    -0.066 N 
ATOM     21  H53 UNL     1      10.948  27.849  12.312  1.00  0.00     0.275 HD
ATOM     22  H52 UNL     1       9.657  27.887  11.451  1.00  0.00     0.275 HD
ATOM     23  H51 UNL     1      10.808  29.085  11.179  1.00  0.00     0.275 HD
ENDBRANCH  19  20
BRANCH  19  24
HETATM   24  C17 UNL     1       9.227  30.642  12.203  1.00  0.00     0.099 C 
BRANCH  24  25
HETATM   25  C18 UNL     1       7.863  31.012  12.603  1.00  0.00     0.011 A 
HETATM   26  C19 UNL     1       6.762  30.191  12.539  1.00  0.00     0.026 A 
HETATM   27  C20 UNL     1       5.671  30.904  13.005  1.00  0.00     0.019 A 
HETATM   28  C21 UNL     1       6.151  32.150  13.342  1.00  0.00     0.088 A 
HETATM   29  N6  UNL     1       7.476  32.196  13.092  1.00  0.00    -0.369 N 
ATOM     30  H6  UNL     1       8.082  33.000  13.250  1.00  0.00     0.165 HD
ENDBRANCH  24  25
ENDBRANCH  19  24
ENDBRANCH  16  19
ENDBRANCH   1  15
BRANCH   2  31
HETATM   31  C9  UNL     1      14.221  31.980  15.438  1.00  0.00    -0.019 A 
HETATM   32  C10 UNL     1      14.433  31.019  16.397  1.00  0.00     0.013 A 
HETATM   33  C11 UNL     1      15.604  30.978  17.135  1.00  0.00     0.001 A 
HETATM   34  C12 UNL     1      16.598  31.908  16.925  1.00  0.00     0.000 A 
HETATM   35  C13 UNL     1      16.400  32.878  15.966  1.00  0.00     0.001 A 
HETATM   36  C14 UNL     1      15.233  32.904  15.243  1.00  0.00     0.013 A 
ENDBRANCH   2  31
TORSDOF 11
ENDMDL
