MODEL 1
REMARK VINA RESULT: -4.673438405      0.000      0.000
REMARK  0 active torsions:
REMARK  status: ('A' for Active; 'I' for Inactive)
ROOT
HETATM    1  N1  UNL     1      11.551  -4.230   7.279  1.00  0.00    -0.088 NA
HETATM    2  C1  UNL     1      10.687  -3.082   7.451  1.00  0.00     0.095 C 
HETATM    3  N2  UNL     1       9.482  -2.941   7.085  1.00  0.00    -0.367 N 
ATOM      4  H2  UNL     1       8.972  -3.678   6.599  1.00  0.00     0.161 HD
HETATM    5  C2  UNL     1       8.884  -1.676   7.399  1.00  0.00     0.097 C 
HETATM    6  C3  UNL     1       7.504  -1.816   7.996  1.00  0.00     0.037 C 
HETATM    7  C4  UNL     1       6.506  -0.966   7.245  1.00  0.00     0.003 C 
HETATM    8  C5  UNL     1       6.379  -1.382   5.802  1.00  0.00     0.000 C 
HETATM    9  C6  UNL     1       7.765  -1.593   5.241  1.00  0.00     0.003 C 
HETATM   10  C7  UNL     1       8.792  -0.889   6.110  1.00  0.00     0.037 C 
HETATM   11  C8  UNL     1       9.844  -1.068   8.378  1.00  0.00     0.274 C 
HETATM   12  F1  UNL     1      10.021   0.284   8.174  1.00  0.00    -0.203 F 
HETATM   13  F2  UNL     1       9.462  -1.293   9.678  1.00  0.00    -0.203 F 
HETATM   14  C9  UNL     1      11.119  -1.832   8.123  1.00  0.00     0.154 C 
ENDROOT
TORSDOF 0
ENDMDL
MODEL 2
REMARK VINA RESULT: -4.237409411      2.121      4.001
REMARK  0 active torsions:
REMARK  status: ('A' for Active; 'I' for Inactive)
ROOT
HETATM    1  N1  UNL     1       7.732  -0.671   3.507  1.00  0.00    -0.088 NA
HETATM    2  C1  UNL     1       7.972  -1.302   4.787  1.00  0.00     0.095 C 
HETATM    3  N2  UNL     1       9.042  -1.825   5.219  1.00  0.00    -0.367 N 
ATOM      4  H2  UNL     1       9.897  -1.851   4.664  1.00  0.00     0.161 HD
HETATM    5  C2  UNL     1       8.971  -2.378   6.541  1.00  0.00     0.097 C 
HETATM    6  C3  UNL     1      10.147  -1.983   7.401  1.00  0.00     0.037 C 
HETATM    7  C4  UNL     1      10.796  -3.202   8.013  1.00  0.00     0.003 C 
HETATM    8  C5  UNL     1      11.343  -4.140   6.967  1.00  0.00     0.000 C 
HETATM    9  C6  UNL     1      10.306  -4.300   5.881  1.00  0.00     0.003 C 
HETATM   10  C7  UNL     1       8.941  -3.884   6.398  1.00  0.00     0.037 C 
HETATM   11  C8  UNL     1       7.687  -1.825   7.083  1.00  0.00     0.274 C 
HETATM   12  F1  UNL     1       6.984  -2.750   7.823  1.00  0.00    -0.203 F 
HETATM   13  F2  UNL     1       7.892  -0.693   7.834  1.00  0.00    -0.203 F 
HETATM   14  C9  UNL     1       6.932  -1.432   5.837  1.00  0.00     0.154 C 
ENDROOT
TORSDOF 0
ENDMDL
MODEL 3
REMARK VINA RESULT: -3.981128261      1.182      1.208
REMARK  0 active torsions:
REMARK  status: ('A' for Active; 'I' for Inactive)
ROOT
HETATM    1  N1  UNL     1      12.117  -3.369   8.502  1.00  0.00    -0.088 NA
HETATM    2  C1  UNL     1      11.111  -2.347   8.310  1.00  0.00     0.095 C 
HETATM    3  N2  UNL     1       9.853  -2.483   8.240  1.00  0.00    -0.367 N 
ATOM      4  H2  UNL     1       9.400  -3.393   8.317  1.00  0.00     0.161 HD
HETATM    5  C2  UNL     1       9.109  -1.273   8.044  1.00  0.00     0.097 C 
HETATM    6  C3  UNL     1       7.914  -1.168   8.961  1.00  0.00     0.037 C 
HETATM    7  C4  UNL     1       6.658  -0.881   8.173  1.00  0.00     0.003 C 
HETATM    8  C5  UNL     1       6.337  -1.982   7.195  1.00  0.00     0.000 C 
HETATM    9  C6  UNL     1       7.607  -2.369   6.477  1.00  0.00     0.003 C 
HETATM   10  C7  UNL     1       8.637  -1.261   6.607  1.00  0.00     0.037 C 
HETATM   11  C8  UNL     1      10.113  -0.195   8.329  1.00  0.00     0.274 C 
HETATM   12  F1  UNL     1      10.005   0.870   7.462  1.00  0.00    -0.203 F 
HETATM   13  F2  UNL     1      10.029   0.254   9.625  1.00  0.00    -0.203 F 
HETATM   14  C9  UNL     1      11.432  -0.906   8.162  1.00  0.00     0.154 C 
ENDROOT
TORSDOF 0
ENDMDL
MODEL 4
REMARK VINA RESULT: -3.842094012      2.392      3.535
REMARK  0 active torsions:
REMARK  status: ('A' for Active; 'I' for Inactive)
ROOT
HETATM    1  N1  UNL     1       8.489  -1.023   3.607  1.00  0.00    -0.088 NA
HETATM    2  C1  UNL     1       8.683  -1.476   4.968  1.00  0.00     0.095 C 
HETATM    3  N2  UNL     1       8.576  -0.813   6.042  1.00  0.00    -0.367 N 
ATOM      4  H2  UNL     1       8.326   0.176   6.048  1.00  0.00     0.161 HD
HETATM    5  C2  UNL     1       8.831  -1.544   7.249  1.00  0.00     0.097 C 
HETATM    6  C3  UNL     1       7.792  -1.290   8.314  1.00  0.00     0.037 C 
HETATM    7  C4  UNL     1       8.445  -0.882   9.614  1.00  0.00     0.003 C 
HETATM    8  C5  UNL     1       9.225   0.401   9.478  1.00  0.00     0.000 C 
HETATM    9  C6  UNL     1      10.042   0.333   8.210  1.00  0.00     0.003 C 
HETATM   10  C7  UNL     1      10.186  -1.110   7.761  1.00  0.00     0.037 C 
HETATM   11  C8  UNL     1       8.815  -2.975   6.801  1.00  0.00     0.274 C 
HETATM   12  F1  UNL     1       9.792  -3.731   7.413  1.00  0.00    -0.203 F 
HETATM   13  F2  UNL     1       7.588  -3.561   6.997  1.00  0.00    -0.203 F 
HETATM   14  C9  UNL     1       9.055  -2.870   5.315  1.00  0.00     0.154 C 
ENDROOT
TORSDOF 0
ENDMDL
MODEL 5
REMARK VINA RESULT: -3.440690623      5.639      8.094
REMARK  0 active torsions:
REMARK  status: ('A' for Active; 'I' for Inactive)
ROOT
HETATM    1  N1  UNL     1      12.052  -3.957   8.308  1.00  0.00    -0.088 NA
HETATM    2  C1  UNL     1      13.037  -4.284   9.317  1.00  0.00     0.095 C 
HETATM    3  N2  UNL     1      14.276  -4.501   9.167  1.00  0.00    -0.367 N 
ATOM      4  H2  UNL     1      14.728  -4.464   8.254  1.00  0.00     0.161 HD
HETATM    5  C2  UNL     1      15.001  -4.803  10.367  1.00  0.00     0.097 C 
HETATM    6  C3  UNL     1      16.297  -4.037  10.474  1.00  0.00     0.037 C 
HETATM    7  C4  UNL     1      17.453  -4.974  10.736  1.00  0.00     0.003 C 
HETATM    8  C5  UNL     1      17.646  -5.965   9.618  1.00  0.00     0.000 C 
HETATM    9  C6  UNL     1      16.296  -6.521   9.233  1.00  0.00     0.003 C 
HETATM   10  C7  UNL     1      15.298  -6.287  10.353  1.00  0.00     0.037 C 
HETATM   11  C8  UNL     1      14.047  -4.418  11.459  1.00  0.00     0.274 C 
HETATM   12  F1  UNL     1      14.059  -5.309  12.510  1.00  0.00    -0.203 F 
HETATM   13  F2  UNL     1      14.289  -3.148  11.926  1.00  0.00    -0.203 F 
HETATM   14  C9  UNL     1      12.711  -4.415  10.758  1.00  0.00     0.154 C 
ENDROOT
TORSDOF 0
ENDMDL
