MODEL 1
REMARK VINA RESULT: -5.491856129      0.000      0.000
REMARK  1 active torsions:
REMARK  status: ('A' for Active; 'I' for Inactive)
REMARK    1  A    between atoms: C2_2  and  C3_3 
ROOT
HETATM    1  C3  UNL     1      50.563 -50.529  17.397  1.00  0.00     0.187 C 
HETATM    2  C4  UNL     1      51.912 -49.943  17.119  1.00  0.00     0.060 C 
HETATM    3  C5  UNL     1      52.798 -50.776  16.269  1.00  0.00     0.234 C 
HETATM    4  N1  UNL     1      52.487 -52.162  16.221  1.00  0.00    -0.073 N 
ATOM      5  H11 UNL     1      53.139 -52.653  15.610  1.00  0.00     0.277 HD
ATOM      6  H12 UNL     1      51.619 -52.315  15.709  1.00  0.00     0.277 HD
HETATM    7  C6  UNL     1      52.430 -52.795  17.500  1.00  0.00     0.259 C 
HETATM    8  C7  UNL     1      50.953 -52.816  17.912  1.00  0.00     0.260 C 
HETATM    9  N2  UNL     1      50.587 -51.527  18.446  1.00  0.00    -0.069 N 
ATOM     10  H21 UNL     1      49.703 -51.564  18.953  1.00  0.00     0.277 HD
ATOM     11  H22 UNL     1      51.195 -51.252  19.217  1.00  0.00     0.277 HD
ENDROOT
BRANCH   1  12
HETATM   12  C2  UNL     1      49.672 -49.365  17.843  1.00  0.00     0.028 C 
HETATM   13  C1  UNL     1      48.288 -49.802  18.175  1.00  0.00     0.007 C 
ENDBRANCH   1  12
TORSDOF 1
ENDMDL
MODEL 2
REMARK VINA RESULT: -5.209481980      0.957      1.178
REMARK  1 active torsions:
REMARK  status: ('A' for Active; 'I' for Inactive)
REMARK    1  A    between atoms: C2_2  and  C3_3 
ROOT
HETATM    1  C3  UNL     1      49.710 -50.888  17.496  1.00  0.00     0.187 C 
HETATM    2  C4  UNL     1      50.495 -49.615  17.456  1.00  0.00     0.060 C 
HETATM    3  C5  UNL     1      51.735 -49.664  16.642  1.00  0.00     0.234 C 
HETATM    4  N1  UNL     1      52.271 -50.960  16.409  1.00  0.00    -0.073 N 
ATOM      5  H11 UNL     1      53.113 -50.899  15.837  1.00  0.00     0.277 HD
ATOM      6  H12 UNL     1      51.669 -51.487  15.777  1.00  0.00     0.277 HD
HETATM    7  C6  UNL     1      52.528 -51.710  17.596  1.00  0.00     0.259 C 
HETATM    8  C7  UNL     1      51.310 -52.617  17.813  1.00  0.00     0.260 C 
HETATM    9  N2  UNL     1      50.252 -51.855  18.429  1.00  0.00    -0.069 N 
ATOM     10  H21 UNL     1      49.525 -52.459  18.813  1.00  0.00     0.277 HD
ATOM     11  H22 UNL     1      50.559 -51.414  19.296  1.00  0.00     0.277 HD
ENDROOT
BRANCH   1  12
HETATM   12  C2  UNL     1      48.296 -50.507  17.947  1.00  0.00     0.028 C 
HETATM   13  C1  UNL     1      48.176 -49.063  18.290  1.00  0.00     0.007 C 
ENDBRANCH   1  12
TORSDOF 1
ENDMDL
MODEL 3
REMARK VINA RESULT: -5.023078254      1.207      2.113
REMARK  1 active torsions:
REMARK  status: ('A' for Active; 'I' for Inactive)
REMARK    1  A    between atoms: C2_2  and  C3_3 
ROOT
HETATM    1  C3  UNL     1      50.402 -50.336  17.806  1.00  0.00     0.187 C 
HETATM    2  C4  UNL     1      50.011 -51.776  17.700  1.00  0.00     0.060 C 
HETATM    3  C5  UNL     1      51.120 -52.745  17.878  1.00  0.00     0.234 C 
HETATM    4  N1  UNL     1      52.428 -52.238  17.653  1.00  0.00    -0.073 N 
ATOM      5  H11 UNL     1      53.125 -52.967  17.806  1.00  0.00     0.277 HD
ATOM      6  H12 UNL     1      52.691 -51.588  18.393  1.00  0.00     0.277 HD
HETATM    7  C6  UNL     1      52.611 -51.635  16.372  1.00  0.00     0.259 C 
HETATM    8  C7  UNL     1      52.419 -50.126  16.566  1.00  0.00     0.260 C 
HETATM    9  N2  UNL     1      51.009 -49.825  16.594  1.00  0.00    -0.069 N 
ATOM     10  H21 UNL     1      50.832 -48.827  16.474  1.00  0.00     0.277 HD
ATOM     11  H22 UNL     1      50.532 -50.166  15.759  1.00  0.00     0.277 HD
ENDROOT
BRANCH   1  12
HETATM   12  C2  UNL     1      49.110 -49.558  18.077  1.00  0.00     0.028 C 
HETATM   13  C1  UNL     1      47.929 -50.451  18.231  1.00  0.00     0.007 C 
ENDBRANCH   1  12
TORSDOF 1
ENDMDL
MODEL 4
REMARK VINA RESULT: -4.721929269      1.421      1.840
REMARK  1 active torsions:
REMARK  status: ('A' for Active; 'I' for Inactive)
REMARK    1  A    between atoms: C2_2  and  C3_3 
ROOT
HETATM    1  C3  UNL     1      50.504 -50.397  17.706  1.00  0.00     0.187 C 
HETATM    2  C4  UNL     1      50.264 -50.904  16.318  1.00  0.00     0.060 C 
HETATM    3  C5  UNL     1      51.145 -52.019  15.893  1.00  0.00     0.234 C 
HETATM    4  N1  UNL     1      52.367 -52.150  16.608  1.00  0.00    -0.073 N 
ATOM      5  H11 UNL     1      52.902 -52.943  16.257  1.00  0.00     0.277 HD
ATOM      6  H12 UNL     1      52.190 -52.468  17.561  1.00  0.00     0.277 HD
HETATM    7  C6  UNL     1      53.171 -50.970  16.617  1.00  0.00     0.259 C 
HETATM    8  C7  UNL     1      52.865 -50.241  17.931  1.00  0.00     0.260 C 
HETATM    9  N2  UNL     1      51.637 -49.499  17.790  1.00  0.00    -0.069 N 
ATOM     10  H21 UNL     1      51.521 -48.813  18.536  1.00  0.00     0.277 HD
ATOM     11  H22 UNL     1      51.672 -48.858  16.997  1.00  0.00     0.277 HD
ENDROOT
BRANCH   1  12
HETATM   12  C2  UNL     1      49.238 -49.634  18.110  1.00  0.00     0.028 C 
HETATM   13  C1  UNL     1      48.024 -50.496  18.093  1.00  0.00     0.007 C 
ENDBRANCH   1  12
TORSDOF 1
ENDMDL
MODEL 5
REMARK VINA RESULT: -4.529699913      1.379      3.407
REMARK  1 active torsions:
REMARK  status: ('A' for Active; 'I' for Inactive)
REMARK    1  A    between atoms: C2_2  and  C3_3 
ROOT
HETATM    1  C3  UNL     1      51.594 -50.707  17.680  1.00  0.00     0.187 C 
HETATM    2  C4  UNL     1      50.977 -49.429  17.203  1.00  0.00     0.060 C 
HETATM    3  C5  UNL     1      49.708 -49.054  17.872  1.00  0.00     0.234 C 
HETATM    4  N1  UNL     1      49.000 -50.116  18.499  1.00  0.00    -0.073 N 
ATOM      5  H11 UNL     1      48.149 -49.767  18.938  1.00  0.00     0.277 HD
ATOM      6  H12 UNL     1      49.502 -50.441  19.324  1.00  0.00     0.277 HD
HETATM    7  C6  UNL     1      48.701 -51.212  17.633  1.00  0.00     0.259 C 
HETATM    8  C7  UNL     1      49.801 -52.257  17.854  1.00  0.00     0.260 C 
HETATM    9  N2  UNL     1      50.974 -51.882  17.103  1.00  0.00    -0.069 N 
ATOM     10  H21 UNL     1      51.633 -52.655  17.019  1.00  0.00     0.277 HD
ATOM     11  H22 UNL     1      50.763 -51.752  16.114  1.00  0.00     0.277 HD
ENDROOT
BRANCH   1  12
HETATM   12  C2  UNL     1      53.063 -50.662  17.247  1.00  0.00     0.028 C 
HETATM   13  C1  UNL     1      53.259 -51.122  15.845  1.00  0.00     0.007 C 
ENDBRANCH   1  12
TORSDOF 1
ENDMDL
