MODEL 1
REMARK VINA RESULT: -5.243097306      0.000      0.000
REMARK  2 active torsions:
REMARK  status: ('A' for Active; 'I' for Inactive)
REMARK    1  A    between atoms: C2_2  and  C4_4 
REMARK    2  A    between atoms: C6_6  and  N1_7 
ROOT
HETATM    1  C4  UNL     1      49.778 -51.655  16.997  1.00  0.00     0.086 C 
HETATM    2  C5  UNL     1      50.987 -51.383  16.162  1.00  0.00     0.058 C 
HETATM    3  C6  UNL     1      52.289 -51.666  16.899  1.00  0.00     0.190 C 
HETATM    4  C7  UNL     1      52.163 -53.137  17.304  1.00  0.00     0.077 C 
HETATM    5  C8  UNL     1      51.106 -53.185  18.349  1.00  0.00     0.058 C 
HETATM    6  N2  UNL     1      49.923 -52.485  18.104  1.00  0.00    -0.397 N 
ATOM      7  H2  UNL     1      49.144 -52.586  18.754  1.00  0.00     0.159 HD
ENDROOT
BRANCH   3   8
HETATM    8  N1  UNL     1      53.396 -51.431  16.030  1.00  0.00    -0.075 N 
ATOM      9  H13 UNL     1      53.276 -51.884  15.125  1.00  0.00     0.274 HD
ATOM     10  H12 UNL     1      53.432 -50.464  15.708  1.00  0.00     0.274 HD
ATOM     11  H11 UNL     1      54.261 -51.715  16.490  1.00  0.00     0.274 HD
ENDBRANCH   3   8
BRANCH   1  12
HETATM   12  C2  UNL     1      49.184 -50.278  17.329  1.00  0.00     0.000 C 
HETATM   13  C1  UNL     1      48.123 -50.445  18.389  1.00  0.00     0.011 C 
HETATM   14  C3  UNL     1      50.230 -49.309  17.771  1.00  0.00     0.011 C 
ENDBRANCH   1  12
TORSDOF 2
ENDMDL
MODEL 2
REMARK VINA RESULT: -5.122254820      1.335      2.353
REMARK  2 active torsions:
REMARK  status: ('A' for Active; 'I' for Inactive)
REMARK    1  A    between atoms: C2_2  and  C4_4 
REMARK    2  A    between atoms: C6_6  and  N1_7 
ROOT
HETATM    1  C4  UNL     1      50.440 -50.551  17.939  1.00  0.00     0.086 C 
HETATM    2  C5  UNL     1      50.264 -51.837  18.681  1.00  0.00     0.058 C 
HETATM    3  C6  UNL     1      50.668 -53.053  17.857  1.00  0.00     0.190 C 
HETATM    4  C7  UNL     1      52.127 -52.772  17.489  1.00  0.00     0.077 C 
HETATM    5  C8  UNL     1      52.096 -51.641  16.524  1.00  0.00     0.058 C 
HETATM    6  N2  UNL     1      51.293 -50.544  16.841  1.00  0.00    -0.397 N 
ATOM      7  H2  UNL     1      51.333 -49.713  16.250  1.00  0.00     0.159 HD
ENDROOT
BRANCH   3   8
HETATM    8  N1  UNL     1      50.520 -54.236  18.640  1.00  0.00    -0.075 N 
ATOM      9  H13 UNL     1      50.708 -54.069  19.628  1.00  0.00     0.274 HD
ATOM     10  H12 UNL     1      49.545 -54.522  18.723  1.00  0.00     0.274 HD
ATOM     11  H11 UNL     1      51.107 -54.978  18.258  1.00  0.00     0.274 HD
ENDBRANCH   3   8
BRANCH   1  12
HETATM   12  C2  UNL     1      49.021 -50.055  17.626  1.00  0.00     0.000 C 
HETATM   13  C1  UNL     1      48.024 -51.034  18.195  1.00  0.00     0.011 C 
HETATM   14  C3  UNL     1      48.779 -48.681  18.156  1.00  0.00     0.011 C 
ENDBRANCH   1  12
TORSDOF 2
ENDMDL
MODEL 3
REMARK VINA RESULT: -5.120713497      0.793      1.349
REMARK  2 active torsions:
REMARK  status: ('A' for Active; 'I' for Inactive)
REMARK    1  A    between atoms: C2_2  and  C4_4 
REMARK    2  A    between atoms: C6_6  and  N1_7 
ROOT
HETATM    1  C4  UNL     1      49.895 -51.441  17.447  1.00  0.00     0.086 C 
HETATM    2  C5  UNL     1      51.155 -50.760  17.017  1.00  0.00     0.058 C 
HETATM    3  C6  UNL     1      52.394 -51.331  17.696  1.00  0.00     0.190 C 
HETATM    4  C7  UNL     1      52.360 -52.815  17.322  1.00  0.00     0.077 C 
HETATM    5  C8  UNL     1      51.209 -53.397  18.061  1.00  0.00     0.058 C 
HETATM    6  N2  UNL     1      50.000 -52.702  18.025  1.00  0.00    -0.397 N 
ATOM      7  H2  UNL     1      49.169 -53.130  18.435  1.00  0.00     0.159 HD
ENDROOT
BRANCH   3   8
HETATM    8  N1  UNL     1      53.559 -50.669  17.205  1.00  0.00    -0.075 N 
ATOM      9  H13 UNL     1      54.103 -50.243  17.956  1.00  0.00     0.274 HD
ATOM     10  H12 UNL     1      54.262 -51.327  16.870  1.00  0.00     0.274 HD
ATOM     11  H11 UNL     1      53.294 -49.992  16.490  1.00  0.00     0.274 HD
ENDBRANCH   3   8
BRANCH   1  12
HETATM   12  C2  UNL     1      49.148 -50.420  18.317  1.00  0.00     0.000 C 
HETATM   13  C1  UNL     1      49.565 -49.029  17.907  1.00  0.00     0.011 C 
HETATM   14  C3  UNL     1      47.667 -50.581  18.221  1.00  0.00     0.011 C 
ENDBRANCH   1  12
TORSDOF 2
ENDMDL
MODEL 4
REMARK VINA RESULT: -5.112132701      1.671      2.378
REMARK  2 active torsions:
REMARK  status: ('A' for Active; 'I' for Inactive)
REMARK    1  A    between atoms: C2_2  and  C4_4 
REMARK    2  A    between atoms: C6_6  and  N1_7 
ROOT
HETATM    1  C4  UNL     1      50.740 -50.044  17.807  1.00  0.00     0.086 C 
HETATM    2  C5  UNL     1      51.246 -51.408  18.149  1.00  0.00     0.058 C 
HETATM    3  C6  UNL     1      52.006 -52.060  17.001  1.00  0.00     0.190 C 
HETATM    4  C7  UNL     1      53.130 -51.065  16.699  1.00  0.00     0.077 C 
HETATM    5  C8  UNL     1      52.472 -49.872  16.103  1.00  0.00     0.058 C 
HETATM    6  N2  UNL     1      51.333 -49.377  16.740  1.00  0.00    -0.397 N 
ATOM      7  H2  UNL     1      50.924 -48.501  16.413  1.00  0.00     0.159 HD
ENDROOT
BRANCH   3   8
HETATM    8  N1  UNL     1      52.499 -53.334  17.411  1.00  0.00    -0.075 N 
ATOM      9  H13 UNL     1      51.822 -54.079  17.248  1.00  0.00     0.274 HD
ATOM     10  H12 UNL     1      53.241 -53.674  16.800  1.00  0.00     0.274 HD
ATOM     11  H11 UNL     1      52.795 -53.291  18.387  1.00  0.00     0.274 HD
ENDBRANCH   3   8
BRANCH   1  12
HETATM   12  C2  UNL     1      49.216 -50.187  17.680  1.00  0.00     0.000 C 
HETATM   13  C1  UNL     1      48.776 -51.418  18.431  1.00  0.00     0.011 C 
HETATM   14  C3  UNL     1      48.498 -48.976  18.175  1.00  0.00     0.011 C 
ENDBRANCH   1  12
TORSDOF 2
ENDMDL
MODEL 5
REMARK VINA RESULT: -5.032691887      1.793      3.545
REMARK  2 active torsions:
REMARK  status: ('A' for Active; 'I' for Inactive)
REMARK    1  A    between atoms: C2_2  and  C4_4 
REMARK    2  A    between atoms: C6_6  and  N1_7 
ROOT
HETATM    1  C4  UNL     1      50.920 -50.151  16.534  1.00  0.00     0.086 C 
HETATM    2  C5  UNL     1      50.618 -51.608  16.672  1.00  0.00     0.058 C 
HETATM    3  C6  UNL     1      49.939 -51.948  17.993  1.00  0.00     0.190 C 
HETATM    4  C7  UNL     1      48.681 -51.076  17.988  1.00  0.00     0.077 C 
HETATM    5  C8  UNL     1      49.153 -49.674  18.141  1.00  0.00     0.058 C 
HETATM    6  N2  UNL     1      50.221 -49.261  17.343  1.00  0.00    -0.397 N 
ATOM      7  H2  UNL     1      50.496 -48.279  17.353  1.00  0.00     0.159 HD
ENDROOT
BRANCH   3   8
HETATM    8  N1  UNL     1      49.639 -53.342  18.036  1.00  0.00    -0.075 N 
ATOM      9  H13 UNL     1      48.685 -53.538  17.734  1.00  0.00     0.274 HD
ATOM     10  H12 UNL     1      50.133 -53.863  17.313  1.00  0.00     0.274 HD
ATOM     11  H11 UNL     1      49.830 -53.706  18.970  1.00  0.00     0.274 HD
ENDBRANCH   3   8
BRANCH   1  12
HETATM   12  C2  UNL     1      52.446 -50.030  16.654  1.00  0.00     0.000 C 
HETATM   13  C1  UNL     1      52.827 -50.066  18.113  1.00  0.00     0.011 C 
HETATM   14  C3  UNL     1      53.153 -51.102  15.893  1.00  0.00     0.011 C 
ENDBRANCH   1  12
TORSDOF 2
ENDMDL
