MODEL 1
REMARK VINA RESULT: -5.253560157      0.000      0.000
REMARK  1 active torsions:
REMARK  status: ('A' for Active; 'I' for Inactive)
REMARK    1  A    between atoms: C2_2  and  C3_3 
ROOT
HETATM    1  C3  UNL     1      50.395 -50.678  17.562  1.00  0.00     0.241 C 
HETATM    2  C4  UNL     1      50.393 -49.181  17.765  1.00  0.00     0.083 C 
HETATM    3  N1  UNL     1      50.995 -51.045  16.289  1.00  0.00    -0.034 N 
ATOM      4  H11 UNL     1      50.495 -50.718  15.462  1.00  0.00     0.281 HD
ATOM      5  H12 UNL     1      50.935 -52.034  16.049  1.00  0.00     0.281 HD
HETATM    6  C5  UNL     1      52.326 -50.533  16.441  1.00  0.00     0.209 C 
HETATM    7  C6  UNL     1      53.360 -51.301  15.684  1.00  0.00     0.042 C 
HETATM    8  C7  UNL     1      52.566 -50.770  17.934  1.00  0.00     0.204 C 
HETATM    9  O1  UNL     1      51.348 -51.202  18.448  1.00  0.00    -0.349 OA
ENDROOT
BRANCH   1  10
HETATM   10  C2  UNL     1      49.062 -51.257  17.761  1.00  0.00     0.030 C 
HETATM   11  C1  UNL     1      48.046 -50.502  18.141  1.00  0.00     0.012 C 
ENDBRANCH   1  10
TORSDOF 1
ENDMDL
MODEL 2
REMARK VINA RESULT: -5.162247526      1.512      1.996
REMARK  1 active torsions:
REMARK  status: ('A' for Active; 'I' for Inactive)
REMARK    1  A    between atoms: C2_2  and  C3_3 
ROOT
HETATM    1  C3  UNL     1      49.903 -51.418  17.518  1.00  0.00     0.241 C 
HETATM    2  C4  UNL     1      49.963 -52.849  18.001  1.00  0.00     0.083 C 
HETATM    3  N1  UNL     1      51.021 -50.636  18.020  1.00  0.00    -0.034 N 
ATOM      4  H11 UNL     1      51.049 -50.519  19.033  1.00  0.00     0.281 HD
ATOM      5  H12 UNL     1      50.982 -49.639  17.812  1.00  0.00     0.281 HD
HETATM    6  C5  UNL     1      52.137 -51.336  17.455  1.00  0.00     0.209 C 
HETATM    7  C6  UNL     1      53.320 -50.466  17.180  1.00  0.00     0.042 C 
HETATM    8  C7  UNL     1      51.559 -51.779  16.109  1.00  0.00     0.204 C 
HETATM    9  O1  UNL     1      50.210 -51.444  16.149  1.00  0.00    -0.349 OA
ENDROOT
BRANCH   1  10
HETATM   10  C2  UNL     1      48.598 -50.805  17.791  1.00  0.00     0.030 C 
HETATM   11  C1  UNL     1      48.510 -49.542  18.169  1.00  0.00     0.012 C 
ENDBRANCH   1  10
TORSDOF 1
ENDMDL
MODEL 3
REMARK VINA RESULT: -4.942839590      1.140      3.622
REMARK  1 active torsions:
REMARK  status: ('A' for Active; 'I' for Inactive)
REMARK    1  A    between atoms: C2_2  and  C3_3 
ROOT
HETATM    1  C3  UNL     1      51.377 -50.875  16.989  1.00  0.00     0.241 C 
HETATM    2  C4  UNL     1      52.208 -50.775  18.247  1.00  0.00     0.083 C 
HETATM    3  N1  UNL     1      50.090 -51.502  17.246  1.00  0.00    -0.034 N 
ATOM      4  H11 UNL     1      50.134 -52.475  17.552  1.00  0.00     0.281 HD
ATOM      5  H12 UNL     1      49.525 -51.690  16.419  1.00  0.00     0.281 HD
HETATM    6  C5  UNL     1      49.510 -50.592  18.189  1.00  0.00     0.209 C 
HETATM    7  C6  UNL     1      48.019 -50.529  18.132  1.00  0.00     0.042 C 
HETATM    8  C7  UNL     1      50.054 -49.254  17.682  1.00  0.00     0.204 C 
HETATM    9  O1  UNL     1      50.962 -49.572  16.678  1.00  0.00    -0.349 OA
ENDROOT
BRANCH   1  10
HETATM   10  C2  UNL     1      52.120 -51.507  15.893  1.00  0.00     0.030 C 
HETATM   11  C1  UNL     1      53.378 -51.181  15.652  1.00  0.00     0.012 C 
ENDBRANCH   1  10
TORSDOF 1
ENDMDL
MODEL 4
REMARK VINA RESULT: -4.606965981      1.197      3.652
REMARK  1 active torsions:
REMARK  status: ('A' for Active; 'I' for Inactive)
REMARK    1  A    between atoms: C2_2  and  C3_3 
ROOT
HETATM    1  C3  UNL     1      51.194 -50.731  17.135  1.00  0.00     0.241 C 
HETATM    2  C4  UNL     1      50.659 -51.630  16.044  1.00  0.00     0.083 C 
HETATM    3  N1  UNL     1      50.419 -49.506  17.247  1.00  0.00    -0.034 N 
ATOM      4  H11 UNL     1      50.452 -48.895  16.432  1.00  0.00     0.281 HD
ATOM      5  H12 UNL     1      50.792 -48.814  17.897  1.00  0.00     0.281 HD
HETATM    6  C5  UNL     1      49.121 -50.017  17.576  1.00  0.00     0.209 C 
HETATM    7  C6  UNL     1      48.301 -49.090  18.413  1.00  0.00     0.042 C 
HETATM    8  C7  UNL     1      49.488 -51.226  18.439  1.00  0.00     0.204 C 
HETATM    9  O1  UNL     1      50.871 -51.345  18.354  1.00  0.00    -0.349 OA
ENDROOT
BRANCH   1  10
HETATM   10  C2  UNL     1      52.635 -50.494  16.988  1.00  0.00     0.030 C 
HETATM   11  C1  UNL     1      53.330 -51.114  16.050  1.00  0.00     0.012 C 
ENDBRANCH   1  10
TORSDOF 1
ENDMDL
MODEL 5
REMARK VINA RESULT: -4.409652444      1.694      2.397
REMARK  1 active torsions:
REMARK  status: ('A' for Active; 'I' for Inactive)
REMARK    1  A    between atoms: C2_2  and  C3_3 
ROOT
HETATM    1  C3  UNL     1      50.402 -50.475  17.541  1.00  0.00     0.241 C 
HETATM    2  C4  UNL     1      50.715 -50.528  16.064  1.00  0.00     0.083 C 
HETATM    3  N1  UNL     1      49.653 -51.644  17.972  1.00  0.00    -0.034 N 
ATOM      4  H11 UNL     1      48.724 -51.741  17.560  1.00  0.00     0.281 HD
ATOM      5  H12 UNL     1      49.324 -51.618  18.936  1.00  0.00     0.281 HD
HETATM    6  C5  UNL     1      50.570 -52.702  17.667  1.00  0.00     0.209 C 
HETATM    7  C6  UNL     1      50.449 -53.887  18.568  1.00  0.00     0.042 C 
HETATM    8  C7  UNL     1      51.911 -52.025  17.961  1.00  0.00     0.204 C 
HETATM    9  O1  UNL     1      51.613 -50.691  18.215  1.00  0.00    -0.349 OA
ENDROOT
BRANCH   1  10
HETATM   10  C2  UNL     1      49.765 -49.207  17.918  1.00  0.00     0.030 C 
HETATM   11  C1  UNL     1      48.476 -49.156  18.200  1.00  0.00     0.012 C 
ENDBRANCH   1  10
TORSDOF 1
ENDMDL
