MODEL 1
REMARK VINA RESULT: -5.715304229      0.000      0.000
REMARK  2 active torsions:
REMARK  status: ('A' for Active; 'I' for Inactive)
REMARK    1  A    between atoms: C2_2  and  C3_3 
REMARK    2  A    between atoms: C5_5  and  N1_6 
ROOT
HETATM    1  C3  UNL     1      50.120 -50.838  17.505  1.00  0.00     0.130 C 
HETATM    2  C4  UNL     1      50.804 -51.525  16.399  1.00  0.00     0.077 C 
HETATM    3  C5  UNL     1      51.891 -51.921  17.410  1.00  0.00     0.130 C 
HETATM    4  C6  UNL     1      52.832 -50.793  17.676  1.00  0.00     0.066 C 
HETATM    5  C7  UNL     1      52.116 -49.497  17.409  1.00  0.00     0.235 C 
HETATM    6  N2  UNL     1      50.713 -49.546  17.722  1.00  0.00    -0.066 N 
ATOM      7  H21 UNL     1      50.546 -49.229  18.676  1.00  0.00     0.278 HD
ATOM      8  H22 UNL     1      50.204 -48.825  17.211  1.00  0.00     0.278 HD
HETATM    9  C8  UNL     1      50.784 -51.843  18.460  1.00  0.00     0.077 C 
ENDROOT
BRANCH   3  10
HETATM   10  N1  UNL     1      52.476 -53.197  17.214  1.00  0.00    -0.070 N 
ATOM     11  H13 UNL     1      52.266 -53.802  18.007  1.00  0.00     0.275 HD
ATOM     12  H12 UNL     1      51.985 -53.694  16.471  1.00  0.00     0.275 HD
ATOM     13  H11 UNL     1      53.480 -53.198  17.029  1.00  0.00     0.275 HD
ENDBRANCH   3  10
BRANCH   1  14
HETATM   14  C2  UNL     1      48.656 -50.867  17.640  1.00  0.00     0.034 C 
HETATM   15  C1  UNL     1      47.989 -49.690  18.221  1.00  0.00     0.007 C 
ENDBRANCH   1  14
TORSDOF 2
ENDMDL
MODEL 2
REMARK VINA RESULT: -5.422263277      1.361      1.567
REMARK  2 active torsions:
REMARK  status: ('A' for Active; 'I' for Inactive)
REMARK    1  A    between atoms: C2_2  and  C3_3 
REMARK    2  A    between atoms: C5_5  and  N1_6 
ROOT
HETATM    1  C3  UNL     1      50.593 -50.661  17.530  1.00  0.00     0.130 C 
HETATM    2  C4  UNL     1      50.068 -51.880  16.897  1.00  0.00     0.077 C 
HETATM    3  C5  UNL     1      50.908 -52.680  17.903  1.00  0.00     0.130 C 
HETATM    4  C6  UNL     1      52.344 -52.739  17.499  1.00  0.00     0.066 C 
HETATM    5  C7  UNL     1      52.652 -51.538  16.645  1.00  0.00     0.235 C 
HETATM    6  N2  UNL     1      51.905 -50.368  17.020  1.00  0.00    -0.066 N 
ATOM      7  H21 UNL     1      52.431 -49.801  17.684  1.00  0.00     0.278 HD
ATOM      8  H22 UNL     1      51.849 -49.711  16.241  1.00  0.00     0.278 HD
HETATM    9  C8  UNL     1      50.748 -51.474  18.827  1.00  0.00     0.077 C 
ENDROOT
BRANCH   3  10
HETATM   10  N1  UNL     1      50.331 -53.893  18.356  1.00  0.00    -0.070 N 
ATOM     11  H13 UNL     1      49.801 -53.728  19.211  1.00  0.00     0.275 HD
ATOM     12  H12 UNL     1      49.580 -54.177  17.728  1.00  0.00     0.275 HD
ATOM     13  H11 UNL     1      50.982 -54.667  18.493  1.00  0.00     0.275 HD
ENDBRANCH   3  10
BRANCH   1  14
HETATM   14  C2  UNL     1      49.745 -49.479  17.746  1.00  0.00     0.034 C 
HETATM   15  C1  UNL     1      48.352 -49.692  18.171  1.00  0.00     0.007 C 
ENDBRANCH   1  14
TORSDOF 2
ENDMDL
MODEL 3
REMARK VINA RESULT: -5.349700713      1.346      2.146
REMARK  2 active torsions:
REMARK  status: ('A' for Active; 'I' for Inactive)
REMARK    1  A    between atoms: C2_2  and  C3_3 
REMARK    2  A    between atoms: C5_5  and  N1_6 
ROOT
HETATM    1  C3  UNL     1      50.614 -50.472  17.723  1.00  0.00     0.130 C 
HETATM    2  C4  UNL     1      52.066 -50.502  17.957  1.00  0.00     0.077 C 
HETATM    3  C5  UNL     1      52.159 -51.511  16.803  1.00  0.00     0.130 C 
HETATM    4  C6  UNL     1      51.767 -52.884  17.238  1.00  0.00     0.066 C 
HETATM    5  C7  UNL     1      50.832 -52.766  18.412  1.00  0.00     0.235 C 
HETATM    6  N2  UNL     1      49.991 -51.602  18.355  1.00  0.00    -0.066 N 
ATOM      7  H21 UNL     1      49.103 -51.821  17.905  1.00  0.00     0.278 HD
ATOM      8  H22 UNL     1      49.654 -51.354  19.286  1.00  0.00     0.278 HD
HETATM    9  C8  UNL     1      50.904 -50.834  16.257  1.00  0.00     0.077 C 
ENDROOT
BRANCH   3  10
HETATM   10  N1  UNL     1      53.321 -51.415  15.997  1.00  0.00    -0.070 N 
ATOM     11  H13 UNL     1      53.409 -50.469  15.624  1.00  0.00     0.275 HD
ATOM     12  H12 UNL     1      54.156 -51.457  16.581  1.00  0.00     0.275 HD
ATOM     13  H11 UNL     1      53.391 -52.096  15.240  1.00  0.00     0.275 HD
ENDBRANCH   3  10
BRANCH   1  14
HETATM   14  C2  UNL     1      49.846 -49.220  17.817  1.00  0.00     0.034 C 
HETATM   15  C1  UNL     1      48.422 -49.305  18.180  1.00  0.00     0.007 C 
ENDBRANCH   1  14
TORSDOF 2
ENDMDL
MODEL 4
REMARK VINA RESULT: -5.235032758      1.373      3.179
REMARK  2 active torsions:
REMARK  status: ('A' for Active; 'I' for Inactive)
REMARK    1  A    between atoms: C2_2  and  C3_3 
REMARK    2  A    between atoms: C5_5  and  N1_6 
ROOT
HETATM    1  C3  UNL     1      51.230 -50.347  17.036  1.00  0.00     0.130 C 
HETATM    2  C4  UNL     1      51.245 -51.188  18.242  1.00  0.00     0.077 C 
HETATM    3  C5  UNL     1      49.941 -51.820  17.733  1.00  0.00     0.130 C 
HETATM    4  C6  UNL     1      48.762 -50.946  18.004  1.00  0.00     0.066 C 
HETATM    5  C7  UNL     1      49.233 -49.519  18.092  1.00  0.00     0.235 C 
HETATM    6  N2  UNL     1      50.344 -49.232  17.225  1.00  0.00    -0.066 N 
ATOM      7  H21 UNL     1      50.017 -48.875  16.328  1.00  0.00     0.278 HD
ATOM      8  H22 UNL     1      50.858 -48.415  17.557  1.00  0.00     0.278 HD
HETATM    9  C8  UNL     1      50.450 -51.472  16.335  1.00  0.00     0.077 C 
ENDROOT
BRANCH   3  10
HETATM   10  N1  UNL     1      49.779 -53.201  18.012  1.00  0.00    -0.070 N 
ATOM     11  H13 UNL     1      50.599 -53.718  17.698  1.00  0.00     0.275 HD
ATOM     12  H12 UNL     1      49.836 -53.362  19.017  1.00  0.00     0.275 HD
ATOM     13  H11 UNL     1      48.932 -53.630  17.638  1.00  0.00     0.275 HD
ENDBRANCH   3  10
BRANCH   1  14
HETATM   14  C2  UNL     1      52.466 -50.027  16.306  1.00  0.00     0.034 C 
HETATM   15  C1  UNL     1      53.334 -51.140  15.888  1.00  0.00     0.007 C 
ENDBRANCH   1  14
TORSDOF 2
ENDMDL
MODEL 5
REMARK VINA RESULT: -4.895263768      1.548      2.220
REMARK  2 active torsions:
REMARK  status: ('A' for Active; 'I' for Inactive)
REMARK    1  A    between atoms: C2_2  and  C3_3 
REMARK    2  A    between atoms: C5_5  and  N1_6 
ROOT
HETATM    1  C3  UNL     1      50.496 -51.657  17.491  1.00  0.00     0.130 C 
HETATM    2  C4  UNL     1      50.807 -51.583  16.056  1.00  0.00     0.077 C 
HETATM    3  C5  UNL     1      52.145 -50.940  16.452  1.00  0.00     0.130 C 
HETATM    4  C6  UNL     1      51.983 -49.495  16.789  1.00  0.00     0.066 C 
HETATM    5  C7  UNL     1      50.569 -49.265  17.250  1.00  0.00     0.235 C 
HETATM    6  N2  UNL     1      50.011 -50.386  17.956  1.00  0.00    -0.066 N 
ATOM      7  H21 UNL     1      50.159 -50.290  18.960  1.00  0.00     0.278 HD
ATOM      8  H22 UNL     1      48.991 -50.358  17.930  1.00  0.00     0.278 HD
HETATM    9  C8  UNL     1      52.009 -51.726  17.755  1.00  0.00     0.077 C 
ENDROOT
BRANCH   3  10
HETATM   10  N1  UNL     1      53.252 -51.276  15.633  1.00  0.00    -0.070 N 
ATOM     11  H13 UNL     1      52.931 -51.528  14.699  1.00  0.00     0.275 HD
ATOM     12  H12 UNL     1      53.794 -50.438  15.419  1.00  0.00     0.275 HD
ATOM     13  H11 UNL     1      53.867 -52.003  15.999  1.00  0.00     0.275 HD
ENDBRANCH   3  10
BRANCH   1  14
HETATM   14  C2  UNL     1      49.805 -52.821  18.069  1.00  0.00     0.034 C 
HETATM   15  C1  UNL     1      50.617 -53.979  18.476  1.00  0.00     0.007 C 
ENDBRANCH   1  14
TORSDOF 2
ENDMDL
