MODEL 1
REMARK VINA RESULT: -5.387269131      0.000      0.000
REMARK  3 active torsions:
REMARK  status: ('A' for Active; 'I' for Inactive)
REMARK    1  A    between atoms: N1_2  and  N2_3 
REMARK       I    between atoms: N2_3  and  C2_5 
REMARK    2  A    between atoms: C2_5  and  C3_7 
REMARK    3  A    between atoms: N4_13  and  O3_14 
ROOT
HETATM    1  C3  UNL     1       7.766   1.471  20.973  1.00  0.00     0.194 A 
HETATM    2  C4  UNL     1       8.336   2.629  20.483  1.00  0.00     0.140 A 
HETATM    3 BR1  UNL     1       9.672   3.699  21.324  1.00  0.00    -0.026 Br
HETATM    4  N3  UNL     1       7.767   2.888  19.289  1.00  0.00    -0.230 N 
ATOM      5  H3  UNL     1       7.975   3.677  18.676  1.00  0.00     0.197 HD
HETATM    6  O2  UNL     1       6.894   1.932  19.062  1.00  0.00    -0.127 OA
HETATM    7  N4  UNL     1       6.866   1.081  20.036  1.00  0.00    -0.094 N 
ENDROOT
BRANCH   1   8
HETATM    8  C2  UNL     1       8.059   0.792  22.215  1.00  0.00     0.291 C 
HETATM    9  N2  UNL     1       7.069   0.571  23.207  1.00  0.00    -0.269 N 
ATOM     10  H2  UNL     1       6.124   0.913  23.034  1.00  0.00     0.185 HD
HETATM   11  O1  UNL     1       9.231   0.357  22.476  1.00  0.00    -0.264 OA
BRANCH   9  12
HETATM   12  N1  UNL     1       7.324  -0.088  24.407  1.00  0.00    -0.143 NA
HETATM   13  C1  UNL     1       6.773   0.616  25.552  1.00  0.00     0.159 C 
ENDBRANCH   9  12
ENDBRANCH   1   8
BRANCH   7  14
HETATM   14  O3  UNL     1       6.031  -0.005  20.066  1.00  0.00    -0.261 OA
ATOM     15  H3  UNL     1       5.628  -0.455  19.333  1.00  0.00     0.247 HD
ENDBRANCH   7  14
TORSDOF 3
ENDMDL
MODEL 2
REMARK VINA RESULT: -5.382013743      2.366      3.041
REMARK  3 active torsions:
REMARK  status: ('A' for Active; 'I' for Inactive)
REMARK    1  A    between atoms: N1_2  and  N2_3 
REMARK       I    between atoms: N2_3  and  C2_5 
REMARK    2  A    between atoms: C2_5  and  C3_7 
REMARK    3  A    between atoms: N4_13  and  O3_14 
ROOT
HETATM    1  C3  UNL     1       8.773   2.474  22.221  1.00  0.00     0.194 A 
HETATM    2  C4  UNL     1       8.306   3.130  21.099  1.00  0.00     0.140 A 
HETATM    3 BR1  UNL     1       6.910   2.560  19.931  1.00  0.00    -0.026 Br
HETATM    4  N3  UNL     1       9.026   4.261  20.960  1.00  0.00    -0.230 N 
ATOM      5  H3  UNL     1       8.922   4.961  20.225  1.00  0.00     0.197 HD
HETATM    6  O2  UNL     1       9.889   4.293  21.950  1.00  0.00    -0.127 OA
HETATM    7  N4  UNL     1       9.769   3.253  22.711  1.00  0.00    -0.094 N 
ENDROOT
BRANCH   1   8
HETATM    8  C2  UNL     1       8.307   1.225  22.779  1.00  0.00     0.291 C 
HETATM    9  N2  UNL     1       7.480   1.174  23.931  1.00  0.00    -0.269 N 
ATOM     10  H2  UNL     1       7.217   2.052  24.379  1.00  0.00     0.185 HD
HETATM   11  O1  UNL     1       8.620   0.103  22.254  1.00  0.00    -0.264 OA
BRANCH   9  12
HETATM   12  N1  UNL     1       7.009  -0.016  24.480  1.00  0.00    -0.143 NA
HETATM   13  C1  UNL     1       6.994   0.015  25.933  1.00  0.00     0.159 C 
ENDBRANCH   9  12
ENDBRANCH   1   8
BRANCH   7  14
HETATM   14  O3  UNL     1      10.560   3.024  23.807  1.00  0.00    -0.261 OA
ATOM     15  H3  UNL     1      10.837   3.645  24.469  1.00  0.00     0.247 HD
ENDBRANCH   7  14
TORSDOF 3
ENDMDL
MODEL 3
REMARK VINA RESULT: -5.276820672      3.781      4.807
REMARK  3 active torsions:
REMARK  status: ('A' for Active; 'I' for Inactive)
REMARK    1  A    between atoms: N1_2  and  N2_3 
REMARK       I    between atoms: N2_3  and  C2_5 
REMARK    2  A    between atoms: C2_5  and  C3_7 
REMARK    3  A    between atoms: N4_13  and  O3_14 
ROOT
HETATM    1  C3  UNL     1       5.857   0.465  18.074  1.00  0.00     0.194 A 
HETATM    2  C4  UNL     1       5.064  -0.656  17.931  1.00  0.00     0.140 A 
HETATM    3 BR1  UNL     1       4.349  -1.746  19.324  1.00  0.00    -0.026 Br
HETATM    4  N3  UNL     1       4.885  -0.861  16.610  1.00  0.00    -0.230 N 
ATOM      5  H3  UNL     1       4.346  -1.613  16.181  1.00  0.00     0.197 HD
HETATM    6  O2  UNL     1       5.537   0.090  15.981  1.00  0.00    -0.127 OA
HETATM    7  N4  UNL     1       6.124   0.888  16.813  1.00  0.00    -0.094 N 
ENDROOT
BRANCH   1   8
HETATM    8  C2  UNL     1       6.312   1.082  19.300  1.00  0.00     0.291 C 
HETATM    9  N2  UNL     1       6.365   2.490  19.463  1.00  0.00    -0.269 N 
ATOM     10  H2  UNL     1       6.079   3.080  18.681  1.00  0.00     0.185 HD
HETATM   11  O1  UNL     1       6.687   0.380  20.299  1.00  0.00    -0.264 OA
BRANCH   9  12
HETATM   12  N1  UNL     1       6.788   3.107  20.637  1.00  0.00    -0.143 NA
HETATM   13  C1  UNL     1       8.173   3.541  20.564  1.00  0.00     0.159 C 
ENDBRANCH   9  12
ENDBRANCH   1   8
BRANCH   7  14
HETATM   14  O3  UNL     1       6.889   1.956  16.424  1.00  0.00    -0.261 OA
ATOM     15  H3  UNL     1       7.789   1.953  16.121  1.00  0.00     0.247 HD
ENDBRANCH   7  14
TORSDOF 3
ENDMDL
MODEL 4
REMARK VINA RESULT: -5.247246252      2.160      2.461
REMARK  3 active torsions:
REMARK  status: ('A' for Active; 'I' for Inactive)
REMARK    1  A    between atoms: N1_2  and  N2_3 
REMARK       I    between atoms: N2_3  and  C2_5 
REMARK    2  A    between atoms: C2_5  and  C3_7 
REMARK    3  A    between atoms: N4_13  and  O3_14 
ROOT
HETATM    1  C3  UNL     1       8.097   1.720  20.751  1.00  0.00     0.194 A 
HETATM    2  C4  UNL     1       7.191   1.530  19.726  1.00  0.00     0.140 A 
HETATM    3 BR1  UNL     1       5.908   0.128  19.569  1.00  0.00    -0.026 Br
HETATM    4  N3  UNL     1       7.378   2.520  18.830  1.00  0.00    -0.230 N 
ATOM      5  H3  UNL     1       6.863   2.656  17.960  1.00  0.00     0.197 HD
HETATM    6  O2  UNL     1       8.350   3.276  19.288  1.00  0.00    -0.127 OA
HETATM    7  N4  UNL     1       8.798   2.832  20.417  1.00  0.00    -0.094 N 
ENDROOT
BRANCH   1   8
HETATM    8  C2  UNL     1       8.271   0.921  21.943  1.00  0.00     0.291 C 
HETATM    9  N2  UNL     1       7.231   0.743  22.892  1.00  0.00    -0.269 N 
ATOM     10  H2  UNL     1       6.338   1.205  22.725  1.00  0.00     0.185 HD
HETATM   11  O1  UNL     1       9.377   0.333  22.194  1.00  0.00    -0.264 OA
BRANCH   9  12
HETATM   12  N1  UNL     1       7.372  -0.030  24.041  1.00  0.00    -0.143 NA
HETATM   13  C1  UNL     1       6.653   0.530  25.174  1.00  0.00     0.159 C 
ENDBRANCH   9  12
ENDBRANCH   1   8
BRANCH   7  14
HETATM   14  O3  UNL     1       9.827   3.420  21.106  1.00  0.00    -0.261 OA
ATOM     15  H3  UNL     1      10.245   4.255  20.933  1.00  0.00     0.247 HD
ENDBRANCH   7  14
TORSDOF 3
ENDMDL
MODEL 5
REMARK VINA RESULT: -5.199566271      2.263      2.689
REMARK  3 active torsions:
REMARK  status: ('A' for Active; 'I' for Inactive)
REMARK    1  A    between atoms: N1_2  and  N2_3 
REMARK       I    between atoms: N2_3  and  C2_5 
REMARK    2  A    between atoms: C2_5  and  C3_7 
REMARK    3  A    between atoms: N4_13  and  O3_14 
ROOT
HETATM    1  C3  UNL     1       8.114   2.332  21.465  1.00  0.00     0.194 A 
HETATM    2  C4  UNL     1       7.560   2.079  20.226  1.00  0.00     0.140 A 
HETATM    3 BR1  UNL     1       6.534   0.555  19.713  1.00  0.00    -0.026 Br
HETATM    4  N3  UNL     1       7.883   3.110  19.419  1.00  0.00    -0.230 N 
ATOM      5  H3  UNL     1       7.621   3.217  18.439  1.00  0.00     0.197 HD
HETATM    6  O2  UNL     1       8.597   3.949  20.134  1.00  0.00    -0.127 OA
HETATM    7  N4  UNL     1       8.755   3.520  21.344  1.00  0.00    -0.094 N 
ENDROOT
BRANCH   1   8
HETATM    8  C2  UNL     1       8.032   1.519  22.658  1.00  0.00     0.291 C 
HETATM    9  N2  UNL     1       7.618   2.050  23.907  1.00  0.00    -0.269 N 
ATOM     10  H2  UNL     1       7.380   3.040  23.959  1.00  0.00     0.185 HD
HETATM   11  O1  UNL     1       8.329   0.277  22.639  1.00  0.00    -0.264 OA
BRANCH   9  12
HETATM   12  N1  UNL     1       7.520   1.285  25.067  1.00  0.00    -0.143 NA
HETATM   13  C1  UNL     1       6.471   1.758  25.953  1.00  0.00     0.159 C 
ENDBRANCH   9  12
ENDBRANCH   1   8
BRANCH   7  14
HETATM   14  O3  UNL     1       9.477   4.192  22.295  1.00  0.00    -0.261 OA
ATOM     15  H3  UNL     1      10.115   3.840  22.904  1.00  0.00     0.247 HD
ENDBRANCH   7  14
TORSDOF 3
ENDMDL
