MODEL 1
REMARK VINA RESULT: -5.885564670      0.000      0.000
REMARK  4 active torsions:
REMARK  status: ('A' for Active; 'I' for Inactive)
REMARK    1  A    between atoms: N1_3  and  N2_5 
REMARK    2  A    between atoms: C3_7  and  C4_8 
REMARK    3  A    between atoms: N4_13  and  O1_14 
REMARK    4  A    between atoms: N5_18  and  O2_19 
ROOT
HETATM    1  C1  UNL     1       8.017   2.833  18.806  1.00  0.00     0.124 C 
HETATM    2  C2  UNL     1       8.379   3.453  19.793  1.00  0.00    -0.059 C 
HETATM    3  N1  UNL     1       8.803   4.181  20.913  1.00  0.00    -0.270 N 
ATOM      4  H1  UNL     1       9.198   5.111  20.771  1.00  0.00     0.196 HD
ENDROOT
BRANCH   3   5
HETATM    5  N2  UNL     1       8.707   3.687  22.209  1.00  0.00    -0.303 N 
HETATM    6  C3  UNL     1       7.637   3.223  22.728  1.00  0.00     0.140 C 
ATOM      7  H2  UNL     1       9.549   3.696  22.785  1.00  0.00     0.186 HD
BRANCH   6   8
HETATM    8  C4  UNL     1       7.460   2.696  24.055  1.00  0.00     0.091 A 
HETATM    9  C5  UNL     1       7.376   1.354  24.289  1.00  0.00     0.012 A 
HETATM   10  C6  UNL     1       7.462   0.373  23.200  1.00  0.00     0.054 C 
HETATM   11  C7  UNL     1       7.203   0.855  25.595  1.00  0.00     0.155 A 
HETATM   12  N3  UNL     1       7.116  -0.543  25.835  1.00  0.00    -0.080 NA
HETATM   13  N4  UNL     1       7.121   1.726  26.608  1.00  0.00    -0.180 N 
HETATM   14  C8  UNL     1       7.202   3.049  26.386  1.00  0.00     0.234 A 
HETATM   15 CL1  UNL     1       7.100   4.211  27.685  1.00  0.00    -0.040 Cl
HETATM   16  N5  UNL     1       7.369   3.518  25.137  1.00  0.00    -0.193 N 
BRANCH  13  17
HETATM   17  O1  UNL     1       6.952   1.273  27.893  1.00  0.00    -0.279 OA
ATOM     18  H1  UNL     1       7.706   1.145  28.456  1.00  0.00     0.245 HD
ENDBRANCH  13  17
BRANCH  16  19
HETATM   19  O2  UNL     1       7.456   4.873  24.875  1.00  0.00    -0.280 OA
ATOM     20  H2  UNL     1       8.180   5.329  25.289  1.00  0.00     0.245 HD
ENDBRANCH  16  19
ENDBRANCH   6   8
ENDBRANCH   3   5
TORSDOF 4
ENDMDL
MODEL 2
REMARK VINA RESULT: -5.589194754      4.884      7.116
REMARK  4 active torsions:
REMARK  status: ('A' for Active; 'I' for Inactive)
REMARK    1  A    between atoms: N1_3  and  N2_5 
REMARK    2  A    between atoms: C3_7  and  C4_8 
REMARK    3  A    between atoms: N4_13  and  O1_14 
REMARK    4  A    between atoms: N5_18  and  O2_19 
ROOT
HETATM    1  C1  UNL     1       7.412   3.435  24.673  1.00  0.00     0.124 C 
HETATM    2  C2  UNL     1       8.052   2.645  23.997  1.00  0.00    -0.059 C 
HETATM    3  N1  UNL     1       8.805   1.740  23.237  1.00  0.00    -0.270 N 
ATOM      4  H1  UNL     1       9.700   1.417  23.604  1.00  0.00     0.196 HD
ENDROOT
BRANCH   3   5
HETATM    5  N2  UNL     1       8.379   1.265  22.001  1.00  0.00    -0.303 N 
HETATM    6  C3  UNL     1       7.536   1.860  21.249  1.00  0.00     0.140 C 
ATOM      7  H2  UNL     1       8.767   0.380  21.673  1.00  0.00     0.186 HD
BRANCH   6   8
HETATM    8  C4  UNL     1       7.050   1.433  19.964  1.00  0.00     0.091 A 
HETATM    9  C5  UNL     1       7.431   2.055  18.810  1.00  0.00     0.012 A 
HETATM   10  C6  UNL     1       8.358   3.193  18.815  1.00  0.00     0.054 C 
HETATM   11  C7  UNL     1       6.945   1.623  17.560  1.00  0.00     0.155 A 
HETATM   12  N3  UNL     1       7.344   2.272  16.360  1.00  0.00    -0.080 NA
HETATM   13  N4  UNL     1       6.098   0.587  17.524  1.00  0.00    -0.180 N 
HETATM   14  C8  UNL     1       5.718  -0.030  18.656  1.00  0.00     0.234 A 
HETATM   15 CL1  UNL     1       4.616  -1.383  18.644  1.00  0.00    -0.040 Cl
HETATM   16  N5  UNL     1       6.186   0.386  19.845  1.00  0.00    -0.193 N 
BRANCH  13  17
HETATM   17  O1  UNL     1       5.606   0.142  16.322  1.00  0.00    -0.279 OA
ATOM     18  H1  UNL     1       4.901  -0.495  16.302  1.00  0.00     0.245 HD
ENDBRANCH  13  17
BRANCH  16  19
HETATM   19  O2  UNL     1       5.815  -0.227  21.028  1.00  0.00    -0.280 OA
ATOM     20  H2  UNL     1       5.758   0.341  21.788  1.00  0.00     0.245 HD
ENDBRANCH  16  19
ENDBRANCH   6   8
ENDBRANCH   3   5
TORSDOF 4
ENDMDL
MODEL 3
REMARK VINA RESULT: -5.490649988      5.293      7.151
REMARK  4 active torsions:
REMARK  status: ('A' for Active; 'I' for Inactive)
REMARK    1  A    between atoms: N1_3  and  N2_5 
REMARK    2  A    between atoms: C3_7  and  C4_8 
REMARK    3  A    between atoms: N4_13  and  O1_14 
REMARK    4  A    between atoms: N5_18  and  O2_19 
ROOT
HETATM    1  C1  UNL     1      10.148   4.353  21.656  1.00  0.00     0.124 C 
HETATM    2  C2  UNL     1       9.739   3.219  21.845  1.00  0.00    -0.059 C 
HETATM    3  N1  UNL     1       9.280   1.916  22.081  1.00  0.00    -0.270 N 
ATOM      4  H1  UNL     1       9.507   1.471  22.971  1.00  0.00     0.196 HD
ENDROOT
BRANCH   3   5
HETATM    5  N2  UNL     1       8.529   1.206  21.151  1.00  0.00    -0.303 N 
HETATM    6  C3  UNL     1       7.629   1.719  20.407  1.00  0.00     0.140 C 
ATOM      7  H2  UNL     1       8.710   0.206  21.059  1.00  0.00     0.186 HD
BRANCH   6   8
HETATM    8  C4  UNL     1       6.814   1.052  19.426  1.00  0.00     0.091 A 
HETATM    9  C5  UNL     1       6.836   1.414  18.109  1.00  0.00     0.012 A 
HETATM   10  C6  UNL     1       7.691   2.502  17.620  1.00  0.00     0.054 C 
HETATM   11  C7  UNL     1       6.031   0.750  17.162  1.00  0.00     0.155 A 
HETATM   12  N3  UNL     1       6.057   1.128  15.792  1.00  0.00    -0.080 NA
HETATM   13  N4  UNL     1       5.240  -0.247  17.578  1.00  0.00    -0.180 N 
HETATM   14  C8  UNL     1       5.213  -0.608  18.872  1.00  0.00     0.234 A 
HETATM   15 CL1  UNL     1       4.194  -1.904  19.447  1.00  0.00    -0.040 Cl
HETATM   16  N5  UNL     1       5.984   0.029  19.771  1.00  0.00    -0.193 N 
BRANCH  13  17
HETATM   17  O1  UNL     1       4.444  -0.914  16.681  1.00  0.00    -0.279 OA
ATOM     18  H1  UNL     1       4.265  -1.839  16.799  1.00  0.00     0.245 HD
ENDBRANCH  13  17
BRANCH  16  19
HETATM   19  O2  UNL     1       5.979  -0.319  21.110  1.00  0.00    -0.280 OA
ATOM     20  H2  UNL     1       6.348  -1.169  21.318  1.00  0.00     0.245 HD
ENDBRANCH  16  19
ENDBRANCH   6   8
ENDBRANCH   3   5
TORSDOF 4
ENDMDL
MODEL 4
REMARK VINA RESULT: -5.261227896      2.095      2.813
REMARK  4 active torsions:
REMARK  status: ('A' for Active; 'I' for Inactive)
REMARK    1  A    between atoms: N1_3  and  N2_5 
REMARK    2  A    between atoms: C3_7  and  C4_8 
REMARK    3  A    between atoms: N4_13  and  O1_14 
REMARK    4  A    between atoms: N5_18  and  O2_19 
ROOT
HETATM    1  C1  UNL     1       7.895   2.435  18.661  1.00  0.00     0.124 C 
HETATM    2  C2  UNL     1       7.915   3.017  19.734  1.00  0.00    -0.059 C 
HETATM    3  N1  UNL     1       7.948   3.703  20.956  1.00  0.00    -0.270 N 
ATOM      4  H1  UNL     1       8.301   4.660  20.971  1.00  0.00     0.196 HD
ENDROOT
BRANCH   3   5
HETATM    5  N2  UNL     1       7.519   3.130  22.148  1.00  0.00    -0.303 N 
HETATM    6  C3  UNL     1       7.915   3.491  23.306  1.00  0.00     0.140 C 
ATOM      7  H2  UNL     1       6.841   2.369  22.093  1.00  0.00     0.186 HD
BRANCH   6   8
HETATM    8  C4  UNL     1       7.518   2.949  24.579  1.00  0.00     0.091 A 
HETATM    9  C5  UNL     1       7.148   3.754  25.617  1.00  0.00     0.012 A 
HETATM   10  C6  UNL     1       7.132   5.217  25.494  1.00  0.00     0.054 C 
HETATM   11  C7  UNL     1       6.762   3.207  26.857  1.00  0.00     0.155 A 
HETATM   12  N3  UNL     1       6.376   4.048  27.936  1.00  0.00    -0.080 NA
HETATM   13  N4  UNL     1       6.766   1.876  27.000  1.00  0.00    -0.180 N 
HETATM   14  C8  UNL     1       7.129   1.077  25.982  1.00  0.00     0.234 A 
HETATM   15 CL1  UNL     1       7.145  -0.662  26.135  1.00  0.00    -0.040 Cl
HETATM   16  N5  UNL     1       7.495   1.605  24.801  1.00  0.00    -0.193 N 
BRANCH  13  17
HETATM   17  O1  UNL     1       6.395   1.310  28.194  1.00  0.00    -0.279 OA
ATOM     18  H1  UNL     1       5.666   1.669  28.686  1.00  0.00     0.245 HD
ENDBRANCH  13  17
BRANCH  16  19
HETATM   19  O2  UNL     1       7.875   0.811  23.735  1.00  0.00    -0.280 OA
ATOM     20  H2  UNL     1       8.057  -0.099  23.940  1.00  0.00     0.245 HD
ENDBRANCH  16  19
ENDBRANCH   6   8
ENDBRANCH   3   5
TORSDOF 4
ENDMDL
MODEL 5
REMARK VINA RESULT: -5.200030890      3.077      3.796
REMARK  4 active torsions:
REMARK  status: ('A' for Active; 'I' for Inactive)
REMARK    1  A    between atoms: N1_3  and  N2_5 
REMARK    2  A    between atoms: C3_7  and  C4_8 
REMARK    3  A    between atoms: N4_13  and  O1_14 
REMARK    4  A    between atoms: N5_18  and  O2_19 
ROOT
HETATM    1  C1  UNL     1       5.647   0.802  16.756  1.00  0.00     0.124 C 
HETATM    2  C2  UNL     1       6.431   1.481  17.401  1.00  0.00    -0.059 C 
HETATM    3  N1  UNL     1       7.340   2.266  18.121  1.00  0.00    -0.270 N 
ATOM      4  H1  UNL     1       8.011   2.836  17.605  1.00  0.00     0.196 HD
ENDROOT
BRANCH   3   5
HETATM    5  N2  UNL     1       7.365   2.299  19.512  1.00  0.00    -0.303 N 
HETATM    6  C3  UNL     1       8.256   1.735  20.232  1.00  0.00     0.140 C 
ATOM      7  H2  UNL     1       6.621   2.808  19.988  1.00  0.00     0.186 HD
BRANCH   6   8
HETATM    8  C4  UNL     1       8.348   1.726  21.667  1.00  0.00     0.091 A 
HETATM    9  C5  UNL     1       9.310   2.433  22.329  1.00  0.00     0.012 A 
HETATM   10  C6  UNL     1      10.303   3.244  21.614  1.00  0.00     0.054 C 
HETATM   11  C7  UNL     1       9.386   2.413  23.736  1.00  0.00     0.155 A 
HETATM   12  N3  UNL     1      10.389   3.151  24.422  1.00  0.00    -0.080 NA
HETATM   13  N4  UNL     1       8.494   1.683  24.416  1.00  0.00    -0.180 N 
HETATM   14  C8  UNL     1       7.545   0.983  23.771  1.00  0.00     0.234 A 
HETATM   15 CL1  UNL     1       6.366   0.021  24.628  1.00  0.00    -0.040 Cl
HETATM   16  N5  UNL     1       7.477   1.008  22.429  1.00  0.00    -0.193 N 
BRANCH  13  17
HETATM   17  O1  UNL     1       8.541   1.641  25.787  1.00  0.00    -0.279 OA
ATOM     18  H1  UNL     1       8.203   0.885  26.253  1.00  0.00     0.245 HD
ENDBRANCH  13  17
BRANCH  16  19
HETATM   19  O2  UNL     1       6.512   0.299  21.736  1.00  0.00    -0.280 OA
ATOM     20  H2  UNL     1       5.612   0.562  21.893  1.00  0.00     0.245 HD
ENDBRANCH  16  19
ENDBRANCH   6   8
ENDBRANCH   3   5
TORSDOF 4
ENDMDL
