MODEL 1
REMARK VINA RESULT: -5.116964833      0.000      0.000
REMARK  1 active torsions:
REMARK  status: ('A' for Active; 'I' for Inactive)
REMARK    1  A    between atoms: C2_2  and  C5_5 
ROOT
HETATM    1  C5  UNL     1      22.305  -5.782   7.140  1.00  0.00     0.236 C 
HETATM    2  O1  UNL     1      21.975  -4.670   7.938  1.00  0.00    -0.290 OA
HETATM    3  C6  UNL     1      21.447  -3.729   7.032  1.00  0.00     0.365 C 
HETATM    4  O2  UNL     1      20.697  -2.745   7.298  1.00  0.00    -0.238 OA
HETATM    5  N1  UNL     1      21.888  -4.045   5.716  1.00  0.00    -0.272 N 
ATOM      6  H1  UNL     1      21.615  -3.593   4.844  1.00  0.00     0.170 HD
HETATM    7  C7  UNL     1      22.821  -5.163   5.891  1.00  0.00     0.353 C 
HETATM    8  F1  UNL     1      22.697  -5.963   4.779  1.00  0.00    -0.179 F 
HETATM    9  F2  UNL     1      24.067  -4.623   5.980  1.00  0.00    -0.179 F 
ENDROOT
BRANCH   1  10
HETATM   10  C2  UNL     1      23.247  -6.658   7.874  1.00  0.00    -0.017 C 
HETATM   11  C1  UNL     1      24.181  -5.954   8.800  1.00  0.00     0.017 C 
HETATM   12  C3  UNL     1      22.381  -7.564   8.770  1.00  0.00     0.017 C 
HETATM   13  C4  UNL     1      24.042  -7.578   6.992  1.00  0.00     0.017 C 
ENDBRANCH   1  10
TORSDOF 1
ENDMDL
MODEL 2
REMARK VINA RESULT: -4.957807243      4.559      5.840
REMARK  1 active torsions:
REMARK  status: ('A' for Active; 'I' for Inactive)
REMARK    1  A    between atoms: C2_2  and  C5_5 
ROOT
HETATM    1  C5  UNL     1      20.472  -0.161   7.954  1.00  0.00     0.236 C 
HETATM    2  O1  UNL     1      21.665   0.581   7.854  1.00  0.00    -0.290 OA
HETATM    3  C6  UNL     1      21.438   1.472   6.786  1.00  0.00     0.365 C 
HETATM    4  O2  UNL     1      22.047   2.554   6.548  1.00  0.00    -0.238 OA
HETATM    5  N1  UNL     1      20.383   0.971   5.972  1.00  0.00    -0.272 N 
ATOM      6  H1  UNL     1      19.945   1.426   5.172  1.00  0.00     0.170 HD
HETATM    7  C7  UNL     1      20.066  -0.345   6.537  1.00  0.00     0.353 C 
HETATM    8  F1  UNL     1      18.714  -0.537   6.364  1.00  0.00    -0.179 F 
HETATM    9  F2  UNL     1      20.792  -1.258   5.836  1.00  0.00    -0.179 F 
ENDROOT
BRANCH   1  10
HETATM   10  C2  UNL     1      20.720  -1.398   8.730  1.00  0.00    -0.017 C 
HETATM   11  C1  UNL     1      21.052  -2.603   7.917  1.00  0.00     0.017 C 
HETATM   12  C3  UNL     1      21.966  -1.122   9.591  1.00  0.00     0.017 C 
HETATM   13  C4  UNL     1      19.618  -1.750   9.689  1.00  0.00     0.017 C 
ENDBRANCH   1  10
TORSDOF 1
ENDMDL
MODEL 3
REMARK VINA RESULT: -4.680035397      0.263      1.226
REMARK  1 active torsions:
REMARK  status: ('A' for Active; 'I' for Inactive)
REMARK    1  A    between atoms: C2_2  and  C5_5 
ROOT
HETATM    1  C5  UNL     1      22.385  -5.858   7.026  1.00  0.00     0.236 C 
HETATM    2  O1  UNL     1      22.066  -4.690   7.745  1.00  0.00    -0.290 OA
HETATM    3  C6  UNL     1      21.537  -3.813   6.778  1.00  0.00     0.365 C 
HETATM    4  O2  UNL     1      20.795  -2.808   6.978  1.00  0.00    -0.238 OA
HETATM    5  N1  UNL     1      21.966  -4.225   5.485  1.00  0.00    -0.272 N 
ATOM      6  H1  UNL     1      21.690  -3.835   4.584  1.00  0.00     0.170 HD
HETATM    7  C7  UNL     1      22.894  -5.333   5.733  1.00  0.00     0.353 C 
HETATM    8  F1  UNL     1      22.758  -6.211   4.682  1.00  0.00    -0.179 F 
HETATM    9  F2  UNL     1      24.145  -4.796   5.774  1.00  0.00    -0.179 F 
ENDROOT
BRANCH   1  10
HETATM   10  C2  UNL     1      23.327  -6.685   7.815  1.00  0.00    -0.017 C 
HETATM   11  C1  UNL     1      24.300  -7.481   7.011  1.00  0.00     0.017 C 
HETATM   12  C3  UNL     1      24.177  -5.701   8.639  1.00  0.00     0.017 C 
HETATM   13  C4  UNL     1      22.660  -7.596   8.806  1.00  0.00     0.017 C 
ENDBRANCH   1  10
TORSDOF 1
ENDMDL
MODEL 4
REMARK VINA RESULT: -4.436903200      4.681      5.861
REMARK  1 active torsions:
REMARK  status: ('A' for Active; 'I' for Inactive)
REMARK    1  A    between atoms: C2_2  and  C5_5 
ROOT
HETATM    1  C5  UNL     1      20.523  -0.040   7.976  1.00  0.00     0.236 C 
HETATM    2  O1  UNL     1      21.706   0.708   7.820  1.00  0.00    -0.290 OA
HETATM    3  C6  UNL     1      21.450   1.546   6.717  1.00  0.00     0.365 C 
HETATM    4  O2  UNL     1      22.044   2.623   6.418  1.00  0.00    -0.238 OA
HETATM    5  N1  UNL     1      20.387   0.999   5.946  1.00  0.00    -0.272 N 
ATOM      6  H1  UNL     1      19.929   1.412   5.134  1.00  0.00     0.170 HD
HETATM    7  C7  UNL     1      20.093  -0.293   6.576  1.00  0.00     0.353 C 
HETATM    8  F1  UNL     1      18.740  -0.506   6.438  1.00  0.00    -0.179 F 
HETATM    9  F2  UNL     1      20.816  -1.231   5.905  1.00  0.00    -0.179 F 
ENDROOT
BRANCH   1  10
HETATM   10  C2  UNL     1      20.798  -1.237   8.804  1.00  0.00    -0.017 C 
HETATM   11  C1  UNL     1      19.682  -1.661   9.699  1.00  0.00     0.017 C 
HETATM   12  C3  UNL     1      21.004  -2.403   7.819  1.00  0.00     0.017 C 
HETATM   13  C4  UNL     1      22.059  -1.145   9.614  1.00  0.00     0.017 C 
ENDBRANCH   1  10
TORSDOF 1
ENDMDL
MODEL 5
REMARK VINA RESULT: -4.333969051      2.443      4.005
REMARK  1 active torsions:
REMARK  status: ('A' for Active; 'I' for Inactive)
REMARK    1  A    between atoms: C2_2  and  C5_5 
ROOT
HETATM    1  C5  UNL     1      21.038  -3.657   7.513  1.00  0.00     0.236 C 
HETATM    2  O1  UNL     1      21.439  -3.129   6.270  1.00  0.00    -0.290 OA
HETATM    3  C6  UNL     1      22.041  -4.215   5.603  1.00  0.00     0.365 C 
HETATM    4  O2  UNL     1      22.227  -4.342   4.358  1.00  0.00    -0.238 OA
HETATM    5  N1  UNL     1      22.430  -5.196   6.558  1.00  0.00    -0.272 N 
ATOM      6  H1  UNL     1      22.823  -6.119   6.376  1.00  0.00     0.170 HD
HETATM    7  C7  UNL     1      22.144  -4.586   7.861  1.00  0.00     0.353 C 
HETATM    8  F1  UNL     1      21.771  -5.606   8.705  1.00  0.00    -0.179 F 
HETATM    9  F2  UNL     1      23.295  -3.991   8.277  1.00  0.00    -0.179 F 
ENDROOT
BRANCH   1  10
HETATM   10  C2  UNL     1      20.787  -2.551   8.464  1.00  0.00    -0.017 C 
HETATM   11  C1  UNL     1      21.996  -2.027   9.165  1.00  0.00     0.017 C 
HETATM   12  C3  UNL     1      20.252  -1.375   7.626  1.00  0.00     0.017 C 
HETATM   13  C4  UNL     1      19.728  -2.852   9.487  1.00  0.00     0.017 C 
ENDBRANCH   1  10
TORSDOF 1
ENDMDL
