MODEL 1
REMARK VINA RESULT: -5.070571381      0.000      0.000
REMARK  0 active torsions:
REMARK  status: ('A' for Active; 'I' for Inactive)
ROOT
HETATM    1  C1  UNL     1      21.392  -3.669   8.285  1.00  0.00     0.012 C 
HETATM    2  C2  UNL     1      22.496  -4.162   7.370  1.00  0.00     0.006 C 
HETATM    3  C3  UNL     1      21.960  -4.727   6.108  1.00  0.00     0.128 C 
HETATM    4  N1  UNL     1      22.973  -5.422   5.353  1.00  0.00    -0.351 N 
ATOM      5  H1  UNL     1      23.267  -4.990   4.478  1.00  0.00     0.163 HD
HETATM    6  C4  UNL     1      23.608  -6.655   5.704  1.00  0.00     0.285 C 
HETATM    7  O1  UNL     1      24.411  -7.138   4.839  1.00  0.00    -0.260 OA
HETATM    8  S1  UNL     1      23.389  -7.579   7.220  1.00  0.00     0.008 SA
HETATM    9  C5  UNL     1      23.047  -6.342   8.536  1.00  0.00     0.300 C 
HETATM   10  F1  UNL     1      21.773  -6.447   8.994  1.00  0.00    -0.193 F 
HETATM   11  F2  UNL     1      23.880  -6.730   9.599  1.00  0.00    -0.193 F 
HETATM   12  C6  UNL     1      23.478  -4.997   8.110  1.00  0.00     0.097 C 
ENDROOT
TORSDOF 0
ENDMDL
MODEL 2
REMARK VINA RESULT: -4.748513251      5.116      5.904
REMARK  0 active torsions:
REMARK  status: ('A' for Active; 'I' for Inactive)
ROOT
HETATM    1  C1  UNL     1      21.325  -3.999   8.434  1.00  0.00     0.012 C 
HETATM    2  C2  UNL     1      20.487  -2.851   7.904  1.00  0.00     0.006 C 
HETATM    3  C3  UNL     1      20.999  -2.343   6.609  1.00  0.00     0.128 C 
HETATM    4  N1  UNL     1      20.370  -1.102   6.229  1.00  0.00    -0.351 N 
ATOM      5  H1  UNL     1      19.742  -1.135   5.426  1.00  0.00     0.163 HD
HETATM    6  C4  UNL     1      20.535   0.170   6.861  1.00  0.00     0.285 C 
HETATM    7  O1  UNL     1      19.953   1.156   6.297  1.00  0.00    -0.260 OA
HETATM    8  S1  UNL     1      21.468   0.516   8.347  1.00  0.00     0.008 SA
HETATM    9  C5  UNL     1      21.358  -0.994   9.390  1.00  0.00     0.300 C 
HETATM   10  F1  UNL     1      22.563  -1.611   9.496  1.00  0.00    -0.193 F 
HETATM   11  F2  UNL     1      21.052  -0.505  10.672  1.00  0.00    -0.193 F 
HETATM   12  C6  UNL     1      20.227  -1.840   8.962  1.00  0.00     0.097 C 
ENDROOT
TORSDOF 0
ENDMDL
MODEL 3
REMARK VINA RESULT: -4.620332262      2.064      2.958
REMARK  0 active torsions:
REMARK  status: ('A' for Active; 'I' for Inactive)
ROOT
HETATM    1  C1  UNL     1      24.275  -6.478   9.395  1.00  0.00     0.012 C 
HETATM    2  C2  UNL     1      23.582  -7.043   8.170  1.00  0.00     0.006 C 
HETATM    3  C3  UNL     1      24.535  -7.304   7.065  1.00  0.00     0.128 C 
HETATM    4  N1  UNL     1      23.859  -7.596   5.825  1.00  0.00    -0.351 N 
ATOM      5  H1  UNL     1      23.933  -8.553   5.479  1.00  0.00     0.163 HD
HETATM    6  C4  UNL     1      23.096  -6.685   5.030  1.00  0.00     0.285 C 
HETATM    7  O1  UNL     1      22.663  -7.137   3.919  1.00  0.00    -0.260 OA
HETATM    8  S1  UNL     1      22.693  -4.989   5.433  1.00  0.00     0.008 SA
HETATM    9  C5  UNL     1      22.555  -4.912   7.265  1.00  0.00     0.300 C 
HETATM   10  F1  UNL     1      23.558  -4.171   7.805  1.00  0.00    -0.193 F 
HETATM   11  F2  UNL     1      21.369  -4.192   7.491  1.00  0.00    -0.193 F 
HETATM   12  C6  UNL     1      22.365  -6.261   7.830  1.00  0.00     0.097 C 
ENDROOT
TORSDOF 0
ENDMDL
MODEL 4
REMARK VINA RESULT: -4.503136452      2.114      3.168
REMARK  0 active torsions:
REMARK  status: ('A' for Active; 'I' for Inactive)
ROOT
HETATM    1  C1  UNL     1      24.896  -7.596   6.394  1.00  0.00     0.012 C 
HETATM    2  C2  UNL     1      23.601  -6.885   6.053  1.00  0.00     0.006 C 
HETATM    3  C3  UNL     1      23.841  -5.527   5.509  1.00  0.00     0.128 C 
HETATM    4  N1  UNL     1      22.624  -4.757   5.423  1.00  0.00    -0.351 N 
ATOM      5  H1  UNL     1      22.278  -4.553   4.485  1.00  0.00     0.163 HD
HETATM    6  C4  UNL     1      21.853  -4.248   6.514  1.00  0.00     0.285 C 
HETATM    7  O1  UNL     1      20.860  -3.510   6.204  1.00  0.00    -0.260 OA
HETATM    8  S1  UNL     1      22.139  -4.539   8.256  1.00  0.00     0.008 SA
HETATM    9  C5  UNL     1      22.876  -6.219   8.386  1.00  0.00     0.300 C 
HETATM   10  F1  UNL     1      24.169  -6.160   8.797  1.00  0.00    -0.193 F 
HETATM   11  F2  UNL     1      22.159  -6.830   9.429  1.00  0.00    -0.193 F 
HETATM   12  C6  UNL     1      22.616  -6.997   7.160  1.00  0.00     0.097 C 
ENDROOT
TORSDOF 0
ENDMDL
MODEL 5
REMARK VINA RESULT: -4.272314970      6.612      7.124
REMARK  0 active torsions:
REMARK  status: ('A' for Active; 'I' for Inactive)
ROOT
HETATM    1  C1  UNL     1      19.937  -1.936   9.235  1.00  0.00     0.012 C 
HETATM    2  C2  UNL     1      21.111  -1.147   8.689  1.00  0.00     0.006 C 
HETATM    3  C3  UNL     1      21.266   0.161   9.369  1.00  0.00     0.128 C 
HETATM    4  N1  UNL     1      22.210   1.015   8.691  1.00  0.00    -0.351 N 
ATOM      5  H1  UNL     1      23.089   1.198   9.174  1.00  0.00     0.163 HD
HETATM    6  C4  UNL     1      22.042   1.633   7.412  1.00  0.00     0.285 C 
HETATM    7  O1  UNL     1      22.970   2.427   7.046  1.00  0.00    -0.260 OA
HETATM    8  S1  UNL     1      20.671   1.407   6.285  1.00  0.00     0.008 SA
HETATM    9  C5  UNL     1      20.075  -0.315   6.534  1.00  0.00     0.300 C 
HETATM   10  F1  UNL     1      18.838  -0.333   7.093  1.00  0.00    -0.193 F 
HETATM   11  F2  UNL     1      19.925  -0.819   5.230  1.00  0.00    -0.193 F 
HETATM   12  C6  UNL     1      21.106  -1.130   7.203  1.00  0.00     0.097 C 
ENDROOT
TORSDOF 0
ENDMDL
