MODEL 1
REMARK VINA RESULT: -4.065366017      0.000      0.000
REMARK  1 active torsions:
REMARK  status: ('A' for Active; 'I' for Inactive)
REMARK    1  A    between atoms: C6_7  and  O1_8 
ROOT
HETATM    1  N1  UNL     1      21.649  -4.596   4.980  1.00  0.00    -0.197 NA
HETATM    2  C1  UNL     1      22.589  -4.794   5.635  1.00  0.00     0.067 C 
HETATM    3  C2  UNL     1      23.764  -5.050   6.478  1.00  0.00     0.134 C 
HETATM    4  C3  UNL     1      24.528  -6.220   5.980  1.00  0.00     0.022 C 
HETATM    5  C4  UNL     1      24.085  -7.549   6.455  1.00  0.00     0.004 C 
HETATM    6  C5  UNL     1      23.389  -7.596   7.757  1.00  0.00     0.035 C 
HETATM    7  C6  UNL     1      22.398  -6.449   7.889  1.00  0.00     0.158 C 
HETATM    8  C7  UNL     1      23.271  -5.188   7.893  1.00  0.00     0.154 C 
HETATM    9 CL1  UNL     1      24.626  -5.450   9.020  1.00  0.00    -0.097 Cl
HETATM   10 CL2  UNL     1      22.370  -3.779   8.398  1.00  0.00    -0.097 Cl
ENDROOT
BRANCH   7  11
HETATM   11  O1  UNL     1      21.630  -6.552   9.023  1.00  0.00    -0.392 OA
ATOM     12  H1  UNL     1      21.001  -5.844   9.098  1.00  0.00     0.210 HD
ENDBRANCH   7  11
TORSDOF 1
ENDMDL
MODEL 2
REMARK VINA RESULT: -3.941512047      1.902      2.406
REMARK  1 active torsions:
REMARK  status: ('A' for Active; 'I' for Inactive)
REMARK    1  A    between atoms: C6_7  and  O1_8 
ROOT
HETATM    1  N1  UNL     1      23.148  -7.588   4.520  1.00  0.00    -0.197 NA
HETATM    2  C1  UNL     1      23.616  -7.198   5.510  1.00  0.00     0.067 C 
HETATM    3  C2  UNL     1      24.193  -6.690   6.762  1.00  0.00     0.134 C 
HETATM    4  C3  UNL     1      23.884  -7.596   7.893  1.00  0.00     0.022 C 
HETATM    5  C4  UNL     1      22.591  -7.382   8.579  1.00  0.00     0.004 C 
HETATM    6  C5  UNL     1      22.021  -6.020   8.521  1.00  0.00     0.035 C 
HETATM    7  C6  UNL     1      22.175  -5.421   7.131  1.00  0.00     0.158 C 
HETATM    8  C7  UNL     1      23.690  -5.282   6.940  1.00  0.00     0.154 C 
HETATM    9 CL1  UNL     1      24.372  -4.541   8.409  1.00  0.00    -0.097 Cl
HETATM   10 CL2  UNL     1      24.080  -4.283   5.560  1.00  0.00    -0.097 Cl
ENDROOT
BRANCH   7  11
HETATM   11  O1  UNL     1      21.524  -4.219   7.006  1.00  0.00    -0.392 OA
ATOM     12  H1  UNL     1      21.693  -3.639   7.739  1.00  0.00     0.210 HD
ENDBRANCH   7  11
TORSDOF 1
ENDMDL
MODEL 3
REMARK VINA RESULT: -2.789989197      2.479      3.000
REMARK  1 active torsions:
REMARK  status: ('A' for Active; 'I' for Inactive)
REMARK    1  A    between atoms: C6_7  and  O1_8 
ROOT
HETATM    1  N1  UNL     1      23.666  -3.981   4.535  1.00  0.00    -0.197 NA
HETATM    2  C1  UNL     1      23.090  -4.527   5.384  1.00  0.00     0.067 C 
HETATM    3  C2  UNL     1      22.378  -5.234   6.457  1.00  0.00     0.134 C 
HETATM    4  C3  UNL     1      22.456  -4.477   7.731  1.00  0.00     0.022 C 
HETATM    5  C4  UNL     1      23.650  -4.717   8.570  1.00  0.00     0.004 C 
HETATM    6  C5  UNL     1      24.319  -6.027   8.425  1.00  0.00     0.035 C 
HETATM    7  C6  UNL     1      24.409  -6.434   6.961  1.00  0.00     0.158 C 
HETATM    8  C7  UNL     1      22.950  -6.624   6.526  1.00  0.00     0.154 C 
HETATM    9 CL1  UNL     1      22.120  -7.596   7.767  1.00  0.00    -0.097 Cl
HETATM   10 CL2  UNL     1      22.835  -7.441   4.986  1.00  0.00    -0.097 Cl
ENDROOT
BRANCH   7  11
HETATM   11  O1  UNL     1      25.156  -7.572   6.782  1.00  0.00    -0.392 OA
ATOM     12  H1  UNL     1      25.223  -8.089   7.576  1.00  0.00     0.210 HD
ENDBRANCH   7  11
TORSDOF 1
ENDMDL
MODEL 4
REMARK VINA RESULT: -2.751564032      2.196      3.052
REMARK  1 active torsions:
REMARK  status: ('A' for Active; 'I' for Inactive)
REMARK    1  A    between atoms: C6_7  and  O1_8 
ROOT
HETATM    1  N1  UNL     1      24.745  -4.009   4.824  1.00  0.00    -0.197 NA
HETATM    2  C1  UNL     1      23.870  -4.614   5.293  1.00  0.00     0.067 C 
HETATM    3  C2  UNL     1      22.777  -5.382   5.904  1.00  0.00     0.134 C 
HETATM    4  C3  UNL     1      21.657  -4.491   6.293  1.00  0.00     0.022 C 
HETATM    5  C4  UNL     1      21.751  -3.852   7.623  1.00  0.00     0.004 C 
HETATM    6  C5  UNL     1      22.550  -4.555   8.648  1.00  0.00     0.035 C 
HETATM    7  C6  UNL     1      23.838  -5.107   8.053  1.00  0.00     0.158 C 
HETATM    8  C7  UNL     1      23.371  -6.164   7.045  1.00  0.00     0.154 C 
HETATM    9 CL1  UNL     1      22.139  -7.181   7.833  1.00  0.00    -0.097 Cl
HETATM   10 CL2  UNL     1      24.692  -7.175   6.510  1.00  0.00    -0.097 Cl
ENDROOT
BRANCH   7  11
HETATM   11  O1  UNL     1      24.670  -5.634   9.010  1.00  0.00    -0.392 OA
ATOM     12  H1  UNL     1      24.600  -6.580   9.068  1.00  0.00     0.210 HD
ENDBRANCH   7  11
TORSDOF 1
ENDMDL
MODEL 5
REMARK VINA RESULT: -2.100340276      4.655      5.399
REMARK  1 active torsions:
REMARK  status: ('A' for Active; 'I' for Inactive)
REMARK    1  A    between atoms: C6_7  and  O1_8 
ROOT
HETATM    1  N1  UNL     1      19.110  -0.184   6.523  1.00  0.00    -0.197 NA
HETATM    2  C1  UNL     1      19.997  -0.771   6.992  1.00  0.00     0.067 C 
HETATM    3  C2  UNL     1      21.113  -1.505   7.605  1.00  0.00     0.134 C 
HETATM    4  C3  UNL     1      20.846  -2.964   7.612  1.00  0.00     0.022 C 
HETATM    5  C4  UNL     1      20.070  -3.489   8.756  1.00  0.00     0.004 C 
HETATM    6  C5  UNL     1      20.140  -2.725  10.019  1.00  0.00     0.035 C 
HETATM    7  C6  UNL     1      20.061  -1.228   9.758  1.00  0.00     0.158 C 
HETATM    8  C7  UNL     1      21.337  -0.910   8.969  1.00  0.00     0.154 C 
HETATM    9 CL1  UNL     1      22.711  -1.692   9.790  1.00  0.00    -0.097 Cl
HETATM   10 CL2  UNL     1      21.628   0.811   8.877  1.00  0.00    -0.097 Cl
ENDROOT
BRANCH   7  11
HETATM   11  O1  UNL     1      19.974  -0.500  10.919  1.00  0.00    -0.392 OA
ATOM     12  H1  UNL     1      19.896   0.432  10.755  1.00  0.00     0.210 HD
ENDBRANCH   7  11
TORSDOF 1
ENDMDL
