MODEL 1
REMARK VINA RESULT: -5.087489747      0.000      0.000
REMARK  1 active torsions:
REMARK  status: ('A' for Active; 'I' for Inactive)
REMARK    1  A    between atoms: C2_2  and  C3_5 
ROOT
HETATM    1  C3  UNL     1      22.315  -4.945   4.984  1.00  0.00     0.394 C 
HETATM    2  N1  UNL     1      21.959  -4.803   6.362  1.00  0.00    -0.032 N 
ATOM      3  H11 UNL     1      21.011  -5.117   6.572  1.00  0.00     0.281 HD
ATOM      4  H12 UNL     1      21.834  -3.833   6.653  1.00  0.00     0.281 HD
HETATM    5  C4  UNL     1      22.964  -5.493   7.097  1.00  0.00     0.150 C 
HETATM    6  C5  UNL     1      23.592  -4.577   8.125  1.00  0.00     0.041 C 
HETATM    7  C6  UNL     1      24.407  -5.547   8.932  1.00  0.00     0.003 C 
HETATM    8  C7  UNL     1      23.571  -6.784   8.987  1.00  0.00     0.003 C 
HETATM    9  C8  UNL     1      22.445  -6.601   7.971  1.00  0.00     0.041 C 
HETATM   10  C9  UNL     1      23.968  -5.963   6.077  1.00  0.00     0.209 C 
HETATM   11  O1  UNL     1      23.695  -5.151   4.985  1.00  0.00    -0.352 OA
ENDROOT
BRANCH   1  12
HETATM   12  C2  UNL     1      21.983  -3.663   4.209  1.00  0.00     0.290 C 
HETATM   13  C1  UNL     1      21.050  -2.837   5.062  1.00  0.00     0.095 C 
HETATM   14  F1  UNL     1      23.156  -3.005   3.912  1.00  0.00    -0.202 F 
HETATM   15  F2  UNL     1      21.336  -3.947   3.039  1.00  0.00    -0.202 F 
ENDBRANCH   1  12
TORSDOF 1
ENDMDL
MODEL 2
REMARK VINA RESULT: -5.001098931      0.777      1.091
REMARK  1 active torsions:
REMARK  status: ('A' for Active; 'I' for Inactive)
REMARK    1  A    between atoms: C2_2  and  C3_5 
ROOT
HETATM    1  C3  UNL     1      22.394  -4.842   4.904  1.00  0.00     0.394 C 
HETATM    2  N1  UNL     1      21.987  -4.738   6.271  1.00  0.00    -0.032 N 
ATOM      3  H11 UNL     1      21.031  -5.053   6.436  1.00  0.00     0.281 HD
ATOM      4  H12 UNL     1      21.855  -3.777   6.585  1.00  0.00     0.281 HD
HETATM    5  C4  UNL     1      22.960  -5.455   7.022  1.00  0.00     0.150 C 
HETATM    6  C5  UNL     1      23.553  -4.574   8.100  1.00  0.00     0.041 C 
HETATM    7  C6  UNL     1      24.333  -5.571   8.908  1.00  0.00     0.003 C 
HETATM    8  C7  UNL     1      23.490  -6.804   8.895  1.00  0.00     0.003 C 
HETATM    9  C8  UNL     1      22.404  -6.586   7.843  1.00  0.00     0.041 C 
HETATM   10  C9  UNL     1      24.000  -5.901   6.027  1.00  0.00     0.209 C 
HETATM   11  O1  UNL     1      23.772  -5.056   4.951  1.00  0.00    -0.352 OA
ENDROOT
BRANCH   1  12
HETATM   12  C2  UNL     1      22.098  -3.535   4.156  1.00  0.00     0.290 C 
HETATM   13  C1  UNL     1      21.315  -3.883   2.912  1.00  0.00     0.095 C 
HETATM   14  F1  UNL     1      21.415  -2.685   4.995  1.00  0.00    -0.202 F 
HETATM   15  F2  UNL     1      23.253  -2.920   3.761  1.00  0.00    -0.202 F 
ENDBRANCH   1  12
TORSDOF 1
ENDMDL
MODEL 3
REMARK VINA RESULT: -4.810158140      5.348      6.199
REMARK  1 active torsions:
REMARK  status: ('A' for Active; 'I' for Inactive)
REMARK    1  A    between atoms: C2_2  and  C3_5 
ROOT
HETATM    1  C3  UNL     1      21.406   1.146   8.477  1.00  0.00     0.394 C 
HETATM    2  N1  UNL     1      21.678   0.092   9.405  1.00  0.00    -0.032 N 
ATOM      3  H11 UNL     1      21.439   0.326  10.368  1.00  0.00     0.281 HD
ATOM      4  H12 UNL     1      22.673  -0.067   9.561  1.00  0.00     0.281 HD
HETATM    5  C4  UNL     1      20.990  -1.051   8.908  1.00  0.00     0.150 C 
HETATM    6  C5  UNL     1      21.945  -2.212   8.737  1.00  0.00     0.041 C 
HETATM    7  C6  UNL     1      20.996  -3.344   8.466  1.00  0.00     0.003 C 
HETATM    8  C7  UNL     1      19.819  -3.063   9.342  1.00  0.00     0.003 C 
HETATM    9  C8  UNL     1      19.988  -1.637   9.864  1.00  0.00     0.041 C 
HETATM   10  C9  UNL     1      20.382  -0.626   7.597  1.00  0.00     0.209 C 
HETATM   11  O1  UNL     1      21.120   0.503   7.272  1.00  0.00    -0.352 OA
ENDROOT
BRANCH   1  12
HETATM   12  C2  UNL     1      22.641   2.041   8.305  1.00  0.00     0.290 C 
HETATM   13  C1  UNL     1      22.689   2.489   6.864  1.00  0.00     0.095 C 
HETATM   14  F1  UNL     1      22.557   3.093   9.189  1.00  0.00    -0.202 F 
HETATM   15  F2  UNL     1      23.791   1.348   8.563  1.00  0.00    -0.202 F 
ENDBRANCH   1  12
TORSDOF 1
ENDMDL
MODEL 4
REMARK VINA RESULT: -4.620984899      3.021      3.335
REMARK  1 active torsions:
REMARK  status: ('A' for Active; 'I' for Inactive)
REMARK    1  A    between atoms: C2_2  and  C3_5 
ROOT
HETATM    1  C3  UNL     1      20.980  -3.674   8.004  1.00  0.00     0.394 C 
HETATM    2  N1  UNL     1      21.741  -4.551   8.840  1.00  0.00    -0.032 N 
ATOM      3  H11 UNL     1      21.177  -5.047   9.530  1.00  0.00     0.281 HD
ATOM      4  H12 UNL     1      22.343  -4.063   9.503  1.00  0.00     0.281 HD
HETATM    5  C4  UNL     1      22.449  -5.413   7.956  1.00  0.00     0.150 C 
HETATM    6  C5  UNL     1      23.934  -5.362   8.242  1.00  0.00     0.041 C 
HETATM    7  C6  UNL     1      24.440  -6.501   7.403  1.00  0.00     0.003 C 
HETATM    8  C7  UNL     1      23.378  -7.546   7.510  1.00  0.00     0.003 C 
HETATM    9  C8  UNL     1      22.164  -6.876   8.154  1.00  0.00     0.041 C 
HETATM   10  C9  UNL     1      22.128  -4.929   6.566  1.00  0.00     0.209 C 
HETATM   11  O1  UNL     1      21.670  -3.639   6.792  1.00  0.00    -0.352 OA
ENDROOT
BRANCH   1  12
HETATM   12  C2  UNL     1      20.929  -2.265   8.612  1.00  0.00     0.290 C 
HETATM   13  C1  UNL     1      19.797  -2.234   9.610  1.00  0.00     0.095 C 
HETATM   14  F1  UNL     1      22.150  -1.980   9.181  1.00  0.00    -0.202 F 
HETATM   15  F2  UNL     1      20.666  -1.325   7.655  1.00  0.00    -0.202 F 
ENDBRANCH   1  12
TORSDOF 1
ENDMDL
MODEL 5
REMARK VINA RESULT: -4.609941600      3.177      3.549
REMARK  1 active torsions:
REMARK  status: ('A' for Active; 'I' for Inactive)
REMARK    1  A    between atoms: C2_2  and  C3_5 
ROOT
HETATM    1  C3  UNL     1      20.852  -3.595   8.041  1.00  0.00     0.394 C 
HETATM    2  N1  UNL     1      21.661  -4.443   8.860  1.00  0.00    -0.032 N 
ATOM      3  H11 UNL     1      21.129  -4.969   9.553  1.00  0.00     0.281 HD
ATOM      4  H12 UNL     1      22.250  -3.934   9.518  1.00  0.00     0.281 HD
HETATM    5  C4  UNL     1      22.394  -5.268   7.960  1.00  0.00     0.150 C 
HETATM    6  C5  UNL     1      23.880  -5.153   8.227  1.00  0.00     0.041 C 
HETATM    7  C6  UNL     1      24.424  -6.263   7.373  1.00  0.00     0.003 C 
HETATM    8  C7  UNL     1      23.410  -7.354   7.487  1.00  0.00     0.003 C 
HETATM    9  C8  UNL     1      22.176  -6.743   8.151  1.00  0.00     0.041 C 
HETATM   10  C9  UNL     1      22.034  -4.789   6.578  1.00  0.00     0.209 C 
HETATM   11  O1  UNL     1      21.522  -3.522   6.820  1.00  0.00    -0.352 OA
ENDROOT
BRANCH   1  12
HETATM   12  C2  UNL     1      20.747  -2.194   8.659  1.00  0.00     0.290 C 
HETATM   13  C1  UNL     1      20.438  -1.221   7.546  1.00  0.00     0.095 C 
HETATM   14  F1  UNL     1      19.779  -2.209   9.638  1.00  0.00    -0.202 F 
HETATM   15  F2  UNL     1      21.932  -1.816   9.225  1.00  0.00    -0.202 F 
ENDBRANCH   1  12
TORSDOF 1
ENDMDL
