MODEL 1
REMARK VINA RESULT: -4.195156588      0.000      0.000
REMARK  1 active torsions:
REMARK  status: ('A' for Active; 'I' for Inactive)
REMARK    1  A    between atoms: C5_6  and  O2_8 
ROOT
HETATM    1  C1  UNL     1       3.158  35.957 -13.537  1.00  0.00     0.015 C 
HETATM    2  C2  UNL     1       4.347  35.791 -14.430  1.00  0.00     0.045 C 
HETATM    3  C3  UNL     1       3.941  35.672 -15.863  1.00  0.00     0.036 C 
HETATM    4  C4  UNL     1       4.810  36.642 -16.583  1.00  0.00     0.172 C 
HETATM    5  O1  UNL     1       5.681  37.216 -15.708  1.00  0.00    -0.355 OA
HETATM    6  C5  UNL     1       5.302  36.926 -14.419  1.00  0.00     0.161 C 
HETATM    7  C6  UNL     1       4.783  38.173 -13.760  1.00  0.00     0.079 C 
ENDROOT
BRANCH   6   8
HETATM    8  O2  UNL     1       6.462  36.545 -13.702  1.00  0.00    -0.365 OA
ATOM      9  H2  UNL     1       6.330  36.731 -12.779  1.00  0.00     0.213 HD
ENDBRANCH   6   8
TORSDOF 1
ENDMDL
MODEL 2
REMARK VINA RESULT: -4.097130822      1.708      2.534
REMARK  1 active torsions:
REMARK  status: ('A' for Active; 'I' for Inactive)
REMARK    1  A    between atoms: C5_6  and  O2_8 
ROOT
HETATM    1  C1  UNL     1       6.689  38.167 -16.047  1.00  0.00     0.015 C 
HETATM    2  C2  UNL     1       5.272  37.839 -15.696  1.00  0.00     0.045 C 
HETATM    3  C3  UNL     1       4.750  36.713 -16.529  1.00  0.00     0.036 C 
HETATM    4  C4  UNL     1       4.142  35.771 -15.550  1.00  0.00     0.172 C 
HETATM    5  O1  UNL     1       4.218  36.298 -14.297  1.00  0.00    -0.355 OA
HETATM    6  C5  UNL     1       5.062  37.383 -14.300  1.00  0.00     0.161 C 
HETATM    7  C6  UNL     1       6.323  37.035 -13.560  1.00  0.00     0.079 C 
ENDROOT
BRANCH   6   8
HETATM    8  O2  UNL     1       4.438  38.420 -13.566  1.00  0.00    -0.365 OA
ATOM      9  H2  UNL     1       4.622  38.299 -12.642  1.00  0.00     0.213 HD
ENDBRANCH   6   8
TORSDOF 1
ENDMDL
MODEL 3
REMARK VINA RESULT: -4.081217503      2.898      3.639
REMARK  1 active torsions:
REMARK  status: ('A' for Active; 'I' for Inactive)
REMARK    1  A    between atoms: C5_6  and  O2_8 
ROOT
HETATM    1  C1  UNL     1      -0.070  35.867 -14.105  1.00  0.00     0.015 C 
HETATM    2  C2  UNL     1       1.130  35.054 -13.731  1.00  0.00     0.045 C 
HETATM    3  C3  UNL     1       2.003  34.795 -14.916  1.00  0.00     0.036 C 
HETATM    4  C4  UNL     1       3.372  35.161 -14.461  1.00  0.00     0.172 C 
HETATM    5  O1  UNL     1       3.340  35.521 -13.148  1.00  0.00    -0.355 OA
HETATM    6  C5  UNL     1       2.037  35.693 -12.747  1.00  0.00     0.161 C 
HETATM    7  C6  UNL     1       1.777  37.155 -12.514  1.00  0.00     0.079 C 
ENDROOT
BRANCH   6   8
HETATM    8  O2  UNL     1       1.881  35.052 -11.494  1.00  0.00    -0.365 OA
ATOM      9  H2  UNL     1       2.635  35.249 -10.950  1.00  0.00     0.213 HD
ENDBRANCH   6   8
TORSDOF 1
ENDMDL
MODEL 4
REMARK VINA RESULT: -4.024318074      1.849      2.748
REMARK  1 active torsions:
REMARK  status: ('A' for Active; 'I' for Inactive)
REMARK    1  A    between atoms: C5_6  and  O2_8 
ROOT
HETATM    1  C1  UNL     1       7.170  36.575 -13.075  1.00  0.00     0.015 C 
HETATM    2  C2  UNL     1       6.589  37.721 -13.843  1.00  0.00     0.045 C 
HETATM    3  C3  UNL     1       7.310  37.935 -15.134  1.00  0.00     0.036 C 
HETATM    4  C4  UNL     1       6.233  38.025 -16.157  1.00  0.00     0.172 C 
HETATM    5  O1  UNL     1       5.016  37.952 -15.550  1.00  0.00    -0.355 OA
HETATM    6  C5  UNL     1       5.171  37.550 -14.245  1.00  0.00     0.161 C 
HETATM    7  C6  UNL     1       4.642  36.151 -14.090  1.00  0.00     0.079 C 
ENDROOT
BRANCH   6   8
HETATM    8  O2  UNL     1       4.359  38.380 -13.436  1.00  0.00    -0.365 OA
ATOM      9  H2  UNL     1       4.819  39.195 -13.270  1.00  0.00     0.213 HD
ENDBRANCH   6   8
TORSDOF 1
ENDMDL
MODEL 5
REMARK VINA RESULT: -4.019700288      1.329      2.771
REMARK  1 active torsions:
REMARK  status: ('A' for Active; 'I' for Inactive)
REMARK    1  A    between atoms: C5_6  and  O2_8 
ROOT
HETATM    1  C1  UNL     1       4.089  37.776 -13.201  1.00  0.00     0.015 C 
HETATM    2  C2  UNL     1       5.210  38.173 -14.110  1.00  0.00     0.045 C 
HETATM    3  C3  UNL     1       6.540  37.950 -13.466  1.00  0.00     0.036 C 
HETATM    4  C4  UNL     1       7.331  37.204 -14.483  1.00  0.00     0.172 C 
HETATM    5  O1  UNL     1       6.598  37.063 -15.622  1.00  0.00    -0.355 OA
HETATM    6  C5  UNL     1       5.290  37.406 -15.378  1.00  0.00     0.161 C 
HETATM    7  C6  UNL     1       4.436  36.169 -15.414  1.00  0.00     0.079 C 
ENDROOT
BRANCH   6   8
HETATM    8  O2  UNL     1       4.850  38.229 -16.442  1.00  0.00    -0.365 OA
ATOM      9  H2  UNL     1       5.589  38.728 -16.772  1.00  0.00     0.213 HD
ENDBRANCH   6   8
TORSDOF 1
ENDMDL
