MODEL 1
REMARK VINA RESULT: -4.465148553      0.000      0.000
REMARK  1 active torsions:
REMARK  status: ('A' for Active; 'I' for Inactive)
REMARK    1  A    between atoms: C4_4  and  O1_5 
ROOT
HETATM    1  C1  UNL     1      -3.367  37.942 -15.435  1.00  0.00     0.039 C 
HETATM    2  C2  UNL     1      -3.021  36.488 -15.519  1.00  0.00     0.120 C 
HETATM    3  C3  UNL     1      -2.616  36.044 -16.902  1.00  0.00     0.065 C 
HETATM    4  C4  UNL     1      -1.438  35.124 -16.552  1.00  0.00     0.149 C 
HETATM    5  C5  UNL     1      -0.856  35.941 -15.389  1.00  0.00     0.146 C 
HETATM    6  C6  UNL     1       0.177  35.180 -14.635  1.00  0.00     0.042 C 
HETATM    7  O2  UNL     1      -1.983  36.225 -14.665  1.00  0.00    -0.379 OA
ENDROOT
BRANCH   4   8
HETATM    8  O1  UNL     1      -0.539  35.016 -17.579  1.00  0.00    -0.393 OA
ATOM      9  H1  UNL     1       0.222  35.571 -17.452  1.00  0.00     0.210 HD
ENDBRANCH   4   8
TORSDOF 1
ENDMDL
MODEL 2
REMARK VINA RESULT: -4.223618981      2.580      4.391
REMARK  1 active torsions:
REMARK  status: ('A' for Active; 'I' for Inactive)
REMARK    1  A    between atoms: C4_4  and  O1_5 
ROOT
HETATM    1  C1  UNL     1       3.392  35.120 -14.090  1.00  0.00     0.039 C 
HETATM    2  C2  UNL     1       1.988  34.632 -13.925  1.00  0.00     0.120 C 
HETATM    3  C3  UNL     1       1.024  35.705 -13.487  1.00  0.00     0.065 C 
HETATM    4  C4  UNL     1      -0.181  35.359 -14.374  1.00  0.00     0.149 C 
HETATM    5  C5  UNL     1       0.586  34.946 -15.639  1.00  0.00     0.146 C 
HETATM    6  C6  UNL     1      -0.300  34.292 -16.640  1.00  0.00     0.042 C 
HETATM    7  O2  UNL     1       1.549  34.123 -15.119  1.00  0.00    -0.379 OA
ENDROOT
BRANCH   4   8
HETATM    8  O1  UNL     1      -0.981  36.444 -14.613  1.00  0.00    -0.393 OA
ATOM      9  H1  UNL     1      -1.062  37.008 -13.853  1.00  0.00     0.210 HD
ENDBRANCH   4   8
TORSDOF 1
ENDMDL
MODEL 3
REMARK VINA RESULT: -4.207599528      1.049      1.138
REMARK  1 active torsions:
REMARK  status: ('A' for Active; 'I' for Inactive)
REMARK    1  A    between atoms: C4_4  and  O1_5 
ROOT
HETATM    1  C1  UNL     1      -2.316  37.420 -14.903  1.00  0.00     0.039 C 
HETATM    2  C2  UNL     1      -1.984  35.982 -15.149  1.00  0.00     0.120 C 
HETATM    3  C3  UNL     1      -1.743  35.659 -16.602  1.00  0.00     0.065 C 
HETATM    4  C4  UNL     1      -0.533  34.723 -16.469  1.00  0.00     0.149 C 
HETATM    5  C5  UNL     1       0.181  35.445 -15.317  1.00  0.00     0.146 C 
HETATM    6  C6  UNL     1       1.295  34.633 -14.754  1.00  0.00     0.042 C 
HETATM    7  O2  UNL     1      -0.854  35.658 -14.445  1.00  0.00    -0.379 OA
ENDROOT
BRANCH   4   8
HETATM    8  O1  UNL     1       0.242  34.710 -17.599  1.00  0.00    -0.393 OA
ATOM      9  H1  UNL     1      -0.193  35.116 -18.340  1.00  0.00     0.210 HD
ENDBRANCH   4   8
TORSDOF 1
ENDMDL
MODEL 4
REMARK VINA RESULT: -4.180072932      6.006      7.437
REMARK  1 active torsions:
REMARK  status: ('A' for Active; 'I' for Inactive)
REMARK    1  A    between atoms: C4_4  and  O1_5 
ROOT
HETATM    1  C1  UNL     1       6.589  37.762 -13.826  1.00  0.00     0.039 C 
HETATM    2  C2  UNL     1       5.536  38.054 -14.849  1.00  0.00     0.120 C 
HETATM    3  C3  UNL     1       6.088  38.283 -16.233  1.00  0.00     0.065 C 
HETATM    4  C4  UNL     1       5.052  37.512 -17.064  1.00  0.00     0.149 C 
HETATM    5  C5  UNL     1       4.819  36.341 -16.097  1.00  0.00     0.146 C 
HETATM    6  C6  UNL     1       3.647  35.514 -16.494  1.00  0.00     0.042 C 
HETATM    7  O2  UNL     1       4.664  36.998 -14.905  1.00  0.00    -0.379 OA
ENDROOT
BRANCH   4   8
HETATM    8  O1  UNL     1       5.563  37.073 -18.256  1.00  0.00    -0.393 OA
ATOM      9  H1  UNL     1       6.499  37.221 -18.325  1.00  0.00     0.210 HD
ENDBRANCH   4   8
TORSDOF 1
ENDMDL
MODEL 5
REMARK VINA RESULT: -4.160925701      1.276      3.567
REMARK  1 active torsions:
REMARK  status: ('A' for Active; 'I' for Inactive)
REMARK    1  A    between atoms: C4_4  and  O1_5 
ROOT
HETATM    1  C1  UNL     1       0.893  34.425 -17.113  1.00  0.00     0.039 C 
HETATM    2  C2  UNL     1      -0.272  34.447 -16.175  1.00  0.00     0.120 C 
HETATM    3  C3  UNL     1      -0.149  35.482 -15.086  1.00  0.00     0.065 C 
HETATM    4  C4  UNL     1      -1.590  36.012 -15.058  1.00  0.00     0.149 C 
HETATM    5  C5  UNL     1      -1.875  35.957 -16.567  1.00  0.00     0.146 C 
HETATM    6  C6  UNL     1      -3.317  36.170 -16.870  1.00  0.00     0.042 C 
HETATM    7  O2  UNL     1      -1.414  34.707 -16.886  1.00  0.00    -0.379 OA
ENDROOT
BRANCH   4   8
HETATM    8  O1  UNL     1      -1.663  37.297 -14.590  1.00  0.00    -0.393 OA
ATOM      9  H1  UNL     1      -1.146  37.424 -13.803  1.00  0.00     0.210 HD
ENDBRANCH   4   8
TORSDOF 1
ENDMDL
