MODEL 1
REMARK VINA RESULT: -6.777214983      0.000      0.000
REMARK  12 active torsions:
REMARK  status: ('A' for Active; 'I' for Inactive)
REMARK    1  A    between atoms: C2_2  and  C3_3 
REMARK    2  A    between atoms: C3_3  and  C4_4 
REMARK    3  A    between atoms: C5_5  and  C6_6 
REMARK    4  A    between atoms: C6_6  and  C7_7 
REMARK    5  A    between atoms: C8_8  and  C9_9 
REMARK    6  A    between atoms: C9_9  and  C10_10 
REMARK    7  A    between atoms: C10_10  and  C11_11 
REMARK    8  A    between atoms: C11_11  and  C12_12 
REMARK    9  A    between atoms: C12_12  and  C13_13 
REMARK   10  A    between atoms: C13_13  and  C14_14 
REMARK   11  A    between atoms: C14_14  and  C15_15 
REMARK   12  A    between atoms: C15_15  and  O1_16 
ROOT
HETATM    1  C9  UNL     1       4.246  -0.020   7.817  1.00  0.00     0.027 C 
ENDROOT
BRANCH   1   2
HETATM    2  C8  UNL     1       4.233   0.342   6.374  1.00  0.00    -0.030 C 
HETATM    3  C7  UNL     1       5.250   0.967   5.804  1.00  0.00    -0.027 C 
BRANCH   3   4
HETATM    4  C6  UNL     1       5.245   1.333   4.357  1.00  0.00     0.053 C 
BRANCH   4   5
HETATM    5  C5  UNL     1       5.521   0.135   3.544  1.00  0.00    -0.027 C 
HETATM    6  C4  UNL     1       6.707  -0.154   3.073  1.00  0.00    -0.027 C 
BRANCH   6   7
HETATM    7  C3  UNL     1       7.940   0.633   3.257  1.00  0.00     0.053 C 
BRANCH   7   8
HETATM    8  C2  UNL     1       8.990   0.052   2.363  1.00  0.00    -0.033 C 
HETATM    9  C1  UNL     1       8.644  -0.808   1.425  1.00  0.00     0.007 C 
ENDBRANCH   7   8
ENDBRANCH   6   7
ENDBRANCH   4   5
ENDBRANCH   3   4
ENDBRANCH   1   2
BRANCH   1  10
HETATM   10  C10 UNL     1       3.177   0.822   8.565  1.00  0.00     0.004 C 
BRANCH  10  11
HETATM   11  C11 UNL     1       2.026   0.899   7.641  1.00  0.00     0.000 C 
BRANCH  11  12
HETATM   12  C12 UNL     1       0.800   0.221   8.041  1.00  0.00     0.000 C 
BRANCH  12  13
HETATM   13  C13 UNL     1       0.832  -0.931   8.945  1.00  0.00     0.002 C 
BRANCH  13  14
HETATM   14  C14 UNL     1      -0.226  -1.087   9.978  1.00  0.00     0.026 C 
BRANCH  14  15
HETATM   15  C15 UNL     1       0.290  -0.429  11.302  1.00  0.00     0.164 C 
BRANCH  15  16
HETATM   16  O1  UNL     1      -0.750  -0.574  12.210  1.00  0.00    -0.401 OA
ATOM     17  H1  UNL     1      -0.647   0.144  12.825  1.00  0.00     0.209 HD
ENDBRANCH  15  16
ENDBRANCH  14  15
ENDBRANCH  13  14
ENDBRANCH  12  13
ENDBRANCH  11  12
ENDBRANCH  10  11
ENDBRANCH   1  10
TORSDOF 12
ENDMDL
MODEL 2
REMARK VINA RESULT: -6.773772413      0.958      1.198
REMARK  12 active torsions:
REMARK  status: ('A' for Active; 'I' for Inactive)
REMARK    1  A    between atoms: C2_2  and  C3_3 
REMARK    2  A    between atoms: C3_3  and  C4_4 
REMARK    3  A    between atoms: C5_5  and  C6_6 
REMARK    4  A    between atoms: C6_6  and  C7_7 
REMARK    5  A    between atoms: C8_8  and  C9_9 
REMARK    6  A    between atoms: C9_9  and  C10_10 
REMARK    7  A    between atoms: C10_10  and  C11_11 
REMARK    8  A    between atoms: C11_11  and  C12_12 
REMARK    9  A    between atoms: C12_12  and  C13_13 
REMARK   10  A    between atoms: C13_13  and  C14_14 
REMARK   11  A    between atoms: C14_14  and  C15_15 
REMARK   12  A    between atoms: C15_15  and  O1_16 
ROOT
HETATM    1  C9  UNL     1       3.842  -0.901   7.677  1.00  0.00     0.027 C 
ENDROOT
BRANCH   1   2
HETATM    2  C8  UNL     1       3.835  -0.398   6.277  1.00  0.00    -0.030 C 
HETATM    3  C7  UNL     1       4.621   0.593   5.890  1.00  0.00    -0.027 C 
BRANCH   3   4
HETATM    4  C6  UNL     1       4.622   1.103   4.487  1.00  0.00     0.053 C 
BRANCH   4   5
HETATM    5  C5  UNL     1       5.010   0.019   3.568  1.00  0.00    -0.027 C 
HETATM    6  C4  UNL     1       6.242  -0.184   3.178  1.00  0.00    -0.027 C 
BRANCH   6   7
HETATM    7  C3  UNL     1       7.427   0.602   3.569  1.00  0.00     0.053 C 
BRANCH   7   8
HETATM    8  C2  UNL     1       8.483   0.381   2.533  1.00  0.00    -0.033 C 
HETATM    9  C1  UNL     1       8.398  -0.660   1.728  1.00  0.00     0.007 C 
ENDBRANCH   7   8
ENDBRANCH   6   7
ENDBRANCH   4   5
ENDBRANCH   3   4
ENDBRANCH   1   2
BRANCH   1  10
HETATM   10  C10 UNL     1       2.432  -1.447   8.031  1.00  0.00     0.004 C 
BRANCH  10  11
HETATM   11  C11 UNL     1       1.488  -0.395   7.599  1.00  0.00     0.000 C 
BRANCH  11  12
HETATM   12  C12 UNL     1       0.724   0.285   8.637  1.00  0.00     0.000 C 
BRANCH  12  13
HETATM   13  C13 UNL     1       1.394   0.968   9.746  1.00  0.00     0.002 C 
BRANCH  13  14
HETATM   14  C14 UNL     1       1.047   0.612  11.147  1.00  0.00     0.026 C 
BRANCH  14  15
HETATM   15  C15 UNL     1       0.145  -0.668  11.113  1.00  0.00     0.164 C 
BRANCH  15  16
HETATM   16  O1  UNL     1      -0.711  -0.541  12.198  1.00  0.00    -0.401 OA
ATOM     17  H1  UNL     1      -0.643  -1.364  12.667  1.00  0.00     0.209 HD
ENDBRANCH  15  16
ENDBRANCH  14  15
ENDBRANCH  13  14
ENDBRANCH  12  13
ENDBRANCH  11  12
ENDBRANCH  10  11
ENDBRANCH   1  10
TORSDOF 12
ENDMDL
MODEL 3
REMARK VINA RESULT: -6.746456652      1.242      1.669
REMARK  12 active torsions:
REMARK  status: ('A' for Active; 'I' for Inactive)
REMARK    1  A    between atoms: C2_2  and  C3_3 
REMARK    2  A    between atoms: C3_3  and  C4_4 
REMARK    3  A    between atoms: C5_5  and  C6_6 
REMARK    4  A    between atoms: C6_6  and  C7_7 
REMARK    5  A    between atoms: C8_8  and  C9_9 
REMARK    6  A    between atoms: C9_9  and  C10_10 
REMARK    7  A    between atoms: C10_10  and  C11_11 
REMARK    8  A    between atoms: C11_11  and  C12_12 
REMARK    9  A    between atoms: C12_12  and  C13_13 
REMARK   10  A    between atoms: C13_13  and  C14_14 
REMARK   11  A    between atoms: C14_14  and  C15_15 
REMARK   12  A    between atoms: C15_15  and  O1_16 
ROOT
HETATM    1  C9  UNL     1       3.811   0.507   8.163  1.00  0.00     0.027 C 
ENDROOT
BRANCH   1   2
HETATM    2  C8  UNL     1       4.303  -0.423   7.110  1.00  0.00    -0.030 C 
HETATM    3  C7  UNL     1       5.509  -0.299   6.582  1.00  0.00    -0.027 C 
BRANCH   3   4
HETATM    4  C6  UNL     1       6.011  -1.227   5.526  1.00  0.00     0.053 C 
BRANCH   4   5
HETATM    5  C5  UNL     1       5.297  -0.971   4.263  1.00  0.00    -0.027 C 
HETATM    6  C4  UNL     1       5.701  -0.099   3.375  1.00  0.00    -0.027 C 
BRANCH   6   7
HETATM    7  C3  UNL     1       6.898   0.757   3.468  1.00  0.00     0.053 C 
BRANCH   7   8
HETATM    8  C2  UNL     1       8.003   0.078   2.720  1.00  0.00    -0.033 C 
HETATM    9  C1  UNL     1       9.209   0.611   2.713  1.00  0.00     0.007 C 
ENDBRANCH   7   8
ENDBRANCH   6   7
ENDBRANCH   4   5
ENDBRANCH   3   4
ENDBRANCH   1   2
BRANCH   1  10
HETATM   10  C10 UNL     1       3.994  -0.155   9.555  1.00  0.00     0.004 C 
BRANCH  10  11
HETATM   11  C11 UNL     1       3.376  -1.493   9.435  1.00  0.00     0.000 C 
BRANCH  11  12
HETATM   12  C12 UNL     1       2.048  -1.671  10.008  1.00  0.00     0.000 C 
BRANCH  12  13
HETATM   13  C13 UNL     1       0.842  -1.377   9.231  1.00  0.00     0.002 C 
BRANCH  13  14
HETATM   14  C14 UNL     1      -0.291  -0.659   9.873  1.00  0.00     0.026 C 
BRANCH  14  15
HETATM   15  C15 UNL     1       0.181  -0.173  11.285  1.00  0.00     0.164 C 
BRANCH  15  16
HETATM   16  O1  UNL     1      -0.797  -0.611  12.167  1.00  0.00    -0.401 OA
ATOM     17  H1  UNL     1      -1.120   0.175  12.593  1.00  0.00     0.209 HD
ENDBRANCH  15  16
ENDBRANCH  14  15
ENDBRANCH  13  14
ENDBRANCH  12  13
ENDBRANCH  11  12
ENDBRANCH  10  11
ENDBRANCH   1  10
TORSDOF 12
ENDMDL
MODEL 4
REMARK VINA RESULT: -6.683455788      1.393      2.090
REMARK  12 active torsions:
REMARK  status: ('A' for Active; 'I' for Inactive)
REMARK    1  A    between atoms: C2_2  and  C3_3 
REMARK    2  A    between atoms: C3_3  and  C4_4 
REMARK    3  A    between atoms: C5_5  and  C6_6 
REMARK    4  A    between atoms: C6_6  and  C7_7 
REMARK    5  A    between atoms: C8_8  and  C9_9 
REMARK    6  A    between atoms: C9_9  and  C10_10 
REMARK    7  A    between atoms: C10_10  and  C11_11 
REMARK    8  A    between atoms: C11_11  and  C12_12 
REMARK    9  A    between atoms: C12_12  and  C13_13 
REMARK   10  A    between atoms: C13_13  and  C14_14 
REMARK   11  A    between atoms: C14_14  and  C15_15 
REMARK   12  A    between atoms: C15_15  and  O1_16 
ROOT
HETATM    1  C9  UNL     1       2.440   0.082   7.190  1.00  0.00     0.027 C 
ENDROOT
BRANCH   1   2
HETATM    2  C8  UNL     1       3.780  -0.386   6.745  1.00  0.00    -0.030 C 
HETATM    3  C7  UNL     1       4.825   0.425   6.711  1.00  0.00    -0.027 C 
BRANCH   3   4
HETATM    4  C6  UNL     1       6.173  -0.036   6.267  1.00  0.00     0.053 C 
BRANCH   4   5
HETATM    5  C5  UNL     1       6.036  -1.270   5.474  1.00  0.00    -0.027 C 
HETATM    6  C4  UNL     1       6.033  -1.286   4.166  1.00  0.00    -0.027 C 
BRANCH   6   7
HETATM    7  C3  UNL     1       6.162  -0.118   3.275  1.00  0.00     0.053 C 
BRANCH   7   8
HETATM    8  C2  UNL     1       7.544  -0.132   2.702  1.00  0.00    -0.033 C 
HETATM    9  C1  UNL     1       8.426   0.762   3.107  1.00  0.00     0.007 C 
ENDBRANCH   7   8
ENDBRANCH   6   7
ENDBRANCH   4   5
ENDBRANCH   3   4
ENDBRANCH   1   2
BRANCH   1  10
HETATM   10  C10 UNL     1       1.664  -1.110   7.814  1.00  0.00     0.004 C 
BRANCH  10  11
HETATM   11  C11 UNL     1       2.598  -1.717   8.786  1.00  0.00     0.000 C 
BRANCH  11  12
HETATM   12  C12 UNL     1       2.415  -1.377  10.191  1.00  0.00     0.000 C 
BRANCH  12  13
HETATM   13  C13 UNL     1       2.353   0.019  10.630  1.00  0.00     0.002 C 
BRANCH  13  14
HETATM   14  C14 UNL     1       1.162   0.504  11.376  1.00  0.00     0.026 C 
BRANCH  14  15
HETATM   15  C15 UNL     1      -0.032  -0.459  11.062  1.00  0.00     0.164 C 
BRANCH  15  16
HETATM   16  O1  UNL     1      -0.727  -0.583  12.257  1.00  0.00    -0.401 OA
ATOM     17  H1  UNL     1      -1.134  -1.440  12.222  1.00  0.00     0.209 HD
ENDBRANCH  15  16
ENDBRANCH  14  15
ENDBRANCH  13  14
ENDBRANCH  12  13
ENDBRANCH  11  12
ENDBRANCH  10  11
ENDBRANCH   1  10
TORSDOF 12
ENDMDL
MODEL 5
REMARK VINA RESULT: -6.662761188      1.119      1.490
REMARK  12 active torsions:
REMARK  status: ('A' for Active; 'I' for Inactive)
REMARK    1  A    between atoms: C2_2  and  C3_3 
REMARK    2  A    between atoms: C3_3  and  C4_4 
REMARK    3  A    between atoms: C5_5  and  C6_6 
REMARK    4  A    between atoms: C6_6  and  C7_7 
REMARK    5  A    between atoms: C8_8  and  C9_9 
REMARK    6  A    between atoms: C9_9  and  C10_10 
REMARK    7  A    between atoms: C10_10  and  C11_11 
REMARK    8  A    between atoms: C11_11  and  C12_12 
REMARK    9  A    between atoms: C12_12  and  C13_13 
REMARK   10  A    between atoms: C13_13  and  C14_14 
REMARK   11  A    between atoms: C14_14  and  C15_15 
REMARK   12  A    between atoms: C15_15  and  O1_16 
ROOT
HETATM    1  C9  UNL     1       4.381  -0.308   7.505  1.00  0.00     0.027 C 
ENDROOT
BRANCH   1   2
HETATM    2  C8  UNL     1       4.553  -0.030   6.054  1.00  0.00    -0.030 C 
HETATM    3  C7  UNL     1       5.202   1.040   5.623  1.00  0.00    -0.027 C 
BRANCH   3   4
HETATM    4  C6  UNL     1       5.380   1.326   4.170  1.00  0.00     0.053 C 
BRANCH   4   5
HETATM    5  C5  UNL     1       5.657   0.071   3.449  1.00  0.00    -0.027 C 
HETATM    6  C4  UNL     1       6.855  -0.282   3.059  1.00  0.00    -0.027 C 
BRANCH   6   7
HETATM    7  C3  UNL     1       8.102   0.478   3.257  1.00  0.00     0.053 C 
BRANCH   7   8
HETATM    8  C2  UNL     1       9.056   0.080   2.175  1.00  0.00    -0.033 C 
HETATM    9  C1  UNL     1       8.732  -0.894   1.347  1.00  0.00     0.007 C 
ENDBRANCH   7   8
ENDBRANCH   6   7
ENDBRANCH   4   5
ENDBRANCH   3   4
ENDBRANCH   1   2
BRANCH   1  10
HETATM   10  C10 UNL     1       2.932  -0.805   7.762  1.00  0.00     0.004 C 
BRANCH  10  11
HETATM   11  C11 UNL     1       3.042  -1.762   8.883  1.00  0.00     0.000 C 
BRANCH  11  12
HETATM   12  C12 UNL     1       2.468  -1.363  10.161  1.00  0.00     0.000 C 
BRANCH  12  13
HETATM   13  C13 UNL     1       2.359   0.048  10.535  1.00  0.00     0.002 C 
BRANCH  13  14
HETATM   14  C14 UNL     1       1.108   0.550  11.162  1.00  0.00     0.026 C 
BRANCH  14  15
HETATM   15  C15 UNL     1      -0.000  -0.540  10.971  1.00  0.00     0.164 C 
BRANCH  15  16
HETATM   16  O1  UNL     1      -0.700  -0.563  12.169  1.00  0.00    -0.401 OA
ATOM     17  H1  UNL     1      -1.519  -1.003  11.972  1.00  0.00     0.209 HD
ENDBRANCH  15  16
ENDBRANCH  14  15
ENDBRANCH  13  14
ENDBRANCH  12  13
ENDBRANCH  11  12
ENDBRANCH  10  11
ENDBRANCH   1  10
TORSDOF 12
ENDMDL
