MODEL 1
REMARK VINA RESULT: -6.608514291      0.000      0.000
REMARK  11 active torsions:
REMARK  status: ('A' for Active; 'I' for Inactive)
REMARK    1  A    between atoms: C2_2  and  C3_3 
REMARK    2  A    between atoms: C3_3  and  C4_4 
REMARK    3  A    between atoms: C4_4  and  N1_5 
REMARK    4  A    between atoms: N1_5  and  C5_8 
REMARK    5  A    between atoms: C5_8  and  C6_9 
REMARK    6  A    between atoms: C6_9  and  C7_10 
REMARK    7  A    between atoms: C7_10  and  C8_11 
REMARK    8  A    between atoms: C8_11  and  C9_12 
REMARK    9  A    between atoms: C9_12  and  C10_13 
REMARK   10  A    between atoms: C10_13  and  C11_14 
REMARK   11  A    between atoms: C11_14  and  C12_15 
ROOT
HETATM    1  C7  UNL     1       4.567   1.128   4.579  1.00  0.00     0.002 C 
ENDROOT
BRANCH   1   2
HETATM    2  C6  UNL     1       4.878   0.906   6.032  1.00  0.00     0.027 C 
BRANCH   2   3
HETATM    3  C5  UNL     1       3.745   0.313   6.795  1.00  0.00     0.232 C 
BRANCH   3   4
HETATM    4  N1  UNL     1       3.792   0.574   8.203  1.00  0.00    -0.075 N 
ATOM      5  H12 UNL     1       4.580   1.172   8.451  1.00  0.00     0.277 HD
ATOM      6  H11 UNL     1       4.060  -0.256   8.732  1.00  0.00     0.277 HD
BRANCH   4   7
HETATM    7  C4  UNL     1       2.544   1.119   8.659  1.00  0.00     0.236 C 
BRANCH   7   8
HETATM    8  C3  UNL     1       1.388   0.609   7.815  1.00  0.00     0.054 C 
BRANCH   8   9
HETATM    9  C2  UNL     1       0.480  -0.174   8.664  1.00  0.00    -0.035 C 
HETATM   10  C1  UNL     1       0.827  -1.331   9.180  1.00  0.00     0.007 C 
ENDBRANCH   8   9
ENDBRANCH   7   8
ENDBRANCH   4   7
ENDBRANCH   3   4
ENDBRANCH   2   3
ENDBRANCH   1   2
BRANCH   1  11
HETATM   11  C8  UNL     1       4.727  -0.141   3.789  1.00  0.00     0.000 C 
BRANCH  11  12
HETATM   12  C9  UNL     1       6.093  -0.780   4.041  1.00  0.00     0.000 C 
BRANCH  12  13
HETATM   13  C10 UNL     1       6.925  -0.536   2.798  1.00  0.00     0.000 C 
BRANCH  13  14
HETATM   14  C11 UNL     1       7.940   0.525   3.049  1.00  0.00     0.004 C 
BRANCH  14  15
HETATM   15  C12 UNL     1       9.311   0.080   2.630  1.00  0.00    -0.014 C 
HETATM   16  C13 UNL     1       9.246  -0.680   1.346  1.00  0.00     0.004 C 
HETATM   17  C14 UNL     1       9.417   0.318   0.250  1.00  0.00     0.000 C 
HETATM   18  C15 UNL     1       9.699   1.632   0.886  1.00  0.00     0.000 C 
HETATM   19  C16 UNL     1      10.090   1.355   2.304  1.00  0.00     0.004 C 
ENDBRANCH  14  15
ENDBRANCH  13  14
ENDBRANCH  12  13
ENDBRANCH  11  12
ENDBRANCH   1  11
TORSDOF 11
ENDMDL
MODEL 2
REMARK VINA RESULT: -6.581190427      1.186      1.455
REMARK  11 active torsions:
REMARK  status: ('A' for Active; 'I' for Inactive)
REMARK    1  A    between atoms: C2_2  and  C3_3 
REMARK    2  A    between atoms: C3_3  and  C4_4 
REMARK    3  A    between atoms: C4_4  and  N1_5 
REMARK    4  A    between atoms: N1_5  and  C5_8 
REMARK    5  A    between atoms: C5_8  and  C6_9 
REMARK    6  A    between atoms: C6_9  and  C7_10 
REMARK    7  A    between atoms: C7_10  and  C8_11 
REMARK    8  A    between atoms: C8_11  and  C9_12 
REMARK    9  A    between atoms: C9_12  and  C10_13 
REMARK   10  A    between atoms: C10_13  and  C11_14 
REMARK   11  A    between atoms: C11_14  and  C12_15 
ROOT
HETATM    1  C7  UNL     1       5.752  -1.306   5.491  1.00  0.00     0.002 C 
ENDROOT
BRANCH   1   2
HETATM    2  C6  UNL     1       5.811  -0.154   6.453  1.00  0.00     0.027 C 
BRANCH   2   3
HETATM    3  C5  UNL     1       4.494   0.176   7.062  1.00  0.00     0.232 C 
BRANCH   3   4
HETATM    4  N1  UNL     1       3.847  -0.938   7.690  1.00  0.00    -0.075 N 
ATOM      5  H12 UNL     1       4.274  -1.824   7.419  1.00  0.00     0.277 HD
ATOM      6  H11 UNL     1       2.914  -1.096   7.310  1.00  0.00     0.277 HD
BRANCH   4   7
HETATM    7  C4  UNL     1       3.823  -0.772   9.116  1.00  0.00     0.236 C 
BRANCH   7   8
HETATM    8  C3  UNL     1       2.786  -1.683   9.752  1.00  0.00     0.054 C 
BRANCH   8   9
HETATM    9  C2  UNL     1       1.535  -1.598   8.985  1.00  0.00    -0.035 C 
HETATM   10  C1  UNL     1       0.463  -1.005   9.460  1.00  0.00     0.007 C 
ENDBRANCH   8   9
ENDBRANCH   7   8
ENDBRANCH   4   7
ENDBRANCH   3   4
ENDBRANCH   2   3
ENDBRANCH   1   2
BRANCH   1  11
HETATM   11  C8  UNL     1       4.920  -0.966   4.287  1.00  0.00     0.000 C 
BRANCH  11  12
HETATM   12  C9  UNL     1       5.575   0.137   3.455  1.00  0.00     0.000 C 
BRANCH  12  13
HETATM   13  C10 UNL     1       6.893  -0.420   2.952  1.00  0.00     0.000 C 
BRANCH  13  14
HETATM   14  C11 UNL     1       7.961   0.615   3.030  1.00  0.00     0.004 C 
BRANCH  14  15
HETATM   15  C12 UNL     1       9.290   0.063   2.603  1.00  0.00    -0.014 C 
HETATM   16  C13 UNL     1       9.150  -0.719   1.338  1.00  0.00     0.004 C 
HETATM   17  C14 UNL     1       9.375   0.241   0.217  1.00  0.00     0.000 C 
HETATM   18  C15 UNL     1       9.761   1.544   0.818  1.00  0.00     0.000 C 
HETATM   19  C16 UNL     1      10.152   1.271   2.236  1.00  0.00     0.004 C 
ENDBRANCH  14  15
ENDBRANCH  13  14
ENDBRANCH  12  13
ENDBRANCH  11  12
ENDBRANCH   1  11
TORSDOF 11
ENDMDL
MODEL 3
REMARK VINA RESULT: -6.575903875      0.871      1.027
REMARK  11 active torsions:
REMARK  status: ('A' for Active; 'I' for Inactive)
REMARK    1  A    between atoms: C2_2  and  C3_3 
REMARK    2  A    between atoms: C3_3  and  C4_4 
REMARK    3  A    between atoms: C4_4  and  N1_5 
REMARK    4  A    between atoms: N1_5  and  C5_8 
REMARK    5  A    between atoms: C5_8  and  C6_9 
REMARK    6  A    between atoms: C6_9  and  C7_10 
REMARK    7  A    between atoms: C7_10  and  C8_11 
REMARK    8  A    between atoms: C8_11  and  C9_12 
REMARK    9  A    between atoms: C9_12  and  C10_13 
REMARK   10  A    between atoms: C10_13  and  C11_14 
REMARK   11  A    between atoms: C11_14  and  C12_15 
ROOT
HETATM    1  C7  UNL     1       4.558   1.115   4.576  1.00  0.00     0.002 C 
ENDROOT
BRANCH   1   2
HETATM    2  C6  UNL     1       5.349   0.917   5.838  1.00  0.00     0.027 C 
BRANCH   2   3
HETATM    3  C5  UNL     1       4.507   0.573   7.016  1.00  0.00     0.232 C 
BRANCH   3   4
HETATM    4  N1  UNL     1       4.102  -0.801   7.060  1.00  0.00    -0.075 N 
ATOM      5  H12 UNL     1       4.897  -1.426   7.191  1.00  0.00     0.277 HD
ATOM      6  H11 UNL     1       3.795  -1.134   6.146  1.00  0.00     0.277 HD
BRANCH   4   7
HETATM    7  C4  UNL     1       3.096  -1.000   8.066  1.00  0.00     0.236 C 
BRANCH   7   8
HETATM    8  C3  UNL     1       1.704  -0.963   7.456  1.00  0.00     0.054 C 
BRANCH   8   9
HETATM    9  C2  UNL     1       0.944   0.141   8.059  1.00  0.00    -0.035 C 
HETATM   10  C1  UNL     1       1.403   0.833   9.077  1.00  0.00     0.007 C 
ENDBRANCH   8   9
ENDBRANCH   7   8
ENDBRANCH   4   7
ENDBRANCH   3   4
ENDBRANCH   2   3
ENDBRANCH   1   2
BRANCH   1  11
HETATM   11  C8  UNL     1       4.804  -0.000   3.599  1.00  0.00     0.000 C 
BRANCH  11  12
HETATM   12  C9  UNL     1       6.092  -0.754   3.934  1.00  0.00     0.000 C 
BRANCH  12  13
HETATM   13  C10 UNL     1       7.024  -0.572   2.752  1.00  0.00     0.000 C 
BRANCH  13  14
HETATM   14  C11 UNL     1       8.046   0.470   3.048  1.00  0.00     0.004 C 
BRANCH  14  15
HETATM   15  C12 UNL     1       9.409   0.048   2.581  1.00  0.00    -0.014 C 
HETATM   16  C13 UNL     1       9.314  -0.684   1.282  1.00  0.00     0.004 C 
HETATM   17  C14 UNL     1       9.445   0.341   0.205  1.00  0.00     0.000 C 
HETATM   18  C15 UNL     1       9.733   1.643   0.863  1.00  0.00     0.000 C 
HETATM   19  C16 UNL     1      10.166   1.338   2.263  1.00  0.00     0.004 C 
ENDBRANCH  14  15
ENDBRANCH  13  14
ENDBRANCH  12  13
ENDBRANCH  11  12
ENDBRANCH   1  11
TORSDOF 11
ENDMDL
MODEL 4
REMARK VINA RESULT: -6.436893377      2.001      8.954
REMARK  11 active torsions:
REMARK  status: ('A' for Active; 'I' for Inactive)
REMARK    1  A    between atoms: C2_2  and  C3_3 
REMARK    2  A    between atoms: C3_3  and  C4_4 
REMARK    3  A    between atoms: C4_4  and  N1_5 
REMARK    4  A    between atoms: N1_5  and  C5_8 
REMARK    5  A    between atoms: C5_8  and  C6_9 
REMARK    6  A    between atoms: C6_9  and  C7_10 
REMARK    7  A    between atoms: C7_10  and  C8_11 
REMARK    8  A    between atoms: C8_11  and  C9_12 
REMARK    9  A    between atoms: C9_12  and  C10_13 
REMARK   10  A    between atoms: C10_13  and  C11_14 
REMARK   11  A    between atoms: C11_14  and  C12_15 
ROOT
HETATM    1  C7  UNL     1       6.263  -0.162   6.671  1.00  0.00     0.002 C 
ENDROOT
BRANCH   1   2
HETATM    2  C6  UNL     1       6.430   1.064   5.819  1.00  0.00     0.027 C 
BRANCH   2   3
HETATM    3  C5  UNL     1       5.579   1.056   4.598  1.00  0.00     0.232 C 
BRANCH   3   4
HETATM    4  N1  UNL     1       6.322   1.049   3.372  1.00  0.00    -0.075 N 
ATOM      5  H12 UNL     1       7.127   1.673   3.413  1.00  0.00     0.277 HD
ATOM      6  H11 UNL     1       5.811   1.508   2.618  1.00  0.00     0.277 HD
BRANCH   4   7
HETATM    7  C4  UNL     1       6.703  -0.291   3.019  1.00  0.00     0.236 C 
BRANCH   7   8
HETATM    8  C3  UNL     1       8.043  -0.303   2.303  1.00  0.00     0.054 C 
BRANCH   8   9
HETATM    9  C2  UNL     1       8.948   0.652   2.957  1.00  0.00    -0.035 C 
HETATM   10  C1  UNL     1       9.984   1.173   2.338  1.00  0.00     0.007 C 
ENDBRANCH   8   9
ENDBRANCH   7   8
ENDBRANCH   4   7
ENDBRANCH   3   4
ENDBRANCH   2   3
ENDBRANCH   1   2
BRANCH   1  11
HETATM   11  C8  UNL     1       4.814  -0.538   6.804  1.00  0.00     0.000 C 
BRANCH  11  12
HETATM   12  C9  UNL     1       4.161   0.186   7.983  1.00  0.00     0.000 C 
BRANCH  12  13
HETATM   13  C10 UNL     1       3.448  -0.870   8.803  1.00  0.00     0.000 C 
BRANCH  13  14
HETATM   14  C11 UNL     1       2.855  -0.267  10.029  1.00  0.00     0.004 C 
BRANCH  14  15
HETATM   15  C12 UNL     1       1.652   0.569   9.701  1.00  0.00    -0.014 C 
HETATM   16  C13 UNL     1       0.659  -0.226   8.919  1.00  0.00     0.004 C 
HETATM   17  C14 UNL     1      -0.258  -0.858   9.913  1.00  0.00     0.000 C 
HETATM   18  C15 UNL     1       0.118  -0.343  11.255  1.00  0.00     0.000 C 
HETATM   19  C16 UNL     1       0.967   0.869  11.035  1.00  0.00     0.004 C 
ENDBRANCH  14  15
ENDBRANCH  13  14
ENDBRANCH  12  13
ENDBRANCH  11  12
ENDBRANCH   1  11
TORSDOF 11
ENDMDL
MODEL 5
REMARK VINA RESULT: -6.381296288      1.772      8.429
REMARK  11 active torsions:
REMARK  status: ('A' for Active; 'I' for Inactive)
REMARK    1  A    between atoms: C2_2  and  C3_3 
REMARK    2  A    between atoms: C3_3  and  C4_4 
REMARK    3  A    between atoms: C4_4  and  N1_5 
REMARK    4  A    between atoms: N1_5  and  C5_8 
REMARK    5  A    between atoms: C5_8  and  C6_9 
REMARK    6  A    between atoms: C6_9  and  C7_10 
REMARK    7  A    between atoms: C7_10  and  C8_11 
REMARK    8  A    between atoms: C8_11  and  C9_12 
REMARK    9  A    between atoms: C9_12  and  C10_13 
REMARK   10  A    between atoms: C10_13  and  C11_14 
REMARK   11  A    between atoms: C11_14  and  C12_15 
ROOT
HETATM    1  C7  UNL     1       4.935   1.120   4.542  1.00  0.00     0.002 C 
ENDROOT
BRANCH   1   2
HETATM    2  C6  UNL     1       5.062  -0.107   3.685  1.00  0.00     0.027 C 
BRANCH   2   3
HETATM    3  C5  UNL     1       6.471  -0.543   3.481  1.00  0.00     0.232 C 
BRANCH   3   4
HETATM    4  N1  UNL     1       7.442   0.457   3.810  1.00  0.00    -0.075 N 
ATOM      5  H12 UNL     1       8.145   0.104   4.460  1.00  0.00     0.277 HD
ATOM      6  H11 UNL     1       7.046   1.190   4.398  1.00  0.00     0.277 HD
BRANCH   4   7
HETATM    7  C4  UNL     1       8.040   0.994   2.619  1.00  0.00     0.236 C 
BRANCH   7   8
HETATM    8  C3  UNL     1       9.550   0.827   2.646  1.00  0.00     0.054 C 
BRANCH   8   9
HETATM    9  C2  UNL     1       9.916  -0.365   1.868  1.00  0.00    -0.035 C 
HETATM   10  C1  UNL     1       9.170  -0.816   0.885  1.00  0.00     0.007 C 
ENDBRANCH   8   9
ENDBRANCH   7   8
ENDBRANCH   4   7
ENDBRANCH   3   4
ENDBRANCH   2   3
ENDBRANCH   1   2
BRANCH   1  11
HETATM   11  C8  UNL     1       4.127   0.839   5.777  1.00  0.00     0.000 C 
BRANCH  11  12
HETATM   12  C9  UNL     1       4.954   0.086   6.820  1.00  0.00     0.000 C 
BRANCH  12  13
HETATM   13  C10 UNL     1       4.091  -1.055   7.321  1.00  0.00     0.000 C 
BRANCH  13  14
HETATM   14  C11 UNL     1       2.647  -0.710   7.200  1.00  0.00     0.004 C 
BRANCH  14  15
HETATM   15  C12 UNL     1       1.855  -1.257   8.352  1.00  0.00    -0.014 C 
HETATM   16  C13 UNL     1       2.676  -1.253   9.600  1.00  0.00     0.004 C 
HETATM   17  C14 UNL     1       2.428   0.058  10.268  1.00  0.00     0.000 C 
HETATM   18  C15 UNL     1       1.382   0.766   9.484  1.00  0.00     0.000 C 
HETATM   19  C16 UNL     1       0.729  -0.255   8.606  1.00  0.00     0.004 C 
ENDBRANCH  14  15
ENDBRANCH  13  14
ENDBRANCH  12  13
ENDBRANCH  11  12
ENDBRANCH   1  11
TORSDOF 11
ENDMDL
