MODEL 1
REMARK VINA RESULT: -6.244919770      0.000      0.000
REMARK  11 active torsions:
REMARK  status: ('A' for Active; 'I' for Inactive)
REMARK    1  A    between atoms: C2_2  and  C3_3 
REMARK    2  A    between atoms: C3_3  and  C4_4 
REMARK    3  A    between atoms: C4_4  and  C5_5 
REMARK    4  A    between atoms: C6_6  and  C7_7 
REMARK    5  A    between atoms: C7_7  and  C8_8 
REMARK    6  A    between atoms: C9_9  and  C10_10 
REMARK    7  A    between atoms: C10_10  and  C11_11 
REMARK    8  A    between atoms: C11_11  and  C12_12 
REMARK    9  A    between atoms: C12_12  and  C13_13 
REMARK   10  A    between atoms: C13_13  and  C14_14 
REMARK   11  A    between atoms: C14_14  and  O1_15 
ROOT
HETATM    1  C8  UNL     1       4.219   0.507   7.167  1.00  0.00    -0.027 C 
HETATM    2  C9  UNL     1       4.143  -0.608   7.878  1.00  0.00    -0.030 C 
ENDROOT
BRANCH   1   3
HETATM    3  C7  UNL     1       4.720   0.532   5.766  1.00  0.00     0.053 C 
BRANCH   3   4
HETATM    4  C6  UNL     1       5.258  -0.771   5.364  1.00  0.00    -0.027 C 
HETATM    5  C5  UNL     1       5.811  -1.006   4.218  1.00  0.00    -0.030 C 
BRANCH   5   6
HETATM    6  C4  UNL     1       6.039  -0.103   3.075  1.00  0.00     0.027 C 
BRANCH   6   7
HETATM    7  C3  UNL     1       7.480  -0.313   2.644  1.00  0.00     0.003 C 
BRANCH   7   8
HETATM    8  C2  UNL     1       8.381   0.807   3.109  1.00  0.00    -0.004 C 
HETATM    9  C1  UNL     1       9.742   0.742   2.490  1.00  0.00     0.005 C 
ENDBRANCH   7   8
ENDBRANCH   6   7
ENDBRANCH   5   6
ENDBRANCH   3   4
ENDBRANCH   1   3
BRANCH   2  10
HETATM   10  C10 UNL     1       3.648  -0.650   9.272  1.00  0.00     0.027 C 
BRANCH  10  11
HETATM   11  C11 UNL     1       2.682  -1.835   9.458  1.00  0.00     0.004 C 
BRANCH  11  12
HETATM   12  C12 UNL     1       1.501  -1.538   8.593  1.00  0.00     0.002 C 
BRANCH  12  13
HETATM   13  C13 UNL     1       0.574  -0.475   9.052  1.00  0.00     0.026 C 
BRANCH  13  14
HETATM   14  C14 UNL     1      -0.333  -0.805  10.178  1.00  0.00     0.167 C 
BRANCH  14  15
HETATM   15  O1  UNL     1      -0.372   0.087  11.221  1.00  0.00    -0.396 OA
HETATM   16  C15 UNL     1       0.778   0.816  11.374  1.00  0.00     0.201 C 
ENDBRANCH  14  15
ENDBRANCH  13  14
ENDBRANCH  12  13
ENDBRANCH  11  12
ENDBRANCH  10  11
ENDBRANCH   2  10
TORSDOF 11
ENDMDL
MODEL 2
REMARK VINA RESULT: -6.233512437      0.911      1.102
REMARK  11 active torsions:
REMARK  status: ('A' for Active; 'I' for Inactive)
REMARK    1  A    between atoms: C2_2  and  C3_3 
REMARK    2  A    between atoms: C3_3  and  C4_4 
REMARK    3  A    between atoms: C4_4  and  C5_5 
REMARK    4  A    between atoms: C6_6  and  C7_7 
REMARK    5  A    between atoms: C7_7  and  C8_8 
REMARK    6  A    between atoms: C9_9  and  C10_10 
REMARK    7  A    between atoms: C10_10  and  C11_11 
REMARK    8  A    between atoms: C11_11  and  C12_12 
REMARK    9  A    between atoms: C12_12  and  C13_13 
REMARK   10  A    between atoms: C13_13  and  C14_14 
REMARK   11  A    between atoms: C14_14  and  O1_15 
ROOT
HETATM    1  C8  UNL     1       4.683   0.557   6.848  1.00  0.00    -0.027 C 
HETATM    2  C9  UNL     1       4.006   0.234   7.940  1.00  0.00    -0.030 C 
ENDROOT
BRANCH   1   3
HETATM    3  C7  UNL     1       5.951  -0.121   6.462  1.00  0.00     0.053 C 
BRANCH   3   4
HETATM    4  C6  UNL     1       5.696  -1.321   5.660  1.00  0.00    -0.027 C 
HETATM    5  C5  UNL     1       5.623  -1.329   4.369  1.00  0.00    -0.030 C 
BRANCH   5   6
HETATM    6  C4  UNL     1       5.763  -0.220   3.407  1.00  0.00     0.027 C 
BRANCH   6   7
HETATM    7  C3  UNL     1       7.134  -0.375   2.771  1.00  0.00     0.003 C 
BRANCH   7   8
HETATM    8  C2  UNL     1       8.041   0.792   3.086  1.00  0.00    -0.004 C 
HETATM    9  C1  UNL     1       9.465   0.530   2.708  1.00  0.00     0.005 C 
ENDBRANCH   7   8
ENDBRANCH   6   7
ENDBRANCH   5   6
ENDBRANCH   3   4
ENDBRANCH   1   3
BRANCH   2  10
HETATM   10  C10 UNL     1       2.744   0.897   8.339  1.00  0.00     0.027 C 
BRANCH  10  11
HETATM   11  C11 UNL     1       1.548   0.239   7.626  1.00  0.00     0.004 C 
BRANCH  11  12
HETATM   12  C12 UNL     1       1.458  -1.147   8.176  1.00  0.00     0.002 C 
BRANCH  12  13
HETATM   13  C13 UNL     1       0.931  -1.296   9.555  1.00  0.00     0.026 C 
BRANCH  13  14
HETATM   14  C14 UNL     1      -0.343  -0.606   9.873  1.00  0.00     0.167 C 
BRANCH  14  15
HETATM   15  O1  UNL     1      -0.420   0.012  11.096  1.00  0.00    -0.396 OA
HETATM   16  C15 UNL     1       0.726   0.666  11.464  1.00  0.00     0.201 C 
ENDBRANCH  14  15
ENDBRANCH  13  14
ENDBRANCH  12  13
ENDBRANCH  11  12
ENDBRANCH  10  11
ENDBRANCH   2  10
TORSDOF 11
ENDMDL
MODEL 3
REMARK VINA RESULT: -6.179124824      1.074      1.574
REMARK  11 active torsions:
REMARK  status: ('A' for Active; 'I' for Inactive)
REMARK    1  A    between atoms: C2_2  and  C3_3 
REMARK    2  A    between atoms: C3_3  and  C4_4 
REMARK    3  A    between atoms: C4_4  and  C5_5 
REMARK    4  A    between atoms: C6_6  and  C7_7 
REMARK    5  A    between atoms: C7_7  and  C8_8 
REMARK    6  A    between atoms: C9_9  and  C10_10 
REMARK    7  A    between atoms: C10_10  and  C11_11 
REMARK    8  A    between atoms: C11_11  and  C12_12 
REMARK    9  A    between atoms: C12_12  and  C13_13 
REMARK   10  A    between atoms: C13_13  and  C14_14 
REMARK   11  A    between atoms: C14_14  and  O1_15 
ROOT
HETATM    1  C8  UNL     1       4.869   0.583   6.701  1.00  0.00    -0.027 C 
HETATM    2  C9  UNL     1       3.601   0.238   6.869  1.00  0.00    -0.030 C 
ENDROOT
BRANCH   1   3
HETATM    3  C7  UNL     1       5.339   1.360   5.522  1.00  0.00     0.053 C 
BRANCH   3   4
HETATM    4  C6  UNL     1       4.702   0.899   4.285  1.00  0.00    -0.027 C 
HETATM    5  C5  UNL     1       5.182  -0.032   3.525  1.00  0.00    -0.030 C 
BRANCH   5   6
HETATM    6  C4  UNL     1       6.412  -0.832   3.671  1.00  0.00     0.027 C 
BRANCH   6   7
HETATM    7  C3  UNL     1       7.337  -0.405   2.545  1.00  0.00     0.003 C 
BRANCH   7   8
HETATM    8  C2  UNL     1       8.104   0.852   2.886  1.00  0.00    -0.004 C 
HETATM    9  C1  UNL     1       9.572   0.716   2.630  1.00  0.00     0.005 C 
ENDBRANCH   7   8
ENDBRANCH   6   7
ENDBRANCH   5   6
ENDBRANCH   3   4
ENDBRANCH   1   3
BRANCH   2  10
HETATM   10  C10 UNL     1       3.117  -0.535   8.035  1.00  0.00     0.027 C 
BRANCH  10  11
HETATM   11  C11 UNL     1       4.004  -0.257   9.263  1.00  0.00     0.004 C 
BRANCH  11  12
HETATM   12  C12 UNL     1       3.071  -0.145  10.423  1.00  0.00     0.002 C 
BRANCH  12  13
HETATM   13  C13 UNL     1       1.818   0.621  10.214  1.00  0.00     0.026 C 
BRANCH  13  14
HETATM   14  C14 UNL     1       0.870   0.695  11.353  1.00  0.00     0.167 C 
BRANCH  14  15
HETATM   15  O1  UNL     1      -0.363   0.122  11.167  1.00  0.00    -0.396 OA
HETATM   16  C15 UNL     1      -0.437  -0.702  10.075  1.00  0.00     0.201 C 
ENDBRANCH  14  15
ENDBRANCH  13  14
ENDBRANCH  12  13
ENDBRANCH  11  12
ENDBRANCH  10  11
ENDBRANCH   2  10
TORSDOF 11
ENDMDL
MODEL 4
REMARK VINA RESULT: -6.122294529      1.009      1.290
REMARK  11 active torsions:
REMARK  status: ('A' for Active; 'I' for Inactive)
REMARK    1  A    between atoms: C2_2  and  C3_3 
REMARK    2  A    between atoms: C3_3  and  C4_4 
REMARK    3  A    between atoms: C4_4  and  C5_5 
REMARK    4  A    between atoms: C6_6  and  C7_7 
REMARK    5  A    between atoms: C7_7  and  C8_8 
REMARK    6  A    between atoms: C9_9  and  C10_10 
REMARK    7  A    between atoms: C10_10  and  C11_11 
REMARK    8  A    between atoms: C11_11  and  C12_12 
REMARK    9  A    between atoms: C12_12  and  C13_13 
REMARK   10  A    between atoms: C13_13  and  C14_14 
REMARK   11  A    between atoms: C14_14  and  O1_15 
ROOT
HETATM    1  C8  UNL     1       4.674   0.424   6.190  1.00  0.00    -0.027 C 
HETATM    2  C9  UNL     1       3.705  -0.259   6.781  1.00  0.00    -0.030 C 
ENDROOT
BRANCH   1   3
HETATM    3  C7  UNL     1       4.555   0.944   4.801  1.00  0.00     0.053 C 
BRANCH   3   4
HETATM    4  C6  UNL     1       4.995  -0.049   3.816  1.00  0.00    -0.027 C 
HETATM    5  C5  UNL     1       6.216  -0.174   3.407  1.00  0.00    -0.030 C 
BRANCH   5   6
HETATM    6  C4  UNL     1       7.422   0.586   3.784  1.00  0.00     0.027 C 
BRANCH   6   7
HETATM    7  C3  UNL     1       8.298   0.641   2.545  1.00  0.00     0.003 C 
BRANCH   7   8
HETATM    8  C2  UNL     1       8.312  -0.674   1.800  1.00  0.00    -0.004 C 
HETATM    9  C1  UNL     1       9.076  -0.598   0.516  1.00  0.00     0.005 C 
ENDBRANCH   7   8
ENDBRANCH   6   7
ENDBRANCH   5   6
ENDBRANCH   3   4
ENDBRANCH   1   3
BRANCH   2  10
HETATM   10  C10 UNL     1       3.806  -0.784   8.161  1.00  0.00     0.027 C 
BRANCH  10  11
HETATM   11  C11 UNL     1       2.546  -1.595   8.517  1.00  0.00     0.004 C 
BRANCH  11  12
HETATM   12  C12 UNL     1       1.408  -0.890   7.856  1.00  0.00     0.002 C 
BRANCH  12  13
HETATM   13  C13 UNL     1       0.481  -0.131   8.731  1.00  0.00     0.026 C 
BRANCH  13  14
HETATM   14  C14 UNL     1      -0.178  -0.877   9.831  1.00  0.00     0.167 C 
BRANCH  14  15
HETATM   15  O1  UNL     1      -0.331  -0.212  11.022  1.00  0.00    -0.396 OA
HETATM   16  C15 UNL     1       0.752   0.547  11.380  1.00  0.00     0.201 C 
ENDBRANCH  14  15
ENDBRANCH  13  14
ENDBRANCH  12  13
ENDBRANCH  11  12
ENDBRANCH  10  11
ENDBRANCH   2  10
TORSDOF 11
ENDMDL
MODEL 5
REMARK VINA RESULT: -6.072887243      1.365      1.880
REMARK  11 active torsions:
REMARK  status: ('A' for Active; 'I' for Inactive)
REMARK    1  A    between atoms: C2_2  and  C3_3 
REMARK    2  A    between atoms: C3_3  and  C4_4 
REMARK    3  A    between atoms: C4_4  and  C5_5 
REMARK    4  A    between atoms: C6_6  and  C7_7 
REMARK    5  A    between atoms: C7_7  and  C8_8 
REMARK    6  A    between atoms: C9_9  and  C10_10 
REMARK    7  A    between atoms: C10_10  and  C11_11 
REMARK    8  A    between atoms: C11_11  and  C12_12 
REMARK    9  A    between atoms: C12_12  and  C13_13 
REMARK   10  A    between atoms: C13_13  and  C14_14 
REMARK   11  A    between atoms: C14_14  and  O1_15 
ROOT
HETATM    1  C8  UNL     1       4.364   0.772   5.682  1.00  0.00    -0.027 C 
HETATM    2  C9  UNL     1       3.848  -0.390   6.052  1.00  0.00    -0.030 C 
ENDROOT
BRANCH   1   3
HETATM    3  C7  UNL     1       4.641   1.110   4.259  1.00  0.00     0.053 C 
BRANCH   3   4
HETATM    4  C6  UNL     1       5.182  -0.041   3.529  1.00  0.00    -0.027 C 
HETATM    5  C5  UNL     1       6.443  -0.243   3.326  1.00  0.00    -0.030 C 
BRANCH   5   6
HETATM    6  C4  UNL     1       7.609   0.561   3.738  1.00  0.00     0.027 C 
BRANCH   6   7
HETATM    7  C3  UNL     1       8.593   0.512   2.582  1.00  0.00     0.003 C 
BRANCH   7   8
HETATM    8  C2  UNL     1       8.375  -0.698   1.701  1.00  0.00    -0.004 C 
HETATM    9  C1  UNL     1       9.095  -0.592   0.394  1.00  0.00     0.005 C 
ENDBRANCH   7   8
ENDBRANCH   6   7
ENDBRANCH   5   6
ENDBRANCH   3   4
ENDBRANCH   1   3
BRANCH   2  10
HETATM   10  C10 UNL     1       3.567  -0.742   7.462  1.00  0.00     0.027 C 
BRANCH  10  11
HETATM   11  C11 UNL     1       2.063  -1.013   7.653  1.00  0.00     0.004 C 
BRANCH  11  12
HETATM   12  C12 UNL     1       1.433   0.322   7.877  1.00  0.00     0.002 C 
BRANCH  12  13
HETATM   13  C13 UNL     1       1.950   1.135   9.005  1.00  0.00     0.026 C 
BRANCH  13  14
HETATM   14  C14 UNL     1       1.830   0.561  10.367  1.00  0.00     0.167 C 
BRANCH  14  15
HETATM   15  O1  UNL     1       0.612   0.691  10.986  1.00  0.00    -0.396 OA
HETATM   16  C15 UNL     1       0.002  -0.501  11.274  1.00  0.00     0.201 C 
ENDBRANCH  14  15
ENDBRANCH  13  14
ENDBRANCH  12  13
ENDBRANCH  11  12
ENDBRANCH  10  11
ENDBRANCH   2  10
TORSDOF 11
ENDMDL
