MODEL 1
REMARK VINA RESULT: -6.945717245      0.000      0.000
REMARK  10 active torsions:
REMARK  status: ('A' for Active; 'I' for Inactive)
REMARK    1  A    between atoms: C2_2  and  C3_3 
REMARK    2  A    between atoms: C3_3  and  C4_4 
REMARK    3  A    between atoms: C4_4  and  C5_5 
REMARK    4  A    between atoms: C5_5  and  C6_6 
REMARK    5  A    between atoms: C6_6  and  C7_7 
REMARK    6  A    between atoms: C7_7  and  C8_9 
REMARK    7  A    between atoms: C8_9  and  C9_10 
REMARK    8  A    between atoms: C9_10  and  O2_11 
REMARK    9  A    between atoms: C9_10  and  C10_13 
REMARK   10  A    between atoms: C10_13  and  C11_14 
ROOT
HETATM    1  C9  UNL     1       4.529   0.352   6.262  1.00  0.00     0.129 C 
ENDROOT
BRANCH   1   2
HETATM    2  C8  UNL     1       4.703   0.030   4.810  1.00  0.00     0.110 C 
BRANCH   2   3
HETATM    3  C7  UNL     1       6.136   0.060   4.455  1.00  0.00     0.129 C 
HETATM    4  O1  UNL     1       6.957  -0.447   5.183  1.00  0.00    -0.298 OA
BRANCH   3   5
HETATM    5  C6  UNL     1       6.599   0.716   3.192  1.00  0.00     0.078 C 
BRANCH   5   6
HETATM    6  C5  UNL     1       7.865  -0.045   2.797  1.00  0.00     0.007 C 
BRANCH   6   7
HETATM    7  C4  UNL     1       9.057   0.865   2.791  1.00  0.00     0.000 C 
BRANCH   7   8
HETATM    8  C3  UNL     1      10.151   0.236   1.973  1.00  0.00    -0.000 C 
BRANCH   8   9
HETATM    9  C2  UNL     1       9.615  -0.345   0.703  1.00  0.00    -0.005 C 
HETATM   10  C1  UNL     1      10.355   0.255  -0.485  1.00  0.00     0.005 C 
ENDBRANCH   8   9
ENDBRANCH   7   8
ENDBRANCH   6   7
ENDBRANCH   5   6
ENDBRANCH   3   5
ENDBRANCH   2   3
ENDBRANCH   1   2
BRANCH   1  11
HETATM   11  O2  UNL     1       5.405   1.449   6.573  1.00  0.00    -0.395 OA
ATOM     12  H2  UNL     1       5.320   1.630   7.501  1.00  0.00     0.210 HD
ENDBRANCH   1  11
BRANCH   1  13
HETATM   13  C10 UNL     1       3.126   0.797   6.557  1.00  0.00     0.070 C 
BRANCH  13  14
HETATM   14  C11 UNL     1       2.701   0.275   7.872  1.00  0.00    -0.055 A 
HETATM   15  C12 UNL     1       1.800   0.839   8.716  1.00  0.00     0.013 A 
HETATM   16  C13 UNL     1       1.462   0.285   9.946  1.00  0.00    -0.061 A 
HETATM   17  C14 UNL     1       0.469   0.936  10.841  1.00  0.00     0.048 C 
HETATM   18  C15 UNL     1       2.073  -0.888  10.318  1.00  0.00     0.013 A 
HETATM   19  C16 UNL     1       3.003  -1.501   9.483  1.00  0.00    -0.061 A 
HETATM   20  C17 UNL     1       3.673  -2.782   9.884  1.00  0.00     0.048 C 
HETATM   21  C18 UNL     1       3.310  -0.920   8.271  1.00  0.00     0.013 A 
ENDBRANCH  13  14
ENDBRANCH   1  13
TORSDOF 10
ENDMDL
MODEL 2
REMARK VINA RESULT: -6.905654256      1.403      2.373
REMARK  10 active torsions:
REMARK  status: ('A' for Active; 'I' for Inactive)
REMARK    1  A    between atoms: C2_2  and  C3_3 
REMARK    2  A    between atoms: C3_3  and  C4_4 
REMARK    3  A    between atoms: C4_4  and  C5_5 
REMARK    4  A    between atoms: C5_5  and  C6_6 
REMARK    5  A    between atoms: C6_6  and  C7_7 
REMARK    6  A    between atoms: C7_7  and  C8_9 
REMARK    7  A    between atoms: C8_9  and  C9_10 
REMARK    8  A    between atoms: C9_10  and  O2_11 
REMARK    9  A    between atoms: C9_10  and  C10_13 
REMARK   10  A    between atoms: C10_13  and  C11_14 
ROOT
HETATM    1  C9  UNL     1       5.353  -0.199   5.887  1.00  0.00     0.129 C 
ENDROOT
BRANCH   1   2
HETATM    2  C8  UNL     1       6.459   0.693   5.415  1.00  0.00     0.110 C 
BRANCH   2   3
HETATM    3  C7  UNL     1       6.672   0.510   3.966  1.00  0.00     0.129 C 
HETATM    4  O1  UNL     1       5.745   0.235   3.242  1.00  0.00    -0.298 OA
BRANCH   3   5
HETATM    5  C6  UNL     1       8.035   0.662   3.366  1.00  0.00     0.078 C 
BRANCH   5   6
HETATM    6  C5  UNL     1       8.052  -0.306   2.182  1.00  0.00     0.007 C 
BRANCH   6   7
HETATM    7  C4  UNL     1       9.431  -0.424   1.607  1.00  0.00     0.000 C 
BRANCH   7   8
HETATM    8  C3  UNL     1       9.385  -0.068   0.146  1.00  0.00    -0.000 C 
BRANCH   8   9
HETATM    9  C2  UNL     1      10.426   0.949  -0.200  1.00  0.00    -0.005 C 
HETATM   10  C1  UNL     1      11.321   0.409  -1.307  1.00  0.00     0.005 C 
ENDBRANCH   8   9
ENDBRANCH   7   8
ENDBRANCH   6   7
ENDBRANCH   5   6
ENDBRANCH   3   5
ENDBRANCH   2   3
ENDBRANCH   1   2
BRANCH   1  11
HETATM   11  O2  UNL     1       5.571  -1.502   5.318  1.00  0.00    -0.395 OA
ATOM     12  H2  UNL     1       4.821  -1.707   4.772  1.00  0.00     0.210 HD
ENDBRANCH   1  11
BRANCH   1  13
HETATM   13  C10 UNL     1       5.372  -0.350   7.380  1.00  0.00     0.070 C 
BRANCH  13  14
HETATM   14  C11 UNL     1       4.050   0.006   7.936  1.00  0.00    -0.055 A 
HETATM   15  C12 UNL     1       3.637  -0.161   9.219  1.00  0.00     0.013 A 
HETATM   16  C13 UNL     1       2.368   0.194   9.660  1.00  0.00    -0.061 A 
HETATM   17  C14 UNL     1       1.956  -0.006  11.075  1.00  0.00     0.048 C 
HETATM   18  C15 UNL     1       1.494   0.738   8.749  1.00  0.00     0.013 A 
HETATM   19  C16 UNL     1       1.875   0.926   7.423  1.00  0.00    -0.061 A 
HETATM   20  C17 UNL     1       0.925   1.520   6.425  1.00  0.00     0.048 C 
HETATM   21  C18 UNL     1       3.144   0.562   7.026  1.00  0.00     0.013 A 
ENDBRANCH  13  14
ENDBRANCH   1  13
TORSDOF 10
ENDMDL
MODEL 3
REMARK VINA RESULT: -6.877999590      1.053      1.338
REMARK  10 active torsions:
REMARK  status: ('A' for Active; 'I' for Inactive)
REMARK    1  A    between atoms: C2_2  and  C3_3 
REMARK    2  A    between atoms: C3_3  and  C4_4 
REMARK    3  A    between atoms: C4_4  and  C5_5 
REMARK    4  A    between atoms: C5_5  and  C6_6 
REMARK    5  A    between atoms: C6_6  and  C7_7 
REMARK    6  A    between atoms: C7_7  and  C8_9 
REMARK    7  A    between atoms: C8_9  and  C9_10 
REMARK    8  A    between atoms: C9_10  and  O2_11 
REMARK    9  A    between atoms: C9_10  and  C10_13 
REMARK   10  A    between atoms: C10_13  and  C11_14 
ROOT
HETATM    1  C9  UNL     1       5.371  -0.415   5.870  1.00  0.00     0.129 C 
ENDROOT
BRANCH   1   2
HETATM    2  C8  UNL     1       5.306  -0.741   4.410  1.00  0.00     0.110 C 
BRANCH   2   3
HETATM    3  C7  UNL     1       6.205   0.152   3.653  1.00  0.00     0.129 C 
HETATM    4  O1  UNL     1       6.046   1.349   3.685  1.00  0.00    -0.298 OA
BRANCH   3   5
HETATM    5  C6  UNL     1       7.326  -0.406   2.833  1.00  0.00     0.078 C 
BRANCH   5   6
HETATM    6  C5  UNL     1       8.451   0.623   2.958  1.00  0.00     0.007 C 
BRANCH   6   7
HETATM    7  C4  UNL     1       9.703   0.129   2.297  1.00  0.00     0.000 C 
BRANCH   7   8
HETATM    8  C3  UNL     1       9.352  -0.454   0.955  1.00  0.00    -0.000 C 
BRANCH   8   9
HETATM    9  C2  UNL     1       9.496   0.562  -0.133  1.00  0.00    -0.005 C 
HETATM   10  C1  UNL     1      10.958   0.666  -0.547  1.00  0.00     0.005 C 
ENDBRANCH   8   9
ENDBRANCH   7   8
ENDBRANCH   6   7
ENDBRANCH   5   6
ENDBRANCH   3   5
ENDBRANCH   2   3
ENDBRANCH   1   2
BRANCH   1  11
HETATM   11  O2  UNL     1       6.678   0.121   6.139  1.00  0.00    -0.395 OA
ATOM     12  H2  UNL     1       6.641   1.059   5.994  1.00  0.00     0.210 HD
ENDBRANCH   1  11
BRANCH   1  13
HETATM   13  C10 UNL     1       4.367   0.638   6.240  1.00  0.00     0.070 C 
BRANCH  13  14
HETATM   14  C11 UNL     1       3.414   0.095   7.230  1.00  0.00    -0.055 A 
HETATM   15  C12 UNL     1       2.142   0.517   7.448  1.00  0.00     0.013 A 
HETATM   16  C13 UNL     1       1.311  -0.045   8.410  1.00  0.00    -0.061 A 
HETATM   17  C14 UNL     1      -0.077   0.448   8.617  1.00  0.00     0.048 C 
HETATM   18  C15 UNL     1       1.805  -1.077   9.172  1.00  0.00     0.013 A 
HETATM   19  C16 UNL     1       3.104  -1.541   8.982  1.00  0.00    -0.061 A 
HETATM   20  C17 UNL     1       3.649  -2.667   9.810  1.00  0.00     0.048 C 
HETATM   21  C18 UNL     1       3.896  -0.957   8.016  1.00  0.00     0.013 A 
ENDBRANCH  13  14
ENDBRANCH   1  13
TORSDOF 10
ENDMDL
MODEL 4
REMARK VINA RESULT: -6.875120030      1.468      2.258
REMARK  10 active torsions:
REMARK  status: ('A' for Active; 'I' for Inactive)
REMARK    1  A    between atoms: C2_2  and  C3_3 
REMARK    2  A    between atoms: C3_3  and  C4_4 
REMARK    3  A    between atoms: C4_4  and  C5_5 
REMARK    4  A    between atoms: C5_5  and  C6_6 
REMARK    5  A    between atoms: C6_6  and  C7_7 
REMARK    6  A    between atoms: C7_7  and  C8_9 
REMARK    7  A    between atoms: C8_9  and  C9_10 
REMARK    8  A    between atoms: C9_10  and  O2_11 
REMARK    9  A    between atoms: C9_10  and  C10_13 
REMARK   10  A    between atoms: C10_13  and  C11_14 
ROOT
HETATM    1  C9  UNL     1       5.517  -0.353   5.824  1.00  0.00     0.129 C 
ENDROOT
BRANCH   1   2
HETATM    2  C8  UNL     1       6.658   0.505   5.372  1.00  0.00     0.110 C 
BRANCH   2   3
HETATM    3  C7  UNL     1       6.785   0.442   3.902  1.00  0.00     0.129 C 
HETATM    4  O1  UNL     1       5.815   0.231   3.214  1.00  0.00    -0.298 OA
BRANCH   3   5
HETATM    5  C6  UNL     1       8.113   0.638   3.239  1.00  0.00     0.078 C 
BRANCH   5   6
HETATM    6  C5  UNL     1       8.146  -0.403   2.118  1.00  0.00     0.007 C 
BRANCH   6   7
HETATM    7  C4  UNL     1       9.484  -0.415   1.441  1.00  0.00     0.000 C 
BRANCH   7   8
HETATM    8  C3  UNL     1       9.357   0.234   0.091  1.00  0.00    -0.000 C 
BRANCH   8   9
HETATM    9  C2  UNL     1      10.551   1.077  -0.223  1.00  0.00    -0.005 C 
HETATM   10  C1  UNL     1      11.449   0.345  -1.212  1.00  0.00     0.005 C 
ENDBRANCH   8   9
ENDBRANCH   7   8
ENDBRANCH   6   7
ENDBRANCH   5   6
ENDBRANCH   3   5
ENDBRANCH   2   3
ENDBRANCH   1   2
BRANCH   1  11
HETATM   11  O2  UNL     1       5.789  -1.699   5.399  1.00  0.00    -0.395 OA
ATOM     12  H2  UNL     1       5.630  -2.273   6.139  1.00  0.00     0.210 HD
ENDBRANCH   1  11
BRANCH   1  13
HETATM   13  C10 UNL     1       5.404  -0.367   7.321  1.00  0.00     0.070 C 
BRANCH  13  14
HETATM   14  C11 UNL     1       4.041   0.034   7.724  1.00  0.00    -0.055 A 
HETATM   15  C12 UNL     1       3.078   0.558   6.923  1.00  0.00     0.013 A 
HETATM   16  C13 UNL     1       1.818   0.918   7.386  1.00  0.00    -0.061 A 
HETATM   17  C14 UNL     1       0.793   1.490   6.474  1.00  0.00     0.048 C 
HETATM   18  C15 UNL     1       1.540   0.731   8.719  1.00  0.00     0.013 A 
HETATM   19  C16 UNL     1       2.497   0.197   9.577  1.00  0.00    -0.061 A 
HETATM   20  C17 UNL     1       2.199  -0.010  11.033  1.00  0.00     0.048 C 
HETATM   21  C18 UNL     1       3.735  -0.149   9.078  1.00  0.00     0.013 A 
ENDBRANCH  13  14
ENDBRANCH   1  13
TORSDOF 10
ENDMDL
MODEL 5
REMARK VINA RESULT: -6.862443502      0.467      1.962
REMARK  10 active torsions:
REMARK  status: ('A' for Active; 'I' for Inactive)
REMARK    1  A    between atoms: C2_2  and  C3_3 
REMARK    2  A    between atoms: C3_3  and  C4_4 
REMARK    3  A    between atoms: C4_4  and  C5_5 
REMARK    4  A    between atoms: C5_5  and  C6_6 
REMARK    5  A    between atoms: C6_6  and  C7_7 
REMARK    6  A    between atoms: C7_7  and  C8_9 
REMARK    7  A    between atoms: C8_9  and  C9_10 
REMARK    8  A    between atoms: C9_10  and  O2_11 
REMARK    9  A    between atoms: C9_10  and  C10_13 
REMARK   10  A    between atoms: C10_13  and  C11_14 
ROOT
HETATM    1  C9  UNL     1       4.560   0.327   5.949  1.00  0.00     0.129 C 
ENDROOT
BRANCH   1   2
HETATM    2  C8  UNL     1       4.587   0.554   4.470  1.00  0.00     0.110 C 
BRANCH   2   3
HETATM    3  C7  UNL     1       5.843   0.025   3.901  1.00  0.00     0.129 C 
HETATM    4  O1  UNL     1       6.162  -1.125   4.091  1.00  0.00    -0.298 OA
BRANCH   3   5
HETATM    5  C6  UNL     1       6.741   0.898   3.081  1.00  0.00     0.078 C 
BRANCH   5   6
HETATM    6  C5  UNL     1       7.890  -0.017   2.653  1.00  0.00     0.007 C 
BRANCH   6   7
HETATM    7  C4  UNL     1       9.213   0.666   2.837  1.00  0.00     0.000 C 
BRANCH   7   8
HETATM    8  C3  UNL     1      10.228   0.018   1.936  1.00  0.00    -0.000 C 
BRANCH   8   9
HETATM    9  C2  UNL     1       9.629  -0.345   0.614  1.00  0.00    -0.005 C 
HETATM   10  C1  UNL     1      10.250   0.513  -0.481  1.00  0.00     0.005 C 
ENDBRANCH   8   9
ENDBRANCH   7   8
ENDBRANCH   6   7
ENDBRANCH   5   6
ENDBRANCH   3   5
ENDBRANCH   2   3
ENDBRANCH   1   2
BRANCH   1  11
HETATM   11  O2  UNL     1       5.748   0.916   6.503  1.00  0.00    -0.395 OA
ATOM     12  H2  UNL     1       5.729   0.774   7.442  1.00  0.00     0.210 HD
ENDBRANCH   1  11
BRANCH   1  13
HETATM   13  C10 UNL     1       3.381   1.005   6.584  1.00  0.00     0.070 C 
BRANCH  13  14
HETATM   14  C11 UNL     1       3.007   0.301   7.828  1.00  0.00    -0.055 A 
HETATM   15  C12 UNL     1       3.496  -0.887   8.266  1.00  0.00     0.013 A 
HETATM   16  C13 UNL     1       3.082  -1.488   9.449  1.00  0.00    -0.061 A 
HETATM   17  C14 UNL     1       3.644  -2.792   9.893  1.00  0.00     0.048 C 
HETATM   18  C15 UNL     1       2.132  -0.845  10.205  1.00  0.00     0.013 A 
HETATM   19  C16 UNL     1       1.602   0.375   9.793  1.00  0.00    -0.061 A 
HETATM   20  C17 UNL     1       0.565   1.083  10.615  1.00  0.00     0.048 C 
HETATM   21  C18 UNL     1       2.041   0.939   8.614  1.00  0.00     0.013 A 
ENDBRANCH  13  14
ENDBRANCH   1  13
TORSDOF 10
ENDMDL
