MODEL 1
REMARK VINA RESULT: -5.778862520      0.000      0.000
REMARK  10 active torsions:
REMARK  status: ('A' for Active; 'I' for Inactive)
REMARK    1  A    between atoms: C2_2  and  C3_3 
REMARK    2  A    between atoms: C5_5  and  C6_6 
REMARK    3  A    between atoms: C6_6  and  C7_7 
REMARK    4  A    between atoms: C7_7  and  C8_8 
REMARK    5  A    between atoms: C14_14  and  O1_15 
REMARK    6  A    between atoms: O1_15  and  C15_16 
REMARK    7  A    between atoms: C15_16  and  C16_17 
REMARK    8  A    between atoms: C16_17  and  C17_18 
REMARK    9  A    between atoms: C17_18  and  C18_19 
REMARK   10  A    between atoms: C18_19  and  O2_20 
ROOT
HETATM    1  C8  UNL     1       4.800   0.432   6.031  1.00  0.00    -0.024 A 
HETATM    2  C9  UNL     1       6.162   0.298   6.150  1.00  0.00     0.010 A 
HETATM    3  C10 UNL     1       6.787  -0.055   7.312  1.00  0.00     0.001 A 
HETATM    4  C11 UNL     1       6.022  -0.288   8.412  1.00  0.00     0.009 A 
HETATM    5  C12 UNL     1       4.628  -0.156   8.320  1.00  0.00    -0.028 A 
HETATM    6  C13 UNL     1       3.909  -0.432   9.578  1.00  0.00     0.051 C 
HETATM    7  C14 UNL     1       3.981   0.199   7.159  1.00  0.00     0.081 A 
ENDROOT
BRANCH   1   8
HETATM    8  C7  UNL     1       4.293   0.752   4.687  1.00  0.00     0.045 C 
BRANCH   8   9
HETATM    9  C6  UNL     1       5.125   0.097   3.596  1.00  0.00     0.032 C 
BRANCH   9  10
HETATM   10  C5  UNL     1       6.170   1.059   3.160  1.00  0.00    -0.024 C 
HETATM   11  C3  UNL     1       7.338   0.749   2.649  1.00  0.00    -0.088 C 
HETATM   12  C4  UNL     1       8.275   1.877   2.264  1.00  0.00     0.043 C 
BRANCH  11  13
HETATM   13  C2  UNL     1       7.860  -0.610   2.397  1.00  0.00     0.029 C 
HETATM   14  C1  UNL     1       8.902  -0.653   1.288  1.00  0.00     0.010 C 
ENDBRANCH  11  13
ENDBRANCH   9  10
ENDBRANCH   8   9
ENDBRANCH   1   8
BRANCH   7  15
HETATM   15  O1  UNL     1       2.686   0.345   7.013  1.00  0.00    -0.350 OA
BRANCH  15  16
HETATM   16  C15 UNL     1       1.435   0.186   7.373  1.00  0.00     0.176 C 
BRANCH  16  17
HETATM   17  C16 UNL     1       0.769   0.652   8.600  1.00  0.00     0.029 C 
BRANCH  17  18
HETATM   18  C17 UNL     1       0.250  -0.382   9.548  1.00  0.00     0.028 C 
BRANCH  18  19
HETATM   19  C18 UNL     1       0.425   0.046  11.003  1.00  0.00     0.164 C 
BRANCH  19  20
HETATM   20  O2  UNL     1      -0.561  -0.473  11.824  1.00  0.00    -0.401 OA
ATOM     21  H2  UNL     1      -0.200  -0.943  12.566  1.00  0.00     0.209 HD
ENDBRANCH  19  20
ENDBRANCH  18  19
ENDBRANCH  17  18
ENDBRANCH  16  17
ENDBRANCH  15  16
ENDBRANCH   7  15
TORSDOF 10
ENDMDL
MODEL 2
REMARK VINA RESULT: -5.753869973      0.577      1.035
REMARK  10 active torsions:
REMARK  status: ('A' for Active; 'I' for Inactive)
REMARK    1  A    between atoms: C2_2  and  C3_3 
REMARK    2  A    between atoms: C5_5  and  C6_6 
REMARK    3  A    between atoms: C6_6  and  C7_7 
REMARK    4  A    between atoms: C7_7  and  C8_8 
REMARK    5  A    between atoms: C14_14  and  O1_15 
REMARK    6  A    between atoms: O1_15  and  C15_16 
REMARK    7  A    between atoms: C15_16  and  C16_17 
REMARK    8  A    between atoms: C16_17  and  C17_18 
REMARK    9  A    between atoms: C17_18  and  C18_19 
REMARK   10  A    between atoms: C18_19  and  O2_20 
ROOT
HETATM    1  C8  UNL     1       4.774   0.320   6.137  1.00  0.00    -0.024 A 
HETATM    2  C9  UNL     1       6.135   0.308   6.328  1.00  0.00     0.010 A 
HETATM    3  C10 UNL     1       6.727  -0.017   7.516  1.00  0.00     0.001 A 
HETATM    4  C11 UNL     1       5.930  -0.348   8.566  1.00  0.00     0.009 A 
HETATM    5  C12 UNL     1       4.536  -0.342   8.400  1.00  0.00    -0.028 A 
HETATM    6  C13 UNL     1       3.780  -0.715   9.611  1.00  0.00     0.051 C 
HETATM    7  C14 UNL     1       3.922  -0.016   7.213  1.00  0.00     0.081 A 
ENDROOT
BRANCH   1   8
HETATM    8  C7  UNL     1       4.313   0.628   4.774  1.00  0.00     0.045 C 
BRANCH   8   9
HETATM    9  C6  UNL     1       5.379   1.343   3.961  1.00  0.00     0.032 C 
BRANCH   9  10
HETATM   10  C5  UNL     1       6.130   0.330   3.176  1.00  0.00    -0.024 C 
HETATM   11  C3  UNL     1       7.413   0.363   2.902  1.00  0.00    -0.088 C 
HETATM   12  C4  UNL     1       8.000  -0.768   2.080  1.00  0.00     0.043 C 
BRANCH  11  13
HETATM   13  C2  UNL     1       8.378   1.403   3.312  1.00  0.00     0.029 C 
HETATM   14  C1  UNL     1       9.725   1.277   2.613  1.00  0.00     0.010 C 
ENDBRANCH  11  13
ENDBRANCH   9  10
ENDBRANCH   8   9
ENDBRANCH   1   8
BRANCH   7  15
HETATM   15  O1  UNL     1       2.629   0.015   6.999  1.00  0.00    -0.350 OA
BRANCH  15  16
HETATM   16  C15 UNL     1       1.378   0.179   7.360  1.00  0.00     0.176 C 
BRANCH  16  17
HETATM   17  C16 UNL     1       0.853   0.683   8.640  1.00  0.00     0.029 C 
BRANCH  17  18
HETATM   18  C17 UNL     1       0.200  -0.298   9.560  1.00  0.00     0.028 C 
BRANCH  18  19
HETATM   19  C18 UNL     1       0.392   0.086  11.025  1.00  0.00     0.164 C 
BRANCH  19  20
HETATM   20  O2  UNL     1      -0.561  -0.488  11.847  1.00  0.00    -0.401 OA
ATOM     21  H2  UNL     1      -0.529  -1.438  11.826  1.00  0.00     0.209 HD
ENDBRANCH  19  20
ENDBRANCH  18  19
ENDBRANCH  17  18
ENDBRANCH  16  17
ENDBRANCH  15  16
ENDBRANCH   7  15
TORSDOF 10
ENDMDL
MODEL 3
REMARK VINA RESULT: -5.436931201      1.227      1.260
REMARK  10 active torsions:
REMARK  status: ('A' for Active; 'I' for Inactive)
REMARK    1  A    between atoms: C2_2  and  C3_3 
REMARK    2  A    between atoms: C5_5  and  C6_6 
REMARK    3  A    between atoms: C6_6  and  C7_7 
REMARK    4  A    between atoms: C7_7  and  C8_8 
REMARK    5  A    between atoms: C14_14  and  O1_15 
REMARK    6  A    between atoms: O1_15  and  C15_16 
REMARK    7  A    between atoms: C15_16  and  C16_17 
REMARK    8  A    between atoms: C16_17  and  C17_18 
REMARK    9  A    between atoms: C17_18  and  C18_19 
REMARK   10  A    between atoms: C18_19  and  O2_20 
ROOT
HETATM    1  C8  UNL     1       4.654  -0.104   5.723  1.00  0.00    -0.024 A 
HETATM    2  C9  UNL     1       5.575  -1.073   5.406  1.00  0.00     0.010 A 
HETATM    3  C10 UNL     1       5.704  -2.246   6.094  1.00  0.00     0.001 A 
HETATM    4  C11 UNL     1       4.878  -2.470   7.150  1.00  0.00     0.009 A 
HETATM    5  C12 UNL     1       3.929  -1.496   7.499  1.00  0.00    -0.028 A 
HETATM    6  C13 UNL     1       3.094  -1.852   8.662  1.00  0.00     0.051 C 
HETATM    7  C14 UNL     1       3.785  -0.309   6.819  1.00  0.00     0.081 A 
ENDROOT
BRANCH   1   8
HETATM    8  C7  UNL     1       4.608   1.066   4.832  1.00  0.00     0.045 C 
BRANCH   8   9
HETATM    9  C6  UNL     1       5.273   0.786   3.494  1.00  0.00     0.032 C 
BRANCH   9  10
HETATM   10  C5  UNL     1       6.670   1.287   3.549  1.00  0.00    -0.024 C 
HETATM   11  C3  UNL     1       7.716   0.717   2.996  1.00  0.00    -0.088 C 
HETATM   12  C4  UNL     1       9.068   1.381   3.165  1.00  0.00     0.043 C 
BRANCH  11  13
HETATM   13  C2  UNL     1       7.727  -0.531   2.206  1.00  0.00     0.029 C 
HETATM   14  C1  UNL     1       8.862  -0.585   1.193  1.00  0.00     0.010 C 
ENDBRANCH  11  13
ENDBRANCH   9  10
ENDBRANCH   8   9
ENDBRANCH   1   8
BRANCH   7  15
HETATM   15  O1  UNL     1       2.925   0.640   7.100  1.00  0.00    -0.350 OA
BRANCH  15  16
HETATM   16  C15 UNL     1       1.857   1.125   7.688  1.00  0.00     0.176 C 
BRANCH  16  17
HETATM   17  C16 UNL     1       1.575   1.238   9.128  1.00  0.00     0.029 C 
BRANCH  17  18
HETATM   18  C17 UNL     1       0.551   0.318   9.712  1.00  0.00     0.028 C 
BRANCH  18  19
HETATM   19  C18 UNL     1       0.698   0.199  11.227  1.00  0.00     0.164 C 
BRANCH  19  20
HETATM   20  O2  UNL     1      -0.424  -0.351  11.820  1.00  0.00    -0.401 OA
ATOM     21  H2  UNL     1      -0.257  -0.636  12.711  1.00  0.00     0.209 HD
ENDBRANCH  19  20
ENDBRANCH  18  19
ENDBRANCH  17  18
ENDBRANCH  16  17
ENDBRANCH  15  16
ENDBRANCH   7  15
TORSDOF 10
ENDMDL
MODEL 4
REMARK VINA RESULT: -5.288279621      1.255      2.607
REMARK  10 active torsions:
REMARK  status: ('A' for Active; 'I' for Inactive)
REMARK    1  A    between atoms: C2_2  and  C3_3 
REMARK    2  A    between atoms: C5_5  and  C6_6 
REMARK    3  A    between atoms: C6_6  and  C7_7 
REMARK    4  A    between atoms: C7_7  and  C8_8 
REMARK    5  A    between atoms: C14_14  and  O1_15 
REMARK    6  A    between atoms: O1_15  and  C15_16 
REMARK    7  A    between atoms: C15_16  and  C16_17 
REMARK    8  A    between atoms: C16_17  and  C17_18 
REMARK    9  A    between atoms: C17_18  and  C18_19 
REMARK   10  A    between atoms: C18_19  and  O2_20 
ROOT
HETATM    1  C8  UNL     1       4.958   0.355   6.223  1.00  0.00    -0.024 A 
HETATM    2  C9  UNL     1       4.724   0.939   5.002  1.00  0.00     0.010 A 
HETATM    3  C10 UNL     1       3.522   1.479   4.642  1.00  0.00     0.001 A 
HETATM    4  C11 UNL     1       2.501   1.440   5.538  1.00  0.00     0.009 A 
HETATM    5  C12 UNL     1       2.711   0.847   6.794  1.00  0.00    -0.028 A 
HETATM    6  C13 UNL     1       1.530   0.863   7.676  1.00  0.00     0.051 C 
HETATM    7  C14 UNL     1       3.914   0.297   7.174  1.00  0.00     0.081 A 
ENDROOT
BRANCH   1   8
HETATM    8  C7  UNL     1       6.331  -0.115   6.467  1.00  0.00     0.045 C 
BRANCH   8   9
HETATM    9  C6  UNL     1       7.342   0.604   5.588  1.00  0.00     0.032 C 
BRANCH   9  10
HETATM   10  C5  UNL     1       7.371  -0.065   4.262  1.00  0.00    -0.024 C 
HETATM   11  C3  UNL     1       8.165   0.240   3.262  1.00  0.00    -0.088 C 
HETATM   12  C4  UNL     1       8.045  -0.561   1.980  1.00  0.00     0.043 C 
BRANCH  11  13
HETATM   13  C2  UNL     1       9.191   1.303   3.241  1.00  0.00     0.029 C 
HETATM   14  C1  UNL     1      10.163   1.171   2.076  1.00  0.00     0.010 C 
ENDBRANCH  11  13
ENDBRANCH   9  10
ENDBRANCH   8   9
ENDBRANCH   1   8
BRANCH   7  15
HETATM   15  O1  UNL     1       4.168  -0.275   8.325  1.00  0.00    -0.350 OA
BRANCH  15  16
HETATM   16  C15 UNL     1       3.881  -0.621   9.558  1.00  0.00     0.176 C 
BRANCH  16  17
HETATM   17  C16 UNL     1       2.648  -1.240  10.072  1.00  0.00     0.029 C 
BRANCH  17  18
HETATM   18  C17 UNL     1       1.766  -0.412  10.952  1.00  0.00     0.028 C 
BRANCH  18  19
HETATM   19  C18 UNL     1       0.304  -0.840  10.848  1.00  0.00     0.164 C 
BRANCH  19  20
HETATM   20  O2  UNL     1      -0.418  -0.514  11.983  1.00  0.00    -0.401 OA
ATOM     21  H2  UNL     1      -1.262  -0.949  12.010  1.00  0.00     0.209 HD
ENDBRANCH  19  20
ENDBRANCH  18  19
ENDBRANCH  17  18
ENDBRANCH  16  17
ENDBRANCH  15  16
ENDBRANCH   7  15
TORSDOF 10
ENDMDL
MODEL 5
REMARK VINA RESULT: -5.224575285      1.228      2.467
REMARK  10 active torsions:
REMARK  status: ('A' for Active; 'I' for Inactive)
REMARK    1  A    between atoms: C2_2  and  C3_3 
REMARK    2  A    between atoms: C5_5  and  C6_6 
REMARK    3  A    between atoms: C6_6  and  C7_7 
REMARK    4  A    between atoms: C7_7  and  C8_8 
REMARK    5  A    between atoms: C14_14  and  O1_15 
REMARK    6  A    between atoms: O1_15  and  C15_16 
REMARK    7  A    between atoms: C15_16  and  C16_17 
REMARK    8  A    between atoms: C16_17  and  C17_18 
REMARK    9  A    between atoms: C17_18  and  C18_19 
REMARK   10  A    between atoms: C18_19  and  O2_20 
ROOT
HETATM    1  C8  UNL     1       5.127   0.414   6.022  1.00  0.00    -0.024 A 
HETATM    2  C9  UNL     1       4.837   0.973   4.801  1.00  0.00     0.010 A 
HETATM    3  C10 UNL     1       3.624   1.520   4.489  1.00  0.00     0.001 A 
HETATM    4  C11 UNL     1       2.650   1.514   5.438  1.00  0.00     0.009 A 
HETATM    5  C12 UNL     1       2.918   0.948   6.694  1.00  0.00    -0.028 A 
HETATM    6  C13 UNL     1       1.783   1.000   7.636  1.00  0.00     0.051 C 
HETATM    7  C14 UNL     1       4.132   0.391   7.025  1.00  0.00     0.081 A 
ENDROOT
BRANCH   1   8
HETATM    8  C7  UNL     1       6.505  -0.067   6.206  1.00  0.00     0.045 C 
BRANCH   8   9
HETATM    9  C6  UNL     1       7.089  -0.624   4.918  1.00  0.00     0.032 C 
BRANCH   9  10
HETATM   10  C5  UNL     1       8.046   0.370   4.368  1.00  0.00    -0.024 C 
HETATM   11  C3  UNL     1       8.494   0.408   3.134  1.00  0.00    -0.088 C 
HETATM   12  C4  UNL     1       9.473   1.503   2.760  1.00  0.00     0.043 C 
BRANCH  11  13
HETATM   13  C2  UNL     1       8.144  -0.519   2.039  1.00  0.00     0.029 C 
HETATM   14  C1  UNL     1       9.160  -0.512   0.904  1.00  0.00     0.010 C 
ENDBRANCH  11  13
ENDBRANCH   9  10
ENDBRANCH   8   9
ENDBRANCH   1   8
BRANCH   7  15
HETATM   15  O1  UNL     1       4.438  -0.157   8.176  1.00  0.00    -0.350 OA
BRANCH  15  16
HETATM   16  C15 UNL     1       4.173  -0.566   9.394  1.00  0.00     0.176 C 
BRANCH  16  17
HETATM   17  C16 UNL     1       2.944  -1.198   9.901  1.00  0.00     0.029 C 
BRANCH  17  18
HETATM   18  C17 UNL     1       2.048  -0.380  10.775  1.00  0.00     0.028 C 
BRANCH  18  19
HETATM   19  C18 UNL     1       0.611  -0.894  10.750  1.00  0.00     0.164 C 
BRANCH  19  20
HETATM   20  O2  UNL     1       0.054  -0.952  12.015  1.00  0.00    -0.401 OA
ATOM     21  H2  UNL     1      -0.862  -0.698  12.017  1.00  0.00     0.209 HD
ENDBRANCH  19  20
ENDBRANCH  18  19
ENDBRANCH  17  18
ENDBRANCH  16  17
ENDBRANCH  15  16
ENDBRANCH   7  15
TORSDOF 10
ENDMDL
