MODEL 1
REMARK VINA RESULT: -6.481156926      0.000      0.000
REMARK  9 active torsions:
REMARK  status: ('A' for Active; 'I' for Inactive)
REMARK    1  A    between atoms: O1_2  and  C2_3 
REMARK    2  A    between atoms: C9_10  and  C10_11 
REMARK    3  A    between atoms: C10_11  and  C11_12 
REMARK    4  A    between atoms: C11_12  and  C12_13 
REMARK    5  A    between atoms: C12_13  and  C13_14 
REMARK    6  A    between atoms: C13_14  and  C14_15 
REMARK    7  A    between atoms: C14_15  and  C15_16 
REMARK    8  A    between atoms: C15_16  and  C16_17 
REMARK    9  A    between atoms: C16_17  and  O2_20 
ROOT
HETATM    1  C10 UNL     1       4.162   0.035   4.725  1.00  0.00     0.041 C 
ENDROOT
BRANCH   1   2
HETATM    2  C9  UNL     1       3.871  -0.052   6.183  1.00  0.00    -0.024 A 
HETATM    3  C2  UNL     1       4.805  -0.430   7.112  1.00  0.00     0.075 A 
HETATM    4  C3  UNL     1       4.449  -0.480   8.437  1.00  0.00     0.044 A 
HETATM    5  C4  UNL     1       3.179  -0.165   8.893  1.00  0.00    -0.053 A 
HETATM    6  C5  UNL     1       2.809  -0.225  10.328  1.00  0.00     0.049 C 
HETATM    7  C6  UNL     1       2.263   0.210   7.940  1.00  0.00    -0.055 A 
HETATM    8  C7  UNL     1       0.881   0.557   8.394  1.00  0.00     0.049 C 
HETATM    9  C8  UNL     1       2.605   0.264   6.613  1.00  0.00     0.017 A 
BRANCH   3  10
HETATM   10  O1  UNL     1       6.090  -0.756   6.715  1.00  0.00    -0.355 OA
HETATM   11  C1  UNL     1       7.147   0.183   6.870  1.00  0.00     0.210 C 
ENDBRANCH   3  10
ENDBRANCH   1   2
BRANCH   1  12
HETATM   12  C11 UNL     1       4.655   1.403   4.360  1.00  0.00     0.005 C 
BRANCH  12  13
HETATM   13  C12 UNL     1       5.978   1.386   3.658  1.00  0.00     0.000 C 
BRANCH  13  14
HETATM   14  C13 UNL     1       6.440  -0.010   3.263  1.00  0.00     0.000 C 
BRANCH  14  15
HETATM   15  C14 UNL     1       7.907  -0.133   3.091  1.00  0.00     0.003 C 
BRANCH  15  16
HETATM   16  C15 UNL     1       8.461  -0.321   1.741  1.00  0.00     0.037 C 
BRANCH  16  17
HETATM   17  C16 UNL     1       9.216   0.765   1.092  1.00  0.00     0.051 C 
HETATM   18  C17 UNL     1      10.642   0.717   1.698  1.00  0.00     0.045 C 
HETATM   19  C18 UNL     1       8.767   2.172   1.279  1.00  0.00     0.045 C 
BRANCH  17  20
HETATM   20  O2  UNL     1       9.399   0.561  -0.283  1.00  0.00    -0.391 OA
ATOM     21  H2  UNL     1       9.106   1.294  -0.810  1.00  0.00     0.210 HD
ENDBRANCH  17  20
ENDBRANCH  16  17
ENDBRANCH  15  16
ENDBRANCH  14  15
ENDBRANCH  13  14
ENDBRANCH  12  13
ENDBRANCH   1  12
TORSDOF 9
ENDMDL
MODEL 2
REMARK VINA RESULT: -6.409238792      1.342      1.656
REMARK  9 active torsions:
REMARK  status: ('A' for Active; 'I' for Inactive)
REMARK    1  A    between atoms: O1_2  and  C2_3 
REMARK    2  A    between atoms: C9_10  and  C10_11 
REMARK    3  A    between atoms: C10_11  and  C11_12 
REMARK    4  A    between atoms: C11_12  and  C12_13 
REMARK    5  A    between atoms: C12_13  and  C13_14 
REMARK    6  A    between atoms: C13_14  and  C14_15 
REMARK    7  A    between atoms: C14_15  and  C15_16 
REMARK    8  A    between atoms: C15_16  and  C16_17 
REMARK    9  A    between atoms: C16_17  and  O2_20 
ROOT
HETATM    1  C10 UNL     1       5.687   1.346   5.955  1.00  0.00     0.041 C 
ENDROOT
BRANCH   1   2
HETATM    2  C9  UNL     1       4.692   0.536   6.712  1.00  0.00    -0.024 A 
HETATM    3  C2  UNL     1       4.692  -0.835   6.719  1.00  0.00     0.075 A 
HETATM    4  C3  UNL     1       3.737  -1.500   7.449  1.00  0.00     0.044 A 
HETATM    5  C4  UNL     1       2.760  -0.852   8.188  1.00  0.00    -0.053 A 
HETATM    6  C5  UNL     1       1.735  -1.585   8.971  1.00  0.00     0.049 C 
HETATM    7  C6  UNL     1       2.785   0.521   8.162  1.00  0.00    -0.055 A 
HETATM    8  C7  UNL     1       1.745   1.256   8.948  1.00  0.00     0.049 C 
HETATM    9  C8  UNL     1       3.732   1.199   7.438  1.00  0.00     0.017 A 
BRANCH   3  10
HETATM   10  O1  UNL     1       5.643  -1.535   6.001  1.00  0.00    -0.355 OA
HETATM   11  C1  UNL     1       5.347  -2.013   4.694  1.00  0.00     0.210 C 
ENDBRANCH   3  10
ENDBRANCH   1   2
BRANCH   1  12
HETATM   12  C11 UNL     1       5.159   1.710   4.600  1.00  0.00     0.005 C 
BRANCH  12  13
HETATM   13  C12 UNL     1       5.942   1.099   3.478  1.00  0.00     0.000 C 
BRANCH  13  14
HETATM   14  C13 UNL     1       7.354   0.693   3.872  1.00  0.00     0.000 C 
BRANCH  14  15
HETATM   15  C14 UNL     1       8.060  -0.108   2.843  1.00  0.00     0.003 C 
BRANCH  15  16
HETATM   16  C15 UNL     1       9.466   0.197   2.532  1.00  0.00     0.037 C 
BRANCH  16  17
HETATM   17  C16 UNL     1       9.835   0.700   1.197  1.00  0.00     0.051 C 
HETATM   18  C17 UNL     1       9.321   2.162   1.133  1.00  0.00     0.045 C 
HETATM   19  C18 UNL     1       9.268   0.041  -0.010  1.00  0.00     0.045 C 
BRANCH  17  20
HETATM   20  O2  UNL     1      11.222   0.796   1.011  1.00  0.00    -0.391 OA
ATOM     21  H2  UNL     1      11.713   0.196   1.560  1.00  0.00     0.210 HD
ENDBRANCH  17  20
ENDBRANCH  16  17
ENDBRANCH  15  16
ENDBRANCH  14  15
ENDBRANCH  13  14
ENDBRANCH  12  13
ENDBRANCH   1  12
TORSDOF 9
ENDMDL
MODEL 3
REMARK VINA RESULT: -6.345100778      1.887      8.101
REMARK  9 active torsions:
REMARK  status: ('A' for Active; 'I' for Inactive)
REMARK    1  A    between atoms: O1_2  and  C2_3 
REMARK    2  A    between atoms: C9_10  and  C10_11 
REMARK    3  A    between atoms: C10_11  and  C11_12 
REMARK    4  A    between atoms: C11_12  and  C12_13 
REMARK    5  A    between atoms: C12_13  and  C13_14 
REMARK    6  A    between atoms: C13_14  and  C14_15 
REMARK    7  A    between atoms: C14_15  and  C15_16 
REMARK    8  A    between atoms: C15_16  and  C16_17 
REMARK    9  A    between atoms: C16_17  and  O2_20 
ROOT
HETATM    1  C10 UNL     1       6.618   1.052   5.657  1.00  0.00     0.041 C 
ENDROOT
BRANCH   1   2
HETATM    2  C9  UNL     1       7.249   0.613   4.381  1.00  0.00    -0.024 A 
HETATM    3  C2  UNL     1       6.696  -0.333   3.559  1.00  0.00     0.075 A 
HETATM    4  C3  UNL     1       7.347  -0.675   2.399  1.00  0.00     0.044 A 
HETATM    5  C4  UNL     1       8.550  -0.107   2.010  1.00  0.00    -0.053 A 
HETATM    6  C5  UNL     1       9.242  -0.487   0.754  1.00  0.00     0.049 C 
HETATM    7  C6  UNL     1       9.080   0.839   2.853  1.00  0.00    -0.055 A 
HETATM    8  C7  UNL     1      10.379   1.474   2.466  1.00  0.00     0.049 C 
HETATM    9  C8  UNL     1       8.441   1.190   4.015  1.00  0.00     0.017 A 
BRANCH   3  10
HETATM   10  O1  UNL     1       5.497  -0.934   3.896  1.00  0.00    -0.355 OA
HETATM   11  C1  UNL     1       4.264  -0.318   3.548  1.00  0.00     0.210 C 
ENDBRANCH   3  10
ENDBRANCH   1   2
BRANCH   1  12
HETATM   12  C11 UNL     1       6.599  -0.065   6.656  1.00  0.00     0.005 C 
BRANCH  12  13
HETATM   13  C12 UNL     1       5.240  -0.321   7.231  1.00  0.00     0.000 C 
BRANCH  13  14
HETATM   14  C13 UNL     1       4.278   0.846   7.062  1.00  0.00     0.000 C 
BRANCH  14  15
HETATM   15  C14 UNL     1       2.856   0.493   7.287  1.00  0.00     0.003 C 
BRANCH  15  16
HETATM   16  C15 UNL     1       2.169   0.997   8.486  1.00  0.00     0.037 C 
BRANCH  16  17
HETATM   17  C16 UNL     1       1.970   0.116   9.651  1.00  0.00     0.051 C 
HETATM   18  C17 UNL     1       1.426  -1.222   9.087  1.00  0.00     0.045 C 
HETATM   19  C18 UNL     1       0.995   0.513  10.702  1.00  0.00     0.045 C 
BRANCH  17  20
HETATM   20  O2  UNL     1       3.169  -0.222  10.294  1.00  0.00    -0.391 OA
ATOM     21  H2  UNL     1       3.827  -0.560   9.700  1.00  0.00     0.210 HD
ENDBRANCH  17  20
ENDBRANCH  16  17
ENDBRANCH  15  16
ENDBRANCH  14  15
ENDBRANCH  13  14
ENDBRANCH  12  13
ENDBRANCH   1  12
TORSDOF 9
ENDMDL
MODEL 4
REMARK VINA RESULT: -6.316855373      1.413      1.694
REMARK  9 active torsions:
REMARK  status: ('A' for Active; 'I' for Inactive)
REMARK    1  A    between atoms: O1_2  and  C2_3 
REMARK    2  A    between atoms: C9_10  and  C10_11 
REMARK    3  A    between atoms: C10_11  and  C11_12 
REMARK    4  A    between atoms: C11_12  and  C12_13 
REMARK    5  A    between atoms: C12_13  and  C13_14 
REMARK    6  A    between atoms: C13_14  and  C14_15 
REMARK    7  A    between atoms: C14_15  and  C15_16 
REMARK    8  A    between atoms: C15_16  and  C16_17 
REMARK    9  A    between atoms: C16_17  and  O2_20 
ROOT
HETATM    1  C10 UNL     1       4.885  -1.209   5.436  1.00  0.00     0.041 C 
ENDROOT
BRANCH   1   2
HETATM    2  C9  UNL     1       4.083  -0.587   6.526  1.00  0.00    -0.024 A 
HETATM    3  C2  UNL     1       4.281   0.698   6.961  1.00  0.00     0.075 A 
HETATM    4  C3  UNL     1       3.491   1.191   7.970  1.00  0.00     0.044 A 
HETATM    5  C4  UNL     1       2.491   0.451   8.582  1.00  0.00    -0.053 A 
HETATM    6  C5  UNL     1       1.646   0.998   9.671  1.00  0.00     0.049 C 
HETATM    7  C6  UNL     1       2.316  -0.832   8.125  1.00  0.00    -0.055 A 
HETATM    8  C7  UNL     1       1.246  -1.663   8.761  1.00  0.00     0.049 C 
HETATM    9  C8  UNL     1       3.097  -1.338   7.118  1.00  0.00     0.017 A 
BRANCH   3  10
HETATM   10  O1  UNL     1       5.264   1.484   6.388  1.00  0.00    -0.355 OA
HETATM   11  C1  UNL     1       6.636   1.158   6.565  1.00  0.00     0.210 C 
ENDBRANCH   3  10
ENDBRANCH   1   2
BRANCH   1  12
HETATM   12  C11 UNL     1       4.347  -0.826   4.091  1.00  0.00     0.005 C 
BRANCH  12  13
HETATM   13  C12 UNL     1       5.267   0.071   3.320  1.00  0.00     0.000 C 
BRANCH  13  14
HETATM   14  C13 UNL     1       6.713  -0.404   3.311  1.00  0.00     0.000 C 
BRANCH  14  15
HETATM   15  C14 UNL     1       7.703   0.683   3.122  1.00  0.00     0.003 C 
BRANCH  15  16
HETATM   16  C15 UNL     1       9.105   0.340   2.838  1.00  0.00     0.037 C 
BRANCH  16  17
HETATM   17  C16 UNL     1       9.697   0.670   1.530  1.00  0.00     0.051 C 
HETATM   18  C17 UNL     1       9.197   2.095   1.181  1.00  0.00     0.045 C 
HETATM   19  C18 UNL     1       9.348  -0.160   0.345  1.00  0.00     0.045 C 
BRANCH  17  20
HETATM   20  O2  UNL     1      11.095   0.777   1.571  1.00  0.00    -0.391 OA
ATOM     21  H2  UNL     1      11.458   1.206   0.806  1.00  0.00     0.210 HD
ENDBRANCH  17  20
ENDBRANCH  16  17
ENDBRANCH  15  16
ENDBRANCH  14  15
ENDBRANCH  13  14
ENDBRANCH  12  13
ENDBRANCH   1  12
TORSDOF 9
ENDMDL
MODEL 5
REMARK VINA RESULT: -6.142356984      1.348      2.381
REMARK  9 active torsions:
REMARK  status: ('A' for Active; 'I' for Inactive)
REMARK    1  A    between atoms: O1_2  and  C2_3 
REMARK    2  A    between atoms: C9_10  and  C10_11 
REMARK    3  A    between atoms: C10_11  and  C11_12 
REMARK    4  A    between atoms: C11_12  and  C12_13 
REMARK    5  A    between atoms: C12_13  and  C13_14 
REMARK    6  A    between atoms: C13_14  and  C14_15 
REMARK    7  A    between atoms: C14_15  and  C15_16 
REMARK    8  A    between atoms: C15_16  and  C16_17 
REMARK    9  A    between atoms: C16_17  and  O2_20 
ROOT
HETATM    1  C10 UNL     1       5.951  -0.514   6.596  1.00  0.00     0.041 C 
ENDROOT
BRANCH   1   2
HETATM    2  C9  UNL     1       4.587  -0.254   7.135  1.00  0.00    -0.024 A 
HETATM    3  C2  UNL     1       3.760   0.719   6.639  1.00  0.00     0.075 A 
HETATM    4  C3  UNL     1       2.516   0.887   7.196  1.00  0.00     0.044 A 
HETATM    5  C4  UNL     1       2.045   0.116   8.247  1.00  0.00    -0.053 A 
HETATM    6  C5  UNL     1       0.699   0.310   8.839  1.00  0.00     0.049 C 
HETATM    7  C6  UNL     1       2.897  -0.851   8.724  1.00  0.00    -0.055 A 
HETATM    8  C7  UNL     1       2.424  -1.704   9.859  1.00  0.00     0.049 C 
HETATM    9  C8  UNL     1       4.142  -1.030   8.177  1.00  0.00     0.017 A 
BRANCH   3  10
HETATM   10  O1  UNL     1       4.175   1.520   5.590  1.00  0.00    -0.355 OA
HETATM   11  C1  UNL     1       3.772   1.222   4.259  1.00  0.00     0.210 C 
ENDBRANCH   3  10
ENDBRANCH   1   2
BRANCH   1  12
HETATM   12  C11 UNL     1       5.916  -1.585   5.548  1.00  0.00     0.005 C 
BRANCH  12  13
HETATM   13  C12 UNL     1       6.299  -1.092   4.186  1.00  0.00     0.000 C 
BRANCH  13  14
HETATM   14  C13 UNL     1       7.181   0.147   4.214  1.00  0.00     0.000 C 
BRANCH  14  15
HETATM   15  C14 UNL     1       7.563   0.645   2.871  1.00  0.00     0.003 C 
BRANCH  15  16
HETATM   16  C15 UNL     1       8.585  -0.077   2.098  1.00  0.00     0.037 C 
BRANCH  16  17
HETATM   17  C16 UNL     1       9.531   0.665   1.246  1.00  0.00     0.051 C 
HETATM   18  C17 UNL     1       9.032   2.132   1.229  1.00  0.00     0.045 C 
HETATM   19  C18 UNL     1       9.665   0.289  -0.188  1.00  0.00     0.045 C 
BRANCH  17  20
HETATM   20  O2  UNL     1      10.823   0.728   1.786  1.00  0.00    -0.391 OA
ATOM     21  H2  UNL     1      11.384   1.351   1.340  1.00  0.00     0.210 HD
ENDBRANCH  17  20
ENDBRANCH  16  17
ENDBRANCH  15  16
ENDBRANCH  14  15
ENDBRANCH  13  14
ENDBRANCH  12  13
ENDBRANCH   1  12
TORSDOF 9
ENDMDL
