MODEL 1
REMARK VINA RESULT: -6.641864053      0.000      0.000
REMARK  6 active torsions:
REMARK  status: ('A' for Active; 'I' for Inactive)
REMARK    1  A    between atoms: C2_2  and  C3_3 
REMARK    2  A    between atoms: C3_3  and  C4_4 
REMARK    3  A    between atoms: C10_10  and  O1_11 
REMARK    4  A    between atoms: C10_10  and  C11_13 
REMARK    5  A    between atoms: C11_13  and  C12_14 
REMARK    6  A    between atoms: C12_14  and  C13_15 
ROOT
HETATM    1  C3  UNL     1       1.941  -0.387   8.652  1.00  0.00    -0.041 C 
HETATM    2  C6  UNL     1       2.670   0.627   9.507  1.00  0.00     0.009 C 
HETATM    3  C7  UNL     1       3.636   1.530   8.845  1.00  0.00     0.001 C 
HETATM    4  C8  UNL     1       4.764   0.898   8.105  1.00  0.00     0.003 C 
HETATM    5  C9  UNL     1       4.605   0.955   6.613  1.00  0.00     0.038 C 
HETATM    6  C10 UNL     1       4.283  -0.432   6.039  1.00  0.00     0.058 C 
HETATM    7  C15 UNL     1       2.893  -0.864   6.325  1.00  0.00     0.038 C 
HETATM    8  C16 UNL     1       2.026  -0.055   7.176  1.00  0.00     0.012 C 
ENDROOT
BRANCH   6   9
HETATM    9  O1  UNL     1       5.257  -1.277   6.578  1.00  0.00    -0.390 OA
ATOM     10  H1  UNL     1       4.969  -2.155   6.353  1.00  0.00     0.210 HD
ENDBRANCH   6   9
BRANCH   6  11
HETATM   11  C11 UNL     1       4.605  -0.309   4.566  1.00  0.00     0.045 C 
BRANCH  11  12
HETATM   12  C12 UNL     1       5.491   0.814   4.175  1.00  0.00     0.081 C 
BRANCH  12  13
HETATM   13  C13 UNL     1       6.830   0.227   3.835  1.00  0.00     0.123 C 
HETATM   14  C14 UNL     1       7.408   0.306   2.476  1.00  0.00     0.091 C 
HETATM   15  O2  UNL     1       7.435  -0.333   4.755  1.00  0.00    -0.298 OA
ENDBRANCH  12  13
ENDBRANCH  11  12
ENDBRANCH   6  11
BRANCH   1  16
HETATM   16  C2  UNL     1       2.310  -1.783   8.963  1.00  0.00     0.005 C 
HETATM   17  C1  UNL     1       3.504  -2.088   9.782  1.00  0.00     0.006 C 
ENDBRANCH   1  16
BRANCH   1  18
HETATM   18  C4  UNL     1       0.488  -0.180   9.009  1.00  0.00     0.005 C 
HETATM   19  C5  UNL     1      -0.065  -0.876  10.175  1.00  0.00     0.006 C 
ENDBRANCH   1  18
TORSDOF 6
ENDMDL
MODEL 2
REMARK VINA RESULT: -6.366386126      1.417      1.700
REMARK  6 active torsions:
REMARK  status: ('A' for Active; 'I' for Inactive)
REMARK    1  A    between atoms: C2_2  and  C3_3 
REMARK    2  A    between atoms: C3_3  and  C4_4 
REMARK    3  A    between atoms: C10_10  and  O1_11 
REMARK    4  A    between atoms: C10_10  and  C11_13 
REMARK    5  A    between atoms: C11_13  and  C12_14 
REMARK    6  A    between atoms: C12_14  and  C13_15 
ROOT
HETATM    1  C3  UNL     1       1.935   0.232   9.226  1.00  0.00    -0.041 C 
HETATM    2  C6  UNL     1       2.944  -0.515  10.069  1.00  0.00     0.009 C 
HETATM    3  C7  UNL     1       4.373  -0.410   9.703  1.00  0.00     0.001 C 
HETATM    4  C8  UNL     1       4.758  -0.836   8.328  1.00  0.00     0.003 C 
HETATM    5  C9  UNL     1       5.056   0.312   7.409  1.00  0.00     0.038 C 
HETATM    6  C10 UNL     1       3.946   0.484   6.362  1.00  0.00     0.058 C 
HETATM    7  C15 UNL     1       2.704   1.061   6.931  1.00  0.00     0.038 C 
HETATM    8  C16 UNL     1       2.586   1.297   8.366  1.00  0.00     0.012 C 
ENDROOT
BRANCH   6   9
HETATM    9  O1  UNL     1       3.774  -0.789   5.811  1.00  0.00    -0.390 OA
ATOM     10  H1  UNL     1       3.899  -0.668   4.877  1.00  0.00     0.210 HD
ENDBRANCH   6   9
BRANCH   6  11
HETATM   11  C11 UNL     1       4.584   1.326   5.279  1.00  0.00     0.045 C 
BRANCH  11  12
HETATM   12  C12 UNL     1       6.063   1.280   5.190  1.00  0.00     0.081 C 
BRANCH  12  13
HETATM   13  C13 UNL     1       6.412   0.521   3.943  1.00  0.00     0.123 C 
HETATM   14  C14 UNL     1       7.798   0.427   3.434  1.00  0.00     0.091 C 
HETATM   15  O2  UNL     1       5.475  -0.027   3.352  1.00  0.00    -0.298 OA
ENDBRANCH  12  13
ENDBRANCH  11  12
ENDBRANCH   6  11
BRANCH   1  16
HETATM   16  C2  UNL     1       1.030  -0.660   8.472  1.00  0.00     0.005 C 
HETATM   17  C1  UNL     1       1.406  -2.065   8.198  1.00  0.00     0.006 C 
ENDBRANCH   1  16
BRANCH   1  18
HETATM   18  C4  UNL     1       1.120   1.003  10.238  1.00  0.00     0.005 C 
HETATM   19  C5  UNL     1       0.531   0.285  11.373  1.00  0.00     0.006 C 
ENDBRANCH   1  18
TORSDOF 6
ENDMDL
MODEL 3
REMARK VINA RESULT: -6.352271464      1.439      2.526
REMARK  6 active torsions:
REMARK  status: ('A' for Active; 'I' for Inactive)
REMARK    1  A    between atoms: C2_2  and  C3_3 
REMARK    2  A    between atoms: C3_3  and  C4_4 
REMARK    3  A    between atoms: C10_10  and  O1_11 
REMARK    4  A    between atoms: C10_10  and  C11_13 
REMARK    5  A    between atoms: C11_13  and  C12_14 
REMARK    6  A    between atoms: C12_14  and  C13_15 
ROOT
HETATM    1  C3  UNL     1       2.289   0.079   9.560  1.00  0.00    -0.041 C 
HETATM    2  C6  UNL     1       2.134  -1.410   9.341  1.00  0.00     0.009 C 
HETATM    3  C7  UNL     1       3.236  -2.134   8.671  1.00  0.00     0.001 C 
HETATM    4  C8  UNL     1       3.628  -1.672   7.310  1.00  0.00     0.003 C 
HETATM    5  C9  UNL     1       4.920  -0.908   7.289  1.00  0.00     0.038 C 
HETATM    6  C10 UNL     1       4.674   0.586   7.036  1.00  0.00     0.058 C 
HETATM    7  C15 UNL     1       4.103   1.283   8.215  1.00  0.00     0.038 C 
HETATM    8  C16 UNL     1       3.727   0.532   9.408  1.00  0.00     0.012 C 
ENDROOT
BRANCH   6   9
HETATM    9  O1  UNL     1       3.852   0.628   5.907  1.00  0.00    -0.390 OA
ATOM     10  H1  UNL     1       3.022   0.965   6.222  1.00  0.00     0.210 HD
ENDBRANCH   6   9
BRANCH   6  11
HETATM   11  C11 UNL     1       6.020   1.115   6.594  1.00  0.00     0.045 C 
BRANCH  11  12
HETATM   12  C12 UNL     1       6.935   0.141   5.950  1.00  0.00     0.081 C 
BRANCH  12  13
HETATM   13  C13 UNL     1       6.942   0.440   4.479  1.00  0.00     0.123 C 
HETATM   14  C14 UNL     1       7.933  -0.153   3.555  1.00  0.00     0.091 C 
HETATM   15  O2  UNL     1       6.071   1.216   4.071  1.00  0.00    -0.298 OA
ENDBRANCH  12  13
ENDBRANCH  11  12
ENDBRANCH   6  11
BRANCH   1  16
HETATM   16  C2  UNL     1       1.334   0.886   8.773  1.00  0.00     0.005 C 
HETATM   17  C1  UNL     1       0.709   0.341   7.547  1.00  0.00     0.006 C 
ENDBRANCH   1  16
BRANCH   1  18
HETATM   18  C4  UNL     1       1.981   0.261  11.027  1.00  0.00     0.005 C 
HETATM   19  C5  UNL     1       0.708  -0.238  11.555  1.00  0.00     0.006 C 
ENDBRANCH   1  18
TORSDOF 6
ENDMDL
MODEL 4
REMARK VINA RESULT: -5.939550097      1.193      1.462
REMARK  6 active torsions:
REMARK  status: ('A' for Active; 'I' for Inactive)
REMARK    1  A    between atoms: C2_2  and  C3_3 
REMARK    2  A    between atoms: C3_3  and  C4_4 
REMARK    3  A    between atoms: C10_10  and  O1_11 
REMARK    4  A    between atoms: C10_10  and  C11_13 
REMARK    5  A    between atoms: C11_13  and  C12_14 
REMARK    6  A    between atoms: C12_14  and  C13_15 
ROOT
HETATM    1  C3  UNL     1       2.193  -0.895   8.898  1.00  0.00    -0.041 C 
HETATM    2  C6  UNL     1       1.631   0.485   8.638  1.00  0.00     0.009 C 
HETATM    3  C7  UNL     1       1.932   1.127   7.339  1.00  0.00     0.001 C 
HETATM    4  C8  UNL     1       3.368   1.317   6.989  1.00  0.00     0.003 C 
HETATM    5  C9  UNL     1       3.860   0.355   5.947  1.00  0.00     0.038 C 
HETATM    6  C10 UNL     1       4.803  -0.689   6.562  1.00  0.00     0.058 C 
HETATM    7  C15 UNL     1       4.087  -1.701   7.378  1.00  0.00     0.038 C 
HETATM    8  C16 UNL     1       2.654  -1.574   7.624  1.00  0.00     0.012 C 
ENDROOT
BRANCH   6   9
HETATM    9  O1  UNL     1       5.740   0.055   7.284  1.00  0.00    -0.390 OA
ATOM     10  H1  UNL     1       5.471  -0.031   8.192  1.00  0.00     0.210 HD
ENDBRANCH   6   9
BRANCH   6  11
HETATM   11  C11 UNL     1       5.548  -1.262   5.376  1.00  0.00     0.045 C 
BRANCH  11  12
HETATM   12  C12 UNL     1       5.504  -0.469   4.123  1.00  0.00     0.081 C 
BRANCH  12  13
HETATM   13  C13 UNL     1       6.870   0.122   3.922  1.00  0.00     0.123 C 
HETATM   14  C14 UNL     1       7.623  -0.037   2.659  1.00  0.00     0.091 C 
HETATM   15  O2  UNL     1       7.341   0.753   4.873  1.00  0.00    -0.298 OA
ENDBRANCH  12  13
ENDBRANCH  11  12
ENDBRANCH   6  11
BRANCH   1  16
HETATM   16  C2  UNL     1       3.203  -0.920   9.976  1.00  0.00     0.005 C 
HETATM   17  C1  UNL     1       3.990   0.290  10.306  1.00  0.00     0.006 C 
ENDBRANCH   1  16
BRANCH   1  18
HETATM   18  C4  UNL     1       0.991  -1.695   9.345  1.00  0.00     0.005 C 
HETATM   19  C5  UNL     1      -0.079  -1.018  10.084  1.00  0.00     0.006 C 
ENDBRANCH   1  18
TORSDOF 6
ENDMDL
MODEL 5
REMARK VINA RESULT: -5.889821515      2.512      6.223
REMARK  6 active torsions:
REMARK  status: ('A' for Active; 'I' for Inactive)
REMARK    1  A    between atoms: C2_2  and  C3_3 
REMARK    2  A    between atoms: C3_3  and  C4_4 
REMARK    3  A    between atoms: C10_10  and  O1_11 
REMARK    4  A    between atoms: C10_10  and  C11_13 
REMARK    5  A    between atoms: C11_13  and  C12_14 
REMARK    6  A    between atoms: C12_14  and  C13_15 
ROOT
HETATM    1  C3  UNL     1       5.002  -0.195   6.727  1.00  0.00    -0.041 C 
HETATM    2  C6  UNL     1       4.286   0.912   5.984  1.00  0.00     0.009 C 
HETATM    3  C7  UNL     1       3.021   1.427   6.552  1.00  0.00     0.001 C 
HETATM    4  C8  UNL     1       1.919   0.448   6.764  1.00  0.00     0.003 C 
HETATM    5  C9  UNL     1       1.716   0.080   8.204  1.00  0.00     0.038 C 
HETATM    6  C10 UNL     1       2.191  -1.354   8.480  1.00  0.00     0.058 C 
HETATM    7  C15 UNL     1       3.669  -1.477   8.497  1.00  0.00     0.038 C 
HETATM    8  C16 UNL     1       4.511  -0.335   8.154  1.00  0.00     0.012 C 
ENDROOT
BRANCH   6   9
HETATM    9  O1  UNL     1       1.574  -2.131   7.496  1.00  0.00    -0.390 OA
ATOM     10  H1  UNL     1       1.189  -1.503   6.895  1.00  0.00     0.210 HD
ENDBRANCH   6   9
BRANCH   6  11
HETATM   11  C11 UNL     1       1.522  -1.723   9.785  1.00  0.00     0.045 C 
BRANCH  11  12
HETATM   12  C12 UNL     1       0.179  -1.143  10.027  1.00  0.00     0.081 C 
BRANCH  12  13
HETATM   13  C13 UNL     1       0.244  -0.394  11.327  1.00  0.00     0.123 C 
HETATM   14  C14 UNL     1       1.322   0.573  11.631  1.00  0.00     0.091 C 
HETATM   15  O2  UNL     1      -0.655  -0.627  12.142  1.00  0.00    -0.298 OA
ENDBRANCH  12  13
ENDBRANCH  11  12
ENDBRANCH   6  11
BRANCH   1  16
HETATM   16  C2  UNL     1       5.026  -1.473   5.987  1.00  0.00     0.005 C 
HETATM   17  C1  UNL     1       5.738  -1.588   4.694  1.00  0.00     0.006 C 
ENDBRANCH   1  16
BRANCH   1  18
HETATM   18  C4  UNL     1       6.418   0.315   6.856  1.00  0.00     0.005 C 
HETATM   19  C5  UNL     1       6.788   1.566   6.187  1.00  0.00     0.006 C 
ENDBRANCH   1  18
TORSDOF 6
ENDMDL
