MODEL 1
REMARK VINA RESULT: -5.636005373      0.000      0.000
REMARK  7 active torsions:
REMARK  status: ('A' for Active; 'I' for Inactive)
REMARK    1  A    between atoms: C2_2  and  C3_3 
REMARK    2  A    between atoms: C3_3  and  C4_4 
REMARK    3  A    between atoms: C4_4  and  O1_6 
REMARK    4  A    between atoms: O1_6  and  C6_7 
REMARK    5  A    between atoms: C6_7  and  C7_8 
REMARK    6  A    between atoms: C11_12  and  O2_13 
REMARK    7  A    between atoms: C12_15  and  C13_16 
ROOT
HETATM    1  C7  UNL     1       4.411   0.319   7.179  1.00  0.00    -0.033 A 
HETATM    2  C8  UNL     1       3.406   1.046   6.577  1.00  0.00     0.019 A 
HETATM    3  C9  UNL     1       2.085   0.949   6.964  1.00  0.00    -0.028 A 
HETATM    4  C10 UNL     1       0.982   1.716   6.334  1.00  0.00     0.051 C 
HETATM    5  C11 UNL     1       1.780   0.081   7.998  1.00  0.00     0.078 A 
HETATM    6  C12 UNL     1       2.730  -0.671   8.637  1.00  0.00    -0.021 A 
HETATM    7  C16 UNL     1       4.042  -0.543   8.220  1.00  0.00     0.019 A 
ENDROOT
BRANCH   1   8
HETATM    8  C6  UNL     1       5.799   0.443   6.724  1.00  0.00     0.206 C 
BRANCH   8   9
HETATM    9  O1  UNL     1       6.012   0.721   5.412  1.00  0.00    -0.382 OA
BRANCH   9  10
HETATM   10  C4  UNL     1       6.770  -0.221   4.700  1.00  0.00     0.117 C 
HETATM   11  C5  UNL     1       5.885  -1.399   4.476  1.00  0.00     0.039 C 
BRANCH  10  12
HETATM   12  C3  UNL     1       7.232   0.437   3.451  1.00  0.00     0.031 C 
BRANCH  12  13
HETATM   13  C2  UNL     1       8.564   0.137   2.902  1.00  0.00    -0.002 C 
HETATM   14  C1  UNL     1       8.564  -0.608   1.630  1.00  0.00     0.005 C 
ENDBRANCH  12  13
ENDBRANCH  10  12
ENDBRANCH   9  10
ENDBRANCH   8   9
ENDBRANCH   1   8
BRANCH   6  15
HETATM   15  C13 UNL     1       2.430  -1.601   9.712  1.00  0.00     0.013 C 
HETATM   16  C14 UNL     1       1.888  -0.884  10.953  1.00  0.00     0.015 C 
HETATM   17  C15 UNL     1       3.587  -2.449  10.158  1.00  0.00     0.015 C 
ENDBRANCH   6  15
BRANCH   5  18
HETATM   18  O2  UNL     1       0.481  -0.031   8.400  1.00  0.00    -0.360 OA
ATOM     19  H2  UNL     1       0.149  -0.888   8.642  1.00  0.00     0.217 HD
ENDBRANCH   5  18
TORSDOF 7
ENDMDL
MODEL 2
REMARK VINA RESULT: -5.559199362      1.485      2.698
REMARK  7 active torsions:
REMARK  status: ('A' for Active; 'I' for Inactive)
REMARK    1  A    between atoms: C2_2  and  C3_3 
REMARK    2  A    between atoms: C3_3  and  C4_4 
REMARK    3  A    between atoms: C4_4  and  O1_6 
REMARK    4  A    between atoms: O1_6  and  C6_7 
REMARK    5  A    between atoms: C6_7  and  C7_8 
REMARK    6  A    between atoms: C11_12  and  O2_13 
REMARK    7  A    between atoms: C12_15  and  C13_16 
ROOT
HETATM    1  C7  UNL     1       3.530  -0.002   7.049  1.00  0.00    -0.033 A 
HETATM    2  C8  UNL     1       4.166  -1.120   7.545  1.00  0.00     0.019 A 
HETATM    3  C9  UNL     1       3.720  -1.793   8.664  1.00  0.00    -0.028 A 
HETATM    4  C10 UNL     1       4.384  -2.997   9.222  1.00  0.00     0.051 C 
HETATM    5  C11 UNL     1       2.589  -1.308   9.297  1.00  0.00     0.078 A 
HETATM    6  C12 UNL     1       1.911  -0.202   8.857  1.00  0.00    -0.021 A 
HETATM    7  C16 UNL     1       2.390   0.442   7.732  1.00  0.00     0.019 A 
ENDROOT
BRANCH   1   8
HETATM    8  C6  UNL     1       4.049   0.690   5.865  1.00  0.00     0.206 C 
BRANCH   8   9
HETATM    9  O1  UNL     1       4.911   0.012   5.064  1.00  0.00    -0.382 OA
BRANCH   9  10
HETATM   10  C4  UNL     1       6.079   0.699   4.698  1.00  0.00     0.117 C 
HETATM   11  C5  UNL     1       6.705   1.179   5.962  1.00  0.00     0.039 C 
BRANCH  10  12
HETATM   12  C3  UNL     1       6.922  -0.246   3.924  1.00  0.00     0.031 C 
BRANCH  12  13
HETATM   13  C2  UNL     1       7.592   0.195   2.689  1.00  0.00    -0.002 C 
HETATM   14  C1  UNL     1       8.975  -0.284   2.521  1.00  0.00     0.005 C 
ENDBRANCH  12  13
ENDBRANCH  10  12
ENDBRANCH   9  10
ENDBRANCH   8   9
ENDBRANCH   1   8
BRANCH   6  15
HETATM   15  C13 UNL     1       0.732   0.334   9.517  1.00  0.00     0.013 C 
HETATM   16  C14 UNL     1       1.072   0.959  10.874  1.00  0.00     0.015 C 
HETATM   17  C15 UNL     1      -0.370  -0.659   9.748  1.00  0.00     0.015 C 
ENDBRANCH   6  15
BRANCH   5  18
HETATM   18  O2  UNL     1       2.127  -1.958  10.405  1.00  0.00    -0.360 OA
ATOM     19  H2  UNL     1       2.746  -2.201  11.084  1.00  0.00     0.217 HD
ENDBRANCH   5  18
TORSDOF 7
ENDMDL
MODEL 3
REMARK VINA RESULT: -5.364997686      0.871      1.208
REMARK  7 active torsions:
REMARK  status: ('A' for Active; 'I' for Inactive)
REMARK    1  A    between atoms: C2_2  and  C3_3 
REMARK    2  A    between atoms: C3_3  and  C4_4 
REMARK    3  A    between atoms: C4_4  and  O1_6 
REMARK    4  A    between atoms: O1_6  and  C6_7 
REMARK    5  A    between atoms: C6_7  and  C7_8 
REMARK    6  A    between atoms: C11_12  and  O2_13 
REMARK    7  A    between atoms: C12_15  and  C13_16 
ROOT
HETATM    1  C7  UNL     1       4.080  -0.035   7.661  1.00  0.00    -0.033 A 
HETATM    2  C8  UNL     1       3.270   0.709   6.831  1.00  0.00     0.019 A 
HETATM    3  C9  UNL     1       1.927   0.903   7.082  1.00  0.00    -0.028 A 
HETATM    4  C10 UNL     1       1.029   1.696   6.206  1.00  0.00     0.051 C 
HETATM    5  C11 UNL     1       1.394   0.317   8.217  1.00  0.00     0.078 A 
HETATM    6  C12 UNL     1       2.144  -0.434   9.083  1.00  0.00    -0.021 A 
HETATM    7  C16 UNL     1       3.485  -0.603   8.796  1.00  0.00     0.019 A 
ENDROOT
BRANCH   1   8
HETATM    8  C6  UNL     1       5.499  -0.226   7.346  1.00  0.00     0.206 C 
BRANCH   8   9
HETATM    9  O1  UNL     1       5.989   0.388   6.237  1.00  0.00    -0.382 OA
BRANCH   9  10
HETATM   10  C4  UNL     1       6.723  -0.425   5.359  1.00  0.00     0.117 C 
HETATM   11  C5  UNL     1       5.772  -1.438   4.821  1.00  0.00     0.039 C 
BRANCH  10  12
HETATM   12  C3  UNL     1       7.313   0.463   4.326  1.00  0.00     0.031 C 
BRANCH  12  13
HETATM   13  C2  UNL     1       7.143   0.155   2.897  1.00  0.00    -0.002 C 
HETATM   14  C1  UNL     1       8.354  -0.334   2.213  1.00  0.00     0.005 C 
ENDBRANCH  12  13
ENDBRANCH  10  12
ENDBRANCH   9  10
ENDBRANCH   8   9
ENDBRANCH   1   8
BRANCH   6  15
HETATM   15  C13 UNL     1       1.601  -1.073  10.271  1.00  0.00     0.013 C 
HETATM   16  C14 UNL     1       0.351  -1.899   9.953  1.00  0.00     0.015 C 
HETATM   17  C15 UNL     1       1.243  -0.133  11.386  1.00  0.00     0.015 C 
ENDBRANCH   6  15
BRANCH   5  18
HETATM   18  O2  UNL     1       0.069   0.496   8.488  1.00  0.00    -0.360 OA
ATOM     19  H2  UNL     1      -0.485  -0.269   8.588  1.00  0.00     0.217 HD
ENDBRANCH   5  18
TORSDOF 7
ENDMDL
MODEL 4
REMARK VINA RESULT: -5.263396834      1.457      2.652
REMARK  7 active torsions:
REMARK  status: ('A' for Active; 'I' for Inactive)
REMARK    1  A    between atoms: C2_2  and  C3_3 
REMARK    2  A    between atoms: C3_3  and  C4_4 
REMARK    3  A    between atoms: C4_4  and  O1_6 
REMARK    4  A    between atoms: O1_6  and  C6_7 
REMARK    5  A    between atoms: C6_7  and  C7_8 
REMARK    6  A    between atoms: C11_12  and  O2_13 
REMARK    7  A    between atoms: C12_15  and  C13_16 
ROOT
HETATM    1  C7  UNL     1       4.248   0.265   6.656  1.00  0.00    -0.033 A 
HETATM    2  C8  UNL     1       5.069   0.077   7.747  1.00  0.00     0.019 A 
HETATM    3  C9  UNL     1       4.589   0.035   9.041  1.00  0.00    -0.028 A 
HETATM    4  C10 UNL     1       5.447  -0.163  10.234  1.00  0.00     0.051 C 
HETATM    5  C11 UNL     1       3.226   0.191   9.225  1.00  0.00     0.078 A 
HETATM    6  C12 UNL     1       2.356   0.382   8.184  1.00  0.00    -0.021 A 
HETATM    7  C16 UNL     1       2.878   0.416   6.905  1.00  0.00     0.019 A 
ENDROOT
BRANCH   1   8
HETATM    8  C6  UNL     1       4.806   0.317   5.302  1.00  0.00     0.206 C 
BRANCH   8   9
HETATM    9  O1  UNL     1       6.118   0.646   5.170  1.00  0.00    -0.382 OA
BRANCH   9  10
HETATM   10  C4  UNL     1       6.920  -0.288   4.496  1.00  0.00     0.117 C 
HETATM   11  C5  UNL     1       6.146  -1.561   4.450  1.00  0.00     0.039 C 
BRANCH  10  12
HETATM   12  C3  UNL     1       7.233   0.281   3.161  1.00  0.00     0.031 C 
BRANCH  12  13
HETATM   13  C2  UNL     1       8.208  -0.382   2.280  1.00  0.00    -0.002 C 
HETATM   14  C1  UNL     1       9.621  -0.101   2.586  1.00  0.00     0.005 C 
ENDBRANCH  12  13
ENDBRANCH  10  12
ENDBRANCH   9  10
ENDBRANCH   8   9
ENDBRANCH   1   8
BRANCH   6  15
HETATM   15  C13 UNL     1       0.924   0.566   8.356  1.00  0.00     0.013 C 
HETATM   16  C14 UNL     1       0.288  -0.597   9.124  1.00  0.00     0.015 C 
HETATM   17  C15 UNL     1       0.150   0.734   7.081  1.00  0.00     0.015 C 
ENDBRANCH   6  15
BRANCH   5  18
HETATM   18  O2  UNL     1       2.726   0.151  10.494  1.00  0.00    -0.360 OA
ATOM     19  H2  UNL     1       2.283   0.919  10.835  1.00  0.00     0.217 HD
ENDBRANCH   5  18
TORSDOF 7
ENDMDL
MODEL 5
REMARK VINA RESULT: -5.227707129      1.615      2.781
REMARK  7 active torsions:
REMARK  status: ('A' for Active; 'I' for Inactive)
REMARK    1  A    between atoms: C2_2  and  C3_3 
REMARK    2  A    between atoms: C3_3  and  C4_4 
REMARK    3  A    between atoms: C4_4  and  O1_6 
REMARK    4  A    between atoms: O1_6  and  C6_7 
REMARK    5  A    between atoms: C6_7  and  C7_8 
REMARK    6  A    between atoms: C11_12  and  O2_13 
REMARK    7  A    between atoms: C12_15  and  C13_16 
ROOT
HETATM    1  C7  UNL     1       4.015  -0.426   6.733  1.00  0.00    -0.033 A 
HETATM    2  C8  UNL     1       4.917  -0.409   7.775  1.00  0.00     0.019 A 
HETATM    3  C9  UNL     1       4.543  -0.151   9.078  1.00  0.00    -0.028 A 
HETATM    4  C10 UNL     1       5.491  -0.123  10.219  1.00  0.00     0.051 C 
HETATM    5  C11 UNL     1       3.204   0.097   9.324  1.00  0.00     0.078 A 
HETATM    6  C12 UNL     1       2.257   0.096   8.334  1.00  0.00    -0.021 A 
HETATM    7  C16 UNL     1       2.673  -0.168   7.044  1.00  0.00     0.019 A 
ENDROOT
BRANCH   1   8
HETATM    8  C6  UNL     1       4.462  -0.690   5.362  1.00  0.00     0.206 C 
BRANCH   8   9
HETATM    9  O1  UNL     1       5.794  -0.624   5.107  1.00  0.00    -0.382 OA
BRANCH   9  10
HETATM   10  C4  UNL     1       6.165   0.099   3.962  1.00  0.00     0.117 C 
HETATM   11  C5  UNL     1       5.676   1.492   4.161  1.00  0.00     0.039 C 
BRANCH  10  12
HETATM   12  C3  UNL     1       7.640  -0.014   3.829  1.00  0.00     0.031 C 
BRANCH  12  13
HETATM   13  C2  UNL     1       8.259  -0.129   2.498  1.00  0.00    -0.002 C 
HETATM   14  C1  UNL     1       8.740   1.138   1.920  1.00  0.00     0.005 C 
ENDBRANCH  12  13
ENDBRANCH  10  12
ENDBRANCH   9  10
ENDBRANCH   8   9
ENDBRANCH   1   8
BRANCH   6  15
HETATM   15  C13 UNL     1       0.849   0.371   8.569  1.00  0.00     0.013 C 
HETATM   16  C14 UNL     1       0.173  -0.748   9.366  1.00  0.00     0.015 C 
HETATM   17  C15 UNL     1       0.032   0.590   7.328  1.00  0.00     0.015 C 
ENDBRANCH   6  15
BRANCH   5  18
HETATM   18  O2  UNL     1       2.808   0.353  10.605  1.00  0.00    -0.360 OA
ATOM     19  H2  UNL     1       2.429  -0.353  11.116  1.00  0.00     0.217 HD
ENDBRANCH   5  18
TORSDOF 7
ENDMDL
