MODEL 1
REMARK VINA RESULT: -6.040563109      0.000      0.000
REMARK  7 active torsions:
REMARK  status: ('A' for Active; 'I' for Inactive)
REMARK    1  A    between atoms: C2_2  and  C3_3 
REMARK    2  A    between atoms: C3_3  and  C4_4 
REMARK    3  A    between atoms: C4_4  and  C5_5 
REMARK    4  A    between atoms: C5_5  and  C6_6 
REMARK    5  A    between atoms: C6_6  and  C7_8 
REMARK    6  A    between atoms: C12_14  and  C13_15 
REMARK    7  A    between atoms: C13_15  and  C14_16 
ROOT
HETATM    1  C7  UNL     1       3.578  -0.324   7.152  1.00  0.00     0.048 A 
HETATM    2  C8  UNL     1       4.235  -0.904   8.255  1.00  0.00     0.064 A 
HETATM    3  C9  UNL     1       3.582  -1.715   9.347  1.00  0.00     0.077 C 
HETATM    4  O2  UNL     1       5.484  -0.595   8.123  1.00  0.00    -0.319 OA
HETATM    5  C10 UNL     1       5.724   0.116   7.069  1.00  0.00     0.056 A 
HETATM    6  C11 UNL     1       7.055   0.645   6.616  1.00  0.00     0.077 C 
HETATM    7  C12 UNL     1       4.494   0.321   6.395  1.00  0.00    -0.012 A 
ENDROOT
BRANCH   1   8
HETATM    8  C6  UNL     1       2.151  -0.382   7.031  1.00  0.00     0.162 C 
HETATM    9  O1  UNL     1       1.693  -1.465   6.479  1.00  0.00    -0.292 OA
BRANCH   8  10
HETATM   10  C5  UNL     1       1.129   0.581   7.419  1.00  0.00     0.084 C 
BRANCH  10  11
HETATM   11  C4  UNL     1       0.520   0.216   8.779  1.00  0.00     0.008 C 
BRANCH  11  12
HETATM   12  C3  UNL     1       1.285   0.928   9.851  1.00  0.00     0.000 C 
BRANCH  12  13
HETATM   13  C2  UNL     1       0.942   0.475  11.235  1.00  0.00    -0.005 C 
HETATM   14  C1  UNL     1       0.532  -0.968  11.318  1.00  0.00     0.005 C 
ENDBRANCH  12  13
ENDBRANCH  11  12
ENDBRANCH  10  11
ENDBRANCH   8  10
ENDBRANCH   1   8
BRANCH   7  15
HETATM   15  C13 UNL     1       4.423   1.052   5.117  1.00  0.00     0.046 C 
BRANCH  15  16
HETATM   16  C14 UNL     1       4.764   0.322   3.883  1.00  0.00    -0.018 C 
HETATM   17  C15 UNL     1       6.157   0.441   3.374  1.00  0.00     0.010 C 
HETATM   18  C16 UNL     1       4.516  -1.194   4.083  1.00  0.00     0.010 C 
ENDBRANCH  15  16
ENDBRANCH   7  15
TORSDOF 7
ENDMDL
MODEL 2
REMARK VINA RESULT: -6.013447881      1.558      6.082
REMARK  7 active torsions:
REMARK  status: ('A' for Active; 'I' for Inactive)
REMARK    1  A    between atoms: C2_2  and  C3_3 
REMARK    2  A    between atoms: C3_3  and  C4_4 
REMARK    3  A    between atoms: C4_4  and  C5_5 
REMARK    4  A    between atoms: C5_5  and  C6_6 
REMARK    5  A    between atoms: C6_6  and  C7_8 
REMARK    6  A    between atoms: C12_14  and  C13_15 
REMARK    7  A    between atoms: C13_15  and  C14_16 
ROOT
HETATM    1  C7  UNL     1       4.739   0.170   6.440  1.00  0.00     0.048 A 
HETATM    2  C8  UNL     1       5.924  -0.216   7.097  1.00  0.00     0.064 A 
HETATM    3  C9  UNL     1       7.235  -0.553   6.431  1.00  0.00     0.077 C 
HETATM    4  O2  UNL     1       5.642  -0.215   8.360  1.00  0.00    -0.319 OA
HETATM    5  C10 UNL     1       4.418   0.124   8.608  1.00  0.00     0.056 A 
HETATM    6  C11 UNL     1       3.761   0.226   9.954  1.00  0.00     0.077 C 
HETATM    7  C12 UNL     1       3.782   0.390   7.369  1.00  0.00    -0.012 A 
ENDROOT
BRANCH   1   8
HETATM    8  C6  UNL     1       4.661   0.179   5.008  1.00  0.00     0.162 C 
HETATM    9  O1  UNL     1       3.946  -0.776   4.494  1.00  0.00    -0.292 OA
BRANCH   8  10
HETATM   10  C5  UNL     1       5.259   1.082   4.035  1.00  0.00     0.084 C 
BRANCH  10  11
HETATM   11  C4  UNL     1       6.048   0.303   2.975  1.00  0.00     0.008 C 
BRANCH  11  12
HETATM   12  C3  UNL     1       7.470   0.769   3.000  1.00  0.00     0.000 C 
BRANCH  12  13
HETATM   13  C2  UNL     1       8.465  -0.328   2.784  1.00  0.00    -0.005 C 
HETATM   14  C1  UNL     1       8.781  -0.584   1.338  1.00  0.00     0.005 C 
ENDBRANCH  12  13
ENDBRANCH  11  12
ENDBRANCH  10  11
ENDBRANCH   8  10
ENDBRANCH   1   8
BRANCH   7  15
HETATM   15  C13 UNL     1       2.385   0.857   7.299  1.00  0.00     0.046 C 
BRANCH  15  16
HETATM   16  C14 UNL     1       1.314  -0.151   7.396  1.00  0.00    -0.018 C 
HETATM   17  C15 UNL     1       1.718  -1.582   7.459  1.00  0.00     0.010 C 
HETATM   18  C16 UNL     1       0.465   0.105   8.666  1.00  0.00     0.010 C 
ENDBRANCH  15  16
ENDBRANCH   7  15
TORSDOF 7
ENDMDL
MODEL 3
REMARK VINA RESULT: -6.012964106      1.507      6.106
REMARK  7 active torsions:
REMARK  status: ('A' for Active; 'I' for Inactive)
REMARK    1  A    between atoms: C2_2  and  C3_3 
REMARK    2  A    between atoms: C3_3  and  C4_4 
REMARK    3  A    between atoms: C4_4  and  C5_5 
REMARK    4  A    between atoms: C5_5  and  C6_6 
REMARK    5  A    between atoms: C6_6  and  C7_8 
REMARK    6  A    between atoms: C12_14  and  C13_15 
REMARK    7  A    between atoms: C13_15  and  C14_16 
ROOT
HETATM    1  C7  UNL     1       4.499  -0.067   6.479  1.00  0.00     0.048 A 
HETATM    2  C8  UNL     1       5.669   0.111   7.243  1.00  0.00     0.064 A 
HETATM    3  C9  UNL     1       6.968   0.697   6.747  1.00  0.00     0.077 C 
HETATM    4  O2  UNL     1       5.386  -0.327   8.427  1.00  0.00    -0.319 OA
HETATM    5  C10 UNL     1       4.175  -0.769   8.531  1.00  0.00     0.056 A 
HETATM    6  C11 UNL     1       3.522  -1.346   9.754  1.00  0.00     0.077 C 
HETATM    7  C12 UNL     1       3.549  -0.617   7.268  1.00  0.00    -0.012 A 
ENDROOT
BRANCH   1   8
HETATM    8  C6  UNL     1       4.485   0.222   5.075  1.00  0.00     0.162 C 
HETATM    9  O1  UNL     1       4.188   1.450   4.773  1.00  0.00    -0.292 OA
BRANCH   8  10
HETATM   10  C5  UNL     1       4.743  -0.641   3.931  1.00  0.00     0.084 C 
BRANCH  10  11
HETATM   11  C4  UNL     1       6.232  -0.993   3.833  1.00  0.00     0.008 C 
BRANCH  11  12
HETATM   12  C3  UNL     1       6.933   0.097   3.084  1.00  0.00     0.000 C 
BRANCH  12  13
HETATM   13  C2  UNL     1       8.387  -0.170   2.854  1.00  0.00    -0.005 C 
HETATM   14  C1  UNL     1       8.713  -0.581   1.446  1.00  0.00     0.005 C 
ENDBRANCH  12  13
ENDBRANCH  11  12
ENDBRANCH  10  11
ENDBRANCH   8  10
ENDBRANCH   1   8
BRANCH   7  15
HETATM   15  C13 UNL     1       2.135  -0.978   7.056  1.00  0.00     0.046 C 
BRANCH  15  16
HETATM   16  C14 UNL     1       1.107   0.018   7.411  1.00  0.00    -0.018 C 
HETATM   17  C15 UNL     1       0.502  -0.069   8.767  1.00  0.00     0.010 C 
HETATM   18  C16 UNL     1       1.699   1.446   7.302  1.00  0.00     0.010 C 
ENDBRANCH  15  16
ENDBRANCH   7  15
TORSDOF 7
ENDMDL
MODEL 4
REMARK VINA RESULT: -6.007245447      1.785      6.252
REMARK  7 active torsions:
REMARK  status: ('A' for Active; 'I' for Inactive)
REMARK    1  A    between atoms: C2_2  and  C3_3 
REMARK    2  A    between atoms: C3_3  and  C4_4 
REMARK    3  A    between atoms: C4_4  and  C5_5 
REMARK    4  A    between atoms: C5_5  and  C6_6 
REMARK    5  A    between atoms: C6_6  and  C7_8 
REMARK    6  A    between atoms: C12_14  and  C13_15 
REMARK    7  A    between atoms: C13_15  and  C14_16 
ROOT
HETATM    1  C7  UNL     1       4.694   0.025   6.475  1.00  0.00     0.048 A 
HETATM    2  C8  UNL     1       5.495   1.097   6.913  1.00  0.00     0.064 A 
HETATM    3  C9  UNL     1       6.854   1.465   6.371  1.00  0.00     0.077 C 
HETATM    4  O2  UNL     1       4.823   1.677   7.855  1.00  0.00    -0.319 OA
HETATM    5  C10 UNL     1       3.681   1.115   8.086  1.00  0.00     0.056 A 
HETATM    6  C11 UNL     1       2.658   1.526   9.105  1.00  0.00     0.077 C 
HETATM    7  C12 UNL     1       3.550   0.018   7.197  1.00  0.00    -0.012 A 
ENDROOT
BRANCH   1   8
HETATM    8  C6  UNL     1       5.177  -0.904   5.496  1.00  0.00     0.162 C 
HETATM    9  O1  UNL     1       5.888  -1.880   5.973  1.00  0.00    -0.292 OA
BRANCH   8  10
HETATM   10  C5  UNL     1       5.005  -0.926   4.050  1.00  0.00     0.084 C 
BRANCH  10  11
HETATM   11  C4  UNL     1       5.848   0.167   3.380  1.00  0.00     0.008 C 
BRANCH  11  12
HETATM   12  C3  UNL     1       7.254  -0.329   3.247  1.00  0.00     0.000 C 
BRANCH  12  13
HETATM   13  C2  UNL     1       8.033   0.355   2.168  1.00  0.00    -0.005 C 
HETATM   14  C1  UNL     1       8.745  -0.589   1.243  1.00  0.00     0.005 C 
ENDBRANCH  12  13
ENDBRANCH  11  12
ENDBRANCH  10  11
ENDBRANCH   8  10
ENDBRANCH   1   8
BRANCH   7  15
HETATM   15  C13 UNL     1       2.330  -0.809   7.161  1.00  0.00     0.046 C 
BRANCH  15  16
HETATM   16  C14 UNL     1       2.188  -1.875   8.170  1.00  0.00    -0.018 C 
HETATM   17  C15 UNL     1       3.353  -2.145   9.055  1.00  0.00     0.010 C 
HETATM   18  C16 UNL     1       1.005  -1.549   9.115  1.00  0.00     0.010 C 
ENDBRANCH  15  16
ENDBRANCH   7  15
TORSDOF 7
ENDMDL
MODEL 5
REMARK VINA RESULT: -5.993868908      1.661      6.531
REMARK  7 active torsions:
REMARK  status: ('A' for Active; 'I' for Inactive)
REMARK    1  A    between atoms: C2_2  and  C3_3 
REMARK    2  A    between atoms: C3_3  and  C4_4 
REMARK    3  A    between atoms: C4_4  and  C5_5 
REMARK    4  A    between atoms: C5_5  and  C6_6 
REMARK    5  A    between atoms: C6_6  and  C7_8 
REMARK    6  A    between atoms: C12_14  and  C13_15 
REMARK    7  A    between atoms: C13_15  and  C14_16 
ROOT
HETATM    1  C7  UNL     1       4.500  -0.158   6.396  1.00  0.00     0.048 A 
HETATM    2  C8  UNL     1       4.068   0.979   5.686  1.00  0.00     0.064 A 
HETATM    3  C9  UNL     1       4.863   1.728   4.646  1.00  0.00     0.077 C 
HETATM    4  O2  UNL     1       2.872   1.228   6.114  1.00  0.00    -0.319 OA
HETATM    5  C10 UNL     1       2.471   0.392   7.016  1.00  0.00     0.056 A 
HETATM    6  C11 UNL     1       1.146   0.389   7.723  1.00  0.00     0.077 C 
HETATM    7  C12 UNL     1       3.513  -0.543   7.236  1.00  0.00    -0.012 A 
ENDROOT
BRANCH   1   8
HETATM    8  C6  UNL     1       5.836  -0.657   6.244  1.00  0.00     0.162 C 
HETATM    9  O1  UNL     1       6.720  -0.096   7.013  1.00  0.00    -0.292 OA
BRANCH   8  10
HETATM   10  C5  UNL     1       6.364  -1.688   5.361  1.00  0.00     0.084 C 
BRANCH  10  11
HETATM   11  C4  UNL     1       6.399  -1.200   3.907  1.00  0.00     0.008 C 
BRANCH  11  12
HETATM   12  C3  UNL     1       7.661  -0.424   3.694  1.00  0.00     0.000 C 
BRANCH  12  13
HETATM   13  C2  UNL     1       7.775   0.177   2.329  1.00  0.00    -0.005 C 
HETATM   14  C1  UNL     1       8.714  -0.561   1.418  1.00  0.00     0.005 C 
ENDBRANCH  12  13
ENDBRANCH  11  12
ENDBRANCH  10  11
ENDBRANCH   8  10
ENDBRANCH   1   8
BRANCH   7  15
HETATM   15  C13 UNL     1       3.358  -1.671   8.172  1.00  0.00     0.046 C 
BRANCH  15  16
HETATM   16  C14 UNL     1       3.679  -1.439   9.592  1.00  0.00    -0.018 C 
HETATM   17  C15 UNL     1       4.348  -0.159   9.947  1.00  0.00     0.010 C 
HETATM   18  C16 UNL     1       2.382  -1.488  10.438  1.00  0.00     0.010 C 
ENDBRANCH  15  16
ENDBRANCH   7  15
TORSDOF 7
ENDMDL
