MODEL 1
REMARK VINA RESULT: -6.031351662      0.000      0.000
REMARK  7 active torsions:
REMARK  status: ('A' for Active; 'I' for Inactive)
REMARK    1  A    between atoms: C2_2  and  C3_3 
REMARK    2  A    between atoms: C3_3  and  C4_4 
REMARK    3  A    between atoms: C4_4  and  C5_5 
REMARK    4  A    between atoms: C10_11  and  C11_12 
REMARK    5  A    between atoms: C11_12  and  C12_14 
REMARK    6  A    between atoms: C12_14  and  C13_15 
REMARK    7  A    between atoms: C13_15  and  C15_17 
ROOT
HETATM    1  C5  UNL     1       4.304   0.158   6.618  1.00  0.00    -0.012 A 
HETATM    2  C6  UNL     1       5.502  -0.002   7.240  1.00  0.00     0.056 A 
HETATM    3  C7  UNL     1       6.815   0.521   6.809  1.00  0.00     0.077 C 
HETATM    4  O1  UNL     1       5.375  -0.733   8.356  1.00  0.00    -0.319 OA
HETATM    5  C8  UNL     1       4.133  -1.076   8.512  1.00  0.00     0.064 A 
HETATM    6  C9  UNL     1       3.564  -1.903   9.641  1.00  0.00     0.077 C 
HETATM    7  C10 UNL     1       3.402  -0.552   7.459  1.00  0.00     0.048 A 
ENDROOT
BRANCH   7   8
HETATM    8  C11 UNL     1       1.975  -0.708   7.265  1.00  0.00     0.163 C 
HETATM    9  O2  UNL     1       1.556  -1.793   6.829  1.00  0.00    -0.292 OA
BRANCH   8  10
HETATM   10  C12 UNL     1       1.084   0.407   7.591  1.00  0.00     0.088 C 
BRANCH  10  11
HETATM   11  C13 UNL     1       0.694   0.478   9.042  1.00  0.00    -0.012 C 
HETATM   12  C14 UNL     1       1.655   1.207   9.915  1.00  0.00     0.010 C 
BRANCH  11  13
HETATM   13  C15 UNL     1       0.274  -0.866   9.602  1.00  0.00     0.000 C 
HETATM   14  C16 UNL     1       0.348  -0.796  11.125  1.00  0.00     0.005 C 
ENDBRANCH  11  13
ENDBRANCH  10  11
ENDBRANCH   8  10
ENDBRANCH   7   8
BRANCH   1  15
HETATM   15  C4  UNL     1       3.859   0.846   5.418  1.00  0.00     0.042 C 
BRANCH  15  16
HETATM   16  C3  UNL     1       4.789   1.132   4.328  1.00  0.00     0.004 C 
BRANCH  16  17
HETATM   17  C2  UNL     1       5.376   0.023   3.517  1.00  0.00    -0.004 C 
HETATM   18  C1  UNL     1       6.815   0.269   3.116  1.00  0.00     0.005 C 
ENDBRANCH  16  17
ENDBRANCH  15  16
ENDBRANCH   1  15
TORSDOF 7
ENDMDL
MODEL 2
REMARK VINA RESULT: -5.321085586      1.294      2.080
REMARK  7 active torsions:
REMARK  status: ('A' for Active; 'I' for Inactive)
REMARK    1  A    between atoms: C2_2  and  C3_3 
REMARK    2  A    between atoms: C3_3  and  C4_4 
REMARK    3  A    between atoms: C4_4  and  C5_5 
REMARK    4  A    between atoms: C10_11  and  C11_12 
REMARK    5  A    between atoms: C11_12  and  C12_14 
REMARK    6  A    between atoms: C12_14  and  C13_15 
REMARK    7  A    between atoms: C13_15  and  C15_17 
ROOT
HETATM    1  C5  UNL     1       4.305   0.076   6.576  1.00  0.00    -0.012 A 
HETATM    2  C6  UNL     1       5.265   0.892   7.086  1.00  0.00     0.056 A 
HETATM    3  C7  UNL     1       6.661   1.034   6.624  1.00  0.00     0.077 C 
HETATM    4  O1  UNL     1       4.797   1.604   8.122  1.00  0.00    -0.319 OA
HETATM    5  C8  UNL     1       3.554   1.297   8.333  1.00  0.00     0.064 A 
HETATM    6  C9  UNL     1       2.657   1.869   9.405  1.00  0.00     0.077 C 
HETATM    7  C10 UNL     1       3.177   0.344   7.401  1.00  0.00     0.048 A 
ENDROOT
BRANCH   7   8
HETATM    8  C11 UNL     1       1.864  -0.260   7.299  1.00  0.00     0.163 C 
HETATM    9  O2  UNL     1       0.958   0.392   6.754  1.00  0.00    -0.292 OA
BRANCH   8  10
HETATM   10  C12 UNL     1       1.655  -1.607   7.833  1.00  0.00     0.088 C 
BRANCH  10  11
HETATM   11  C13 UNL     1       1.248  -1.638   9.281  1.00  0.00    -0.012 C 
HETATM   12  C14 UNL     1       0.125  -0.725   9.636  1.00  0.00     0.010 C 
BRANCH  11  13
HETATM   13  C15 UNL     1       2.429  -1.533  10.224  1.00  0.00     0.000 C 
HETATM   14  C16 UNL     1       3.570  -2.377   9.661  1.00  0.00     0.005 C 
ENDBRANCH  11  13
ENDBRANCH  10  11
ENDBRANCH   8  10
ENDBRANCH   7   8
BRANCH   1  15
HETATM   15  C4  UNL     1       4.249  -0.876   5.479  1.00  0.00     0.042 C 
BRANCH  15  16
HETATM   16  C3  UNL     1       4.791  -0.539   4.165  1.00  0.00     0.004 C 
BRANCH  16  17
HETATM   17  C2  UNL     1       6.197  -0.898   3.807  1.00  0.00    -0.004 C 
HETATM   18  C1  UNL     1       6.926   0.202   3.066  1.00  0.00     0.005 C 
ENDBRANCH  16  17
ENDBRANCH  15  16
ENDBRANCH   1  15
TORSDOF 7
ENDMDL
MODEL 3
REMARK VINA RESULT: -5.298383237      1.185      1.209
REMARK  7 active torsions:
REMARK  status: ('A' for Active; 'I' for Inactive)
REMARK    1  A    between atoms: C2_2  and  C3_3 
REMARK    2  A    between atoms: C3_3  and  C4_4 
REMARK    3  A    between atoms: C4_4  and  C5_5 
REMARK    4  A    between atoms: C10_11  and  C11_12 
REMARK    5  A    between atoms: C11_12  and  C12_14 
REMARK    6  A    between atoms: C12_14  and  C13_15 
REMARK    7  A    between atoms: C13_15  and  C15_17 
ROOT
HETATM    1  C5  UNL     1       4.762  -0.132   6.310  1.00  0.00    -0.012 A 
HETATM    2  C6  UNL     1       5.961  -0.370   6.905  1.00  0.00     0.056 A 
HETATM    3  C7  UNL     1       7.257  -0.626   6.245  1.00  0.00     0.077 C 
HETATM    4  O1  UNL     1       5.849  -0.354   8.242  1.00  0.00    -0.319 OA
HETATM    5  C8  UNL     1       4.617  -0.116   8.572  1.00  0.00     0.064 A 
HETATM    6  C9  UNL     1       4.066  -0.015   9.975  1.00  0.00     0.077 C 
HETATM    7  C10 UNL     1       3.877   0.034   7.411  1.00  0.00     0.048 A 
ENDROOT
BRANCH   7   8
HETATM    8  C11 UNL     1       2.457   0.312   7.348  1.00  0.00     0.163 C 
HETATM    9  O2  UNL     1       2.091   1.412   6.901  1.00  0.00    -0.292 OA
BRANCH   8  10
HETATM   10  C12 UNL     1       1.509  -0.706   7.807  1.00  0.00     0.088 C 
BRANCH  10  11
HETATM   11  C13 UNL     1       0.626  -0.258   8.939  1.00  0.00    -0.012 C 
HETATM   12  C14 UNL     1       1.082   0.975   9.640  1.00  0.00     0.010 C 
BRANCH  11  13
HETATM   13  C15 UNL     1       0.267  -1.387   9.884  1.00  0.00     0.000 C 
HETATM   14  C16 UNL     1       0.657  -0.972  11.300  1.00  0.00     0.005 C 
ENDBRANCH  11  13
ENDBRANCH  10  11
ENDBRANCH   8  10
ENDBRANCH   7   8
BRANCH   1  15
HETATM   15  C4  UNL     1       4.308  -0.024   4.933  1.00  0.00     0.042 C 
BRANCH  15  16
HETATM   16  C3  UNL     1       5.062   0.753   3.953  1.00  0.00     0.004 C 
BRANCH  16  17
HETATM   17  C2  UNL     1       6.001   0.078   3.005  1.00  0.00    -0.004 C 
HETATM   18  C1  UNL     1       7.350   0.759   2.911  1.00  0.00     0.005 C 
ENDBRANCH  16  17
ENDBRANCH  15  16
ENDBRANCH   1  15
TORSDOF 7
ENDMDL
MODEL 4
REMARK VINA RESULT: -5.236023207      1.481      1.767
REMARK  7 active torsions:
REMARK  status: ('A' for Active; 'I' for Inactive)
REMARK    1  A    between atoms: C2_2  and  C3_3 
REMARK    2  A    between atoms: C3_3  and  C4_4 
REMARK    3  A    between atoms: C4_4  and  C5_5 
REMARK    4  A    between atoms: C10_11  and  C11_12 
REMARK    5  A    between atoms: C11_12  and  C12_14 
REMARK    6  A    between atoms: C12_14  and  C13_15 
REMARK    7  A    between atoms: C13_15  and  C15_17 
ROOT
HETATM    1  C5  UNL     1       4.758  -0.137   6.582  1.00  0.00    -0.012 A 
HETATM    2  C6  UNL     1       5.384   1.019   6.929  1.00  0.00     0.056 A 
HETATM    3  C7  UNL     1       6.250   1.862   6.079  1.00  0.00     0.077 C 
HETATM    4  O1  UNL     1       5.129   1.344   8.205  1.00  0.00    -0.319 OA
HETATM    5  C8  UNL     1       4.354   0.449   8.735  1.00  0.00     0.064 A 
HETATM    6  C9  UNL     1       3.830   0.438  10.151  1.00  0.00     0.077 C 
HETATM    7  C10 UNL     1       4.080  -0.512   7.775  1.00  0.00     0.048 A 
ENDROOT
BRANCH   7   8
HETATM    8  C11 UNL     1       3.247  -1.682   7.968  1.00  0.00     0.163 C 
HETATM    9  O2  UNL     1       3.722  -2.645   8.593  1.00  0.00    -0.292 OA
BRANCH   8  10
HETATM   10  C12 UNL     1       1.886  -1.686   7.429  1.00  0.00     0.088 C 
BRANCH  10  11
HETATM   11  C13 UNL     1       0.878  -0.987   8.299  1.00  0.00    -0.012 C 
HETATM   12  C14 UNL     1       0.792   0.487   8.101  1.00  0.00     0.010 C 
BRANCH  11  13
HETATM   13  C15 UNL     1       0.980  -1.392   9.756  1.00  0.00     0.000 C 
HETATM   14  C16 UNL     1       0.216  -0.369  10.593  1.00  0.00     0.005 C 
ENDBRANCH  11  13
ENDBRANCH  10  11
ENDBRANCH   8  10
ENDBRANCH   7   8
BRANCH   1  15
HETATM   15  C4  UNL     1       4.673  -0.928   5.365  1.00  0.00     0.042 C 
BRANCH  15  16
HETATM   16  C3  UNL     1       5.875  -1.290   4.620  1.00  0.00     0.004 C 
BRANCH  16  17
HETATM   17  C2  UNL     1       6.367  -0.427   3.503  1.00  0.00    -0.004 C 
HETATM   18  C1  UNL     1       7.874  -0.283   3.474  1.00  0.00     0.005 C 
ENDBRANCH  16  17
ENDBRANCH  15  16
ENDBRANCH   1  15
TORSDOF 7
ENDMDL
MODEL 5
REMARK VINA RESULT: -5.235102130      1.519      5.836
REMARK  7 active torsions:
REMARK  status: ('A' for Active; 'I' for Inactive)
REMARK    1  A    between atoms: C2_2  and  C3_3 
REMARK    2  A    between atoms: C3_3  and  C4_4 
REMARK    3  A    between atoms: C4_4  and  C5_5 
REMARK    4  A    between atoms: C10_11  and  C11_12 
REMARK    5  A    between atoms: C11_12  and  C12_14 
REMARK    6  A    between atoms: C12_14  and  C13_15 
REMARK    7  A    between atoms: C13_15  and  C15_17 
ROOT
HETATM    1  C5  UNL     1       3.734  -0.157   7.335  1.00  0.00    -0.012 A 
HETATM    2  C6  UNL     1       4.467  -0.141   8.480  1.00  0.00     0.056 A 
HETATM    3  C7  UNL     1       4.042  -0.579   9.826  1.00  0.00     0.077 C 
HETATM    4  O1  UNL     1       5.697   0.347   8.262  1.00  0.00    -0.319 OA
HETATM    5  C8  UNL     1       5.822   0.664   7.010  1.00  0.00     0.064 A 
HETATM    6  C9  UNL     1       7.048   1.247   6.348  1.00  0.00     0.077 C 
HETATM    7  C10 UNL     1       4.630   0.375   6.366  1.00  0.00     0.048 A 
ENDROOT
BRANCH   7   8
HETATM    8  C11 UNL     1       4.361   0.582   4.958  1.00  0.00     0.163 C 
HETATM    9  O2  UNL     1       4.136   1.740   4.566  1.00  0.00    -0.292 OA
BRANCH   8  10
HETATM   10  C12 UNL     1       4.368  -0.569   4.053  1.00  0.00     0.088 C 
BRANCH  10  11
HETATM   11  C13 UNL     1       5.744  -1.025   3.650  1.00  0.00    -0.012 C 
HETATM   12  C14 UNL     1       6.412  -1.935   4.622  1.00  0.00     0.010 C 
BRANCH  11  13
HETATM   13  C15 UNL     1       6.628   0.115   3.189  1.00  0.00     0.000 C 
HETATM   14  C16 UNL     1       8.022  -0.441   2.909  1.00  0.00     0.005 C 
ENDBRANCH  11  13
ENDBRANCH  10  11
ENDBRANCH   8  10
ENDBRANCH   7   8
BRANCH   1  15
HETATM   15  C4  UNL     1       2.387  -0.580   6.990  1.00  0.00     0.042 C 
BRANCH  15  16
HETATM   16  C3  UNL     1       1.225   0.193   7.421  1.00  0.00     0.004 C 
BRANCH  16  17
HETATM   17  C2  UNL     1       0.658   0.015   8.793  1.00  0.00    -0.004 C 
HETATM   18  C1  UNL     1       0.704  -1.417   9.280  1.00  0.00     0.005 C 
ENDBRANCH  16  17
ENDBRANCH  15  16
ENDBRANCH   1  15
TORSDOF 7
ENDMDL
