MODEL 1
REMARK VINA RESULT: -6.299333407      0.000      0.000
REMARK  9 active torsions:
REMARK  status: ('A' for Active; 'I' for Inactive)
REMARK    1  A    between atoms: C2_2  and  C3_3 
REMARK    2  A    between atoms: C5_5  and  C6_6 
REMARK    3  A    between atoms: C6_6  and  C7_7 
REMARK    4  A    between atoms: C7_7  and  C8_8 
REMARK    5  A    between atoms: C8_8  and  O1_9 
REMARK    6  A    between atoms: C8_8  and  C9_11 
REMARK    7  A    between atoms: C9_11  and  C10_12 
REMARK    8  A    between atoms: C10_12  and  C11_13 
REMARK    9  A    between atoms: C11_13  and  O2_14 
ROOT
HETATM    1  C6  UNL     1       4.318   0.810   5.990  1.00  0.00     0.041 C 
ENDROOT
BRANCH   1   2
HETATM    2  C5  UNL     1       3.266   0.423   6.923  1.00  0.00    -0.057 A 
HETATM    3  C4  UNL     1       3.525  -0.471   7.945  1.00  0.00     0.019 A 
HETATM    4  C3  UNL     1       2.543  -0.829   8.844  1.00  0.00    -0.031 A 
HETATM    5  C15 UNL     1       1.275  -0.282   8.721  1.00  0.00    -0.052 A 
HETATM    6  C14 UNL     1       0.992   0.616   7.706  1.00  0.00     0.008 A 
HETATM    7  C16 UNL     1       0.220  -0.681   9.706  1.00  0.00     0.049 C 
HETATM    8  C13 UNL     1       2.006   0.962   6.806  1.00  0.00     0.007 A 
BRANCH   4   9
HETATM    9  C2  UNL     1       2.801  -1.776   9.936  1.00  0.00     0.002 C 
HETATM   10  C1  UNL     1       3.831  -2.578   9.990  1.00  0.00     0.012 C 
ENDBRANCH   4   9
ENDBRANCH   1   2
BRANCH   1  11
HETATM   11  C7  UNL     1       5.694   0.368   6.282  1.00  0.00     0.036 C 
BRANCH  11  12
HETATM   12  C8  UNL     1       6.416  -0.414   5.258  1.00  0.00     0.118 C 
BRANCH  12  13
HETATM   13  O1  UNL     1       5.864  -1.605   4.873  1.00  0.00    -0.396 OA
ATOM     14  H1  UNL     1       6.428  -2.369   4.878  1.00  0.00     0.210 HD
ENDBRANCH  12  13
BRANCH  12  15
HETATM   15  C9  UNL     1       6.764   0.377   4.015  1.00  0.00     0.034 C 
BRANCH  15  16
HETATM   16  C10 UNL     1       7.916  -0.362   3.346  1.00  0.00     0.029 C 
BRANCH  16  17
HETATM   17  C11 UNL     1       8.164   0.109   1.957  1.00  0.00     0.167 C 
BRANCH  17  18
HETATM   18  O2  UNL     1       8.110   1.465   1.802  1.00  0.00    -0.396 OA
HETATM   19  C12 UNL     1       9.250   1.921   1.168  1.00  0.00     0.201 C 
ENDBRANCH  17  18
ENDBRANCH  16  17
ENDBRANCH  15  16
ENDBRANCH  12  15
ENDBRANCH  11  12
ENDBRANCH   1  11
TORSDOF 9
ENDMDL
MODEL 2
REMARK VINA RESULT: -6.276643882      1.842      3.482
REMARK  9 active torsions:
REMARK  status: ('A' for Active; 'I' for Inactive)
REMARK    1  A    between atoms: C2_2  and  C3_3 
REMARK    2  A    between atoms: C5_5  and  C6_6 
REMARK    3  A    between atoms: C6_6  and  C7_7 
REMARK    4  A    between atoms: C7_7  and  C8_8 
REMARK    5  A    between atoms: C8_8  and  O1_9 
REMARK    6  A    between atoms: C8_8  and  C9_11 
REMARK    7  A    between atoms: C9_11  and  C10_12 
REMARK    8  A    between atoms: C10_12  and  C11_13 
REMARK    9  A    between atoms: C11_13  and  O2_14 
ROOT
HETATM    1  C6  UNL     1       5.740   0.251   3.885  1.00  0.00     0.041 C 
ENDROOT
BRANCH   1   2
HETATM    2  C5  UNL     1       5.343   0.114   5.282  1.00  0.00    -0.057 A 
HETATM    3  C4  UNL     1       4.023  -0.117   5.620  1.00  0.00     0.019 A 
HETATM    4  C3  UNL     1       3.640  -0.267   6.936  1.00  0.00    -0.031 A 
HETATM    5  C15 UNL     1       4.596  -0.186   7.936  1.00  0.00    -0.052 A 
HETATM    6  C14 UNL     1       5.924   0.043   7.623  1.00  0.00     0.008 A 
HETATM    7  C16 UNL     1       4.163  -0.353   9.360  1.00  0.00     0.049 C 
HETATM    8  C13 UNL     1       6.287   0.192   6.279  1.00  0.00     0.007 A 
BRANCH   4   9
HETATM    9  C2  UNL     1       2.242  -0.513   7.312  1.00  0.00     0.002 C 
HETATM   10  C1  UNL     1       1.334   0.419   7.430  1.00  0.00     0.012 C 
ENDBRANCH   4   9
ENDBRANCH   1   2
BRANCH   1  11
HETATM   11  C7  UNL     1       7.174   0.425   3.590  1.00  0.00     0.036 C 
BRANCH  11  12
HETATM   12  C8  UNL     1       7.602   0.471   2.178  1.00  0.00     0.118 C 
BRANCH  12  13
HETATM   13  O1  UNL     1       8.143   1.642   1.723  1.00  0.00    -0.396 OA
ATOM     14  H1  UNL     1       8.391   1.681   0.807  1.00  0.00     0.210 HD
ENDBRANCH  12  13
BRANCH  12  15
HETATM   15  C9  UNL     1       8.519  -0.666   1.778  1.00  0.00     0.034 C 
BRANCH  15  16
HETATM   16  C10 UNL     1       9.942  -0.146   1.936  1.00  0.00     0.029 C 
BRANCH  16  17
HETATM   17  C11 UNL     1      10.714  -0.205   0.666  1.00  0.00     0.167 C 
BRANCH  17  18
HETATM   18  O2  UNL     1      10.386   0.762  -0.240  1.00  0.00    -0.396 OA
HETATM   19  C12 UNL     1      11.329   0.813  -1.249  1.00  0.00     0.201 C 
ENDBRANCH  17  18
ENDBRANCH  16  17
ENDBRANCH  15  16
ENDBRANCH  12  15
ENDBRANCH  11  12
ENDBRANCH   1  11
TORSDOF 9
ENDMDL
MODEL 3
REMARK VINA RESULT: -6.245960684      1.054      1.351
REMARK  9 active torsions:
REMARK  status: ('A' for Active; 'I' for Inactive)
REMARK    1  A    between atoms: C2_2  and  C3_3 
REMARK    2  A    between atoms: C5_5  and  C6_6 
REMARK    3  A    between atoms: C6_6  and  C7_7 
REMARK    4  A    between atoms: C7_7  and  C8_8 
REMARK    5  A    between atoms: C8_8  and  O1_9 
REMARK    6  A    between atoms: C8_8  and  C9_11 
REMARK    7  A    between atoms: C9_11  and  C10_12 
REMARK    8  A    between atoms: C10_12  and  C11_13 
REMARK    9  A    between atoms: C11_13  and  O2_14 
ROOT
HETATM    1  C6  UNL     1       6.103   0.939   6.397  1.00  0.00     0.041 C 
ENDROOT
BRANCH   1   2
HETATM    2  C5  UNL     1       4.784   0.615   6.929  1.00  0.00    -0.057 A 
HETATM    3  C4  UNL     1       4.655  -0.115   8.096  1.00  0.00     0.019 A 
HETATM    4  C3  UNL     1       3.414  -0.411   8.617  1.00  0.00    -0.031 A 
HETATM    5  C15 UNL     1       2.276   0.031   7.960  1.00  0.00    -0.052 A 
HETATM    6  C14 UNL     1       2.380   0.764   6.790  1.00  0.00     0.008 A 
HETATM    7  C16 UNL     1       0.936  -0.298   8.541  1.00  0.00     0.049 C 
HETATM    8  C13 UNL     1       3.652   1.051   6.282  1.00  0.00     0.007 A 
BRANCH   4   9
HETATM    9  C2  UNL     1       3.259  -1.184   9.856  1.00  0.00     0.002 C 
HETATM   10  C1  UNL     1       3.611  -2.435   9.995  1.00  0.00     0.012 C 
ENDBRANCH   4   9
ENDBRANCH   1   2
BRANCH   1  11
HETATM   11  C7  UNL     1       6.941  -0.171   5.908  1.00  0.00     0.036 C 
BRANCH  11  12
HETATM   12  C8  UNL     1       6.664  -0.726   4.568  1.00  0.00     0.118 C 
BRANCH  12  13
HETATM   13  O1  UNL     1       5.782  -1.768   4.489  1.00  0.00    -0.396 OA
ATOM     14  H1  UNL     1       6.027  -2.507   3.945  1.00  0.00     0.210 HD
ENDBRANCH  12  13
BRANCH  12  15
HETATM   15  C9  UNL     1       6.267   0.315   3.543  1.00  0.00     0.034 C 
BRANCH  15  16
HETATM   16  C10 UNL     1       7.534   0.666   2.774  1.00  0.00     0.029 C 
BRANCH  16  17
HETATM   17  C11 UNL     1       8.394  -0.520   2.522  1.00  0.00     0.167 C 
BRANCH  17  18
HETATM   18  O2  UNL     1       9.735  -0.267   2.573  1.00  0.00    -0.396 OA
HETATM   19  C12 UNL     1       9.973   1.086   2.425  1.00  0.00     0.201 C 
ENDBRANCH  17  18
ENDBRANCH  16  17
ENDBRANCH  15  16
ENDBRANCH  12  15
ENDBRANCH  11  12
ENDBRANCH   1  11
TORSDOF 9
ENDMDL
MODEL 4
REMARK VINA RESULT: -6.198680435      1.476      2.702
REMARK  9 active torsions:
REMARK  status: ('A' for Active; 'I' for Inactive)
REMARK    1  A    between atoms: C2_2  and  C3_3 
REMARK    2  A    between atoms: C5_5  and  C6_6 
REMARK    3  A    between atoms: C6_6  and  C7_7 
REMARK    4  A    between atoms: C7_7  and  C8_8 
REMARK    5  A    between atoms: C8_8  and  O1_9 
REMARK    6  A    between atoms: C8_8  and  C9_11 
REMARK    7  A    between atoms: C9_11  and  C10_12 
REMARK    8  A    between atoms: C10_12  and  C11_13 
REMARK    9  A    between atoms: C11_13  and  O2_14 
ROOT
HETATM    1  C6  UNL     1       4.871   1.114   4.681  1.00  0.00     0.041 C 
ENDROOT
BRANCH   1   2
HETATM    2  C5  UNL     1       4.544   0.504   5.965  1.00  0.00    -0.057 A 
HETATM    3  C4  UNL     1       3.231   0.231   6.301  1.00  0.00     0.019 A 
HETATM    4  C3  UNL     1       2.913  -0.363   7.503  1.00  0.00    -0.031 A 
HETATM    5  C15 UNL     1       3.926  -0.693   8.389  1.00  0.00    -0.052 A 
HETATM    6  C14 UNL     1       5.248  -0.430   8.075  1.00  0.00     0.008 A 
HETATM    7  C16 UNL     1       3.563  -1.339   9.691  1.00  0.00     0.049 C 
HETATM    8  C13 UNL     1       5.545   0.174   6.848  1.00  0.00     0.007 A 
BRANCH   4   9
HETATM    9  C2  UNL     1       1.524  -0.660   7.875  1.00  0.00     0.002 C 
HETATM   10  C1  UNL     1       0.651   0.238   8.251  1.00  0.00     0.012 C 
ENDBRANCH   4   9
ENDBRANCH   1   2
BRANCH   1  11
HETATM   11  C7  UNL     1       5.646   0.314   3.715  1.00  0.00     0.036 C 
BRANCH  11  12
HETATM   12  C8  UNL     1       7.110   0.502   3.658  1.00  0.00     0.118 C 
BRANCH  12  13
HETATM   13  O1  UNL     1       7.886  -0.394   4.340  1.00  0.00    -0.396 OA
ATOM     14  H1  UNL     1       8.743  -0.592   3.980  1.00  0.00     0.210 HD
ENDBRANCH  12  13
BRANCH  12  15
HETATM   15  C9  UNL     1       7.656   0.636   2.253  1.00  0.00     0.034 C 
BRANCH  15  16
HETATM   16  C10 UNL     1       8.439  -0.640   1.973  1.00  0.00     0.029 C 
BRANCH  16  17
HETATM   17  C11 UNL     1       9.150  -0.598   0.667  1.00  0.00     0.167 C 
BRANCH  17  18
HETATM   18  O2  UNL     1      10.452  -0.195   0.745  1.00  0.00    -0.396 OA
HETATM   19  C12 UNL     1      10.794   0.541  -0.373  1.00  0.00     0.201 C 
ENDBRANCH  17  18
ENDBRANCH  16  17
ENDBRANCH  15  16
ENDBRANCH  12  15
ENDBRANCH  11  12
ENDBRANCH   1  11
TORSDOF 9
ENDMDL
MODEL 5
REMARK VINA RESULT: -6.139842329      1.475      2.471
REMARK  9 active torsions:
REMARK  status: ('A' for Active; 'I' for Inactive)
REMARK    1  A    between atoms: C2_2  and  C3_3 
REMARK    2  A    between atoms: C5_5  and  C6_6 
REMARK    3  A    between atoms: C6_6  and  C7_7 
REMARK    4  A    between atoms: C7_7  and  C8_8 
REMARK    5  A    between atoms: C8_8  and  O1_9 
REMARK    6  A    between atoms: C8_8  and  C9_11 
REMARK    7  A    between atoms: C9_11  and  C10_12 
REMARK    8  A    between atoms: C10_12  and  C11_13 
REMARK    9  A    between atoms: C11_13  and  O2_14 
ROOT
HETATM    1  C6  UNL     1       5.690  -0.019   6.840  1.00  0.00     0.041 C 
ENDROOT
BRANCH   1   2
HETATM    2  C5  UNL     1       4.628   0.002   7.839  1.00  0.00    -0.057 A 
HETATM    3  C4  UNL     1       3.315   0.220   7.465  1.00  0.00     0.019 A 
HETATM    4  C3  UNL     1       2.301   0.223   8.399  1.00  0.00    -0.031 A 
HETATM    5  C15 UNL     1       2.603   0.003   9.734  1.00  0.00    -0.052 A 
HETATM    6  C14 UNL     1       3.910  -0.218  10.131  1.00  0.00     0.008 A 
HETATM    7  C16 UNL     1       1.488   0.009  10.734  1.00  0.00     0.049 C 
HETATM    8  C13 UNL     1       4.921  -0.216   9.164  1.00  0.00     0.007 A 
BRANCH   4   9
HETATM    9  C2  UNL     1       0.901   0.452   8.019  1.00  0.00     0.002 C 
HETATM   10  C1  UNL     1       0.516   0.919   6.860  1.00  0.00     0.012 C 
ENDBRANCH   4   9
ENDBRANCH   1   2
BRANCH   1  11
HETATM   11  C7  UNL     1       5.679  -1.107   5.844  1.00  0.00     0.036 C 
BRANCH  11  12
HETATM   12  C8  UNL     1       5.925  -0.769   4.428  1.00  0.00     0.118 C 
BRANCH  12  13
HETATM   13  O1  UNL     1       4.951  -0.070   3.769  1.00  0.00    -0.396 OA
ATOM     14  H1  UNL     1       4.111   0.020   4.202  1.00  0.00     0.210 HD
ENDBRANCH  12  13
BRANCH  12  15
HETATM   15  C9  UNL     1       7.253  -0.085   4.183  1.00  0.00     0.034 C 
BRANCH  15  16
HETATM   16  C10 UNL     1       7.346   0.147   2.681  1.00  0.00     0.029 C 
BRANCH  16  17
HETATM   17  C11 UNL     1       8.558  -0.472   2.082  1.00  0.00     0.167 C 
BRANCH  17  18
HETATM   18  O2  UNL     1       9.713  -0.236   2.772  1.00  0.00    -0.396 OA
HETATM   19  C12 UNL     1      10.370   0.860   2.245  1.00  0.00     0.201 C 
ENDBRANCH  17  18
ENDBRANCH  16  17
ENDBRANCH  15  16
ENDBRANCH  12  15
ENDBRANCH  11  12
ENDBRANCH   1  11
TORSDOF 9
ENDMDL
