MODEL 1
REMARK VINA RESULT: -6.425366438      0.000      0.000
REMARK  13 active torsions:
REMARK  status: ('A' for Active; 'I' for Inactive)
REMARK    1  A    between atoms: C1_1  and  C2_2 
REMARK    2  A    between atoms: C1_1  and  C10_10 
REMARK    3  A    between atoms: C2_2  and  C3_3 
REMARK    4  A    between atoms: C3_3  and  C4_4 
REMARK    5  A    between atoms: C4_4  and  C5_5 
REMARK    6  A    between atoms: C10_10  and  C11_11 
REMARK    7  A    between atoms: C11_11  and  C12_12 
REMARK    8  A    between atoms: C12_12  and  N1_13 
REMARK    9  A    between atoms: C13_20  and  O1_21 
REMARK   10  A    between atoms: O1_21  and  C14_22 
REMARK   11  A    between atoms: C14_22  and  C15_23 
REMARK   12  A    between atoms: C15_23  and  C16_24 
REMARK   13  A    between atoms: C16_24  and  N5_25 
ROOT
HETATM    1  N1  UNL     1     -15.392  28.874   6.365  1.00  0.00    -0.239 N 
HETATM    2  N2  UNL     1     -14.133  29.144   6.609  1.00  0.00    -0.223 N 
ATOM      3  H2  UNL     1     -13.402  28.454   6.781  1.00  0.00     0.210 HD
HETATM    4  N3  UNL     1     -13.963  30.447   6.595  1.00  0.00    -0.225 N 
ATOM      5  H3  UNL     1     -13.080  30.931   6.754  1.00  0.00     0.210 HD
HETATM    6  N4  UNL     1     -15.119  31.026   6.343  1.00  0.00    -0.248 N 
ATOM      7  H4  UNL     1     -15.290  32.029   6.273  1.00  0.00     0.192 HD
HETATM    8  C13 UNL     1     -16.030  30.052   6.196  1.00  0.00     0.258 A 
ENDROOT
BRANCH   1   9
HETATM    9  C12 UNL     1     -15.988  27.534   6.295  1.00  0.00     0.154 C 
BRANCH   9  10
HETATM   10  C11 UNL     1     -14.831  26.611   5.946  1.00  0.00     0.022 C 
BRANCH  10  11
HETATM   11  C10 UNL     1     -15.385  25.258   5.590  1.00  0.00     0.002 C 
BRANCH  11  12
HETATM   12  C1  UNL     1     -14.471  24.191   6.125  1.00  0.00     0.000 C 
BRANCH  12  13
HETATM   13  C2  UNL     1     -13.858  23.418   5.007  1.00  0.00     0.000 C 
BRANCH  13  14
HETATM   14  C3  UNL     1     -12.386  23.182   5.221  1.00  0.00     0.000 C 
BRANCH  14  15
HETATM   15  C4  UNL     1     -11.577  24.176   4.450  1.00  0.00     0.004 C 
BRANCH  15  16
HETATM   16  C5  UNL     1     -10.794  25.104   5.359  1.00  0.00    -0.014 C 
HETATM   17  C6  UNL     1     -11.312  26.502   5.394  1.00  0.00     0.004 C 
HETATM   18  C7  UNL     1     -11.042  26.937   6.822  1.00  0.00     0.000 C 
HETATM   19  C8  UNL     1     -11.339  25.690   7.614  1.00  0.00     0.000 C 
HETATM   20  C9  UNL     1     -10.768  24.588   6.773  1.00  0.00     0.004 C 
ENDBRANCH  15  16
ENDBRANCH  14  15
ENDBRANCH  13  14
ENDBRANCH  12  13
ENDBRANCH  11  12
ENDBRANCH  10  11
ENDBRANCH   9  10
ENDBRANCH   1   9
BRANCH   8  21
HETATM   21  O1  UNL     1     -17.375  30.200   5.920  1.00  0.00    -0.319 OA
BRANCH  21  22
HETATM   22  C14 UNL     1     -18.361  30.659   6.810  1.00  0.00     0.184 C 
BRANCH  22  23
HETATM   23  C15 UNL     1     -19.182  29.566   7.450  1.00  0.00     0.071 C 
BRANCH  23  24
HETATM   24  C16 UNL     1     -20.002  28.932   6.368  1.00  0.00     0.065 C 
BRANCH  24  25
HETATM   25  N5  UNL     1     -19.814  27.576   6.135  1.00  0.00    -0.374 N 
HETATM   26  C17 UNL     1     -19.963  26.624   7.145  1.00  0.00     0.063 C 
HETATM   27  C18 UNL     1     -19.291  25.319   6.854  1.00  0.00     0.044 C 
HETATM   28  C19 UNL     1     -18.883  25.141   5.420  1.00  0.00     0.007 C 
HETATM   29  C20 UNL     1     -19.962  25.725   4.535  1.00  0.00     0.021 C 
HETATM   30  C21 UNL     1     -19.976  27.215   4.781  1.00  0.00     0.127 C 
ENDBRANCH  24  25
ENDBRANCH  23  24
ENDBRANCH  22  23
ENDBRANCH  21  22
ENDBRANCH   8  21
TORSDOF 13
ENDMDL
MODEL 2
REMARK VINA RESULT: -6.424032570      0.553      1.146
REMARK  13 active torsions:
REMARK  status: ('A' for Active; 'I' for Inactive)
REMARK    1  A    between atoms: C1_1  and  C2_2 
REMARK    2  A    between atoms: C1_1  and  C10_10 
REMARK    3  A    between atoms: C2_2  and  C3_3 
REMARK    4  A    between atoms: C3_3  and  C4_4 
REMARK    5  A    between atoms: C4_4  and  C5_5 
REMARK    6  A    between atoms: C10_10  and  C11_11 
REMARK    7  A    between atoms: C11_11  and  C12_12 
REMARK    8  A    between atoms: C12_12  and  N1_13 
REMARK    9  A    between atoms: C13_20  and  O1_21 
REMARK   10  A    between atoms: O1_21  and  C14_22 
REMARK   11  A    between atoms: C14_22  and  C15_23 
REMARK   12  A    between atoms: C15_23  and  C16_24 
REMARK   13  A    between atoms: C16_24  and  N5_25 
ROOT
HETATM    1  N1  UNL     1     -15.446  28.830   6.365  1.00  0.00    -0.239 N 
HETATM    2  N2  UNL     1     -14.179  29.061   6.609  1.00  0.00    -0.223 N 
ATOM      3  H2  UNL     1     -13.469  28.348   6.780  1.00  0.00     0.210 HD
HETATM    4  N3  UNL     1     -13.971  30.358   6.599  1.00  0.00    -0.225 N 
ATOM      5  H3  UNL     1     -13.073  30.815   6.760  1.00  0.00     0.210 HD
HETATM    6  N4  UNL     1     -15.108  30.972   6.349  1.00  0.00    -0.248 N 
ATOM      7  H4  UNL     1     -15.249  31.980   6.281  1.00  0.00     0.192 HD
HETATM    8  C13 UNL     1     -16.048  30.027   6.199  1.00  0.00     0.258 A 
ENDROOT
BRANCH   1   9
HETATM    9  C12 UNL     1     -16.082  27.508   6.291  1.00  0.00     0.154 C 
BRANCH   9  10
HETATM   10  C11 UNL     1     -14.954  26.552   5.935  1.00  0.00     0.022 C 
BRANCH  10  11
HETATM   11  C10 UNL     1     -15.550  25.217   5.579  1.00  0.00     0.002 C 
BRANCH  11  12
HETATM   12  C1  UNL     1     -14.699  24.123   6.160  1.00  0.00     0.000 C 
BRANCH  12  13
HETATM   13  C2  UNL     1     -14.281  23.163   5.098  1.00  0.00     0.000 C 
BRANCH  13  14
HETATM   14  C3  UNL     1     -12.824  23.303   4.748  1.00  0.00     0.000 C 
BRANCH  14  15
HETATM   15  C4  UNL     1     -11.988  23.356   5.987  1.00  0.00     0.004 C 
BRANCH  15  16
HETATM   16  C5  UNL     1     -11.035  24.535   5.985  1.00  0.00    -0.014 C 
HETATM   17  C6  UNL     1     -11.367  25.585   4.979  1.00  0.00     0.004 C 
HETATM   18  C7  UNL     1     -10.949  26.871   5.668  1.00  0.00     0.000 C 
HETATM   19  C8  UNL     1     -11.350  26.629   7.100  1.00  0.00     0.000 C 
HETATM   20  C9  UNL     1     -10.981  25.195   7.337  1.00  0.00     0.004 C 
ENDBRANCH  15  16
ENDBRANCH  14  15
ENDBRANCH  13  14
ENDBRANCH  12  13
ENDBRANCH  11  12
ENDBRANCH  10  11
ENDBRANCH   9  10
ENDBRANCH   1   9
BRANCH   8  21
HETATM   21  O1  UNL     1     -17.388  30.216   5.924  1.00  0.00    -0.319 OA
BRANCH  21  22
HETATM   22  C14 UNL     1     -18.342  30.780   6.786  1.00  0.00     0.184 C 
BRANCH  22  23
HETATM   23  C15 UNL     1     -19.218  29.774   7.493  1.00  0.00     0.071 C 
BRANCH  23  24
HETATM   24  C16 UNL     1     -20.135  29.181   6.467  1.00  0.00     0.065 C 
BRANCH  24  25
HETATM   25  N5  UNL     1     -19.936  27.849   6.126  1.00  0.00    -0.374 N 
HETATM   26  C17 UNL     1     -19.515  27.467   4.852  1.00  0.00     0.063 C 
HETATM   27  C18 UNL     1     -19.796  26.034   4.523  1.00  0.00     0.044 C 
HETATM   28  C19 UNL     1     -20.153  25.187   5.711  1.00  0.00     0.007 C 
HETATM   29  C20 UNL     1     -19.292  25.607   6.881  1.00  0.00     0.021 C 
HETATM   30  C21 UNL     1     -19.695  27.018   7.240  1.00  0.00     0.127 C 
ENDBRANCH  24  25
ENDBRANCH  23  24
ENDBRANCH  22  23
ENDBRANCH  21  22
ENDBRANCH   8  21
TORSDOF 13
ENDMDL
MODEL 3
REMARK VINA RESULT: -6.365776848      1.305      1.640
REMARK  13 active torsions:
REMARK  status: ('A' for Active; 'I' for Inactive)
REMARK    1  A    between atoms: C1_1  and  C2_2 
REMARK    2  A    between atoms: C1_1  and  C10_10 
REMARK    3  A    between atoms: C2_2  and  C3_3 
REMARK    4  A    between atoms: C3_3  and  C4_4 
REMARK    5  A    between atoms: C4_4  and  C5_5 
REMARK    6  A    between atoms: C10_10  and  C11_11 
REMARK    7  A    between atoms: C11_11  and  C12_12 
REMARK    8  A    between atoms: C12_12  and  N1_13 
REMARK    9  A    between atoms: C13_20  and  O1_21 
REMARK   10  A    between atoms: O1_21  and  C14_22 
REMARK   11  A    between atoms: C14_22  and  C15_23 
REMARK   12  A    between atoms: C15_23  and  C16_24 
REMARK   13  A    between atoms: C16_24  and  N5_25 
ROOT
HETATM    1  N1  UNL     1     -15.233  28.250   6.390  1.00  0.00    -0.239 N 
HETATM    2  N2  UNL     1     -13.953  28.467   6.207  1.00  0.00    -0.223 N 
ATOM      3  H2  UNL     1     -13.295  27.810   5.788  1.00  0.00     0.210 HD
HETATM    4  N3  UNL     1     -13.655  29.668   6.648  1.00  0.00    -0.225 N 
ATOM      5  H3  UNL     1     -12.728  30.094   6.628  1.00  0.00     0.210 HD
HETATM    6  N4  UNL     1     -14.746  30.233   7.122  1.00  0.00    -0.248 N 
ATOM      7  H4  UNL     1     -14.816  31.165   7.531  1.00  0.00     0.192 HD
HETATM    8  C13 UNL     1     -15.749  29.356   6.969  1.00  0.00     0.258 A 
ENDROOT
BRANCH   1   9
HETATM    9  C12 UNL     1     -15.959  27.026   6.031  1.00  0.00     0.154 C 
BRANCH   9  10
HETATM   10  C11 UNL     1     -14.892  25.944   5.970  1.00  0.00     0.022 C 
BRANCH  10  11
HETATM   11  C10 UNL     1     -15.549  24.641   5.599  1.00  0.00     0.002 C 
BRANCH  11  12
HETATM   12  C1  UNL     1     -14.523  23.543   5.623  1.00  0.00     0.000 C 
BRANCH  12  13
HETATM   13  C2  UNL     1     -14.119  23.234   7.025  1.00  0.00     0.000 C 
BRANCH  13  14
HETATM   14  C3  UNL     1     -12.637  23.003   7.150  1.00  0.00     0.000 C 
BRANCH  14  15
HETATM   15  C4  UNL     1     -11.948  23.291   5.854  1.00  0.00     0.004 C 
BRANCH  15  16
HETATM   16  C5  UNL     1     -10.988  24.460   5.964  1.00  0.00    -0.014 C 
HETATM   17  C6  UNL     1     -11.358  25.634   5.125  1.00  0.00     0.004 C 
HETATM   18  C7  UNL     1     -10.899  26.816   5.958  1.00  0.00     0.000 C 
HETATM   19  C8  UNL     1     -11.234  26.386   7.363  1.00  0.00     0.000 C 
HETATM   20  C9  UNL     1     -10.865  24.932   7.388  1.00  0.00     0.004 C 
ENDBRANCH  15  16
ENDBRANCH  14  15
ENDBRANCH  13  14
ENDBRANCH  12  13
ENDBRANCH  11  12
ENDBRANCH  10  11
ENDBRANCH   9  10
ENDBRANCH   1   9
BRANCH   8  21
HETATM   21  O1  UNL     1     -17.072  29.528   7.326  1.00  0.00    -0.319 OA
BRANCH  21  22
HETATM   22  C14 UNL     1     -18.132  29.847   6.462  1.00  0.00     0.184 C 
BRANCH  22  23
HETATM   23  C15 UNL     1     -19.197  28.782   6.360  1.00  0.00     0.071 C 
BRANCH  23  24
HETATM   24  C16 UNL     1     -19.423  28.242   7.739  1.00  0.00     0.065 C 
BRANCH  24  25
HETATM   25  N5  UNL     1     -19.135  26.901   7.955  1.00  0.00    -0.374 N 
HETATM   26  C17 UNL     1     -18.230  26.487   8.934  1.00  0.00     0.063 C 
HETATM   27  C18 UNL     1     -17.700  25.103   8.725  1.00  0.00     0.044 C 
HETATM   28  C19 UNL     1     -18.474  24.290   7.728  1.00  0.00     0.007 C 
HETATM   29  C20 UNL     1     -19.946  24.588   7.898  1.00  0.00     0.021 C 
HETATM   30  C21 UNL     1     -20.151  26.033   7.506  1.00  0.00     0.127 C 
ENDBRANCH  24  25
ENDBRANCH  23  24
ENDBRANCH  22  23
ENDBRANCH  21  22
ENDBRANCH   8  21
TORSDOF 13
ENDMDL
MODEL 4
REMARK VINA RESULT: -6.183912536      1.745      2.417
REMARK  13 active torsions:
REMARK  status: ('A' for Active; 'I' for Inactive)
REMARK    1  A    between atoms: C1_1  and  C2_2 
REMARK    2  A    between atoms: C1_1  and  C10_10 
REMARK    3  A    between atoms: C2_2  and  C3_3 
REMARK    4  A    between atoms: C3_3  and  C4_4 
REMARK    5  A    between atoms: C4_4  and  C5_5 
REMARK    6  A    between atoms: C10_10  and  C11_11 
REMARK    7  A    between atoms: C11_11  and  C12_12 
REMARK    8  A    between atoms: C12_12  and  N1_13 
REMARK    9  A    between atoms: C13_20  and  O1_21 
REMARK   10  A    between atoms: O1_21  and  C14_22 
REMARK   11  A    between atoms: C14_22  and  C15_23 
REMARK   12  A    between atoms: C15_23  and  C16_24 
REMARK   13  A    between atoms: C16_24  and  N5_25 
ROOT
HETATM    1  N1  UNL     1     -15.333  28.185   6.403  1.00  0.00    -0.239 N 
HETATM    2  N2  UNL     1     -14.055  28.368   6.177  1.00  0.00    -0.223 N 
ATOM      3  H2  UNL     1     -13.429  27.695   5.733  1.00  0.00     0.210 HD
HETATM    4  N3  UNL     1     -13.709  29.558   6.614  1.00  0.00    -0.225 N 
ATOM      5  H3  UNL     1     -12.773  29.959   6.563  1.00  0.00     0.210 HD
HETATM    6  N4  UNL     1     -14.768  30.150   7.128  1.00  0.00    -0.248 N 
ATOM      7  H4  UNL     1     -14.798  31.081   7.542  1.00  0.00     0.192 HD
HETATM    8  C13 UNL     1     -15.799  29.301   7.004  1.00  0.00     0.258 A 
ENDROOT
BRANCH   1   9
HETATM    9  C12 UNL     1     -16.104  26.983   6.063  1.00  0.00     0.154 C 
BRANCH   9  10
HETATM   10  C11 UNL     1     -15.058  25.923   5.754  1.00  0.00     0.022 C 
BRANCH  10  11
HETATM   11  C10 UNL     1     -15.590  24.582   6.182  1.00  0.00     0.002 C 
BRANCH  11  12
HETATM   12  C1  UNL     1     -14.529  23.538   5.978  1.00  0.00     0.000 C 
BRANCH  12  13
HETATM   13  C2  UNL     1     -14.042  23.022   7.289  1.00  0.00     0.000 C 
BRANCH  13  14
HETATM   14  C3  UNL     1     -12.540  23.057   7.391  1.00  0.00     0.000 C 
BRANCH  14  15
HETATM   15  C4  UNL     1     -11.928  23.296   6.048  1.00  0.00     0.004 C 
BRANCH  15  16
HETATM   16  C5  UNL     1     -10.980  24.480   6.053  1.00  0.00    -0.014 C 
HETATM   17  C6  UNL     1     -11.387  25.591   5.146  1.00  0.00     0.004 C 
HETATM   18  C7  UNL     1     -10.923  26.832   5.885  1.00  0.00     0.000 C 
HETATM   19  C8  UNL     1     -11.217  26.494   7.324  1.00  0.00     0.000 C 
HETATM   20  C9  UNL     1     -10.829  25.050   7.438  1.00  0.00     0.004 C 
ENDBRANCH  15  16
ENDBRANCH  14  15
ENDBRANCH  13  14
ENDBRANCH  12  13
ENDBRANCH  11  12
ENDBRANCH  10  11
ENDBRANCH   9  10
ENDBRANCH   1   9
BRANCH   8  21
HETATM   21  O1  UNL     1     -17.104  29.506   7.407  1.00  0.00    -0.319 OA
BRANCH  21  22
HETATM   22  C14 UNL     1     -18.144  30.030   6.623  1.00  0.00     0.184 C 
BRANCH  22  23
HETATM   23  C15 UNL     1     -19.519  29.523   6.988  1.00  0.00     0.071 C 
BRANCH  23  24
HETATM   24  C16 UNL     1     -19.394  28.056   7.266  1.00  0.00     0.065 C 
BRANCH  24  25
HETATM   25  N5  UNL     1     -19.682  27.623   8.553  1.00  0.00    -0.374 N 
HETATM   26  C17 UNL     1     -20.975  27.672   9.078  1.00  0.00     0.063 C 
HETATM   27  C18 UNL     1     -21.027  27.615  10.572  1.00  0.00     0.044 C 
HETATM   28  C19 UNL     1     -19.745  27.173  11.218  1.00  0.00     0.007 C 
HETATM   29  C20 UNL     1     -19.131  26.078  10.375  1.00  0.00     0.021 C 
HETATM   30  C21 UNL     1     -18.739  26.704   9.057  1.00  0.00     0.127 C 
ENDBRANCH  24  25
ENDBRANCH  23  24
ENDBRANCH  22  23
ENDBRANCH  21  22
ENDBRANCH   8  21
TORSDOF 13
ENDMDL
MODEL 5
REMARK VINA RESULT: -6.124417901      2.322      3.681
REMARK  13 active torsions:
REMARK  status: ('A' for Active; 'I' for Inactive)
REMARK    1  A    between atoms: C1_1  and  C2_2 
REMARK    2  A    between atoms: C1_1  and  C10_10 
REMARK    3  A    between atoms: C2_2  and  C3_3 
REMARK    4  A    between atoms: C3_3  and  C4_4 
REMARK    5  A    between atoms: C4_4  and  C5_5 
REMARK    6  A    between atoms: C10_10  and  C11_11 
REMARK    7  A    between atoms: C11_11  and  C12_12 
REMARK    8  A    between atoms: C12_12  and  N1_13 
REMARK    9  A    between atoms: C13_20  and  O1_21 
REMARK   10  A    between atoms: O1_21  and  C14_22 
REMARK   11  A    between atoms: C14_22  and  C15_23 
REMARK   12  A    between atoms: C15_23  and  C16_24 
REMARK   13  A    between atoms: C16_24  and  N5_25 
ROOT
HETATM    1  N1  UNL     1     -15.328  28.233   6.379  1.00  0.00    -0.239 N 
HETATM    2  N2  UNL     1     -14.042  28.414   6.193  1.00  0.00    -0.223 N 
ATOM      3  H2  UNL     1     -13.404  27.738   5.773  1.00  0.00     0.210 HD
HETATM    4  N3  UNL     1     -13.709  29.605   6.635  1.00  0.00    -0.225 N 
ATOM      5  H3  UNL     1     -12.771  30.004   6.614  1.00  0.00     0.210 HD
HETATM    6  N4  UNL     1     -14.783  30.200   7.112  1.00  0.00    -0.248 N 
ATOM      7  H4  UNL     1     -14.826  31.133   7.521  1.00  0.00     0.192 HD
HETATM    8  C13 UNL     1     -15.811  29.352   6.959  1.00  0.00     0.258 A 
ENDROOT
BRANCH   1   9
HETATM    9  C12 UNL     1     -16.089  27.030   6.019  1.00  0.00     0.154 C 
BRANCH   9  10
HETATM   10  C11 UNL     1     -15.037  25.955   5.796  1.00  0.00     0.022 C 
BRANCH  10  11
HETATM   11  C10 UNL     1     -15.622  24.622   6.180  1.00  0.00     0.002 C 
BRANCH  11  12
HETATM   12  C1  UNL     1     -14.525  23.597   6.242  1.00  0.00     0.000 C 
BRANCH  12  13
HETATM   13  C2  UNL     1     -14.147  23.150   4.871  1.00  0.00     0.000 C 
BRANCH  13  14
HETATM   14  C3  UNL     1     -12.671  23.296   4.613  1.00  0.00     0.000 C 
BRANCH  14  15
HETATM   15  C4  UNL     1     -11.913  23.324   5.901  1.00  0.00     0.004 C 
BRANCH  15  16
HETATM   16  C5  UNL     1     -10.971  24.509   5.985  1.00  0.00    -0.014 C 
HETATM   17  C6  UNL     1     -11.365  25.663   5.127  1.00  0.00     0.004 C 
HETATM   18  C7  UNL     1     -10.921  26.866   5.937  1.00  0.00     0.000 C 
HETATM   19  C8  UNL     1     -11.241  26.455   7.351  1.00  0.00     0.000 C 
HETATM   20  C9  UNL     1     -10.849  25.009   7.400  1.00  0.00     0.004 C 
ENDBRANCH  15  16
ENDBRANCH  14  15
ENDBRANCH  13  14
ENDBRANCH  12  13
ENDBRANCH  11  12
ENDBRANCH  10  11
ENDBRANCH   9  10
ENDBRANCH   1   9
BRANCH   8  21
HETATM   21  O1  UNL     1     -17.128  29.561   7.319  1.00  0.00    -0.319 OA
BRANCH  21  22
HETATM   22  C14 UNL     1     -18.102  30.226   6.558  1.00  0.00     0.184 C 
BRANCH  22  23
HETATM   23  C15 UNL     1     -19.402  30.474   7.285  1.00  0.00     0.071 C 
BRANCH  23  24
HETATM   24  C16 UNL     1     -19.572  31.958   7.402  1.00  0.00     0.065 C 
BRANCH  24  25
HETATM   25  N5  UNL     1     -20.586  32.545   6.656  1.00  0.00    -0.374 N 
HETATM   26  C17 UNL     1     -21.854  31.973   6.551  1.00  0.00     0.063 C 
HETATM   27  C18 UNL     1     -22.647  32.461   5.379  1.00  0.00     0.044 C 
HETATM   28  C19 UNL     1     -22.099  33.703   4.737  1.00  0.00     0.007 C 
HETATM   29  C20 UNL     1     -21.587  34.623   5.823  1.00  0.00     0.021 C 
HETATM   30  C21 UNL     1     -20.408  33.931   6.467  1.00  0.00     0.127 C 
ENDBRANCH  24  25
ENDBRANCH  23  24
ENDBRANCH  22  23
ENDBRANCH  21  22
ENDBRANCH   8  21
TORSDOF 13
ENDMDL
