MODEL 1
REMARK VINA RESULT: -5.828412437      0.000      0.000
REMARK  13 active torsions:
REMARK  status: ('A' for Active; 'I' for Inactive)
REMARK    1  A    between atoms: N1_2  and  C1_4 
REMARK    2  A    between atoms: C4_7  and  S1_8 
REMARK    3  A    between atoms: S1_8  and  C5_9 
REMARK    4  A    between atoms: C5_9  and  C6_10 
REMARK    5  A    between atoms: C6_10  and  C7_11 
REMARK    6  A    between atoms: C7_11  and  O3_12 
REMARK    7  A    between atoms: O3_12  and  C8_13 
REMARK    8  A    between atoms: C8_13  and  C9_14 
REMARK    9  A    between atoms: C9_14  and  O4_15 
REMARK   10  A    between atoms: O4_15  and  C10_16 
REMARK   11  A    between atoms: C10_16  and  C11_17 
REMARK   12  A    between atoms: C11_17  and  O5_18 
REMARK   13  A    between atoms: O5_18  and  C12_19 
ROOT
HETATM    1  C7  UNL     1     -15.875  23.034   5.589  1.00  0.00     0.168 C 
ENDROOT
BRANCH   1   2
HETATM    2  C6  UNL     1     -14.947  22.438   6.617  1.00  0.00     0.037 C 
BRANCH   2   3
HETATM    3  C5  UNL     1     -14.246  21.248   5.967  1.00  0.00     0.081 C 
BRANCH   3   4
HETATM    4  S1  UNL     1     -12.434  21.426   6.096  1.00  0.00    -0.130 SA
BRANCH   4   5
HETATM    5  C4  UNL     1     -11.986  23.136   6.230  1.00  0.00     0.000 A 
HETATM    6  C3  UNL     1     -11.992  23.922   5.120  1.00  0.00     0.021 A 
HETATM    7  C2  UNL     1     -11.643  25.252   5.217  1.00  0.00     0.037 A 
HETATM    8  C1  UNL     1     -11.282  25.828   6.416  1.00  0.00     0.102 A 
HETATM    9  C19 UNL     1     -11.283  25.013   7.528  1.00  0.00     0.037 A 
HETATM   10  C18 UNL     1     -11.632  23.678   7.443  1.00  0.00     0.021 A 
BRANCH   8  11
HETATM   11  N1  UNL     1     -10.929  27.189   6.483  1.00  0.00    -0.116 N 
HETATM   12  O1  UNL     1     -10.907  27.766   7.572  1.00  0.00    -0.532 OA
HETATM   13  O2  UNL     1     -10.613  27.869   5.347  1.00  0.00    -0.532 OA
ENDBRANCH   8  11
ENDBRANCH   4   5
ENDBRANCH   3   4
ENDBRANCH   2   3
ENDBRANCH   1   2
BRANCH   1  14
HETATM   14  O3  UNL     1     -15.439  24.281   5.232  1.00  0.00    -0.389 OA
BRANCH  14  15
HETATM   15  C8  UNL     1     -16.141  25.352   5.718  1.00  0.00     0.193 C 
BRANCH  15  16
HETATM   16  C9  UNL     1     -17.610  25.010   5.610  1.00  0.00     0.193 C 
BRANCH  16  17
HETATM   17  O4  UNL     1     -18.247  25.303   6.791  1.00  0.00    -0.387 OA
BRANCH  17  18
HETATM   18  C10 UNL     1     -19.121  26.351   6.641  1.00  0.00     0.194 C 
BRANCH  18  19
HETATM   19  C11 UNL     1     -18.901  27.417   7.697  1.00  0.00     0.201 C 
BRANCH  19  20
HETATM   20  O5  UNL     1     -17.654  27.944   7.636  1.00  0.00    -0.349 OA
BRANCH  20  21
HETATM   21  C12 UNL     1     -17.054  29.000   7.075  1.00  0.00     0.068 A 
HETATM   22  C13 UNL     1     -15.670  29.047   6.978  1.00  0.00     0.037 A 
HETATM   23  C14 UNL     1     -14.966  30.076   6.427  1.00  0.00     0.003 A 
HETATM   24  C15 UNL     1     -15.691  31.146   5.931  1.00  0.00     0.000 A 
HETATM   25  C16 UNL     1     -17.064  31.167   5.992  1.00  0.00     0.003 A 
HETATM   26  C17 UNL     1     -17.738  30.079   6.572  1.00  0.00     0.037 A 
ENDBRANCH  20  21
ENDBRANCH  19  20
ENDBRANCH  18  19
ENDBRANCH  17  18
ENDBRANCH  16  17
ENDBRANCH  15  16
ENDBRANCH  14  15
ENDBRANCH   1  14
TORSDOF 13
ENDMDL
MODEL 2
REMARK VINA RESULT: -5.670275468      4.813      7.547
REMARK  13 active torsions:
REMARK  status: ('A' for Active; 'I' for Inactive)
REMARK    1  A    between atoms: N1_2  and  C1_4 
REMARK    2  A    between atoms: C4_7  and  S1_8 
REMARK    3  A    between atoms: S1_8  and  C5_9 
REMARK    4  A    between atoms: C5_9  and  C6_10 
REMARK    5  A    between atoms: C6_10  and  C7_11 
REMARK    6  A    between atoms: C7_11  and  O3_12 
REMARK    7  A    between atoms: O3_12  and  C8_13 
REMARK    8  A    between atoms: C8_13  and  C9_14 
REMARK    9  A    between atoms: C9_14  and  O4_15 
REMARK   10  A    between atoms: O4_15  and  C10_16 
REMARK   11  A    between atoms: C10_16  and  C11_17 
REMARK   12  A    between atoms: C11_17  and  O5_18 
REMARK   13  A    between atoms: O5_18  and  C12_19 
ROOT
HETATM    1  C7  UNL     1     -14.861  19.229   8.060  1.00  0.00     0.168 C 
ENDROOT
BRANCH   1   2
HETATM    2  C6  UNL     1     -14.428  20.343   7.140  1.00  0.00     0.037 C 
BRANCH   2   3
HETATM    3  C5  UNL     1     -12.921  20.211   6.937  1.00  0.00     0.081 C 
BRANCH   3   4
HETATM    4  S1  UNL     1     -12.416  21.004   5.373  1.00  0.00    -0.130 SA
BRANCH   4   5
HETATM    5  C4  UNL     1     -12.041  22.716   5.638  1.00  0.00     0.000 A 
HETATM    6  C3  UNL     1     -11.734  23.509   4.576  1.00  0.00     0.021 A 
HETATM    7  C2  UNL     1     -11.440  24.841   4.775  1.00  0.00     0.037 A 
HETATM    8  C1  UNL     1     -11.446  25.413   6.029  1.00  0.00     0.102 A 
HETATM    9  C19 UNL     1     -11.761  24.590   7.091  1.00  0.00     0.037 A 
HETATM   10  C18 UNL     1     -12.057  23.253   6.903  1.00  0.00     0.021 A 
BRANCH   8  11
HETATM   11  N1  UNL     1     -11.140  26.776   6.200  1.00  0.00    -0.116 N 
HETATM   12  O1  UNL     1     -11.149  27.271   7.329  1.00  0.00    -0.532 OA
HETATM   13  O2  UNL     1     -10.836  27.547   5.121  1.00  0.00    -0.532 OA
ENDBRANCH   8  11
ENDBRANCH   4   5
ENDBRANCH   3   4
ENDBRANCH   2   3
ENDBRANCH   1   2
BRANCH   1  14
HETATM   14  O3  UNL     1     -13.776  18.490   8.442  1.00  0.00    -0.389 OA
BRANCH  14  15
HETATM   15  C8  UNL     1     -14.014  17.229   8.921  1.00  0.00     0.193 C 
BRANCH  15  16
HETATM   16  C9  UNL     1     -12.774  16.792   9.668  1.00  0.00     0.193 C 
BRANCH  16  17
HETATM   17  O4  UNL     1     -13.107  16.402  10.942  1.00  0.00    -0.387 OA
BRANCH  17  18
HETATM   18  C10 UNL     1     -12.137  16.759  11.844  1.00  0.00     0.194 C 
BRANCH  18  19
HETATM   19  C11 UNL     1     -12.546  17.977  12.651  1.00  0.00     0.201 C 
BRANCH  19  20
HETATM   20  O5  UNL     1     -12.353  19.130  11.965  1.00  0.00    -0.349 OA
BRANCH  20  21
HETATM   21  C12 UNL     1     -13.100  20.126  11.478  1.00  0.00     0.068 A 
HETATM   22  C13 UNL     1     -12.517  21.130  10.716  1.00  0.00     0.037 A 
HETATM   23  C14 UNL     1     -13.190  22.186  10.179  1.00  0.00     0.003 A 
HETATM   24  C15 UNL     1     -14.553  22.255  10.414  1.00  0.00     0.000 A 
HETATM   25  C16 UNL     1     -15.198  21.297  11.160  1.00  0.00     0.003 A 
HETATM   26  C17 UNL     1     -14.452  20.230  11.690  1.00  0.00     0.037 A 
ENDBRANCH  20  21
ENDBRANCH  19  20
ENDBRANCH  18  19
ENDBRANCH  17  18
ENDBRANCH  16  17
ENDBRANCH  15  16
ENDBRANCH  14  15
ENDBRANCH   1  14
TORSDOF 13
ENDMDL
MODEL 3
REMARK VINA RESULT: -5.656577936      3.487      6.677
REMARK  13 active torsions:
REMARK  status: ('A' for Active; 'I' for Inactive)
REMARK    1  A    between atoms: N1_2  and  C1_4 
REMARK    2  A    between atoms: C4_7  and  S1_8 
REMARK    3  A    between atoms: S1_8  and  C5_9 
REMARK    4  A    between atoms: C5_9  and  C6_10 
REMARK    5  A    between atoms: C6_10  and  C7_11 
REMARK    6  A    between atoms: C7_11  and  O3_12 
REMARK    7  A    between atoms: O3_12  and  C8_13 
REMARK    8  A    between atoms: C8_13  and  C9_14 
REMARK    9  A    between atoms: C9_14  and  O4_15 
REMARK   10  A    between atoms: O4_15  and  C10_16 
REMARK   11  A    between atoms: C10_16  and  C11_17 
REMARK   12  A    between atoms: C11_17  and  O5_18 
REMARK   13  A    between atoms: O5_18  and  C12_19 
ROOT
HETATM    1  C7  UNL     1     -17.729  22.815  10.415  1.00  0.00     0.168 C 
ENDROOT
BRANCH   1   2
HETATM    2  C6  UNL     1     -17.777  24.135   9.687  1.00  0.00     0.037 C 
BRANCH   2   3
HETATM    3  C5  UNL     1     -17.844  23.833   8.193  1.00  0.00     0.081 C 
BRANCH   3   4
HETATM    4  S1  UNL     1     -18.786  25.130   7.321  1.00  0.00    -0.130 SA
BRANCH   4   5
HETATM    5  C4  UNL     1     -17.758  26.539   7.007  1.00  0.00     0.000 A 
HETATM    6  C3  UNL     1     -18.215  27.785   7.306  1.00  0.00     0.021 A 
HETATM    7  C2  UNL     1     -17.421  28.885   7.063  1.00  0.00     0.037 A 
HETATM    8  C1  UNL     1     -16.160  28.772   6.519  1.00  0.00     0.102 A 
HETATM    9  C19 UNL     1     -15.717  27.500   6.224  1.00  0.00     0.037 A 
HETATM   10  C18 UNL     1     -16.504  26.389   6.464  1.00  0.00     0.021 A 
BRANCH   8  11
HETATM   11  N1  UNL     1     -15.373  29.915   6.281  1.00  0.00    -0.116 N 
HETATM   12  O1  UNL     1     -15.762  30.775   5.487  1.00  0.00    -0.532 OA
HETATM   13  O2  UNL     1     -14.186  30.072   6.925  1.00  0.00    -0.532 OA
ENDBRANCH   8  11
ENDBRANCH   4   5
ENDBRANCH   3   4
ENDBRANCH   2   3
ENDBRANCH   1   2
BRANCH   1  14
HETATM   14  O3  UNL     1     -16.509  22.223  10.230  1.00  0.00    -0.389 OA
BRANCH  14  15
HETATM   15  C8  UNL     1     -15.567  22.413  11.206  1.00  0.00     0.193 C 
BRANCH  15  16
HETATM   16  C9  UNL     1     -14.261  22.729  10.513  1.00  0.00     0.193 C 
BRANCH  16  17
HETATM   17  O4  UNL     1     -13.836  21.637   9.796  1.00  0.00    -0.387 OA
BRANCH  17  18
HETATM   18  C10 UNL     1     -12.522  21.345  10.064  1.00  0.00     0.194 C 
BRANCH  18  19
HETATM   19  C11 UNL     1     -11.693  21.287   8.795  1.00  0.00     0.201 C 
BRANCH  19  20
HETATM   20  O5  UNL     1     -11.236  22.510   8.430  1.00  0.00    -0.349 OA
BRANCH  20  21
HETATM   21  C12 UNL     1     -11.612  23.502   7.616  1.00  0.00     0.068 A 
HETATM   22  C13 UNL     1     -10.858  24.665   7.536  1.00  0.00     0.037 A 
HETATM   23  C14 UNL     1     -11.157  25.730   6.740  1.00  0.00     0.003 A 
HETATM   24  C15 UNL     1     -12.297  25.638   5.959  1.00  0.00     0.000 A 
HETATM   25  C16 UNL     1     -13.091  24.516   5.987  1.00  0.00     0.003 A 
HETATM   26  C17 UNL     1     -12.734  23.448   6.827  1.00  0.00     0.037 A 
ENDBRANCH  20  21
ENDBRANCH  19  20
ENDBRANCH  18  19
ENDBRANCH  17  18
ENDBRANCH  16  17
ENDBRANCH  15  16
ENDBRANCH  14  15
ENDBRANCH   1  14
TORSDOF 13
ENDMDL
MODEL 4
REMARK VINA RESULT: -5.538022828      3.362      6.604
REMARK  13 active torsions:
REMARK  status: ('A' for Active; 'I' for Inactive)
REMARK    1  A    between atoms: N1_2  and  C1_4 
REMARK    2  A    between atoms: C4_7  and  S1_8 
REMARK    3  A    between atoms: S1_8  and  C5_9 
REMARK    4  A    between atoms: C5_9  and  C6_10 
REMARK    5  A    between atoms: C6_10  and  C7_11 
REMARK    6  A    between atoms: C7_11  and  O3_12 
REMARK    7  A    between atoms: O3_12  and  C8_13 
REMARK    8  A    between atoms: C8_13  and  C9_14 
REMARK    9  A    between atoms: C9_14  and  O4_15 
REMARK   10  A    between atoms: O4_15  and  C10_16 
REMARK   11  A    between atoms: C10_16  and  C11_17 
REMARK   12  A    between atoms: C11_17  and  O5_18 
REMARK   13  A    between atoms: O5_18  and  C12_19 
ROOT
HETATM    1  C7  UNL     1     -15.166  22.748  10.061  1.00  0.00     0.168 C 
ENDROOT
BRANCH   1   2
HETATM    2  C6  UNL     1     -16.136  22.166   9.064  1.00  0.00     0.037 C 
BRANCH   2   3
HETATM    3  C5  UNL     1     -15.689  22.612   7.674  1.00  0.00     0.081 C 
BRANCH   3   4
HETATM    4  S1  UNL     1     -17.018  23.549   6.847  1.00  0.00    -0.130 SA
BRANCH   4   5
HETATM    5  C4  UNL     1     -16.573  25.259   6.697  1.00  0.00     0.000 A 
HETATM    6  C3  UNL     1     -17.396  26.215   7.205  1.00  0.00     0.021 A 
HETATM    7  C2  UNL     1     -17.057  27.546   7.090  1.00  0.00     0.037 A 
HETATM    8  C1  UNL     1     -15.895  27.955   6.472  1.00  0.00     0.102 A 
HETATM    9  C19 UNL     1     -15.075  26.968   5.964  1.00  0.00     0.037 A 
HETATM   10  C18 UNL     1     -15.405  25.630   6.074  1.00  0.00     0.021 A 
BRANCH   8  11
HETATM   11  N1  UNL     1     -15.576  29.322   6.369  1.00  0.00    -0.116 N 
HETATM   12  O1  UNL     1     -16.409  30.116   5.927  1.00  0.00    -0.532 OA
HETATM   13  O2  UNL     1     -14.351  29.767   6.756  1.00  0.00    -0.532 OA
ENDBRANCH   8  11
ENDBRANCH   4   5
ENDBRANCH   3   4
ENDBRANCH   2   3
ENDBRANCH   1   2
BRANCH   1  14
HETATM   14  O3  UNL     1     -15.093  21.945  11.166  1.00  0.00    -0.389 OA
BRANCH  14  15
HETATM   15  C8  UNL     1     -14.637  20.667  10.982  1.00  0.00     0.193 C 
BRANCH  15  16
HETATM   16  C9  UNL     1     -13.129  20.711  11.084  1.00  0.00     0.193 C 
BRANCH  16  17
HETATM   17  O4  UNL     1     -12.575  19.793  10.225  1.00  0.00    -0.387 OA
BRANCH  17  18
HETATM   18  C10 UNL     1     -12.497  20.287   8.947  1.00  0.00     0.194 C 
BRANCH  18  19
HETATM   19  C11 UNL     1     -11.572  21.486   8.868  1.00  0.00     0.201 C 
BRANCH  19  20
HETATM   20  O5  UNL     1     -12.164  22.545   8.263  1.00  0.00    -0.349 OA
BRANCH  20  21
HETATM   21  C12 UNL     1     -11.902  23.376   7.248  1.00  0.00     0.068 A 
HETATM   22  C13 UNL     1     -11.311  24.609   7.488  1.00  0.00     0.037 A 
HETATM   23  C14 UNL     1     -11.007  25.524   6.526  1.00  0.00     0.003 A 
HETATM   24  C15 UNL     1     -11.312  25.192   5.217  1.00  0.00     0.000 A 
HETATM   25  C16 UNL     1     -11.897  23.989   4.904  1.00  0.00     0.003 A 
HETATM   26  C17 UNL     1     -12.189  23.083   5.938  1.00  0.00     0.037 A 
ENDBRANCH  20  21
ENDBRANCH  19  20
ENDBRANCH  18  19
ENDBRANCH  17  18
ENDBRANCH  16  17
ENDBRANCH  15  16
ENDBRANCH  14  15
ENDBRANCH   1  14
TORSDOF 13
ENDMDL
MODEL 5
REMARK VINA RESULT: -5.507688797      1.689      2.029
REMARK  13 active torsions:
REMARK  status: ('A' for Active; 'I' for Inactive)
REMARK    1  A    between atoms: N1_2  and  C1_4 
REMARK    2  A    between atoms: C4_7  and  S1_8 
REMARK    3  A    between atoms: S1_8  and  C5_9 
REMARK    4  A    between atoms: C5_9  and  C6_10 
REMARK    5  A    between atoms: C6_10  and  C7_11 
REMARK    6  A    between atoms: C7_11  and  O3_12 
REMARK    7  A    between atoms: O3_12  and  C8_13 
REMARK    8  A    between atoms: C8_13  and  C9_14 
REMARK    9  A    between atoms: C9_14  and  O4_15 
REMARK   10  A    between atoms: O4_15  and  C10_16 
REMARK   11  A    between atoms: C10_16  and  C11_17 
REMARK   12  A    between atoms: C11_17  and  O5_18 
REMARK   13  A    between atoms: O5_18  and  C12_19 
ROOT
HETATM    1  C7  UNL     1     -15.678  22.331   8.036  1.00  0.00     0.168 C 
ENDROOT
BRANCH   1   2
HETATM    2  C6  UNL     1     -14.440  22.487   8.884  1.00  0.00     0.037 C 
BRANCH   2   3
HETATM    3  C5  UNL     1     -13.632  21.198   8.756  1.00  0.00     0.081 C 
BRANCH   3   4
HETATM    4  S1  UNL     1     -12.433  21.330   7.387  1.00  0.00    -0.130 SA
BRANCH   4   5
HETATM    5  C4  UNL     1     -12.139  23.030   6.980  1.00  0.00     0.000 A 
HETATM    6  C3  UNL     1     -11.250  23.753   7.713  1.00  0.00     0.021 A 
HETATM    7  C2  UNL     1     -11.018  25.076   7.402  1.00  0.00     0.037 A 
HETATM    8  C1  UNL     1     -11.661  25.707   6.359  1.00  0.00     0.102 A 
HETATM    9  C19 UNL     1     -12.558  24.955   5.629  1.00  0.00     0.037 A 
HETATM   10  C18 UNL     1     -12.798  23.627   5.931  1.00  0.00     0.021 A 
BRANCH   8  11
HETATM   11  N1  UNL     1     -11.404  27.060   6.068  1.00  0.00    -0.116 N 
HETATM   12  O1  UNL     1     -11.648  27.928   6.908  1.00  0.00    -0.532 OA
HETATM   13  O2  UNL     1     -10.886  27.411   4.860  1.00  0.00    -0.532 OA
ENDBRANCH   8  11
ENDBRANCH   4   5
ENDBRANCH   3   4
ENDBRANCH   2   3
ENDBRANCH   1   2
BRANCH   1  14
HETATM   14  O3  UNL     1     -16.755  22.047   8.830  1.00  0.00    -0.389 OA
BRANCH  14  15
HETATM   15  C8  UNL     1     -17.499  23.106   9.278  1.00  0.00     0.193 C 
BRANCH  15  16
HETATM   16  C9  UNL     1     -18.301  23.619   8.103  1.00  0.00     0.193 C 
BRANCH  16  17
HETATM   17  O4  UNL     1     -18.842  24.844   8.405  1.00  0.00    -0.387 OA
BRANCH  17  18
HETATM   18  C10 UNL     1     -17.869  25.752   8.741  1.00  0.00     0.194 C 
BRANCH  18  19
HETATM   19  C11 UNL     1     -17.281  26.421   7.513  1.00  0.00     0.201 C 
BRANCH  19  20
HETATM   20  O5  UNL     1     -17.543  27.750   7.483  1.00  0.00    -0.349 OA
BRANCH  20  21
HETATM   21  C12 UNL     1     -16.983  28.857   6.983  1.00  0.00     0.068 A 
HETATM   22  C13 UNL     1     -15.602  28.968   6.906  1.00  0.00     0.037 A 
HETATM   23  C14 UNL     1     -14.937  30.052   6.416  1.00  0.00     0.003 A 
HETATM   24  C15 UNL     1     -15.702  31.114   5.965  1.00  0.00     0.000 A 
HETATM   25  C16 UNL     1     -17.075  31.074   6.011  1.00  0.00     0.003 A 
HETATM   26  C17 UNL     1     -17.707  29.930   6.527  1.00  0.00     0.037 A 
ENDBRANCH  20  21
ENDBRANCH  19  20
ENDBRANCH  18  19
ENDBRANCH  17  18
ENDBRANCH  16  17
ENDBRANCH  15  16
ENDBRANCH  14  15
ENDBRANCH   1  14
TORSDOF 13
ENDMDL
