MODEL 1
REMARK VINA RESULT: -6.259664244      0.000      0.000
REMARK  13 active torsions:
REMARK  status: ('A' for Active; 'I' for Inactive)
REMARK    1  A    between atoms: C6_7  and  C7_8 
REMARK    2  A    between atoms: C8_9  and  C9_10 
REMARK    3  A    between atoms: C9_10  and  C10_11 
REMARK    4  A    between atoms: C10_11  and  C11_12 
REMARK    5  A    between atoms: C11_12  and  C12_13 
REMARK    6  A    between atoms: C12_13  and  C13_14 
REMARK    7  A    between atoms: C13_14  and  C14_15 
REMARK    8  A    between atoms: C14_15  and  C15_16 
REMARK    9  A    between atoms: C15_16  and  C16_17 
REMARK   10  A    between atoms: C16_17  and  C17_18 
REMARK   11  A    between atoms: C17_18  and  C18_19 
REMARK   12  A    between atoms: C18_19  and  C19_20 
REMARK   13  A    between atoms: C19_20  and  N1_21 
ROOT
HETATM    1  C12 UNL     1     -11.925  21.306  10.205  1.00  0.00     0.000 C 
ENDROOT
BRANCH   1   2
HETATM    2  C11 UNL     1     -13.347  21.705  10.564  1.00  0.00     0.000 C 
BRANCH   2   3
HETATM    3  C10 UNL     1     -14.043  20.624  11.343  1.00  0.00     0.004 C 
BRANCH   3   4
HETATM    4  C9  UNL     1     -13.075  19.490  11.595  1.00  0.00     0.027 C 
BRANCH   4   5
HETATM    5  C8  UNL     1     -13.767  18.363  12.244  1.00  0.00    -0.030 C 
HETATM    6  C7  UNL     1     -13.199  17.195  12.420  1.00  0.00    -0.025 C 
BRANCH   6   7
HETATM    7  C6  UNL     1     -11.836  16.882  12.001  1.00  0.00     0.019 C 
HETATM    8  C3  UNL     1     -11.739  15.748  10.997  1.00  0.00    -0.003 C 
HETATM    9  C2  UNL     1     -10.466  15.695  10.207  1.00  0.00     0.123 C 
HETATM   10  C4  UNL     1     -11.811  14.784  12.127  1.00  0.00     0.013 C 
HETATM   11  C22 UNL     1     -12.801  15.694   9.961  1.00  0.00     0.189 C 
HETATM   12  C1  UNL     1     -10.863  14.841   9.062  1.00  0.00     0.259 C 
HETATM   13  O1  UNL     1     -10.088  14.221   8.303  1.00  0.00    -0.265 OA
HETATM   14  O2  UNL     1     -12.240  14.839   8.963  1.00  0.00    -0.321 OA
HETATM   15  C5  UNL     1     -11.221  15.894  13.008  1.00  0.00     0.010 C 
ENDBRANCH   6   7
ENDBRANCH   4   5
ENDBRANCH   3   4
ENDBRANCH   2   3
ENDBRANCH   1   2
BRANCH   1  16
HETATM   16  C13 UNL     1     -11.673  21.653   8.771  1.00  0.00     0.000 C 
BRANCH  16  17
HETATM   17  C14 UNL     1     -11.812  20.512   7.818  1.00  0.00     0.000 C 
BRANCH  17  18
HETATM   18  C15 UNL     1     -13.094  20.623   7.016  1.00  0.00     0.000 C 
BRANCH  18  19
HETATM   19  C16 UNL     1     -13.237  21.969   6.344  1.00  0.00     0.000 C 
BRANCH  19  20
HETATM   20  C17 UNL     1     -12.419  22.073   5.099  1.00  0.00     0.002 C 
BRANCH  20  21
HETATM   21  C18 UNL     1     -11.963  23.470   4.767  1.00  0.00     0.022 C 
BRANCH  21  22
HETATM   22  C19 UNL     1     -11.315  24.079   5.980  1.00  0.00     0.150 C 
BRANCH  22  23
HETATM   23  N1  UNL     1     -11.295  25.518   5.822  1.00  0.00    -0.288 N 
HETATM   24  C20 UNL     1     -11.362  26.428   6.795  1.00  0.00     0.130 A 
HETATM   25  C21 UNL     1     -11.311  27.665   6.206  1.00  0.00     0.127 A 
HETATM   26  N2  UNL     1     -11.215  27.449   4.884  1.00  0.00    -0.296 N 
HETATM   27  N3  UNL     1     -11.205  26.142   4.666  1.00  0.00    -0.241 N 
ATOM     28  H2  UNL     1     -11.159  28.171   4.166  1.00  0.00     0.187 HD
ATOM     29  H3  UNL     1     -11.139  25.692   3.752  1.00  0.00     0.208 HD
ENDBRANCH  22  23
ENDBRANCH  21  22
ENDBRANCH  20  21
ENDBRANCH  19  20
ENDBRANCH  18  19
ENDBRANCH  17  18
ENDBRANCH  16  17
ENDBRANCH   1  16
TORSDOF 13
ENDMDL
MODEL 2
REMARK VINA RESULT: -6.190579234      3.452      5.986
REMARK  13 active torsions:
REMARK  status: ('A' for Active; 'I' for Inactive)
REMARK    1  A    between atoms: C6_7  and  C7_8 
REMARK    2  A    between atoms: C8_9  and  C9_10 
REMARK    3  A    between atoms: C9_10  and  C10_11 
REMARK    4  A    between atoms: C10_11  and  C11_12 
REMARK    5  A    between atoms: C11_12  and  C12_13 
REMARK    6  A    between atoms: C12_13  and  C13_14 
REMARK    7  A    between atoms: C13_14  and  C14_15 
REMARK    8  A    between atoms: C14_15  and  C15_16 
REMARK    9  A    between atoms: C15_16  and  C16_17 
REMARK   10  A    between atoms: C16_17  and  C17_18 
REMARK   11  A    between atoms: C17_18  and  C18_19 
REMARK   12  A    between atoms: C18_19  and  C19_20 
REMARK   13  A    between atoms: C19_20  and  N1_21 
ROOT
HETATM    1  C12 UNL     1     -14.461  23.653   5.297  1.00  0.00     0.000 C 
ENDROOT
BRANCH   1   2
HETATM    2  C11 UNL     1     -13.236  23.394   4.437  1.00  0.00     0.000 C 
BRANCH   2   3
HETATM    3  C10 UNL     1     -12.010  24.046   5.014  1.00  0.00     0.004 C 
BRANCH   3   4
HETATM    4  C9  UNL     1     -12.310  24.513   6.420  1.00  0.00     0.027 C 
BRANCH   4   5
HETATM    5  C8  UNL     1     -11.277  24.028   7.352  1.00  0.00    -0.030 C 
HETATM    6  C7  UNL     1     -11.421  22.930   8.053  1.00  0.00    -0.025 C 
BRANCH   6   7
HETATM    7  C6  UNL     1     -12.602  22.075   7.993  1.00  0.00     0.019 C 
HETATM    8  C3  UNL     1     -12.617  20.960   9.022  1.00  0.00    -0.003 C 
HETATM    9  C2  UNL     1     -13.963  20.365   9.308  1.00  0.00     0.123 C 
HETATM   10  C4  UNL     1     -11.759  20.154   8.113  1.00  0.00     0.013 C 
HETATM   11  C22 UNL     1     -12.087  21.299  10.367  1.00  0.00     0.189 C 
HETATM   12  C1  UNL     1     -13.722  19.700  10.610  1.00  0.00     0.259 C 
HETATM   13  O1  UNL     1     -14.416  18.788  11.110  1.00  0.00    -0.265 OA
HETATM   14  O2  UNL     1     -12.598  20.251  11.192  1.00  0.00    -0.321 OA
HETATM   15  C5  UNL     1     -12.360  20.964   6.956  1.00  0.00     0.010 C 
ENDBRANCH   6   7
ENDBRANCH   4   5
ENDBRANCH   3   4
ENDBRANCH   2   3
ENDBRANCH   1   2
BRANCH   1  16
HETATM   16  C13 UNL     1     -15.282  22.402   5.359  1.00  0.00     0.000 C 
BRANCH  16  17
HETATM   17  C14 UNL     1     -16.218  22.325   6.520  1.00  0.00     0.000 C 
BRANCH  17  18
HETATM   18  C15 UNL     1     -15.963  23.449   7.504  1.00  0.00     0.000 C 
BRANCH  18  19
HETATM   19  C16 UNL     1     -17.196  24.288   7.750  1.00  0.00     0.000 C 
BRANCH  19  20
HETATM   20  C17 UNL     1     -17.430  25.286   6.664  1.00  0.00     0.002 C 
BRANCH  20  21
HETATM   21  C18 UNL     1     -16.873  26.657   6.948  1.00  0.00     0.022 C 
BRANCH  21  22
HETATM   22  C19 UNL     1     -15.746  26.939   5.993  1.00  0.00     0.150 C 
BRANCH  22  23
HETATM   23  N1  UNL     1     -15.202  28.247   6.291  1.00  0.00    -0.288 N 
HETATM   24  C20 UNL     1     -15.892  29.360   6.543  1.00  0.00     0.130 A 
HETATM   25  C21 UNL     1     -14.986  30.364   6.772  1.00  0.00     0.127 A 
HETATM   26  N2  UNL     1     -13.770  29.809   6.645  1.00  0.00    -0.296 N 
HETATM   27  N3  UNL     1     -13.916  28.524   6.354  1.00  0.00    -0.241 N 
ATOM     28  H2  UNL     1     -12.880  30.296   6.755  1.00  0.00     0.187 HD
ATOM     29  H3  UNL     1     -13.157  27.859   6.204  1.00  0.00     0.208 HD
ENDBRANCH  22  23
ENDBRANCH  21  22
ENDBRANCH  20  21
ENDBRANCH  19  20
ENDBRANCH  18  19
ENDBRANCH  17  18
ENDBRANCH  16  17
ENDBRANCH   1  16
TORSDOF 13
ENDMDL
MODEL 3
REMARK VINA RESULT: -6.119547748      4.661      7.294
REMARK  13 active torsions:
REMARK  status: ('A' for Active; 'I' for Inactive)
REMARK    1  A    between atoms: C6_7  and  C7_8 
REMARK    2  A    between atoms: C8_9  and  C9_10 
REMARK    3  A    between atoms: C9_10  and  C10_11 
REMARK    4  A    between atoms: C10_11  and  C11_12 
REMARK    5  A    between atoms: C11_12  and  C12_13 
REMARK    6  A    between atoms: C12_13  and  C13_14 
REMARK    7  A    between atoms: C13_14  and  C14_15 
REMARK    8  A    between atoms: C14_15  and  C15_16 
REMARK    9  A    between atoms: C15_16  and  C16_17 
REMARK   10  A    between atoms: C16_17  and  C17_18 
REMARK   11  A    between atoms: C17_18  and  C18_19 
REMARK   12  A    between atoms: C18_19  and  C19_20 
REMARK   13  A    between atoms: C19_20  and  N1_21 
ROOT
HETATM    1  C12 UNL     1     -14.427  22.624  10.501  1.00  0.00     0.000 C 
ENDROOT
BRANCH   1   2
HETATM    2  C11 UNL     1     -14.414  21.174  10.955  1.00  0.00     0.000 C 
BRANCH   2   3
HETATM    3  C10 UNL     1     -13.119  20.498  10.600  1.00  0.00     0.004 C 
BRANCH   3   4
HETATM    4  C9  UNL     1     -12.204  21.496   9.927  1.00  0.00     0.027 C 
BRANCH   4   5
HETATM    5  C8  UNL     1     -11.827  21.020   8.585  1.00  0.00    -0.030 C 
HETATM    6  C7  UNL     1     -11.930  21.772   7.516  1.00  0.00    -0.025 C 
BRANCH   6   7
HETATM    7  C6  UNL     1     -12.421  23.146   7.532  1.00  0.00     0.019 C 
HETATM    8  C3  UNL     1     -13.196  23.544   6.291  1.00  0.00    -0.003 C 
HETATM    9  C2  UNL     1     -14.089  24.739   6.445  1.00  0.00     0.123 C 
HETATM   10  C4  UNL     1     -11.902  23.818   5.610  1.00  0.00     0.013 C 
HETATM   11  C22 UNL     1     -14.088  22.508   5.711  1.00  0.00     0.189 C 
HETATM   12  C1  UNL     1     -15.004  24.576   5.290  1.00  0.00     0.259 C 
HETATM   13  O1  UNL     1     -15.707  25.472   4.776  1.00  0.00    -0.265 OA
HETATM   14  O2  UNL     1     -14.958  23.263   4.865  1.00  0.00    -0.321 OA
HETATM   15  C5  UNL     1     -11.313  24.075   7.004  1.00  0.00     0.010 C 
ENDBRANCH   6   7
ENDBRANCH   4   5
ENDBRANCH   3   4
ENDBRANCH   2   3
ENDBRANCH   1   2
BRANCH   1  16
HETATM   16  C13 UNL     1     -15.826  22.998  10.117  1.00  0.00     0.000 C 
BRANCH  16  17
HETATM   17  C14 UNL     1     -16.179  22.719   8.693  1.00  0.00     0.000 C 
BRANCH  17  18
HETATM   18  C15 UNL     1     -17.164  23.743   8.163  1.00  0.00     0.000 C 
BRANCH  18  19
HETATM   19  C16 UNL     1     -17.797  24.556   9.269  1.00  0.00     0.000 C 
BRANCH  19  20
HETATM   20  C17 UNL     1     -18.069  25.965   8.854  1.00  0.00     0.002 C 
BRANCH  20  21
HETATM   21  C18 UNL     1     -17.291  26.419   7.646  1.00  0.00     0.022 C 
BRANCH  21  22
HETATM   22  C19 UNL     1     -17.692  27.827   7.301  1.00  0.00     0.150 C 
BRANCH  22  23
HETATM   23  N1  UNL     1     -16.508  28.567   6.919  1.00  0.00    -0.288 N 
HETATM   24  C20 UNL     1     -16.423  29.881   6.707  1.00  0.00     0.130 A 
HETATM   25  C21 UNL     1     -15.124  30.159   6.366  1.00  0.00     0.127 A 
HETATM   26  N2  UNL     1     -14.470  28.986   6.386  1.00  0.00    -0.296 N 
HETATM   27  N3  UNL     1     -15.322  28.029   6.724  1.00  0.00    -0.241 N 
ATOM     28  H2  UNL     1     -13.481  28.854   6.175  1.00  0.00     0.187 HD
ATOM     29  H3  UNL     1     -15.096  27.038   6.818  1.00  0.00     0.208 HD
ENDBRANCH  22  23
ENDBRANCH  21  22
ENDBRANCH  20  21
ENDBRANCH  19  20
ENDBRANCH  18  19
ENDBRANCH  17  18
ENDBRANCH  16  17
ENDBRANCH   1  16
TORSDOF 13
ENDMDL
MODEL 4
REMARK VINA RESULT: -6.068725394      4.001      6.061
REMARK  13 active torsions:
REMARK  status: ('A' for Active; 'I' for Inactive)
REMARK    1  A    between atoms: C6_7  and  C7_8 
REMARK    2  A    between atoms: C8_9  and  C9_10 
REMARK    3  A    between atoms: C9_10  and  C10_11 
REMARK    4  A    between atoms: C10_11  and  C11_12 
REMARK    5  A    between atoms: C11_12  and  C12_13 
REMARK    6  A    between atoms: C12_13  and  C13_14 
REMARK    7  A    between atoms: C13_14  and  C14_15 
REMARK    8  A    between atoms: C14_15  and  C15_16 
REMARK    9  A    between atoms: C15_16  and  C16_17 
REMARK   10  A    between atoms: C16_17  and  C17_18 
REMARK   11  A    between atoms: C17_18  and  C18_19 
REMARK   12  A    between atoms: C18_19  and  C19_20 
REMARK   13  A    between atoms: C19_20  and  N1_21 
ROOT
HETATM    1  C12 UNL     1     -15.400  22.282  11.239  1.00  0.00     0.000 C 
ENDROOT
BRANCH   1   2
HETATM    2  C11 UNL     1     -15.087  20.806  11.062  1.00  0.00     0.000 C 
BRANCH   2   3
HETATM    3  C10 UNL     1     -13.605  20.551  11.078  1.00  0.00     0.004 C 
BRANCH   3   4
HETATM    4  C9  UNL     1     -12.886  21.763  10.530  1.00  0.00     0.027 C 
BRANCH   4   5
HETATM    5  C8  UNL     1     -11.754  21.345   9.684  1.00  0.00    -0.030 C 
HETATM    6  C7  UNL     1     -11.795  21.400   8.375  1.00  0.00    -0.025 C 
BRANCH   6   7
HETATM    7  C6  UNL     1     -12.947  21.874   7.616  1.00  0.00     0.019 C 
HETATM    8  C3  UNL     1     -12.840  21.654   6.119  1.00  0.00    -0.003 C 
HETATM    9  C2  UNL     1     -14.137  21.690   5.367  1.00  0.00     0.123 C 
HETATM   10  C4  UNL     1     -12.033  22.901   6.027  1.00  0.00     0.013 C 
HETATM   11  C22 UNL     1     -12.213  20.380   5.684  1.00  0.00     0.189 C 
HETATM   12  C1  UNL     1     -13.768  21.003   4.107  1.00  0.00     0.259 C 
HETATM   13  O1  UNL     1     -14.387  21.072   3.023  1.00  0.00    -0.265 OA
HETATM   14  O2  UNL     1     -12.619  20.267   4.319  1.00  0.00    -0.321 OA
HETATM   15  C5  UNL     1     -12.753  23.367   7.299  1.00  0.00     0.010 C 
ENDBRANCH   6   7
ENDBRANCH   4   5
ENDBRANCH   3   4
ENDBRANCH   2   3
ENDBRANCH   1   2
BRANCH   1  16
HETATM   16  C13 UNL     1     -16.490  22.663  10.285  1.00  0.00     0.000 C 
BRANCH  16  17
HETATM   17  C14 UNL     1     -16.025  23.011   8.909  1.00  0.00     0.000 C 
BRANCH  17  18
HETATM   18  C15 UNL     1     -17.190  23.387   8.016  1.00  0.00     0.000 C 
BRANCH  18  19
HETATM   19  C16 UNL     1     -16.995  24.731   7.352  1.00  0.00     0.000 C 
BRANCH  19  20
HETATM   20  C17 UNL     1     -16.087  24.654   6.169  1.00  0.00     0.002 C 
BRANCH  20  21
HETATM   21  C18 UNL     1     -15.684  25.991   5.605  1.00  0.00     0.022 C 
BRANCH  21  22
HETATM   22  C19 UNL     1     -16.437  27.077   6.322  1.00  0.00     0.150 C 
BRANCH  22  23
HETATM   23  N1  UNL     1     -15.583  28.240   6.431  1.00  0.00    -0.288 N 
HETATM   24  C20 UNL     1     -15.974  29.501   6.623  1.00  0.00     0.130 A 
HETATM   25  C21 UNL     1     -14.845  30.280   6.665  1.00  0.00     0.127 A 
HETATM   26  N2  UNL     1     -13.806  29.447   6.493  1.00  0.00    -0.296 N 
HETATM   27  N3  UNL     1     -14.269  28.212   6.353  1.00  0.00    -0.241 N 
ATOM     28  H2  UNL     1     -12.823  29.718   6.472  1.00  0.00     0.187 HD
ATOM     29  H3  UNL     1     -13.700  27.377   6.209  1.00  0.00     0.208 HD
ENDBRANCH  22  23
ENDBRANCH  21  22
ENDBRANCH  20  21
ENDBRANCH  19  20
ENDBRANCH  18  19
ENDBRANCH  17  18
ENDBRANCH  16  17
ENDBRANCH   1  16
TORSDOF 13
ENDMDL
MODEL 5
REMARK VINA RESULT: -6.018774516      5.364      8.316
REMARK  13 active torsions:
REMARK  status: ('A' for Active; 'I' for Inactive)
REMARK    1  A    between atoms: C6_7  and  C7_8 
REMARK    2  A    between atoms: C8_9  and  C9_10 
REMARK    3  A    between atoms: C9_10  and  C10_11 
REMARK    4  A    between atoms: C10_11  and  C11_12 
REMARK    5  A    between atoms: C11_12  and  C12_13 
REMARK    6  A    between atoms: C12_13  and  C13_14 
REMARK    7  A    between atoms: C13_14  and  C14_15 
REMARK    8  A    between atoms: C14_15  and  C15_16 
REMARK    9  A    between atoms: C15_16  and  C16_17 
REMARK   10  A    between atoms: C16_17  and  C17_18 
REMARK   11  A    between atoms: C17_18  and  C18_19 
REMARK   12  A    between atoms: C18_19  and  C19_20 
REMARK   13  A    between atoms: C19_20  and  N1_21 
ROOT
HETATM    1  C12 UNL     1     -13.291  27.821   6.251  1.00  0.00     0.000 C 
ENDROOT
BRANCH   1   2
HETATM    2  C11 UNL     1     -11.969  27.214   5.814  1.00  0.00     0.000 C 
BRANCH   2   3
HETATM    3  C10 UNL     1     -11.007  27.101   6.965  1.00  0.00     0.004 C 
BRANCH   3   4
HETATM    4  C9  UNL     1     -11.102  25.714   7.558  1.00  0.00     0.027 C 
BRANCH   4   5
HETATM    5  C8  UNL     1     -11.120  24.701   6.488  1.00  0.00    -0.030 C 
HETATM    6  C7  UNL     1     -11.957  23.692   6.488  1.00  0.00    -0.025 C 
BRANCH   6   7
HETATM    7  C6  UNL     1     -12.951  23.459   7.530  1.00  0.00     0.019 C 
HETATM    8  C3  UNL     1     -12.708  22.207   8.352  1.00  0.00    -0.003 C 
HETATM    9  C2  UNL     1     -13.398  22.167   9.684  1.00  0.00     0.123 C 
HETATM   10  C4  UNL     1     -13.373  21.414   7.283  1.00  0.00     0.013 C 
HETATM   11  C22 UNL     1     -11.293  21.897   8.678  1.00  0.00     0.189 C 
HETATM   12  C1  UNL     1     -12.620  21.120  10.388  1.00  0.00     0.259 C 
HETATM   13  O1  UNL     1     -12.994  20.476  11.392  1.00  0.00    -0.265 OA
HETATM   14  O2  UNL     1     -11.402  20.966   9.756  1.00  0.00    -0.321 OA
HETATM   15  C5  UNL     1     -14.139  22.694   6.921  1.00  0.00     0.010 C 
ENDBRANCH   6   7
ENDBRANCH   4   5
ENDBRANCH   3   4
ENDBRANCH   2   3
ENDBRANCH   1   2
BRANCH   1  16
HETATM   16  C13 UNL     1     -14.389  26.843   5.971  1.00  0.00     0.000 C 
BRANCH  16  17
HETATM   17  C14 UNL     1     -15.760  27.324   6.316  1.00  0.00     0.000 C 
BRANCH  17  18
HETATM   18  C15 UNL     1     -15.757  28.809   6.622  1.00  0.00     0.000 C 
BRANCH  18  19
HETATM   19  C16 UNL     1     -17.123  29.314   7.026  1.00  0.00     0.000 C 
BRANCH  19  20
HETATM   20  C17 UNL     1     -18.224  28.645   6.270  1.00  0.00     0.002 C 
BRANCH  20  21
HETATM   21  C18 UNL     1     -19.476  28.409   7.073  1.00  0.00     0.022 C 
BRANCH  21  22
HETATM   22  C19 UNL     1     -19.421  27.035   7.683  1.00  0.00     0.150 C 
BRANCH  22  23
HETATM   23  N1  UNL     1     -19.514  27.162   9.121  1.00  0.00    -0.288 N 
HETATM   24  C20 UNL     1     -20.576  27.565   9.820  1.00  0.00     0.130 A 
HETATM   25  C21 UNL     1     -20.231  27.537  11.147  1.00  0.00     0.127 A 
HETATM   26  N2  UNL     1     -18.958  27.113  11.196  1.00  0.00    -0.296 N 
HETATM   27  N3  UNL     1     -18.536  26.888   9.960  1.00  0.00    -0.241 N 
ATOM     28  H2  UNL     1     -18.406  26.985  12.045  1.00  0.00     0.187 HD
ATOM     29  H3  UNL     1     -17.606  26.558   9.700  1.00  0.00     0.208 HD
ENDBRANCH  22  23
ENDBRANCH  21  22
ENDBRANCH  20  21
ENDBRANCH  19  20
ENDBRANCH  18  19
ENDBRANCH  17  18
ENDBRANCH  16  17
ENDBRANCH   1  16
TORSDOF 13
ENDMDL
