MODEL 1
REMARK VINA RESULT: -5.966040210      0.000      0.000
REMARK  13 active torsions:
REMARK  status: ('A' for Active; 'I' for Inactive)
REMARK    1  A    between atoms: S1_2  and  C2_3 
REMARK    2  A    between atoms: C5_6  and  O1_7 
REMARK    3  A    between atoms: O1_7  and  C6_8 
REMARK    4  A    between atoms: C6_8  and  C7_9 
REMARK    5  A    between atoms: C7_9  and  O2_10 
REMARK    6  A    between atoms: O2_10  and  C8_11 
REMARK    7  A    between atoms: C8_11  and  C9_12 
REMARK    8  A    between atoms: C9_12  and  O3_13 
REMARK    9  A    between atoms: O3_13  and  C10_14 
REMARK   10  A    between atoms: C10_14  and  C11_15 
REMARK   11  A    between atoms: C11_15  and  O4_16 
REMARK   12  A    between atoms: O4_16  and  C12_17 
REMARK   13  A    between atoms: C12_17  and  C14_19 
ROOT
HETATM    1  C8  UNL     1     -11.800  23.891   5.608  1.00  0.00     0.193 C 
ENDROOT
BRANCH   1   2
HETATM    2  O2  UNL     1     -12.275  25.129   5.963  1.00  0.00    -0.387 OA
BRANCH   2   3
HETATM    3  C7  UNL     1     -11.314  25.879   6.588  1.00  0.00     0.194 C 
BRANCH   3   4
HETATM    4  C6  UNL     1     -11.512  27.365   6.245  1.00  0.00     0.203 C 
BRANCH   4   5
HETATM    5  O1  UNL     1     -12.724  27.805   6.225  1.00  0.00    -0.334 OA
BRANCH   5   6
HETATM    6  C5  UNL     1     -13.924  28.276   6.320  1.00  0.00     0.141 A 
HETATM    7  C4  UNL     1     -15.065  27.445   6.290  1.00  0.00     0.057 A 
HETATM    8  C3  UNL     1     -16.301  28.012   6.395  1.00  0.00     0.024 A 
HETATM    9  C2  UNL     1     -16.496  29.365   6.529  1.00  0.00     0.015 A 
HETATM   10  C20 UNL     1     -15.370  30.154   6.556  1.00  0.00     0.108 A 
HETATM   11  N1  UNL     1     -14.147  29.623   6.456  1.00  0.00    -0.346 N 
ATOM     12  H1  UNL     1     -13.342  30.249   6.482  1.00  0.00     0.167 HD
BRANCH   9  13
HETATM   13  S1  UNL     1     -18.090  30.123   6.667  1.00  0.00    -0.133 SA
HETATM   14  C1  UNL     1     -19.335  28.845   6.250  1.00  0.00     0.095 C 
ENDBRANCH   9  13
ENDBRANCH   5   6
ENDBRANCH   4   5
ENDBRANCH   3   4
ENDBRANCH   2   3
ENDBRANCH   1   2
BRANCH   1  15
HETATM   15  C9  UNL     1     -12.726  22.842   6.214  1.00  0.00     0.193 C 
BRANCH  15  16
HETATM   16  O3  UNL     1     -12.056  21.927   6.985  1.00  0.00    -0.387 OA
BRANCH  16  17
HETATM   17  C10 UNL     1     -11.954  22.239   8.315  1.00  0.00     0.193 C 
BRANCH  17  18
HETATM   18  C11 UNL     1     -13.216  21.910   9.091  1.00  0.00     0.194 C 
BRANCH  18  19
HETATM   19  O4  UNL     1     -13.378  20.522   9.130  1.00  0.00    -0.380 OA
BRANCH  19  20
HETATM   20  C12 UNL     1     -14.189  20.112  10.159  1.00  0.00     0.150 C 
HETATM   21  C13 UNL     1     -14.569  21.350  10.955  1.00  0.00     0.045 C 
BRANCH  20  22
HETATM   22  C14 UNL     1     -13.491  19.109  11.002  1.00  0.00    -0.030 A 
HETATM   23  C15 UNL     1     -13.125  19.441  12.287  1.00  0.00     0.010 A 
HETATM   24  C16 UNL     1     -12.471  18.547  13.122  1.00  0.00     0.001 A 
HETATM   25  C17 UNL     1     -12.205  17.300  12.595  1.00  0.00     0.000 A 
HETATM   26  C18 UNL     1     -12.543  16.906  11.322  1.00  0.00     0.001 A 
HETATM   27  C19 UNL     1     -13.201  17.847  10.522  1.00  0.00     0.010 A 
ENDBRANCH  20  22
ENDBRANCH  19  20
ENDBRANCH  18  19
ENDBRANCH  17  18
ENDBRANCH  16  17
ENDBRANCH  15  16
ENDBRANCH   1  15
TORSDOF 13
ENDMDL
MODEL 2
REMARK VINA RESULT: -5.895151017      0.848      1.340
REMARK  13 active torsions:
REMARK  status: ('A' for Active; 'I' for Inactive)
REMARK    1  A    between atoms: S1_2  and  C2_3 
REMARK    2  A    between atoms: C5_6  and  O1_7 
REMARK    3  A    between atoms: O1_7  and  C6_8 
REMARK    4  A    between atoms: C6_8  and  C7_9 
REMARK    5  A    between atoms: C7_9  and  O2_10 
REMARK    6  A    between atoms: O2_10  and  C8_11 
REMARK    7  A    between atoms: C8_11  and  C9_12 
REMARK    8  A    between atoms: C9_12  and  O3_13 
REMARK    9  A    between atoms: O3_13  and  C10_14 
REMARK   10  A    between atoms: C10_14  and  C11_15 
REMARK   11  A    between atoms: C11_15  and  O4_16 
REMARK   12  A    between atoms: O4_16  and  C12_17 
REMARK   13  A    between atoms: C12_17  and  C14_19 
ROOT
HETATM    1  C8  UNL     1     -11.588  24.003   5.843  1.00  0.00     0.193 C 
ENDROOT
BRANCH   1   2
HETATM    2  O2  UNL     1     -12.181  25.150   6.308  1.00  0.00    -0.387 OA
BRANCH   2   3
HETATM    3  C7  UNL     1     -11.256  26.117   6.598  1.00  0.00     0.194 C 
BRANCH   3   4
HETATM    4  C6  UNL     1     -11.691  27.454   5.974  1.00  0.00     0.203 C 
BRANCH   4   5
HETATM    5  O1  UNL     1     -12.923  27.801   6.132  1.00  0.00    -0.334 OA
BRANCH   5   6
HETATM    6  C5  UNL     1     -14.122  28.262   6.277  1.00  0.00     0.141 A 
HETATM    7  C4  UNL     1     -15.262  27.431   6.223  1.00  0.00     0.057 A 
HETATM    8  C3  UNL     1     -16.496  27.987   6.383  1.00  0.00     0.024 A 
HETATM    9  C2  UNL     1     -16.691  29.330   6.596  1.00  0.00     0.015 A 
HETATM   10  C20 UNL     1     -15.567  30.119   6.646  1.00  0.00     0.108 A 
HETATM   11  N1  UNL     1     -14.345  29.599   6.492  1.00  0.00    -0.346 N 
ATOM     12  H1  UNL     1     -13.541  30.224   6.538  1.00  0.00     0.167 HD
BRANCH   9  13
HETATM   13  S1  UNL     1     -18.284  30.074   6.807  1.00  0.00    -0.133 SA
HETATM   14  C1  UNL     1     -19.534  28.819   6.340  1.00  0.00     0.095 C 
ENDBRANCH   9  13
ENDBRANCH   5   6
ENDBRANCH   4   5
ENDBRANCH   3   4
ENDBRANCH   2   3
ENDBRANCH   1   2
BRANCH   1  15
HETATM   15  C9  UNL     1     -12.674  22.943   5.687  1.00  0.00     0.193 C 
BRANCH  15  16
HETATM   16  O3  UNL     1     -12.188  21.756   5.201  1.00  0.00    -0.387 OA
BRANCH  16  17
HETATM   17  C10 UNL     1     -12.109  20.734   6.110  1.00  0.00     0.193 C 
BRANCH  17  18
HETATM   18  C11 UNL     1     -13.159  20.839   7.201  1.00  0.00     0.194 C 
BRANCH  18  19
HETATM   19  O4  UNL     1     -12.665  20.245   8.366  1.00  0.00    -0.380 OA
BRANCH  19  20
HETATM   20  C12 UNL     1     -13.476  20.455   9.453  1.00  0.00     0.150 C 
HETATM   21  C13 UNL     1     -13.210  21.867   9.949  1.00  0.00     0.045 C 
BRANCH  20  22
HETATM   22  C14 UNL     1     -13.207  19.444  10.506  1.00  0.00    -0.030 A 
HETATM   23  C15 UNL     1     -13.135  18.112  10.163  1.00  0.00     0.010 A 
HETATM   24  C16 UNL     1     -12.887  17.122  11.102  1.00  0.00     0.001 A 
HETATM   25  C17 UNL     1     -12.714  17.541  12.404  1.00  0.00     0.000 A 
HETATM   26  C18 UNL     1     -12.775  18.854  12.812  1.00  0.00     0.001 A 
HETATM   27  C19 UNL     1     -13.028  19.812  11.824  1.00  0.00     0.010 A 
ENDBRANCH  20  22
ENDBRANCH  19  20
ENDBRANCH  18  19
ENDBRANCH  17  18
ENDBRANCH  16  17
ENDBRANCH  15  16
ENDBRANCH   1  15
TORSDOF 13
ENDMDL
MODEL 3
REMARK VINA RESULT: -5.859947461      4.691      8.311
REMARK  13 active torsions:
REMARK  status: ('A' for Active; 'I' for Inactive)
REMARK    1  A    between atoms: S1_2  and  C2_3 
REMARK    2  A    between atoms: C5_6  and  O1_7 
REMARK    3  A    between atoms: O1_7  and  C6_8 
REMARK    4  A    between atoms: C6_8  and  C7_9 
REMARK    5  A    between atoms: C7_9  and  O2_10 
REMARK    6  A    between atoms: O2_10  and  C8_11 
REMARK    7  A    between atoms: C8_11  and  C9_12 
REMARK    8  A    between atoms: C9_12  and  O3_13 
REMARK    9  A    between atoms: O3_13  and  C10_14 
REMARK   10  A    between atoms: C10_14  and  C11_15 
REMARK   11  A    between atoms: C11_15  and  O4_16 
REMARK   12  A    between atoms: O4_16  and  C12_17 
REMARK   13  A    between atoms: C12_17  and  C14_19 
ROOT
HETATM    1  C8  UNL     1     -14.794  30.100   6.653  1.00  0.00     0.193 C 
ENDROOT
BRANCH   1   2
HETATM    2  O2  UNL     1     -13.574  29.472   6.648  1.00  0.00    -0.387 OA
BRANCH   2   3
HETATM    3  C7  UNL     1     -13.675  28.171   6.233  1.00  0.00     0.194 C 
BRANCH   3   4
HETATM    4  C6  UNL     1     -12.270  27.567   6.073  1.00  0.00     0.203 C 
BRANCH   4   5
HETATM    5  O1  UNL     1     -12.189  26.282   6.005  1.00  0.00    -0.334 OA
BRANCH   5   6
HETATM    6  C5  UNL     1     -12.211  24.989   6.000  1.00  0.00     0.141 A 
HETATM    7  C4  UNL     1     -12.065  24.227   7.180  1.00  0.00     0.057 A 
HETATM    8  C3  UNL     1     -12.096  22.866   7.098  1.00  0.00     0.024 A 
HETATM    9  C2  UNL     1     -12.265  22.190   5.914  1.00  0.00     0.015 A 
HETATM   10  C20 UNL     1     -12.406  22.953   4.779  1.00  0.00     0.108 A 
HETATM   11  N1  UNL     1     -12.379  24.289   4.832  1.00  0.00    -0.346 N 
ATOM     12  H1  UNL     1     -12.489  24.812   3.963  1.00  0.00     0.167 HD
BRANCH   9  13
HETATM   13  S1  UNL     1     -12.310  20.425   5.785  1.00  0.00    -0.133 SA
HETATM   14  C1  UNL     1     -11.909  20.000   4.048  1.00  0.00     0.095 C 
ENDBRANCH   9  13
ENDBRANCH   5   6
ENDBRANCH   4   5
ENDBRANCH   3   4
ENDBRANCH   2   3
ENDBRANCH   1   2
BRANCH   1  15
HETATM   15  C9  UNL     1     -15.875  29.023   6.675  1.00  0.00     0.193 C 
BRANCH  15  16
HETATM   16  O3  UNL     1     -16.974  29.362   5.928  1.00  0.00    -0.387 OA
BRANCH  16  17
HETATM   17  C10 UNL     1     -18.154  29.446   6.618  1.00  0.00     0.193 C 
BRANCH  17  18
HETATM   18  C11 UNL     1     -19.296  28.738   5.913  1.00  0.00     0.194 C 
BRANCH  18  19
HETATM   19  O4  UNL     1     -18.780  27.986   4.854  1.00  0.00    -0.380 OA
BRANCH  19  20
HETATM   20  C12 UNL     1     -19.159  26.668   4.906  1.00  0.00     0.150 C 
HETATM   21  C13 UNL     1     -20.480  26.607   5.656  1.00  0.00     0.045 C 
BRANCH  20  22
HETATM   22  C14 UNL     1     -18.113  25.852   5.571  1.00  0.00    -0.030 A 
HETATM   23  C15 UNL     1     -18.453  25.052   6.639  1.00  0.00     0.010 A 
HETATM   24  C16 UNL     1     -17.520  24.268   7.300  1.00  0.00     0.001 A 
HETATM   25  C17 UNL     1     -16.224  24.329   6.829  1.00  0.00     0.000 A 
HETATM   26  C18 UNL     1     -15.819  25.106   5.769  1.00  0.00     0.001 A 
HETATM   27  C19 UNL     1     -16.802  25.878   5.138  1.00  0.00     0.010 A 
ENDBRANCH  20  22
ENDBRANCH  19  20
ENDBRANCH  18  19
ENDBRANCH  17  18
ENDBRANCH  16  17
ENDBRANCH  15  16
ENDBRANCH   1  15
TORSDOF 13
ENDMDL
MODEL 4
REMARK VINA RESULT: -5.820228902      1.460      2.093
REMARK  13 active torsions:
REMARK  status: ('A' for Active; 'I' for Inactive)
REMARK    1  A    between atoms: S1_2  and  C2_3 
REMARK    2  A    between atoms: C5_6  and  O1_7 
REMARK    3  A    between atoms: O1_7  and  C6_8 
REMARK    4  A    between atoms: C6_8  and  C7_9 
REMARK    5  A    between atoms: C7_9  and  O2_10 
REMARK    6  A    between atoms: O2_10  and  C8_11 
REMARK    7  A    between atoms: C8_11  and  C9_12 
REMARK    8  A    between atoms: C9_12  and  O3_13 
REMARK    9  A    between atoms: O3_13  and  C10_14 
REMARK   10  A    between atoms: C10_14  and  C11_15 
REMARK   11  A    between atoms: C11_15  and  O4_16 
REMARK   12  A    between atoms: O4_16  and  C12_17 
REMARK   13  A    between atoms: C12_17  and  C14_19 
ROOT
HETATM    1  C8  UNL     1     -11.018  24.889   6.007  1.00  0.00     0.193 C 
ENDROOT
BRANCH   1   2
HETATM    2  O2  UNL     1     -11.349  25.513   7.184  1.00  0.00    -0.387 OA
BRANCH   2   3
HETATM    3  C7  UNL     1     -11.081  26.856   7.139  1.00  0.00     0.194 C 
BRANCH   3   4
HETATM    4  C6  UNL     1     -11.828  27.495   5.957  1.00  0.00     0.203 C 
BRANCH   4   5
HETATM    5  O1  UNL     1     -13.100  27.663   6.090  1.00  0.00    -0.334 OA
BRANCH   5   6
HETATM    6  C5  UNL     1     -14.389  27.733   6.158  1.00  0.00     0.141 A 
HETATM    7  C4  UNL     1     -15.061  28.910   6.553  1.00  0.00     0.057 A 
HETATM    8  C3  UNL     1     -16.424  28.911   6.603  1.00  0.00     0.024 A 
HETATM    9  C2  UNL     1     -17.186  27.813   6.284  1.00  0.00     0.015 A 
HETATM   10  C20 UNL     1     -16.509  26.679   5.901  1.00  0.00     0.108 A 
HETATM   11  N1  UNL     1     -15.174  26.652   5.844  1.00  0.00    -0.346 N 
ATOM     12  H1  UNL     1     -14.717  25.788   5.553  1.00  0.00     0.167 HD
BRANCH   9  13
HETATM   13  S1  UNL     1     -18.955  27.791   6.340  1.00  0.00    -0.133 SA
HETATM   14  C1  UNL     1     -19.549  27.595   4.619  1.00  0.00     0.095 C 
ENDBRANCH   9  13
ENDBRANCH   5   6
ENDBRANCH   4   5
ENDBRANCH   3   4
ENDBRANCH   2   3
ENDBRANCH   1   2
BRANCH   1  15
HETATM   15  C9  UNL     1     -12.037  23.781   5.762  1.00  0.00     0.193 C 
BRANCH  15  16
HETATM   16  O3  UNL     1     -13.329  24.199   5.951  1.00  0.00    -0.387 OA
BRANCH  16  17
HETATM   17  C10 UNL     1     -14.162  23.289   6.548  1.00  0.00     0.193 C 
BRANCH  17  18
HETATM   18  C11 UNL     1     -13.696  22.894   7.937  1.00  0.00     0.194 C 
BRANCH  18  19
HETATM   19  O4  UNL     1     -13.785  21.505   8.069  1.00  0.00    -0.380 OA
BRANCH  19  20
HETATM   20  C12 UNL     1     -12.605  20.934   8.475  1.00  0.00     0.150 C 
HETATM   21  C13 UNL     1     -12.010  20.223   7.270  1.00  0.00     0.045 C 
BRANCH  20  22
HETATM   22  C14 UNL     1     -12.841  19.999   9.603  1.00  0.00    -0.030 A 
HETATM   23  C15 UNL     1     -12.904  20.490  10.888  1.00  0.00     0.010 A 
HETATM   24  C16 UNL     1     -13.122  19.666  11.982  1.00  0.00     0.001 A 
HETATM   25  C17 UNL     1     -13.273  18.321  11.716  1.00  0.00     0.000 A 
HETATM   26  C18 UNL     1     -13.221  17.767  10.458  1.00  0.00     0.001 A 
HETATM   27  C19 UNL     1     -12.999  18.644   9.390  1.00  0.00     0.010 A 
ENDBRANCH  20  22
ENDBRANCH  19  20
ENDBRANCH  18  19
ENDBRANCH  17  18
ENDBRANCH  16  17
ENDBRANCH  15  16
ENDBRANCH   1  15
TORSDOF 13
ENDMDL
MODEL 5
REMARK VINA RESULT: -5.807145264      1.464      2.904
REMARK  13 active torsions:
REMARK  status: ('A' for Active; 'I' for Inactive)
REMARK    1  A    between atoms: S1_2  and  C2_3 
REMARK    2  A    between atoms: C5_6  and  O1_7 
REMARK    3  A    between atoms: O1_7  and  C6_8 
REMARK    4  A    between atoms: C6_8  and  C7_9 
REMARK    5  A    between atoms: C7_9  and  O2_10 
REMARK    6  A    between atoms: O2_10  and  C8_11 
REMARK    7  A    between atoms: C8_11  and  C9_12 
REMARK    8  A    between atoms: C9_12  and  O3_13 
REMARK    9  A    between atoms: O3_13  and  C10_14 
REMARK   10  A    between atoms: C10_14  and  C11_15 
REMARK   11  A    between atoms: C11_15  and  O4_16 
REMARK   12  A    between atoms: O4_16  and  C12_17 
REMARK   13  A    between atoms: C12_17  and  C14_19 
ROOT
HETATM    1  C8  UNL     1     -11.056  24.638   6.748  1.00  0.00     0.193 C 
ENDROOT
BRANCH   1   2
HETATM    2  O2  UNL     1     -11.103  25.610   7.715  1.00  0.00    -0.387 OA
BRANCH   2   3
HETATM    3  C7  UNL     1     -10.894  26.858   7.190  1.00  0.00     0.194 C 
BRANCH   3   4
HETATM    4  C6  UNL     1     -11.803  27.065   5.967  1.00  0.00     0.203 C 
BRANCH   4   5
HETATM    5  O1  UNL     1     -12.973  27.561   6.184  1.00  0.00    -0.334 OA
BRANCH   5   6
HETATM    6  C5  UNL     1     -14.140  28.108   6.293  1.00  0.00     0.141 A 
HETATM    7  C4  UNL     1     -15.333  27.354   6.257  1.00  0.00     0.057 A 
HETATM    8  C3  UNL     1     -16.529  27.998   6.376  1.00  0.00     0.024 A 
HETATM    9  C2  UNL     1     -16.634  29.359   6.531  1.00  0.00     0.015 A 
HETATM   10  C20 UNL     1     -15.459  30.072   6.564  1.00  0.00     0.108 A 
HETATM   11  N1  UNL     1     -14.274  29.465   6.450  1.00  0.00    -0.346 N 
ATOM     12  H1  UNL     1     -13.429  30.036   6.481  1.00  0.00     0.167 HD
BRANCH   9  13
HETATM   13  S1  UNL     1     -18.175  30.217   6.689  1.00  0.00    -0.133 SA
HETATM   14  C1  UNL     1     -19.501  29.031   6.254  1.00  0.00     0.095 C 
ENDBRANCH   9  13
ENDBRANCH   5   6
ENDBRANCH   4   5
ENDBRANCH   3   4
ENDBRANCH   2   3
ENDBRANCH   1   2
BRANCH   1  15
HETATM   15  C9  UNL     1     -12.091  23.575   7.101  1.00  0.00     0.193 C 
BRANCH  15  16
HETATM   16  O3  UNL     1     -12.028  22.481   6.277  1.00  0.00    -0.387 OA
BRANCH  16  17
HETATM   17  C10 UNL     1     -12.119  21.265   6.902  1.00  0.00     0.193 C 
BRANCH  17  18
HETATM   18  C11 UNL     1     -11.883  21.358   8.398  1.00  0.00     0.194 C 
BRANCH  18  19
HETATM   19  O4  UNL     1     -12.968  20.783   9.067  1.00  0.00    -0.380 OA
BRANCH  19  20
HETATM   20  C12 UNL     1     -13.176  21.330  10.308  1.00  0.00     0.150 C 
HETATM   21  C13 UNL     1     -12.926  20.234  11.332  1.00  0.00     0.045 C 
BRANCH  20  22
HETATM   22  C14 UNL     1     -14.554  21.874  10.412  1.00  0.00    -0.030 A 
HETATM   23  C15 UNL     1     -15.335  21.539  11.496  1.00  0.00     0.010 A 
HETATM   24  C16 UNL     1     -16.628  22.015  11.647  1.00  0.00     0.001 A 
HETATM   25  C17 UNL     1     -17.095  22.848  10.651  1.00  0.00     0.000 A 
HETATM   26  C18 UNL     1     -16.368  23.221   9.545  1.00  0.00     0.001 A 
HETATM   27  C19 UNL     1     -15.068  22.711   9.442  1.00  0.00     0.010 A 
ENDBRANCH  20  22
ENDBRANCH  19  20
ENDBRANCH  18  19
ENDBRANCH  17  18
ENDBRANCH  16  17
ENDBRANCH  15  16
ENDBRANCH   1  15
TORSDOF 13
ENDMDL
