MODEL 1
REMARK VINA RESULT: -6.685406708      0.000      0.000
REMARK  14 active torsions:
REMARK  status: ('A' for Active; 'I' for Inactive)
REMARK    1  A    between atoms: C2_2  and  C3_3 
REMARK    2  A    between atoms: C2_2  and  C8_16 
REMARK    3  A    between atoms: C3_3  and  C4_4 
REMARK    4  A    between atoms: C4_4  and  O1_5 
REMARK    5  A    between atoms: O1_5  and  C5_6 
REMARK    6  A    between atoms: C5_6  and  C6_7 
REMARK    7  A    between atoms: C6_7  and  N1_8 
REMARK    8  A    between atoms: C8_16  and  C9_17 
REMARK    9  A    between atoms: C9_17  and  C10_18 
REMARK   10  A    between atoms: C10_18  and  C11_19 
REMARK   11  A    between atoms: C12_20  and  C13_21 
REMARK   12  A    between atoms: C13_21  and  C14_22 
REMARK   13  A    between atoms: C15_23  and  C16_24 
REMARK   14  A    between atoms: C16_24  and  C17_25 
ROOT
HETATM    1  C8  UNL     1     -11.929  23.403   7.234  1.00  0.00     0.034 C 
ENDROOT
BRANCH   1   2
HETATM    2  C2  UNL     1     -12.624  23.366   5.937  1.00  0.00    -0.086 C 
HETATM    3  C1  UNL     1     -12.404  22.246   5.006  1.00  0.00     0.043 C 
BRANCH   2   4
HETATM    4  C3  UNL     1     -13.451  24.337   5.594  1.00  0.00     0.001 C 
BRANCH   4   5
HETATM    5  C4  UNL     1     -14.931  24.192   5.551  1.00  0.00     0.195 C 
BRANCH   5   6
HETATM    6  O1  UNL     1     -15.566  25.375   5.259  1.00  0.00    -0.386 OA
BRANCH   6   7
HETATM    7  C5  UNL     1     -16.272  25.924   6.295  1.00  0.00     0.189 C 
BRANCH   7   8
HETATM    8  C6  UNL     1     -16.606  27.393   6.102  1.00  0.00     0.177 C 
BRANCH   8   9
HETATM    9  N1  UNL     1     -15.403  28.195   6.299  1.00  0.00    -0.269 N 
HETATM   10  C7  UNL     1     -15.344  29.494   6.682  1.00  0.00     0.219 A 
HETATM   11  N2  UNL     1     -14.046  29.803   6.731  1.00  0.00    -0.279 N 
HETATM   12  N3  UNL     1     -13.360  28.719   6.384  1.00  0.00    -0.227 N 
ATOM     13  H2  UNL     1     -13.652  30.708   6.987  1.00  0.00     0.189 HD
HETATM   14  N4  UNL     1     -14.191  27.742   6.123  1.00  0.00    -0.225 N 
ATOM     15  H3  UNL     1     -12.343  28.658   6.331  1.00  0.00     0.210 HD
ATOM     16  H4  UNL     1     -13.938  26.797   5.835  1.00  0.00     0.210 HD
ENDBRANCH   8   9
ENDBRANCH   7   8
ENDBRANCH   6   7
ENDBRANCH   5   6
ENDBRANCH   4   5
ENDBRANCH   2   4
ENDBRANCH   1   2
BRANCH   1  17
HETATM   17  C9  UNL     1     -12.675  22.645   8.304  1.00  0.00     0.008 C 
BRANCH  17  18
HETATM   18  C10 UNL     1     -11.685  21.662   8.942  1.00  0.00     0.027 C 
BRANCH  18  19
HETATM   19  C11 UNL     1     -12.231  21.154  10.215  1.00  0.00    -0.030 C 
HETATM   20  C12 UNL     1     -13.481  20.744  10.284  1.00  0.00    -0.027 C 
BRANCH  20  21
HETATM   21  C13 UNL     1     -14.058  20.224  11.565  1.00  0.00     0.053 C 
BRANCH  21  22
HETATM   22  C14 UNL     1     -12.970  19.629  12.339  1.00  0.00    -0.027 C 
HETATM   23  C15 UNL     1     -12.833  18.372  12.648  1.00  0.00    -0.027 C 
BRANCH  23  24
HETATM   24  C16 UNL     1     -13.782  17.330  12.252  1.00  0.00     0.062 C 
BRANCH  24  25
HETATM   25  C17 UNL     1     -13.153  16.564  11.097  1.00  0.00     0.149 C 
HETATM   26  C18 UNL     1     -13.312  15.104  11.266  1.00  0.00     0.004 C 
HETATM   27  C19 UNL     1     -12.110  14.574  11.163  1.00  0.00     0.008 C 
HETATM   28  C20 UNL     1     -11.114  15.659  10.922  1.00  0.00     0.072 C 
HETATM   29  C21 UNL     1      -9.952  15.538  11.889  1.00  0.00     0.050 C 
HETATM   30  C22 UNL     1     -10.594  15.583   9.517  1.00  0.00     0.050 C 
HETATM   31  O2  UNL     1     -11.807  16.836  11.071  1.00  0.00    -0.368 OA
ENDBRANCH  24  25
ENDBRANCH  23  24
ENDBRANCH  21  22
ENDBRANCH  20  21
ENDBRANCH  18  19
ENDBRANCH  17  18
ENDBRANCH   1  17
TORSDOF 14
ENDMDL
MODEL 2
REMARK VINA RESULT: -6.684345404      3.943      5.759
REMARK  14 active torsions:
REMARK  status: ('A' for Active; 'I' for Inactive)
REMARK    1  A    between atoms: C2_2  and  C3_3 
REMARK    2  A    between atoms: C2_2  and  C8_16 
REMARK    3  A    between atoms: C3_3  and  C4_4 
REMARK    4  A    between atoms: C4_4  and  O1_5 
REMARK    5  A    between atoms: O1_5  and  C5_6 
REMARK    6  A    between atoms: C5_6  and  C6_7 
REMARK    7  A    between atoms: C6_7  and  N1_8 
REMARK    8  A    between atoms: C8_16  and  C9_17 
REMARK    9  A    between atoms: C9_17  and  C10_18 
REMARK   10  A    between atoms: C10_18  and  C11_19 
REMARK   11  A    between atoms: C12_20  and  C13_21 
REMARK   12  A    between atoms: C13_21  and  C14_22 
REMARK   13  A    between atoms: C15_23  and  C16_24 
REMARK   14  A    between atoms: C16_24  and  C17_25 
ROOT
HETATM    1  C8  UNL     1     -15.288  22.659   8.881  1.00  0.00     0.034 C 
ENDROOT
BRANCH   1   2
HETATM    2  C2  UNL     1     -16.474  22.590   8.010  1.00  0.00    -0.086 C 
HETATM    3  C1  UNL     1     -17.101  21.291   7.709  1.00  0.00     0.043 C 
BRANCH   2   4
HETATM    4  C3  UNL     1     -16.986  23.690   7.490  1.00  0.00     0.001 C 
BRANCH   4   5
HETATM    5  C4  UNL     1     -16.197  24.698   6.733  1.00  0.00     0.195 C 
BRANCH   5   6
HETATM    6  O1  UNL     1     -16.970  25.741   6.283  1.00  0.00    -0.386 OA
BRANCH   6   7
HETATM    7  C5  UNL     1     -17.091  26.791   7.153  1.00  0.00     0.189 C 
BRANCH   7   8
HETATM    8  C6  UNL     1     -17.031  28.154   6.484  1.00  0.00     0.177 C 
BRANCH   8   9
HETATM    9  N1  UNL     1     -15.659  28.650   6.517  1.00  0.00    -0.269 N 
HETATM   10  C7  UNL     1     -15.259  29.920   6.774  1.00  0.00     0.219 A 
HETATM   11  N2  UNL     1     -13.926  29.906   6.697  1.00  0.00    -0.279 N 
HETATM   12  N3  UNL     1     -13.551  28.666   6.401  1.00  0.00    -0.227 N 
ATOM     13  H2  UNL     1     -13.307  30.703   6.839  1.00  0.00     0.189 HD
HETATM   14  N4  UNL     1     -14.611  27.905   6.293  1.00  0.00    -0.225 N 
ATOM     15  H3  UNL     1     -12.588  28.356   6.277  1.00  0.00     0.210 HD
ATOM     16  H4  UNL     1     -14.617  26.909   6.075  1.00  0.00     0.210 HD
ENDBRANCH   8   9
ENDBRANCH   7   8
ENDBRANCH   6   7
ENDBRANCH   5   6
ENDBRANCH   4   5
ENDBRANCH   2   4
ENDBRANCH   1   2
BRANCH   1  17
HETATM   17  C9  UNL     1     -14.550  21.345   8.946  1.00  0.00     0.008 C 
BRANCH  17  18
HETATM   18  C10 UNL     1     -13.051  21.661   8.898  1.00  0.00     0.027 C 
BRANCH  18  19
HETATM   19  C11 UNL     1     -12.837  22.996   8.308  1.00  0.00    -0.030 C 
HETATM   20  C12 UNL     1     -11.651  23.333   7.842  1.00  0.00    -0.027 C 
BRANCH  20  21
HETATM   21  C13 UNL     1     -11.410  24.684   7.239  1.00  0.00     0.053 C 
BRANCH  21  22
HETATM   22  C14 UNL     1     -10.927  24.488   5.874  1.00  0.00    -0.027 C 
HETATM   23  C15 UNL     1     -11.644  24.189   4.831  1.00  0.00    -0.027 C 
BRANCH  23  24
HETATM   24  C16 UNL     1     -13.096  23.998   4.870  1.00  0.00     0.062 C 
BRANCH  24  25
HETATM   25  C17 UNL     1     -13.387  22.636   4.257  1.00  0.00     0.149 C 
HETATM   26  C18 UNL     1     -14.485  21.947   4.967  1.00  0.00     0.004 C 
HETATM   27  C19 UNL     1     -14.034  20.757   5.306  1.00  0.00     0.008 C 
HETATM   28  C20 UNL     1     -12.625  20.614   4.835  1.00  0.00     0.072 C 
HETATM   29  C21 UNL     1     -11.734  20.130   5.963  1.00  0.00     0.050 C 
HETATM   30  C22 UNL     1     -12.555  19.635   3.700  1.00  0.00     0.050 C 
HETATM   31  O2  UNL     1     -12.264  21.854   4.369  1.00  0.00    -0.368 OA
ENDBRANCH  24  25
ENDBRANCH  23  24
ENDBRANCH  21  22
ENDBRANCH  20  21
ENDBRANCH  18  19
ENDBRANCH  17  18
ENDBRANCH   1  17
TORSDOF 14
ENDMDL
MODEL 3
REMARK VINA RESULT: -6.634604694      2.971      5.475
REMARK  14 active torsions:
REMARK  status: ('A' for Active; 'I' for Inactive)
REMARK    1  A    between atoms: C2_2  and  C3_3 
REMARK    2  A    between atoms: C2_2  and  C8_16 
REMARK    3  A    between atoms: C3_3  and  C4_4 
REMARK    4  A    between atoms: C4_4  and  O1_5 
REMARK    5  A    between atoms: O1_5  and  C5_6 
REMARK    6  A    between atoms: C5_6  and  C6_7 
REMARK    7  A    between atoms: C6_7  and  N1_8 
REMARK    8  A    between atoms: C8_16  and  C9_17 
REMARK    9  A    between atoms: C9_17  and  C10_18 
REMARK   10  A    between atoms: C10_18  and  C11_19 
REMARK   11  A    between atoms: C12_20  and  C13_21 
REMARK   12  A    between atoms: C13_21  and  C14_22 
REMARK   13  A    between atoms: C15_23  and  C16_24 
REMARK   14  A    between atoms: C16_24  and  C17_25 
ROOT
HETATM    1  C8  UNL     1     -16.263  23.010   9.476  1.00  0.00     0.034 C 
ENDROOT
BRANCH   1   2
HETATM    2  C2  UNL     1     -16.950  23.898   8.524  1.00  0.00    -0.086 C 
HETATM    3  C1  UNL     1     -16.806  23.687   7.073  1.00  0.00     0.043 C 
BRANCH   2   4
HETATM    4  C3  UNL     1     -17.701  24.892   8.960  1.00  0.00     0.001 C 
BRANCH   4   5
HETATM    5  C4  UNL     1     -18.317  25.918   8.077  1.00  0.00     0.195 C 
BRANCH   5   6
HETATM    6  O1  UNL     1     -17.729  27.152   8.215  1.00  0.00    -0.386 OA
BRANCH   6   7
HETATM    7  C5  UNL     1     -17.568  27.851   7.048  1.00  0.00     0.189 C 
BRANCH   7   8
HETATM    8  C6  UNL     1     -16.388  27.388   6.212  1.00  0.00     0.177 C 
BRANCH   8   9
HETATM    9  N1  UNL     1     -15.280  28.323   6.375  1.00  0.00    -0.269 N 
HETATM   10  C7  UNL     1     -15.360  29.620   6.759  1.00  0.00     0.219 A 
HETATM   11  N2  UNL     1     -14.105  30.077   6.770  1.00  0.00    -0.279 N 
HETATM   12  N3  UNL     1     -13.309  29.079   6.402  1.00  0.00    -0.227 N 
ATOM     13  H2  UNL     1     -13.810  31.022   7.016  1.00  0.00     0.189 HD
HETATM   14  N4  UNL     1     -14.029  28.012   6.164  1.00  0.00    -0.225 N 
ATOM     15  H3  UNL     1     -12.294  29.135   6.319  1.00  0.00     0.210 HD
ATOM     16  H4  UNL     1     -13.678  27.102   5.867  1.00  0.00     0.210 HD
ENDBRANCH   8   9
ENDBRANCH   7   8
ENDBRANCH   6   7
ENDBRANCH   5   6
ENDBRANCH   4   5
ENDBRANCH   2   4
ENDBRANCH   1   2
BRANCH   1  17
HETATM   17  C9  UNL     1     -16.980  22.927  10.801  1.00  0.00     0.008 C 
BRANCH  17  18
HETATM   18  C10 UNL     1     -16.179  21.975  11.696  1.00  0.00     0.027 C 
BRANCH  18  19
HETATM   19  C11 UNL     1     -14.957  21.535  10.995  1.00  0.00    -0.030 C 
HETATM   20  C12 UNL     1     -14.254  20.522  11.460  1.00  0.00    -0.027 C 
BRANCH  20  21
HETATM   21  C13 UNL     1     -13.011  20.057  10.765  1.00  0.00     0.053 C 
BRANCH  21  22
HETATM   22  C14 UNL     1     -12.187  21.231  10.485  1.00  0.00    -0.027 C 
HETATM   23  C15 UNL     1     -11.682  21.571   9.335  1.00  0.00    -0.027 C 
BRANCH  23  24
HETATM   24  C16 UNL     1     -11.873  20.799   8.105  1.00  0.00     0.062 C 
BRANCH  24  25
HETATM   25  C17 UNL     1     -12.725  21.647   7.171  1.00  0.00     0.149 C 
HETATM   26  C18 UNL     1     -12.391  21.392   5.753  1.00  0.00     0.004 C 
HETATM   27  C19 UNL     1     -12.131  22.562   5.206  1.00  0.00     0.008 C 
HETATM   28  C20 UNL     1     -12.283  23.631   6.236  1.00  0.00     0.072 C 
HETATM   29  C21 UNL     1     -11.062  24.531   6.253  1.00  0.00     0.050 C 
HETATM   30  C22 UNL     1     -13.500  24.460   5.947  1.00  0.00     0.050 C 
HETATM   31  O2  UNL     1     -12.472  22.972   7.426  1.00  0.00    -0.368 OA
ENDBRANCH  24  25
ENDBRANCH  23  24
ENDBRANCH  21  22
ENDBRANCH  20  21
ENDBRANCH  18  19
ENDBRANCH  17  18
ENDBRANCH   1  17
TORSDOF 14
ENDMDL
MODEL 4
REMARK VINA RESULT: -6.498098685      2.951      4.603
REMARK  14 active torsions:
REMARK  status: ('A' for Active; 'I' for Inactive)
REMARK    1  A    between atoms: C2_2  and  C3_3 
REMARK    2  A    between atoms: C2_2  and  C8_16 
REMARK    3  A    between atoms: C3_3  and  C4_4 
REMARK    4  A    between atoms: C4_4  and  O1_5 
REMARK    5  A    between atoms: O1_5  and  C5_6 
REMARK    6  A    between atoms: C5_6  and  C6_7 
REMARK    7  A    between atoms: C6_7  and  N1_8 
REMARK    8  A    between atoms: C8_16  and  C9_17 
REMARK    9  A    between atoms: C9_17  and  C10_18 
REMARK   10  A    between atoms: C10_18  and  C11_19 
REMARK   11  A    between atoms: C12_20  and  C13_21 
REMARK   12  A    between atoms: C13_21  and  C14_22 
REMARK   13  A    between atoms: C15_23  and  C16_24 
REMARK   14  A    between atoms: C16_24  and  C17_25 
ROOT
HETATM    1  C8  UNL     1     -13.657  23.747   6.751  1.00  0.00     0.034 C 
ENDROOT
BRANCH   1   2
HETATM    2  C2  UNL     1     -15.103  23.792   6.474  1.00  0.00    -0.086 C 
HETATM    3  C1  UNL     1     -16.008  22.802   7.083  1.00  0.00     0.043 C 
BRANCH   2   4
HETATM    4  C3  UNL     1     -15.602  24.719   5.678  1.00  0.00     0.001 C 
BRANCH   4   5
HETATM    5  C4  UNL     1     -17.033  25.125   5.668  1.00  0.00     0.195 C 
BRANCH   5   6
HETATM    6  O1  UNL     1     -17.192  26.489   5.638  1.00  0.00    -0.386 OA
BRANCH   6   7
HETATM    7  C5  UNL     1     -17.199  27.100   6.863  1.00  0.00     0.189 C 
BRANCH   7   8
HETATM    8  C6  UNL     1     -17.081  28.613   6.798  1.00  0.00     0.177 C 
BRANCH   8   9
HETATM    9  N1  UNL     1     -15.675  28.986   6.690  1.00  0.00    -0.269 N 
HETATM   10  C7  UNL     1     -15.148  30.226   6.838  1.00  0.00     0.219 A 
HETATM   11  N2  UNL     1     -13.833  30.090   6.654  1.00  0.00    -0.279 N 
HETATM   12  N3  UNL     1     -13.591  28.808   6.402  1.00  0.00    -0.227 N 
ATOM     13  H2  UNL     1     -13.138  30.835   6.697  1.00  0.00     0.189 HD
HETATM   14  N4  UNL     1     -14.716  28.139   6.427  1.00  0.00    -0.225 N 
ATOM     15  H3  UNL     1     -12.671  28.407   6.220  1.00  0.00     0.210 HD
ATOM     16  H4  UNL     1     -14.825  27.138   6.269  1.00  0.00     0.210 HD
ENDBRANCH   8   9
ENDBRANCH   7   8
ENDBRANCH   6   7
ENDBRANCH   5   6
ENDBRANCH   4   5
ENDBRANCH   2   4
ENDBRANCH   1   2
BRANCH   1  17
HETATM   17  C9  UNL     1     -12.881  24.720   5.897  1.00  0.00     0.008 C 
BRANCH  17  18
HETATM   18  C10 UNL     1     -12.039  23.896   4.917  1.00  0.00     0.027 C 
BRANCH  18  19
HETATM   19  C11 UNL     1     -12.076  22.470   5.297  1.00  0.00    -0.030 C 
HETATM   20  C12 UNL     1     -12.428  21.557   4.414  1.00  0.00    -0.027 C 
BRANCH  20  21
HETATM   21  C13 UNL     1     -12.473  20.105   4.777  1.00  0.00     0.053 C 
BRANCH  21  22
HETATM   22  C14 UNL     1     -13.771  19.835   5.391  1.00  0.00    -0.027 C 
HETATM   23  C15 UNL     1     -14.004  19.613   6.652  1.00  0.00    -0.027 C 
BRANCH  23  24
HETATM   24  C16 UNL     1     -12.962  19.601   7.681  1.00  0.00     0.062 C 
BRANCH  24  25
HETATM   25  C17 UNL     1     -13.073  20.910   8.449  1.00  0.00     0.149 C 
HETATM   26  C18 UNL     1     -11.892  21.135   9.309  1.00  0.00     0.004 C 
HETATM   27  C19 UNL     1     -12.342  21.362  10.526  1.00  0.00     0.008 C 
HETATM   28  C20 UNL     1     -13.833  21.295  10.517  1.00  0.00     0.072 C 
HETATM   29  C21 UNL     1     -14.330  20.381  11.621  1.00  0.00     0.050 C 
HETATM   30  C22 UNL     1     -14.414  22.664  10.714  1.00  0.00     0.050 C 
HETATM   31  O2  UNL     1     -14.176  20.848   9.265  1.00  0.00    -0.368 OA
ENDBRANCH  24  25
ENDBRANCH  23  24
ENDBRANCH  21  22
ENDBRANCH  20  21
ENDBRANCH  18  19
ENDBRANCH  17  18
ENDBRANCH   1  17
TORSDOF 14
ENDMDL
MODEL 5
REMARK VINA RESULT: -6.438590467      1.356      2.421
REMARK  14 active torsions:
REMARK  status: ('A' for Active; 'I' for Inactive)
REMARK    1  A    between atoms: C2_2  and  C3_3 
REMARK    2  A    between atoms: C2_2  and  C8_16 
REMARK    3  A    between atoms: C3_3  and  C4_4 
REMARK    4  A    between atoms: C4_4  and  O1_5 
REMARK    5  A    between atoms: O1_5  and  C5_6 
REMARK    6  A    between atoms: C5_6  and  C6_7 
REMARK    7  A    between atoms: C6_7  and  N1_8 
REMARK    8  A    between atoms: C8_16  and  C9_17 
REMARK    9  A    between atoms: C9_17  and  C10_18 
REMARK   10  A    between atoms: C10_18  and  C11_19 
REMARK   11  A    between atoms: C12_20  and  C13_21 
REMARK   12  A    between atoms: C13_21  and  C14_22 
REMARK   13  A    between atoms: C15_23  and  C16_24 
REMARK   14  A    between atoms: C16_24  and  C17_25 
ROOT
HETATM    1  C8  UNL     1     -11.942  23.240   5.404  1.00  0.00     0.034 C 
ENDROOT
BRANCH   1   2
HETATM    2  C2  UNL     1     -13.347  23.297   4.968  1.00  0.00    -0.086 C 
HETATM    3  C1  UNL     1     -13.932  22.188   4.194  1.00  0.00     0.043 C 
BRANCH   2   4
HETATM    4  C3  UNL     1     -14.097  24.343   5.264  1.00  0.00     0.001 C 
BRANCH   4   5
HETATM    5  C4  UNL     1     -15.540  24.260   5.613  1.00  0.00     0.195 C 
BRANCH   5   6
HETATM    6  O1  UNL     1     -16.213  25.428   5.350  1.00  0.00    -0.386 OA
BRANCH   6   7
HETATM    7  C5  UNL     1     -16.571  26.152   6.456  1.00  0.00     0.189 C 
BRANCH   7   8
HETATM    8  C6  UNL     1     -16.782  27.631   6.181  1.00  0.00     0.177 C 
BRANCH   8   9
HETATM    9  N1  UNL     1     -15.519  28.341   6.348  1.00  0.00    -0.269 N 
HETATM   10  C7  UNL     1     -15.356  29.634   6.721  1.00  0.00     0.219 A 
HETATM   11  N2  UNL     1     -14.037  29.845   6.740  1.00  0.00    -0.279 N 
HETATM   12  N3  UNL     1     -13.441  28.712   6.386  1.00  0.00    -0.227 N 
ATOM     13  H2  UNL     1     -13.571  30.720   6.983  1.00  0.00     0.189 HD
HETATM   14  N4  UNL     1     -14.348  27.799   6.149  1.00  0.00    -0.225 N 
ATOM     15  H3  UNL     1     -12.433  28.575   6.311  1.00  0.00     0.210 HD
ATOM     16  H4  UNL     1     -14.173  26.836   5.861  1.00  0.00     0.210 HD
ENDBRANCH   8   9
ENDBRANCH   7   8
ENDBRANCH   6   7
ENDBRANCH   5   6
ENDBRANCH   4   5
ENDBRANCH   2   4
ENDBRANCH   1   2
BRANCH   1  17
HETATM   17  C9  UNL     1     -11.459  24.561   5.950  1.00  0.00     0.008 C 
BRANCH  17  18
HETATM   18  C10 UNL     1     -11.203  24.369   7.449  1.00  0.00     0.027 C 
BRANCH  18  19
HETATM   19  C11 UNL     1     -11.626  23.018   7.863  1.00  0.00    -0.030 C 
HETATM   20  C12 UNL     1     -12.665  22.863   8.658  1.00  0.00    -0.027 C 
BRANCH  20  21
HETATM   21  C13 UNL     1     -13.114  21.501   9.092  1.00  0.00     0.053 C 
BRANCH  21  22
HETATM   22  C14 UNL     1     -12.185  20.522   8.531  1.00  0.00    -0.027 C 
HETATM   23  C15 UNL     1     -12.401  19.249   8.369  1.00  0.00    -0.027 C 
BRANCH  23  24
HETATM   24  C16 UNL     1     -13.653  18.584   8.737  1.00  0.00     0.062 C 
BRANCH  24  25
HETATM   25  C17 UNL     1     -13.303  17.488   9.734  1.00  0.00     0.149 C 
HETATM   26  C18 UNL     1     -14.489  17.063  10.508  1.00  0.00     0.004 C 
HETATM   27  C19 UNL     1     -14.167  17.156  11.782  1.00  0.00     0.008 C 
HETATM   28  C20 UNL     1     -12.762  17.644  11.899  1.00  0.00     0.072 C 
HETATM   29  C21 UNL     1     -12.683  18.813  12.862  1.00  0.00     0.050 C 
HETATM   30  C22 UNL     1     -11.870  16.542  12.391  1.00  0.00     0.050 C 
HETATM   31  O2  UNL     1     -12.381  17.982  10.624  1.00  0.00    -0.368 OA
ENDBRANCH  24  25
ENDBRANCH  23  24
ENDBRANCH  21  22
ENDBRANCH  20  21
ENDBRANCH  18  19
ENDBRANCH  17  18
ENDBRANCH   1  17
TORSDOF 14
ENDMDL
