MODEL 1
REMARK VINA RESULT: -5.916549807      0.000      0.000
REMARK  13 active torsions:
REMARK  status: ('A' for Active; 'I' for Inactive)
REMARK    1  A    between atoms: C2_2  and  S1_3 
REMARK    2  A    between atoms: S1_3  and  C3_4 
REMARK    3  A    between atoms: C3_4  and  C4_5 
REMARK    4  A    between atoms: C4_5  and  N1_6 
REMARK    5  A    between atoms: N1_6  and  C5_7 
REMARK    6  A    between atoms: N1_6  and  C14_20 
REMARK    7  A    between atoms: C5_7  and  C6_8 
REMARK    8  A    between atoms: C6_8  and  O1_9 
REMARK    9  A    between atoms: O1_9  and  C7_10 
REMARK   10  A    between atoms: C7_10  and  C8_11 
REMARK   11  A    between atoms: C8_11  and  C9_12 
REMARK   12  A    between atoms: C9_12  and  C11_14 
REMARK   13  A    between atoms: C14_20  and  C15_21 
ROOT
HETATM    1  N1  UNL     1     -12.614  22.947   5.460  1.00  0.00    -0.365 N 
ENDROOT
BRANCH   1   2
HETATM    2  C4  UNL     1     -12.328  21.651   5.920  1.00  0.00     0.073 C 
BRANCH   2   3
HETATM    3  C3  UNL     1     -12.288  21.651   7.443  1.00  0.00     0.118 C 
BRANCH   3   4
HETATM    4  S1  UNL     1     -12.307  19.932   8.065  1.00  0.00    -0.164 SA
BRANCH   4   5
HETATM    5  C2  UNL     1     -12.981  20.019   9.761  1.00  0.00     0.069 C 
HETATM    6  C1  UNL     1     -12.298  21.168  10.478  1.00  0.00     0.016 C 
ENDBRANCH   4   5
ENDBRANCH   3   4
ENDBRANCH   2   3
ENDBRANCH   1   2
BRANCH   1   7
HETATM    7  C5  UNL     1     -13.864  23.126   4.827  1.00  0.00     0.153 C 
BRANCH   7   8
HETATM    8  C6  UNL     1     -14.914  23.681   5.760  1.00  0.00     0.187 C 
BRANCH   8   9
HETATM    9  O1  UNL     1     -15.719  24.630   5.203  1.00  0.00    -0.389 OA
BRANCH   9  10
HETATM   10  C7  UNL     1     -15.509  25.920   5.594  1.00  0.00     0.168 C 
BRANCH  10  11
HETATM   11  C8  UNL     1     -16.840  26.551   5.918  1.00  0.00     0.037 C 
BRANCH  11  12
HETATM   12  C9  UNL     1     -16.844  27.351   7.188  1.00  0.00     0.041 C 
HETATM   13  C10 UNL     1     -18.227  27.549   7.725  1.00  0.00     0.017 C 
BRANCH  12  14
HETATM   14  C11 UNL     1     -16.327  28.722   6.822  1.00  0.00     0.054 A 
HETATM   15  N2  UNL     1     -15.069  29.132   6.862  1.00  0.00    -0.363 N 
HETATM   16  C12 UNL     1     -14.774  30.345   6.517  1.00  0.00     0.095 A 
ATOM     17  H2  UNL     1     -14.333  28.492   7.164  1.00  0.00     0.165 HD
HETATM   18  C13 UNL     1     -15.812  31.160   6.121  1.00  0.00     0.068 A 
HETATM   19  S2  UNL     1     -17.150  30.111   6.273  1.00  0.00    -0.087 SA
ENDBRANCH  12  14
ENDBRANCH  11  12
ENDBRANCH  10  11
ENDBRANCH   9  10
ENDBRANCH   8   9
ENDBRANCH   7   8
ENDBRANCH   1   7
BRANCH   1  20
HETATM   20  C14 UNL     1     -11.580  23.733   4.913  1.00  0.00     0.119 C 
BRANCH  20  21
HETATM   21  C15 UNL     1     -11.375  25.058   5.525  1.00  0.00     0.047 A 
HETATM   22  C16 UNL     1     -11.202  25.085   6.892  1.00  0.00     0.031 A 
HETATM   23  C17 UNL     1     -10.997  26.257   7.583  1.00  0.00     0.004 A 
HETATM   24  C18 UNL     1     -10.966  27.439   6.882  1.00  0.00     0.017 A 
HETATM   25  C19 UNL     1     -11.144  27.375   5.515  1.00  0.00     0.088 A 
HETATM   26  N3  UNL     1     -11.343  26.221   4.858  1.00  0.00    -0.365 N 
ATOM     27  H3  UNL     1     -11.470  26.228   3.845  1.00  0.00     0.165 HD
ENDBRANCH  20  21
ENDBRANCH   1  20
TORSDOF 13
ENDMDL
MODEL 2
REMARK VINA RESULT: -5.756992250      2.082      6.848
REMARK  13 active torsions:
REMARK  status: ('A' for Active; 'I' for Inactive)
REMARK    1  A    between atoms: C2_2  and  S1_3 
REMARK    2  A    between atoms: S1_3  and  C3_4 
REMARK    3  A    between atoms: C3_4  and  C4_5 
REMARK    4  A    between atoms: C4_5  and  N1_6 
REMARK    5  A    between atoms: N1_6  and  C5_7 
REMARK    6  A    between atoms: N1_6  and  C14_20 
REMARK    7  A    between atoms: C5_7  and  C6_8 
REMARK    8  A    between atoms: C6_8  and  O1_9 
REMARK    9  A    between atoms: O1_9  and  C7_10 
REMARK   10  A    between atoms: C7_10  and  C8_11 
REMARK   11  A    between atoms: C8_11  and  C9_12 
REMARK   12  A    between atoms: C9_12  and  C11_14 
REMARK   13  A    between atoms: C14_20  and  C15_21 
ROOT
HETATM    1  N1  UNL     1     -17.102  26.578   6.495  1.00  0.00    -0.365 N 
ENDROOT
BRANCH   1   2
HETATM    2  C4  UNL     1     -18.102  25.616   6.716  1.00  0.00     0.073 C 
BRANCH   2   3
HETATM    3  C3  UNL     1     -19.100  26.149   7.737  1.00  0.00     0.118 C 
BRANCH   3   4
HETATM    4  S1  UNL     1     -20.552  26.853   6.877  1.00  0.00    -0.164 SA
BRANCH   4   5
HETATM    5  C2  UNL     1     -20.260  26.579   5.094  1.00  0.00     0.069 C 
HETATM    6  C1  UNL     1     -19.835  27.900   4.480  1.00  0.00     0.016 C 
ENDBRANCH   4   5
ENDBRANCH   3   4
ENDBRANCH   2   3
ENDBRANCH   1   2
BRANCH   1   7
HETATM    7  C5  UNL     1     -15.938  26.133   5.833  1.00  0.00     0.153 C 
BRANCH   7   8
HETATM    8  C6  UNL     1     -15.773  24.632   5.893  1.00  0.00     0.187 C 
BRANCH   8   9
HETATM    9  O1  UNL     1     -15.145  24.090   4.811  1.00  0.00    -0.389 OA
BRANCH   9  10
HETATM   10  C7  UNL     1     -14.506  22.900   5.006  1.00  0.00     0.168 C 
BRANCH  10  11
HETATM   11  C8  UNL     1     -13.056  23.061   4.624  1.00  0.00     0.037 C 
BRANCH  11  12
HETATM   12  C9  UNL     1     -12.107  23.004   5.786  1.00  0.00     0.041 C 
HETATM   13  C10 UNL     1     -12.726  22.362   6.988  1.00  0.00     0.017 C 
BRANCH  12  14
HETATM   14  C11 UNL     1     -11.822  24.438   6.166  1.00  0.00     0.054 A 
HETATM   15  N2  UNL     1     -12.316  25.523   5.592  1.00  0.00    -0.363 N 
HETATM   16  C12 UNL     1     -11.978  26.695   6.028  1.00  0.00     0.095 A 
ATOM     17  H2  UNL     1     -12.963  25.437   4.808  1.00  0.00     0.165 HD
HETATM   18  C13 UNL     1     -11.099  26.745   7.088  1.00  0.00     0.068 A 
HETATM   19  S2  UNL     1     -10.823  25.087   7.385  1.00  0.00    -0.087 SA
ENDBRANCH  12  14
ENDBRANCH  11  12
ENDBRANCH  10  11
ENDBRANCH   9  10
ENDBRANCH   8   9
ENDBRANCH   7   8
ENDBRANCH   1   7
BRANCH   1  20
HETATM   20  C14 UNL     1     -16.860  27.563   7.475  1.00  0.00     0.119 C 
BRANCH  20  21
HETATM   21  C15 UNL     1     -16.367  28.862   6.983  1.00  0.00     0.047 A 
HETATM   22  C16 UNL     1     -17.313  29.730   6.479  1.00  0.00     0.031 A 
HETATM   23  C17 UNL     1     -16.985  30.973   5.994  1.00  0.00     0.004 A 
HETATM   24  C18 UNL     1     -15.666  31.362   6.015  1.00  0.00     0.017 A 
HETATM   25  C19 UNL     1     -14.746  30.470   6.526  1.00  0.00     0.088 A 
HETATM   26  N3  UNL     1     -15.086  29.258   6.995  1.00  0.00    -0.365 N 
ATOM     27  H3  UNL     1     -14.366  28.635   7.361  1.00  0.00     0.165 HD
ENDBRANCH  20  21
ENDBRANCH   1  20
TORSDOF 13
ENDMDL
MODEL 3
REMARK VINA RESULT: -5.663223067      1.625      1.800
REMARK  13 active torsions:
REMARK  status: ('A' for Active; 'I' for Inactive)
REMARK    1  A    between atoms: C2_2  and  S1_3 
REMARK    2  A    between atoms: S1_3  and  C3_4 
REMARK    3  A    between atoms: C3_4  and  C4_5 
REMARK    4  A    between atoms: C4_5  and  N1_6 
REMARK    5  A    between atoms: N1_6  and  C5_7 
REMARK    6  A    between atoms: N1_6  and  C14_20 
REMARK    7  A    between atoms: C5_7  and  C6_8 
REMARK    8  A    between atoms: C6_8  and  O1_9 
REMARK    9  A    between atoms: O1_9  and  C7_10 
REMARK   10  A    between atoms: C7_10  and  C8_11 
REMARK   11  A    between atoms: C8_11  and  C9_12 
REMARK   12  A    between atoms: C9_12  and  C11_14 
REMARK   13  A    between atoms: C14_20  and  C15_21 
ROOT
HETATM    1  N1  UNL     1     -14.660  22.678   6.665  1.00  0.00    -0.365 N 
ENDROOT
BRANCH   1   2
HETATM    2  C4  UNL     1     -14.863  21.958   7.854  1.00  0.00     0.073 C 
BRANCH   2   3
HETATM    3  C3  UNL     1     -15.339  22.907   8.947  1.00  0.00     0.118 C 
BRANCH   3   4
HETATM    4  S1  UNL     1     -14.345  22.660  10.461  1.00  0.00    -0.164 SA
BRANCH   4   5
HETATM    5  C2  UNL     1     -13.001  21.511   9.997  1.00  0.00     0.069 C 
HETATM    6  C1  UNL     1     -12.822  20.518  11.130  1.00  0.00     0.016 C 
ENDBRANCH   4   5
ENDBRANCH   3   4
ENDBRANCH   2   3
ENDBRANCH   1   2
BRANCH   1   7
HETATM    7  C5  UNL     1     -15.666  22.562   5.682  1.00  0.00     0.153 C 
BRANCH   7   8
HETATM    8  C6  UNL     1     -16.589  23.758   5.651  1.00  0.00     0.187 C 
BRANCH   8   9
HETATM    9  O1  UNL     1     -16.037  24.883   5.113  1.00  0.00    -0.389 OA
BRANCH   9  10
HETATM   10  C7  UNL     1     -16.640  26.069   5.418  1.00  0.00     0.168 C 
BRANCH  10  11
HETATM   11  C8  UNL     1     -16.473  26.331   6.894  1.00  0.00     0.037 C 
BRANCH  11  12
HETATM   12  C9  UNL     1     -17.306  27.467   7.411  1.00  0.00     0.041 C 
HETATM   13  C10 UNL     1     -18.680  27.473   6.819  1.00  0.00     0.017 C 
BRANCH  12  14
HETATM   14  C11 UNL     1     -16.630  28.733   6.937  1.00  0.00     0.054 A 
HETATM   15  N2  UNL     1     -15.330  28.981   6.927  1.00  0.00    -0.363 N 
HETATM   16  C12 UNL     1     -14.894  30.120   6.490  1.00  0.00     0.095 A 
ATOM     17  H2  UNL     1     -14.673  28.277   7.264  1.00  0.00     0.165 HD
HETATM   18  C13 UNL     1     -15.832  31.029   6.052  1.00  0.00     0.068 A 
HETATM   19  S2  UNL     1     -17.286  30.172   6.301  1.00  0.00    -0.087 SA
ENDBRANCH  12  14
ENDBRANCH  11  12
ENDBRANCH  10  11
ENDBRANCH   9  10
ENDBRANCH   8   9
ENDBRANCH   7   8
ENDBRANCH   1   7
BRANCH   1  20
HETATM   20  C14 UNL     1     -13.358  22.792   6.138  1.00  0.00     0.119 C 
BRANCH  20  21
HETATM   21  C15 UNL     1     -12.677  24.081   6.357  1.00  0.00     0.047 A 
HETATM   22  C16 UNL     1     -11.606  24.073   7.226  1.00  0.00     0.031 A 
HETATM   23  C17 UNL     1     -10.884  25.208   7.511  1.00  0.00     0.004 A 
HETATM   24  C18 UNL     1     -11.246  26.389   6.907  1.00  0.00     0.017 A 
HETATM   25  C19 UNL     1     -12.322  26.361   6.044  1.00  0.00     0.088 A 
HETATM   26  N3  UNL     1     -13.016  25.242   5.778  1.00  0.00    -0.365 N 
ATOM     27  H3  UNL     1     -13.806  25.275   5.133  1.00  0.00     0.165 HD
ENDBRANCH  20  21
ENDBRANCH   1  20
TORSDOF 13
ENDMDL
MODEL 4
REMARK VINA RESULT: -5.619332128      4.088      7.757
REMARK  13 active torsions:
REMARK  status: ('A' for Active; 'I' for Inactive)
REMARK    1  A    between atoms: C2_2  and  S1_3 
REMARK    2  A    between atoms: S1_3  and  C3_4 
REMARK    3  A    between atoms: C3_4  and  C4_5 
REMARK    4  A    between atoms: C4_5  and  N1_6 
REMARK    5  A    between atoms: N1_6  and  C5_7 
REMARK    6  A    between atoms: N1_6  and  C14_20 
REMARK    7  A    between atoms: C5_7  and  C6_8 
REMARK    8  A    between atoms: C6_8  and  O1_9 
REMARK    9  A    between atoms: O1_9  and  C7_10 
REMARK   10  A    between atoms: C7_10  and  C8_11 
REMARK   11  A    between atoms: C8_11  and  C9_12 
REMARK   12  A    between atoms: C9_12  and  C11_14 
REMARK   13  A    between atoms: C14_20  and  C15_21 
ROOT
HETATM    1  N1  UNL     1     -12.674  22.049   5.948  1.00  0.00    -0.365 N 
ENDROOT
BRANCH   1   2
HETATM    2  C4  UNL     1     -12.332  21.581   4.668  1.00  0.00     0.073 C 
BRANCH   2   3
HETATM    3  C3  UNL     1     -13.591  21.119   3.945  1.00  0.00     0.118 C 
BRANCH   3   4
HETATM    4  S1  UNL     1     -13.312  19.473   3.199  1.00  0.00    -0.164 SA
BRANCH   4   5
HETATM    5  C2  UNL     1     -14.304  19.443   1.665  1.00  0.00     0.069 C 
HETATM    6  C1  UNL     1     -13.949  18.180   0.902  1.00  0.00     0.016 C 
ENDBRANCH   4   5
ENDBRANCH   3   4
ENDBRANCH   2   3
ENDBRANCH   1   2
BRANCH   1   7
HETATM    7  C5  UNL     1     -12.969  21.066   6.917  1.00  0.00     0.153 C 
BRANCH   7   8
HETATM    8  C6  UNL     1     -11.760  20.245   7.300  1.00  0.00     0.187 C 
BRANCH   8   9
HETATM    9  O1  UNL     1     -11.401  20.347   8.611  1.00  0.00    -0.389 OA
BRANCH   9  10
HETATM   10  C7  UNL     1     -11.688  21.525   9.237  1.00  0.00     0.168 C 
BRANCH  10  11
HETATM   11  C8  UNL     1     -12.242  21.223  10.606  1.00  0.00     0.037 C 
BRANCH  11  12
HETATM   12  C9  UNL     1     -13.454  20.337  10.594  1.00  0.00     0.041 C 
HETATM   13  C10 UNL     1     -14.533  20.846  11.497  1.00  0.00     0.017 C 
BRANCH  12  14
HETATM   14  C11 UNL     1     -13.010  19.010  11.162  1.00  0.00     0.054 A 
HETATM   15  N2  UNL     1     -12.740  17.907  10.482  1.00  0.00    -0.363 N 
HETATM   16  C12 UNL     1     -12.368  16.836  11.109  1.00  0.00     0.095 A 
ATOM     17  H2  UNL     1     -12.824  17.900   9.465  1.00  0.00     0.165 HD
HETATM   18  C13 UNL     1     -12.277  16.909  12.482  1.00  0.00     0.068 A 
HETATM   19  S2  UNL     1     -12.733  18.527  12.773  1.00  0.00    -0.087 SA
ENDBRANCH  12  14
ENDBRANCH  11  12
ENDBRANCH  10  11
ENDBRANCH   9  10
ENDBRANCH   8   9
ENDBRANCH   7   8
ENDBRANCH   1   7
BRANCH   1  20
HETATM   20  C14 UNL     1     -13.444  23.223   6.072  1.00  0.00     0.119 C 
BRANCH  20  21
HETATM   21  C15 UNL     1     -12.695  24.472   6.301  1.00  0.00     0.047 A 
HETATM   22  C16 UNL     1     -11.596  24.388   7.129  1.00  0.00     0.031 A 
HETATM   23  C17 UNL     1     -10.810  25.479   7.419  1.00  0.00     0.004 A 
HETATM   24  C18 UNL     1     -11.136  26.693   6.861  1.00  0.00     0.017 A 
HETATM   25  C19 UNL     1     -12.242  26.740   6.038  1.00  0.00     0.088 A 
HETATM   26  N3  UNL     1     -12.998  25.664   5.767  1.00  0.00    -0.365 N 
ATOM     27  H3  UNL     1     -13.807  25.753   5.152  1.00  0.00     0.165 HD
ENDBRANCH  20  21
ENDBRANCH   1  20
TORSDOF 13
ENDMDL
MODEL 5
REMARK VINA RESULT: -5.578308096      1.619      1.800
REMARK  13 active torsions:
REMARK  status: ('A' for Active; 'I' for Inactive)
REMARK    1  A    between atoms: C2_2  and  S1_3 
REMARK    2  A    between atoms: S1_3  and  C3_4 
REMARK    3  A    between atoms: C3_4  and  C4_5 
REMARK    4  A    between atoms: C4_5  and  N1_6 
REMARK    5  A    between atoms: N1_6  and  C5_7 
REMARK    6  A    between atoms: N1_6  and  C14_20 
REMARK    7  A    between atoms: C5_7  and  C6_8 
REMARK    8  A    between atoms: C6_8  and  O1_9 
REMARK    9  A    between atoms: O1_9  and  C7_10 
REMARK   10  A    between atoms: C7_10  and  C8_11 
REMARK   11  A    between atoms: C8_11  and  C9_12 
REMARK   12  A    between atoms: C9_12  and  C11_14 
REMARK   13  A    between atoms: C14_20  and  C15_21 
ROOT
HETATM    1  N1  UNL     1     -12.638  22.891   5.030  1.00  0.00    -0.365 N 
ENDROOT
BRANCH   1   2
HETATM    2  C4  UNL     1     -12.371  21.517   5.152  1.00  0.00     0.073 C 
BRANCH   2   3
HETATM    3  C3  UNL     1     -13.127  20.960   6.353  1.00  0.00     0.118 C 
BRANCH   3   4
HETATM    4  S1  UNL     1     -11.943  20.301   7.580  1.00  0.00    -0.164 SA
BRANCH   4   5
HETATM    5  C2  UNL     1     -11.699  21.633   8.807  1.00  0.00     0.069 C 
HETATM    6  C1  UNL     1     -13.006  22.393   8.940  1.00  0.00     0.016 C 
ENDBRANCH   4   5
ENDBRANCH   3   4
ENDBRANCH   2   3
ENDBRANCH   1   2
BRANCH   1   7
HETATM    7  C5  UNL     1     -13.925  23.242   4.569  1.00  0.00     0.153 C 
BRANCH   7   8
HETATM    8  C6  UNL     1     -14.742  23.961   5.616  1.00  0.00     0.187 C 
BRANCH   8   9
HETATM    9  O1  UNL     1     -15.443  25.032   5.148  1.00  0.00    -0.389 OA
BRANCH   9  10
HETATM   10  C7  UNL     1     -16.639  25.295   5.751  1.00  0.00     0.168 C 
BRANCH  10  11
HETATM   11  C8  UNL     1     -16.806  26.789   5.865  1.00  0.00     0.037 C 
BRANCH  11  12
HETATM   12  C9  UNL     1     -17.064  27.270   7.263  1.00  0.00     0.041 C 
HETATM   13  C10 UNL     1     -17.636  26.195   8.132  1.00  0.00     0.017 C 
BRANCH  12  14
HETATM   14  C11 UNL     1     -18.124  28.340   7.150  1.00  0.00     0.054 A 
HETATM   15  N2  UNL     1     -17.995  29.621   7.459  1.00  0.00    -0.363 N 
HETATM   16  C12 UNL     1     -18.998  30.426   7.309  1.00  0.00     0.095 A 
ATOM     17  H2  UNL     1     -17.105  29.972   7.814  1.00  0.00     0.165 HD
HETATM   18  C13 UNL     1     -20.172  29.888   6.828  1.00  0.00     0.068 A 
HETATM   19  S2  UNL     1     -19.742  28.250   6.621  1.00  0.00    -0.087 SA
ENDBRANCH  12  14
ENDBRANCH  11  12
ENDBRANCH  10  11
ENDBRANCH   9  10
ENDBRANCH   8   9
ENDBRANCH   7   8
ENDBRANCH   1   7
BRANCH   1  20
HETATM   20  C14 UNL     1     -11.617  23.757   4.588  1.00  0.00     0.119 C 
BRANCH  20  21
HETATM   21  C15 UNL     1     -11.404  24.975   5.391  1.00  0.00     0.047 A 
HETATM   22  C16 UNL     1     -11.205  24.794   6.743  1.00  0.00     0.031 A 
HETATM   23  C17 UNL     1     -10.990  25.847   7.601  1.00  0.00     0.004 A 
HETATM   24  C18 UNL     1     -10.974  27.123   7.087  1.00  0.00     0.017 A 
HETATM   25  C19 UNL     1     -11.177  27.267   5.730  1.00  0.00     0.088 A 
HETATM   26  N3  UNL     1     -11.386  26.226   4.908  1.00  0.00    -0.365 N 
ATOM     27  H3  UNL     1     -11.532  26.387   3.912  1.00  0.00     0.165 HD
ENDBRANCH  20  21
ENDBRANCH   1  20
TORSDOF 13
ENDMDL
