MODEL 1
REMARK VINA RESULT: -9.662014904      0.000      0.000
REMARK  17 active torsions:
REMARK  status: ('A' for Active; 'I' for Inactive)
REMARK    1  A    between atoms: N1_1  and  C1_4 
REMARK    2  A    between atoms: C2_7  and  N3_8 
REMARK    3  A    between atoms: C3_11  and  C4_12 
REMARK    4  A    between atoms: C4_12  and  C5_13 
REMARK    5  A    between atoms: C4_12  and  O5_17 
REMARK    6  A    between atoms: C5_13  and  C6_14 
REMARK    7  A    between atoms: O5_17  and  C7_18 
REMARK    8  A    between atoms: N6_22  and  C9_23 
REMARK    9  A    between atoms: C9_23  and  C10_24 
REMARK   10  A    between atoms: C10_24  and  O6_25 
REMARK   11  A    between atoms: C10_24  and  N7_27 
REMARK   12  A    between atoms: C12_29  and  C13_30 
REMARK   13  A    between atoms: C13_30  and  O7_31 
REMARK   14  A    between atoms: C15_35  and  O9_36 
REMARK   15  A    between atoms: C16_38  and  O10_39 
REMARK   16  A    between atoms: C17_41  and  O11_42 
REMARK   17  A    between atoms: C19_48  and  O13_49 
ROOT
HETATM    1  C7  UNL     1     -36.583  -0.483   8.475  1.00  0.00     0.182 C 
HETATM    2  C8  UNL     1     -35.164  -0.183   8.022  1.00  0.00     0.167 C 
HETATM    3  N4  UNL     1     -34.920   1.225   7.829  1.00  0.00    -0.129 NA
HETATM    4  N5  UNL     1     -35.853   1.952   8.541  1.00  0.00    -0.054 NA
HETATM    5  N6  UNL     1     -37.116   1.851   8.043  1.00  0.00    -0.183 NA
HETATM    6  C19 UNL     1     -37.447   0.507   7.679  1.00  0.00     0.240 C 
ENDROOT
BRANCH   5   7
HETATM    7  C9  UNL     1     -38.123   2.488   8.865  1.00  0.00     0.169 C 
BRANCH   7   8
HETATM    8  C10 UNL     1     -38.367   3.917   8.447  1.00  0.00     0.254 C 
BRANCH   8   9
HETATM    9  O6  UNL     1     -37.350   4.292   7.576  1.00  0.00    -0.374 OA
ATOM     10  H6  UNL     1     -37.698   4.946   6.981  1.00  0.00     0.212 HD
ENDBRANCH   8   9
BRANCH   8  11
HETATM   11  N7  UNL     1     -38.341   4.839   9.570  1.00  0.00    -0.269 N 
HETATM   12  C11 UNL     1     -38.322   4.512  10.880  1.00  0.00     0.131 A 
HETATM   13  C12 UNL     1     -38.295   5.660  11.635  1.00  0.00     0.092 A 
HETATM   14  C18 UNL     1     -38.300   6.674  10.703  1.00  0.00     0.273 A 
HETATM   15  O12 UNL     1     -38.282   7.899  10.940  1.00  0.00    -0.266 OA
HETATM   16  N8  UNL     1     -38.328   6.146   9.472  1.00  0.00    -0.262 N 
ATOM     17  H8  UNL     1     -38.339   6.675   8.600  1.00  0.00     0.190 HD
BRANCH  13  18
HETATM   18  C13 UNL     1     -38.261   5.788  13.111  1.00  0.00     0.227 C 
HETATM   19  O8  UNL     1     -38.952   4.734  13.636  1.00  0.00    -0.346 OA
HETATM   20  C14 UNL     1     -38.295   3.928  14.518  1.00  0.00     0.206 C 
HETATM   21  C15 UNL     1     -37.603   4.666  15.631  1.00  0.00     0.173 C 
HETATM   22  C16 UNL     1     -36.978   5.948  15.173  1.00  0.00     0.183 C 
HETATM   23  C17 UNL     1     -36.865   5.900  13.650  1.00  0.00     0.217 C 
BRANCH  18  24
HETATM   24  O7  UNL     1     -38.945   6.957  13.525  1.00  0.00    -0.359 OA
ATOM     25  H7  UNL     1     -38.700   7.190  14.412  1.00  0.00     0.213 HD
ENDBRANCH  18  24
BRANCH  21  26
HETATM   26  O9  UNL     1     -38.496   4.865  16.698  1.00  0.00    -0.391 OA
ATOM     27  H9  UNL     1     -39.221   5.411  16.414  1.00  0.00     0.210 HD
ENDBRANCH  21  26
BRANCH  22  28
HETATM   28  O10 UNL     1     -35.780   6.238  15.781  1.00  0.00    -0.390 OA
ATOM     29  H10 UNL     1     -35.865   6.702  16.605  1.00  0.00     0.210 HD
ENDBRANCH  22  28
BRANCH  23  30
HETATM   30  O11 UNL     1     -36.021   4.900  13.216  1.00  0.00    -0.387 OA
ATOM     31  H11 UNL     1     -35.265   5.219  12.737  1.00  0.00     0.210 HD
ENDBRANCH  23  30
ENDBRANCH  13  18
ENDBRANCH   8  11
ENDBRANCH   7   8
ENDBRANCH   5   7
BRANCH   6  32
HETATM   32  O13 UNL     1     -37.257   0.363   6.309  1.00  0.00    -0.377 OA
ATOM     33  H13 UNL     1     -37.603  -0.464   5.994  1.00  0.00     0.211 HD
ENDBRANCH   6  32
BRANCH   1  34
HETATM   34  O5  UNL     1     -36.669  -0.365   9.792  1.00  0.00    -0.369 OA
BRANCH  34  35
HETATM   35  C4  UNL     1     -37.126  -1.363  10.623  1.00  0.00     0.176 C 
BRANCH  35  36
HETATM   36  C3  UNL     1     -37.805  -0.868  11.837  1.00  0.00     0.066 A 
HETATM   37  C2  UNL     1     -39.047  -0.380  12.070  1.00  0.00     0.191 A 
HETATM   38  N2  UNL     1     -39.324   0.071  13.282  1.00  0.00    -0.317 N 
HETATM   39  C1  UNL     1     -38.371   0.022  14.213  1.00  0.00     0.144 A 
ATOM     40  H2  UNL     1     -40.246   0.449  13.499  1.00  0.00     0.169 HD
HETATM   41  S1  UNL     1     -37.063  -0.666  13.387  1.00  0.00    -0.052 SA
BRANCH  37  42
HETATM   42  N3  UNL     1     -40.118  -0.383  11.071  1.00  0.00    -0.097 N 
HETATM   43  O1  UNL     1     -40.706  -1.425  10.741  1.00  0.00    -0.530 OA
HETATM   44  O2  UNL     1     -40.510   0.757  10.460  1.00  0.00    -0.530 OA
ENDBRANCH  37  42
BRANCH  39  45
HETATM   45  N1  UNL     1     -38.467   0.423  15.470  1.00  0.00    -0.380 N 
ATOM     46  H12 UNL     1     -38.762   1.321  15.851  1.00  0.00     0.158 HD
ATOM     47  H11 UNL     1     -38.250  -0.121  16.306  1.00  0.00     0.158 HD
ENDBRANCH  39  45
ENDBRANCH  35  36
BRANCH  35  48
HETATM   48  C5  UNL     1     -35.900  -2.213  11.045  1.00  0.00     0.150 C 
BRANCH  48  49
HETATM   49  C6  UNL     1     -36.151  -3.630  11.170  1.00  0.00     0.175 C 
HETATM   50  O3  UNL     1     -35.160  -4.377  11.486  1.00  0.00    -0.648 OA
HETATM   51  O4  UNL     1     -37.345  -4.287  10.991  1.00  0.00    -0.648 OA
ENDBRANCH  48  49
ENDBRANCH  35  48
ENDBRANCH  34  35
ENDBRANCH   1  34
TORSDOF 17
ENDMDL
MODEL 2
REMARK VINA RESULT: -9.642074897      0.931      1.749
REMARK  17 active torsions:
REMARK  status: ('A' for Active; 'I' for Inactive)
REMARK    1  A    between atoms: N1_1  and  C1_4 
REMARK    2  A    between atoms: C2_7  and  N3_8 
REMARK    3  A    between atoms: C3_11  and  C4_12 
REMARK    4  A    between atoms: C4_12  and  C5_13 
REMARK    5  A    between atoms: C4_12  and  O5_17 
REMARK    6  A    between atoms: C5_13  and  C6_14 
REMARK    7  A    between atoms: O5_17  and  C7_18 
REMARK    8  A    between atoms: N6_22  and  C9_23 
REMARK    9  A    between atoms: C9_23  and  C10_24 
REMARK   10  A    between atoms: C10_24  and  O6_25 
REMARK   11  A    between atoms: C10_24  and  N7_27 
REMARK   12  A    between atoms: C12_29  and  C13_30 
REMARK   13  A    between atoms: C13_30  and  O7_31 
REMARK   14  A    between atoms: C15_35  and  O9_36 
REMARK   15  A    between atoms: C16_38  and  O10_39 
REMARK   16  A    between atoms: C17_41  and  O11_42 
REMARK   17  A    between atoms: C19_48  and  O13_49 
ROOT
HETATM    1  C7  UNL     1     -37.080  -0.135   8.922  1.00  0.00     0.182 C 
HETATM    2  C8  UNL     1     -35.661   0.161   8.462  1.00  0.00     0.167 C 
HETATM    3  N4  UNL     1     -35.467   1.541   8.092  1.00  0.00    -0.129 NA
HETATM    4  N5  UNL     1     -36.445   2.316   8.682  1.00  0.00    -0.054 NA
HETATM    5  N6  UNL     1     -37.689   2.098   8.176  1.00  0.00    -0.183 NA
HETATM    6  C19 UNL     1     -37.959   0.705   7.985  1.00  0.00     0.240 C 
ENDROOT
BRANCH   5   7
HETATM    7  C9  UNL     1     -38.741   2.794   8.886  1.00  0.00     0.169 C 
BRANCH   7   8
HETATM    8  C10 UNL     1     -38.685   4.284   8.653  1.00  0.00     0.254 C 
BRANCH   8   9
HETATM    9  O6  UNL     1     -37.682   4.538   7.725  1.00  0.00    -0.374 OA
ATOM     10  H6  UNL     1     -36.861   4.627   8.195  1.00  0.00     0.212 HD
ENDBRANCH   8   9
BRANCH   8  11
HETATM   11  N7  UNL     1     -38.359   5.026   9.860  1.00  0.00    -0.269 N 
HETATM   12  C11 UNL     1     -37.862   4.517  11.007  1.00  0.00     0.131 A 
HETATM   13  C12 UNL     1     -37.683   5.534  11.915  1.00  0.00     0.092 A 
HETATM   14  C18 UNL     1     -38.099   6.661  11.242  1.00  0.00     0.273 A 
HETATM   15  O12 UNL     1     -38.113   7.827  11.686  1.00  0.00    -0.266 OA
HETATM   16  N8  UNL     1     -38.500   6.320  10.010  1.00  0.00    -0.262 N 
ATOM     17  H8  UNL     1     -38.857   6.963   9.304  1.00  0.00     0.190 HD
BRANCH  13  18
HETATM   18  C13 UNL     1     -37.155   5.449  13.298  1.00  0.00     0.227 C 
HETATM   19  O8  UNL     1     -36.359   6.538  13.506  1.00  0.00    -0.346 OA
HETATM   20  C14 UNL     1     -36.668   7.350  14.557  1.00  0.00     0.206 C 
HETATM   21  C15 UNL     1     -36.861   6.625  15.861  1.00  0.00     0.173 C 
HETATM   22  C16 UNL     1     -37.563   5.313  15.693  1.00  0.00     0.183 C 
HETATM   23  C17 UNL     1     -38.241   5.312  14.324  1.00  0.00     0.217 C 
BRANCH  18  24
HETATM   24  O7  UNL     1     -36.321   4.314  13.442  1.00  0.00    -0.359 OA
ATOM     25  H7  UNL     1     -36.463   3.703  12.729  1.00  0.00     0.213 HD
ENDBRANCH  18  24
BRANCH  21  26
HETATM   26  O9  UNL     1     -35.626   6.485  16.516  1.00  0.00    -0.391 OA
ATOM     27  H9  UNL     1     -35.496   7.209  17.117  1.00  0.00     0.210 HD
ENDBRANCH  21  26
BRANCH  22  28
HETATM   28  O10 UNL     1     -38.433   5.006  16.712  1.00  0.00    -0.390 OA
ATOM     29  H10 UNL     1     -38.980   4.248  16.541  1.00  0.00     0.210 HD
ENDBRANCH  22  28
BRANCH  23  30
HETATM   30  O11 UNL     1     -39.225   6.273  14.223  1.00  0.00    -0.387 OA
ATOM     31  H11 UNL     1     -39.067   7.040  14.762  1.00  0.00     0.210 HD
ENDBRANCH  23  30
ENDBRANCH  13  18
ENDBRANCH   8  11
ENDBRANCH   7   8
ENDBRANCH   5   7
BRANCH   6  32
HETATM   32  O13 UNL     1     -37.729   0.391   6.650  1.00  0.00    -0.377 OA
ATOM     33  H13 UNL     1     -38.119   1.033   6.068  1.00  0.00     0.211 HD
ENDBRANCH   6  32
BRANCH   1  34
HETATM   34  O5  UNL     1     -37.204   0.150  10.210  1.00  0.00    -0.369 OA
BRANCH  34  35
HETATM   35  C4  UNL     1     -37.655  -0.746  11.153  1.00  0.00     0.176 C 
BRANCH  35  36
HETATM   36  C3  UNL     1     -38.163  -0.112  12.387  1.00  0.00     0.066 A 
HETATM   37  C2  UNL     1     -39.179   0.749  12.634  1.00  0.00     0.191 A 
HETATM   38  N2  UNL     1     -39.323   1.208  13.866  1.00  0.00    -0.317 N 
HETATM   39  C1  UNL     1     -38.465   0.802  14.802  1.00  0.00     0.144 A 
ATOM     40  H2  UNL     1     -40.073   1.860  14.095  1.00  0.00     0.169 HD
HETATM   41  S1  UNL     1     -37.437  -0.241  13.951  1.00  0.00    -0.052 SA
BRANCH  37  42
HETATM   42  N3  UNL     1     -40.164   1.149  11.627  1.00  0.00    -0.097 N 
HETATM   43  O1  UNL     1     -40.624   2.300  11.577  1.00  0.00    -0.530 OA
HETATM   44  O2  UNL     1     -40.618   0.272  10.704  1.00  0.00    -0.530 OA
ENDBRANCH  37  42
BRANCH  39  45
HETATM   45  N1  UNL     1     -38.455   1.151  16.078  1.00  0.00    -0.380 N 
ATOM     46  H12 UNL     1     -39.153   0.997  16.804  1.00  0.00     0.158 HD
ATOM     47  H11 UNL     1     -37.718   1.654  16.570  1.00  0.00     0.158 HD
ENDBRANCH  39  45
ENDBRANCH  35  36
BRANCH  35  48
HETATM   48  C5  UNL     1     -36.467  -1.673  11.518  1.00  0.00     0.150 C 
BRANCH  48  49
HETATM   49  C6  UNL     1     -36.720  -3.085  11.353  1.00  0.00     0.175 C 
HETATM   50  O3  UNL     1     -37.618  -3.425  10.505  1.00  0.00    -0.648 OA
HETATM   51  O4  UNL     1     -36.104  -4.128  12.002  1.00  0.00    -0.648 OA
ENDBRANCH  48  49
ENDBRANCH  35  48
ENDBRANCH  34  35
ENDBRANCH   1  34
TORSDOF 17
ENDMDL
MODEL 3
REMARK VINA RESULT: -9.384494615      4.528      9.097
REMARK  17 active torsions:
REMARK  status: ('A' for Active; 'I' for Inactive)
REMARK    1  A    between atoms: N1_1  and  C1_4 
REMARK    2  A    between atoms: C2_7  and  N3_8 
REMARK    3  A    between atoms: C3_11  and  C4_12 
REMARK    4  A    between atoms: C4_12  and  C5_13 
REMARK    5  A    between atoms: C4_12  and  O5_17 
REMARK    6  A    between atoms: C5_13  and  C6_14 
REMARK    7  A    between atoms: O5_17  and  C7_18 
REMARK    8  A    between atoms: N6_22  and  C9_23 
REMARK    9  A    between atoms: C9_23  and  C10_24 
REMARK   10  A    between atoms: C10_24  and  O6_25 
REMARK   11  A    between atoms: C10_24  and  N7_27 
REMARK   12  A    between atoms: C12_29  and  C13_30 
REMARK   13  A    between atoms: C13_30  and  O7_31 
REMARK   14  A    between atoms: C15_35  and  O9_36 
REMARK   15  A    between atoms: C16_38  and  O10_39 
REMARK   16  A    between atoms: C17_41  and  O11_42 
REMARK   17  A    between atoms: C19_48  and  O13_49 
ROOT
HETATM    1  C7  UNL     1     -36.439   5.820  15.430  1.00  0.00     0.182 C 
HETATM    2  C8  UNL     1     -35.218   4.919  15.518  1.00  0.00     0.167 C 
HETATM    3  N4  UNL     1     -35.369   3.694  14.773  1.00  0.00    -0.129 NA
HETATM    4  N5  UNL     1     -36.347   3.859  13.814  1.00  0.00    -0.054 NA
HETATM    5  N6  UNL     1     -37.599   3.986  14.333  1.00  0.00    -0.183 NA
HETATM    6  C19 UNL     1     -37.626   4.848  15.476  1.00  0.00     0.240 C 
ENDROOT
BRANCH   5   7
HETATM    7  C9  UNL     1     -38.612   4.306  13.349  1.00  0.00     0.169 C 
BRANCH   7   8
HETATM    8  C10 UNL     1     -38.031   4.417  11.961  1.00  0.00     0.254 C 
BRANCH   8   9
HETATM    9  O6  UNL     1     -37.471   5.682  11.827  1.00  0.00    -0.374 OA
ATOM     10  H6  UNL     1     -36.554   5.577  11.605  1.00  0.00     0.212 HD
ENDBRANCH   8   9
BRANCH   8  11
HETATM   11  N7  UNL     1     -39.037   4.273  10.922  1.00  0.00    -0.269 N 
HETATM   12  C11 UNL     1     -39.416   5.215  10.032  1.00  0.00     0.131 A 
HETATM   13  C12 UNL     1     -40.388   4.699   9.210  1.00  0.00     0.092 A 
HETATM   14  C18 UNL     1     -40.559   3.410   9.661  1.00  0.00     0.273 A 
HETATM   15  O12 UNL     1     -41.353   2.563   9.203  1.00  0.00    -0.266 OA
HETATM   16  N8  UNL     1     -39.732   3.187  10.692  1.00  0.00    -0.262 N 
ATOM     17  H8  UNL     1     -39.657   2.313  11.212  1.00  0.00     0.190 HD
BRANCH  13  18
HETATM   18  C13 UNL     1     -41.091   5.365   8.087  1.00  0.00     0.227 C 
HETATM   19  O8  UNL     1     -41.083   6.709   8.331  1.00  0.00    -0.346 OA
HETATM   20  C14 UNL     1     -40.534   7.517   7.379  1.00  0.00     0.206 C 
HETATM   21  C15 UNL     1     -41.053   7.272   5.989  1.00  0.00     0.173 C 
HETATM   22  C16 UNL     1     -41.277   5.819   5.703  1.00  0.00     0.183 C 
HETATM   23  C17 UNL     1     -40.512   5.009   6.749  1.00  0.00     0.217 C 
BRANCH  18  24
HETATM   24  O7  UNL     1     -42.452   4.977   8.052  1.00  0.00    -0.359 OA
ATOM     25  H7  UNL     1     -42.664   4.580   7.216  1.00  0.00     0.213 HD
ENDBRANCH  18  24
BRANCH  21  26
HETATM   26  O9  UNL     1     -42.210   8.039   5.769  1.00  0.00    -0.391 OA
ATOM     27  H9  UNL     1     -42.892   7.774   6.376  1.00  0.00     0.210 HD
ENDBRANCH  21  26
BRANCH  22  28
HETATM   28  O10 UNL     1     -40.969   5.444   4.418  1.00  0.00    -0.390 OA
ATOM     29  H10 UNL     1     -41.724   5.327   3.855  1.00  0.00     0.210 HD
ENDBRANCH  22  28
BRANCH  23  30
HETATM   30  O11 UNL     1     -39.149   5.197   6.666  1.00  0.00    -0.387 OA
ATOM     31  H11 UNL     1     -38.643   4.415   6.854  1.00  0.00     0.210 HD
ENDBRANCH  23  30
ENDBRANCH  13  18
ENDBRANCH   8  11
ENDBRANCH   7   8
ENDBRANCH   5   7
BRANCH   6  32
HETATM   32  O13 UNL     1     -37.597   4.060  16.621  1.00  0.00    -0.377 OA
ATOM     33  H13 UNL     1     -38.473   3.869  16.935  1.00  0.00     0.211 HD
ENDBRANCH   6  32
BRANCH   1  34
HETATM   34  O5  UNL     1     -36.368   6.566  14.336  1.00  0.00    -0.369 OA
BRANCH  34  35
HETATM   35  C4  UNL     1     -36.282   7.940  14.349  1.00  0.00     0.176 C 
BRANCH  35  36
HETATM   36  C3  UNL     1     -35.604   8.485  15.543  1.00  0.00     0.066 A 
HETATM   37  C2  UNL     1     -34.310   8.771  15.823  1.00  0.00     0.191 A 
HETATM   38  N2  UNL     1     -34.010   9.177  17.044  1.00  0.00    -0.317 N 
HETATM   39  C1  UNL     1     -34.992   9.287  17.938  1.00  0.00     0.144 A 
ATOM     40  H2  UNL     1     -33.047   9.400  17.298  1.00  0.00     0.169 HD
HETATM   41  S1  UNL     1     -36.362   8.817  17.061  1.00  0.00    -0.052 SA
BRANCH  37  42
HETATM   42  N3  UNL     1     -33.235   8.715  14.828  1.00  0.00    -0.097 N 
HETATM   43  O1  UNL     1     -32.671   9.738  14.411  1.00  0.00    -0.530 OA
HETATM   44  O2  UNL     1     -32.814   7.536  14.318  1.00  0.00    -0.530 OA
ENDBRANCH  37  42
BRANCH  39  45
HETATM   45  N1  UNL     1     -34.882   9.677  19.198  1.00  0.00    -0.380 N 
ATOM     46  H12 UNL     1     -34.049   9.828  19.767  1.00  0.00     0.158 HD
ATOM     47  H11 UNL     1     -35.642   9.900  19.840  1.00  0.00     0.158 HD
ENDBRANCH  39  45
ENDBRANCH  35  36
BRANCH  35  48
HETATM   48  C5  UNL     1     -37.729   8.496  14.296  1.00  0.00     0.150 C 
BRANCH  48  49
HETATM   49  C6  UNL     1     -38.421   8.281  13.047  1.00  0.00     0.175 C 
HETATM   50  O3  UNL     1     -39.478   7.558  13.079  1.00  0.00    -0.648 OA
HETATM   51  O4  UNL     1     -38.081   8.766  11.807  1.00  0.00    -0.648 OA
ENDBRANCH  48  49
ENDBRANCH  35  48
ENDBRANCH  34  35
ENDBRANCH   1  34
TORSDOF 17
ENDMDL
MODEL 4
REMARK VINA RESULT: -9.290011737      4.439      8.991
REMARK  17 active torsions:
REMARK  status: ('A' for Active; 'I' for Inactive)
REMARK    1  A    between atoms: N1_1  and  C1_4 
REMARK    2  A    between atoms: C2_7  and  N3_8 
REMARK    3  A    between atoms: C3_11  and  C4_12 
REMARK    4  A    between atoms: C4_12  and  C5_13 
REMARK    5  A    between atoms: C4_12  and  O5_17 
REMARK    6  A    between atoms: C5_13  and  C6_14 
REMARK    7  A    between atoms: O5_17  and  C7_18 
REMARK    8  A    between atoms: N6_22  and  C9_23 
REMARK    9  A    between atoms: C9_23  and  C10_24 
REMARK   10  A    between atoms: C10_24  and  O6_25 
REMARK   11  A    between atoms: C10_24  and  N7_27 
REMARK   12  A    between atoms: C12_29  and  C13_30 
REMARK   13  A    between atoms: C13_30  and  O7_31 
REMARK   14  A    between atoms: C15_35  and  O9_36 
REMARK   15  A    between atoms: C16_38  and  O10_39 
REMARK   16  A    between atoms: C17_41  and  O11_42 
REMARK   17  A    between atoms: C19_48  and  O13_49 
ROOT
HETATM    1  C7  UNL     1     -36.702   5.026  16.056  1.00  0.00     0.182 C 
HETATM    2  C8  UNL     1     -35.316   4.458  15.801  1.00  0.00     0.167 C 
HETATM    3  N4  UNL     1     -35.265   3.596  14.646  1.00  0.00    -0.129 NA
HETATM    4  N5  UNL     1     -36.332   3.878  13.817  1.00  0.00    -0.054 NA
HETATM    5  N6  UNL     1     -37.536   3.517  14.341  1.00  0.00    -0.183 NA
HETATM    6  C19 UNL     1     -37.649   3.864  15.725  1.00  0.00     0.240 C 
ENDROOT
BRANCH   5   7
HETATM    7  C9  UNL     1     -38.671   3.941  13.548  1.00  0.00     0.169 C 
BRANCH   7   8
HETATM    8  C10 UNL     1     -38.242   4.682  12.305  1.00  0.00     0.254 C 
BRANCH   8   9
HETATM    9  O6  UNL     1     -38.275   6.044  12.582  1.00  0.00    -0.374 OA
ATOM     10  H6  UNL     1     -38.553   6.497  11.795  1.00  0.00     0.212 HD
ENDBRANCH   8   9
BRANCH   8  11
HETATM   11  N7  UNL     1     -39.132   4.445  11.180  1.00  0.00    -0.269 N 
HETATM   12  C11 UNL     1     -39.520   5.350  10.257  1.00  0.00     0.131 A 
HETATM   13  C12 UNL     1     -40.359   4.744   9.352  1.00  0.00     0.092 A 
HETATM   14  C18 UNL     1     -40.441   3.441   9.790  1.00  0.00     0.273 A 
HETATM   15  O12 UNL     1     -41.102   2.522   9.266  1.00  0.00    -0.266 OA
HETATM   16  N8  UNL     1     -39.692   3.296  10.892  1.00  0.00    -0.262 N 
ATOM     17  H8  UNL     1     -39.578   2.431  11.421  1.00  0.00     0.190 HD
BRANCH  13  18
HETATM   18  C13 UNL     1     -41.020   5.343   8.168  1.00  0.00     0.227 C 
HETATM   19  O8  UNL     1     -41.082   6.693   8.366  1.00  0.00    -0.346 OA
HETATM   20  C14 UNL     1     -40.511   7.493   7.420  1.00  0.00     0.206 C 
HETATM   21  C15 UNL     1     -40.936   7.182   6.011  1.00  0.00     0.173 C 
HETATM   22  C16 UNL     1     -41.083   5.712   5.763  1.00  0.00     0.183 C 
HETATM   23  C17 UNL     1     -40.349   4.970   6.879  1.00  0.00     0.217 C 
BRANCH  18  24
HETATM   24  O7  UNL     1     -42.360   4.895   8.067  1.00  0.00    -0.359 OA
ATOM     25  H7  UNL     1     -42.581   4.339   8.804  1.00  0.00     0.213 HD
ENDBRANCH  18  24
BRANCH  21  26
HETATM   26  O9  UNL     1     -42.109   7.891   5.699  1.00  0.00    -0.391 OA
ATOM     27  H9  UNL     1     -42.113   8.724   6.155  1.00  0.00     0.210 HD
ENDBRANCH  21  26
BRANCH  22  28
HETATM   28  O10 UNL     1     -40.683   5.310   4.512  1.00  0.00    -0.390 OA
ATOM     29  H10 UNL     1     -40.953   4.429   4.282  1.00  0.00     0.210 HD
ENDBRANCH  22  28
BRANCH  23  30
HETATM   30  O11 UNL     1     -38.992   5.214   6.869  1.00  0.00    -0.387 OA
ATOM     31  H11 UNL     1     -38.581   5.054   6.027  1.00  0.00     0.210 HD
ENDBRANCH  23  30
ENDBRANCH  13  18
ENDBRANCH   8  11
ENDBRANCH   7   8
ENDBRANCH   5   7
BRANCH   6  32
HETATM   32  O13 UNL     1     -37.360   2.737  16.485  1.00  0.00    -0.377 OA
ATOM     33  H13 UNL     1     -37.939   2.014  16.272  1.00  0.00     0.211 HD
ENDBRANCH   6  32
BRANCH   1  34
HETATM   34  O5  UNL     1     -36.881   6.119  15.328  1.00  0.00    -0.369 OA
BRANCH  34  35
HETATM   35  C4  UNL     1     -36.498   7.378  15.729  1.00  0.00     0.176 C 
BRANCH  35  36
HETATM   36  C3  UNL     1     -35.433   7.973  14.896  1.00  0.00     0.066 A 
HETATM   37  C2  UNL     1     -35.450   8.734  13.775  1.00  0.00     0.191 A 
HETATM   38  N2  UNL     1     -34.295   9.040  13.210  1.00  0.00    -0.317 N 
HETATM   39  C1  UNL     1     -33.172   8.588  13.769  1.00  0.00     0.144 A 
ATOM     40  H2  UNL     1     -34.262   9.609  12.364  1.00  0.00     0.169 HD
HETATM   41  S1  UNL     1     -33.735   7.720  15.109  1.00  0.00    -0.052 SA
BRANCH  37  42
HETATM   42  N3  UNL     1     -36.674   9.289  13.193  1.00  0.00    -0.097 N 
HETATM   43  O1  UNL     1     -37.432   8.608  12.484  1.00  0.00    -0.530 OA
HETATM   44  O2  UNL     1     -37.030  10.575  13.404  1.00  0.00    -0.530 OA
ENDBRANCH  37  42
BRANCH  39  45
HETATM   45  N1  UNL     1     -31.935   8.793  13.348  1.00  0.00    -0.380 N 
ATOM     46  H12 UNL     1     -31.586   8.997  12.412  1.00  0.00     0.158 HD
ATOM     47  H11 UNL     1     -31.085   8.779  13.911  1.00  0.00     0.158 HD
ENDBRANCH  39  45
ENDBRANCH  35  36
BRANCH  35  48
HETATM   48  C5  UNL     1     -35.988   7.265  17.189  1.00  0.00     0.150 C 
BRANCH  48  49
HETATM   49  C6  UNL     1     -36.667   8.114  18.140  1.00  0.00     0.175 C 
HETATM   50  O3  UNL     1     -37.752   7.667  18.656  1.00  0.00    -0.648 OA
HETATM   51  O4  UNL     1     -36.286   9.362  18.571  1.00  0.00    -0.648 OA
ENDBRANCH  48  49
ENDBRANCH  35  48
ENDBRANCH  34  35
ENDBRANCH   1  34
TORSDOF 17
ENDMDL
MODEL 5
REMARK VINA RESULT: -9.264051527      2.924      5.715
REMARK  17 active torsions:
REMARK  status: ('A' for Active; 'I' for Inactive)
REMARK    1  A    between atoms: N1_1  and  C1_4 
REMARK    2  A    between atoms: C2_7  and  N3_8 
REMARK    3  A    between atoms: C3_11  and  C4_12 
REMARK    4  A    between atoms: C4_12  and  C5_13 
REMARK    5  A    between atoms: C4_12  and  O5_17 
REMARK    6  A    between atoms: C5_13  and  C6_14 
REMARK    7  A    between atoms: O5_17  and  C7_18 
REMARK    8  A    between atoms: N6_22  and  C9_23 
REMARK    9  A    between atoms: C9_23  and  C10_24 
REMARK   10  A    between atoms: C10_24  and  O6_25 
REMARK   11  A    between atoms: C10_24  and  N7_27 
REMARK   12  A    between atoms: C12_29  and  C13_30 
REMARK   13  A    between atoms: C13_30  and  O7_31 
REMARK   14  A    between atoms: C15_35  and  O9_36 
REMARK   15  A    between atoms: C16_38  and  O10_39 
REMARK   16  A    between atoms: C17_41  and  O11_42 
REMARK   17  A    between atoms: C19_48  and  O13_49 
ROOT
HETATM    1  C7  UNL     1     -36.760  -1.142  11.213  1.00  0.00     0.182 C 
HETATM    2  C8  UNL     1     -37.547  -2.396  10.869  1.00  0.00     0.167 C 
HETATM    3  N4  UNL     1     -38.972  -2.220  11.001  1.00  0.00    -0.129 NA
HETATM    4  N5  UNL     1     -39.274  -0.874  10.940  1.00  0.00    -0.054 NA
HETATM    5  N6  UNL     1     -38.838  -0.171  12.021  1.00  0.00    -0.183 NA
HETATM    6  C19 UNL     1     -37.513  -0.545  12.411  1.00  0.00     0.240 C 
ENDROOT
BRANCH   5   7
HETATM    7  C9  UNL     1     -39.019   1.260  11.900  1.00  0.00     0.169 C 
BRANCH   7   8
HETATM    8  C10 UNL     1     -39.775   1.832  13.074  1.00  0.00     0.254 C 
BRANCH   8   9
HETATM    9  O6  UNL     1     -40.384   3.012  12.661  1.00  0.00    -0.374 OA
ATOM     10  H6  UNL     1     -40.017   3.726  13.169  1.00  0.00     0.212 HD
ENDBRANCH   8   9
BRANCH   8  11
HETATM   11  N7  UNL     1     -38.906   2.159  14.192  1.00  0.00    -0.269 N 
HETATM   12  C11 UNL     1     -38.298   3.342  14.420  1.00  0.00     0.131 A 
HETATM   13  C12 UNL     1     -37.564   3.261  15.579  1.00  0.00     0.092 A 
HETATM   14  C18 UNL     1     -37.774   1.972  16.019  1.00  0.00     0.273 A 
HETATM   15  O12 UNL     1     -37.296   1.453  17.047  1.00  0.00    -0.266 OA
HETATM   16  N8  UNL     1     -38.584   1.337  15.161  1.00  0.00    -0.262 N 
ATOM     17  H8  UNL     1     -38.899   0.371  15.248  1.00  0.00     0.190 HD
BRANCH  13  18
HETATM   18  C13 UNL     1     -36.742   4.313  16.223  1.00  0.00     0.227 C 
HETATM   19  O8  UNL     1     -35.596   4.448  15.493  1.00  0.00    -0.346 OA
HETATM   20  C14 UNL     1     -35.308   5.686  14.998  1.00  0.00     0.206 C 
HETATM   21  C15 UNL     1     -35.374   6.789  16.019  1.00  0.00     0.173 C 
HETATM   22  C16 UNL     1     -36.501   6.610  16.990  1.00  0.00     0.183 C 
HETATM   23  C17 UNL     1     -37.485   5.606  16.391  1.00  0.00     0.217 C 
BRANCH  18  24
HETATM   24  O7  UNL     1     -36.342   3.908  17.519  1.00  0.00    -0.359 OA
ATOM     25  H7  UNL     1     -37.069   3.974  18.127  1.00  0.00     0.213 HD
ENDBRANCH  18  24
BRANCH  21  26
HETATM   26  O9  UNL     1     -34.134   6.915  16.667  1.00  0.00    -0.391 OA
ATOM     27  H9  UNL     1     -34.213   6.640  17.573  1.00  0.00     0.210 HD
ENDBRANCH  21  26
BRANCH  22  28
HETATM   28  O10 UNL     1     -37.110   7.783  17.367  1.00  0.00    -0.390 OA
ATOM     29  H10 UNL     1     -37.531   8.249  16.655  1.00  0.00     0.210 HD
ENDBRANCH  22  28
BRANCH  23  30
HETATM   30  O11 UNL     1     -38.066   6.068  15.229  1.00  0.00    -0.387 OA
ATOM     31  H11 UNL     1     -39.016   6.028  15.235  1.00  0.00     0.210 HD
ENDBRANCH  23  30
ENDBRANCH  13  18
ENDBRANCH   8  11
ENDBRANCH   7   8
ENDBRANCH   5   7
BRANCH   6  32
HETATM   32  O13 UNL     1     -37.603  -1.452  13.460  1.00  0.00    -0.377 OA
ATOM     33  H13 UNL     1     -37.380  -1.047  14.291  1.00  0.00     0.211 HD
ENDBRANCH   6  32
BRANCH   1  34
HETATM   34  O5  UNL     1     -36.685  -0.353  10.150  1.00  0.00    -0.369 OA
BRANCH  34  35
HETATM   35  C4  UNL     1     -36.475  -0.811   8.869  1.00  0.00     0.176 C 
BRANCH  35  36
HETATM   36  C3  UNL     1     -35.062  -0.761   8.439  1.00  0.00     0.066 A 
HETATM   37  C2  UNL     1     -33.944  -1.402   8.857  1.00  0.00     0.191 A 
HETATM   38  N2  UNL     1     -32.789  -1.063   8.311  1.00  0.00    -0.317 N 
HETATM   39  C1  UNL     1     -32.781  -0.111   7.378  1.00  0.00     0.144 A 
ATOM     40  H2  UNL     1     -31.923  -1.519   8.598  1.00  0.00     0.169 HD
HETATM   41  S1  UNL     1     -34.413   0.321   7.257  1.00  0.00    -0.052 SA
BRANCH  37  42
HETATM   42  N3  UNL     1     -33.955  -2.494   9.834  1.00  0.00    -0.097 N 
HETATM   43  O1  UNL     1     -33.199  -2.503  10.817  1.00  0.00    -0.530 OA
HETATM   44  O2  UNL     1     -34.795  -3.544   9.701  1.00  0.00    -0.530 OA
ENDBRANCH  37  42
BRANCH  39  45
HETATM   45  N1  UNL     1     -31.728   0.354   6.725  1.00  0.00    -0.380 N 
ATOM     46  H12 UNL     1     -30.887  -0.129   6.409  1.00  0.00     0.158 HD
ATOM     47  H11 UNL     1     -31.572   1.313   6.417  1.00  0.00     0.158 HD
ENDBRANCH  39  45
ENDBRANCH  35  36
BRANCH  35  48
HETATM   48  C5  UNL     1     -37.321   0.073   7.916  1.00  0.00     0.150 C 
BRANCH  48  49
HETATM   49  C6  UNL     1     -37.720   1.350   8.460  1.00  0.00     0.175 C 
HETATM   50  O3  UNL     1     -38.974   1.609   8.489  1.00  0.00    -0.648 OA
HETATM   51  O4  UNL     1     -36.906   2.337   8.963  1.00  0.00    -0.648 OA
ENDBRANCH  48  49
ENDBRANCH  35  48
ENDBRANCH  34  35
ENDBRANCH   1  34
TORSDOF 17
ENDMDL
