MODEL 1
REMARK VINA RESULT: -9.711555116      0.000      0.000
REMARK  16 active torsions:
REMARK  status: ('A' for Active; 'I' for Inactive)
REMARK    1  A    between atoms: N1_1  and  C1_4 
REMARK    2  A    between atoms: N3_10  and  C5_11 
REMARK    3  A    between atoms: C5_11  and  O1_12 
REMARK    4  A    between atoms: O1_12  and  C6_13 
REMARK    5  A    between atoms: C6_13  and  O2_14 
REMARK    6  A    between atoms: C6_13  and  C7_16 
REMARK    7  A    between atoms: C7_16  and  O3_17 
REMARK    8  A    between atoms: C7_16  and  C8_19 
REMARK    9  A    between atoms: C7_16  and  N5_25 
REMARK   10  A    between atoms: C8_19  and  C9_20 
REMARK   11  A    between atoms: C9_20  and  N4_21 
REMARK       I    between atoms: N5_25  and  C10_27 
REMARK   12  A    between atoms: C10_27  and  C11_29 
REMARK       I    between atoms: N7_33  and  C13_35 
REMARK       I    between atoms: C13_35  and  N8_36 
REMARK       I    between atoms: C13_35  and  N9_40 
REMARK   13  A    between atoms: C15_45  and  N10_46 
REMARK   14  A    between atoms: C17_51  and  N13_52 
REMARK   15  A    between atoms: C18_57  and  C19_58 
REMARK   16  A    between atoms: C19_58  and  O6_59 
ROOT
HETATM    1  C11 UNL     1     -34.471   8.566  14.744  1.00  0.00     0.177 A 
HETATM    2  N6  UNL     1     -35.233   9.513  14.197  1.00  0.00    -0.324 N 
ATOM      3  H6  UNL     1     -36.229   9.347  14.053  1.00  0.00     0.169 HD
HETATM    4  C12 UNL     1     -34.691  10.686  13.834  1.00  0.00     0.109 A 
HETATM    5  N7  UNL     1     -35.441  11.586  13.309  1.00  0.00    -0.327 N 
ATOM      6  H7  UNL     1     -36.432  11.380  13.183  1.00  0.00     0.164 HD
HETATM    7  C13 UNL     1     -34.954  12.866  12.891  1.00  0.00     0.481 C 
HETATM    8  N8  UNL     1     -34.676  13.767  13.990  1.00  0.00    -0.033 N 
ATOM      9  H81 UNL     1     -34.329  14.679  13.692  1.00  0.00     0.278 HD
ATOM     10  H82 UNL     1     -34.033  13.337  14.655  1.00  0.00     0.278 HD
ATOM     11  H83 UNL     1     -35.495  13.872  14.588  1.00  0.00     0.278 HD
HETATM   12  N9  UNL     1     -35.947  13.555  12.056  1.00  0.00    -0.033 N 
ATOM     13  H91 UNL     1     -35.601  14.466  11.758  1.00  0.00     0.278 HD
ATOM     14  H92 UNL     1     -36.850  13.629  12.526  1.00  0.00     0.278 HD
ATOM     15  H93 UNL     1     -36.234  12.983  11.262  1.00  0.00     0.278 HD
HETATM   16  C14 UNL     1     -33.357  10.938  14.014  1.00  0.00     0.097 A 
HETATM   17  C15 UNL     1     -32.575   9.954  14.580  1.00  0.00     0.117 A 
HETATM   18  N14 UNL     1     -33.172   8.787  14.928  1.00  0.00    -0.324 N 
ATOM     19  H14 UNL     1     -32.604   8.051  15.347  1.00  0.00     0.169 HD
ENDROOT
BRANCH   1  20
HETATM   20  C10 UNL     1     -35.097   7.286  15.133  1.00  0.00     0.288 C 
HETATM   21  N5  UNL     1     -36.097   7.219  16.106  1.00  0.00    -0.319 N 
ATOM     22  H5  UNL     1     -36.357   8.116  16.518  1.00  0.00     0.166 HD
HETATM   23  O4  UNL     1     -34.675   6.277  14.541  1.00  0.00    -0.264 OA
BRANCH  21  24
HETATM   24  C7  UNL     1     -36.799   6.115  16.602  1.00  0.00     0.186 C 
BRANCH  24  25
HETATM   25  C6  UNL     1     -37.816   5.464  15.726  1.00  0.00     0.320 C 
BRANCH  25  26
HETATM   26  O1  UNL     1     -38.443   6.155  14.770  1.00  0.00    -0.310 OA
BRANCH  26  27
HETATM   27  C5  UNL     1     -38.366   5.746  13.469  1.00  0.00     0.236 C 
BRANCH  27  28
HETATM   28  N3  UNL     1     -38.650   6.689  12.454  1.00  0.00    -0.322 N 
HETATM   29  C4  UNL     1     -38.503   8.015  12.701  1.00  0.00     0.100 A 
HETATM   30  C3  UNL     1     -38.732   8.998  11.784  1.00  0.00     0.048 A 
HETATM   31  C2  UNL     1     -39.153   8.667  10.478  1.00  0.00     0.054 A 
HETATM   32  N2  UNL     1     -39.409   9.502   9.505  1.00  0.00    -0.336 N 
HETATM   33  C21 UNL     1     -39.299   7.332  10.233  1.00  0.00     0.051 A 
HETATM   34  C1  UNL     1     -39.798   9.008   8.327  1.00  0.00     0.143 A 
ATOM     35  H2  UNL     1     -39.314  10.508   9.643  1.00  0.00     0.168 HD
HETATM   36  S1  UNL     1     -39.803   7.324   8.601  1.00  0.00    -0.051 SA
HETATM   37  C20 UNL     1     -39.049   6.355  11.214  1.00  0.00     0.119 A 
BRANCH  34  38
HETATM   38  N1  UNL     1     -40.097   9.684   7.239  1.00  0.00    -0.380 N 
ATOM     39  H12 UNL     1     -39.717   9.601   6.296  1.00  0.00     0.158 HD
ATOM     40  H11 UNL     1     -40.785  10.431   7.144  1.00  0.00     0.158 HD
ENDBRANCH  34  38
ENDBRANCH  27  28
ENDBRANCH  26  27
ENDBRANCH  25  26
BRANCH  25  41
HETATM   41  O2  UNL     1     -38.759   4.897  16.653  1.00  0.00    -0.366 OA
ATOM     42  H2  UNL     1     -38.540   5.133  17.547  1.00  0.00     0.212 HD
ENDBRANCH  25  41
ENDBRANCH  24  25
BRANCH  24  43
HETATM   43  O3  UNL     1     -35.734   5.076  16.714  1.00  0.00    -0.366 OA
ATOM     44  H3  UNL     1     -35.041   5.418  16.163  1.00  0.00     0.212 HD
ENDBRANCH  24  43
BRANCH  24  45
HETATM   45  C8  UNL     1     -37.258   6.167  18.039  1.00  0.00     0.093 C 
BRANCH  45  46
HETATM   46  C9  UNL     1     -37.268   7.493  18.700  1.00  0.00     0.234 C 
BRANCH  46  47
HETATM   47  N4  UNL     1     -36.168   7.473  19.701  1.00  0.00    -0.079 N 
ATOM     48  H43 UNL     1     -35.443   6.786  19.492  1.00  0.00     0.274 HD
ATOM     49  H42 UNL     1     -35.572   8.300  19.663  1.00  0.00     0.274 HD
ATOM     50  H41 UNL     1     -36.607   7.334  20.611  1.00  0.00     0.274 HD
ENDBRANCH  46  47
ENDBRANCH  45  46
ENDBRANCH  24  45
ENDBRANCH  21  24
ENDBRANCH   1  20
BRANCH  17  51
HETATM   51  N10 UNL     1     -31.199  10.208  14.768  1.00  0.00    -0.277 N 
HETATM   52  C16 UNL     1     -30.767  10.703  16.052  1.00  0.00     0.197 C 
HETATM   53  N11 UNL     1     -31.512  10.460  17.235  1.00  0.00    -0.063 NA
HETATM   54  N12 UNL     1     -29.656  11.381  16.042  1.00  0.00    -0.316 N 
HETATM   55  C17 UNL     1     -28.979  11.568  14.778  1.00  0.00     0.430 C 
ATOM     56  H12 UNL     1     -29.273  11.770  16.904  1.00  0.00     0.166 HD
HETATM   57  O5  UNL     1     -29.009  10.472  13.954  1.00  0.00    -0.316 OA
HETATM   58  C18 UNL     1     -30.280   9.977  13.699  1.00  0.00     0.260 C 
BRANCH  55  59
HETATM   59  N13 UNL     1     -29.445  12.783  14.159  1.00  0.00    -0.035 N 
ATOM     60 3H13 UNL     1     -30.352  13.078  14.521  1.00  0.00     0.279 HD
ATOM     61 2H13 UNL     1     -28.901  13.596  14.449  1.00  0.00     0.279 HD
ATOM     62 1H13 UNL     1     -29.453  12.667  13.145  1.00  0.00     0.279 HD
ENDBRANCH  55  59
BRANCH  58  63
HETATM   63  C19 UNL     1     -30.100   8.486  13.398  1.00  0.00     0.218 C 
BRANCH  63  64
HETATM   64  O6  UNL     1     -29.727   7.773  14.530  1.00  0.00    -0.397 OA
ATOM     65  H6  UNL     1     -30.298   7.029  14.683  1.00  0.00     0.209 HD
ENDBRANCH  63  64
ENDBRANCH  58  63
ENDBRANCH  17  51
TORSDOF 16
ENDMDL
MODEL 2
REMARK VINA RESULT: -9.697893701      1.743      2.127
REMARK  16 active torsions:
REMARK  status: ('A' for Active; 'I' for Inactive)
REMARK    1  A    between atoms: N1_1  and  C1_4 
REMARK    2  A    between atoms: N3_10  and  C5_11 
REMARK    3  A    between atoms: C5_11  and  O1_12 
REMARK    4  A    between atoms: O1_12  and  C6_13 
REMARK    5  A    between atoms: C6_13  and  O2_14 
REMARK    6  A    between atoms: C6_13  and  C7_16 
REMARK    7  A    between atoms: C7_16  and  O3_17 
REMARK    8  A    between atoms: C7_16  and  C8_19 
REMARK    9  A    between atoms: C7_16  and  N5_25 
REMARK   10  A    between atoms: C8_19  and  C9_20 
REMARK   11  A    between atoms: C9_20  and  N4_21 
REMARK       I    between atoms: N5_25  and  C10_27 
REMARK   12  A    between atoms: C10_27  and  C11_29 
REMARK       I    between atoms: N7_33  and  C13_35 
REMARK       I    between atoms: C13_35  and  N8_36 
REMARK       I    between atoms: C13_35  and  N9_40 
REMARK   13  A    between atoms: C15_45  and  N10_46 
REMARK   14  A    between atoms: C17_51  and  N13_52 
REMARK   15  A    between atoms: C18_57  and  C19_58 
REMARK   16  A    between atoms: C19_58  and  O6_59 
ROOT
HETATM    1  C11 UNL     1     -33.748  10.582  14.464  1.00  0.00     0.177 A 
HETATM    2  N6  UNL     1     -33.928  11.793  13.938  1.00  0.00    -0.324 N 
ATOM      3  H6  UNL     1     -34.871  12.156  13.805  1.00  0.00     0.169 HD
HETATM    4  C12 UNL     1     -32.868  12.535  13.582  1.00  0.00     0.109 A 
HETATM    5  N7  UNL     1     -33.061  13.700  13.077  1.00  0.00    -0.327 N 
ATOM      6  H7  UNL     1     -34.021  14.025  12.961  1.00  0.00     0.164 HD
HETATM    7  C13 UNL     1     -31.996  14.563  12.668  1.00  0.00     0.481 C 
HETATM    8  N8  UNL     1     -31.294  15.182  13.774  1.00  0.00    -0.033 N 
ATOM      9  H81 UNL     1     -30.535  15.797  13.482  1.00  0.00     0.278 HD
ATOM     10  H82 UNL     1     -30.955  14.474  14.426  1.00  0.00     0.278 HD
ATOM     11  H83 UNL     1     -31.945  15.677  14.383  1.00  0.00     0.278 HD
HETATM   12  N9  UNL     1     -32.507  15.673  11.853  1.00  0.00    -0.033 N 
ATOM     13  H91 UNL     1     -31.748  16.288  11.561  1.00  0.00     0.278 HD
ATOM     14  H92 UNL     1     -33.245  16.187  12.335  1.00  0.00     0.278 HD
ATOM     15  H93 UNL     1     -33.048  15.338  11.056  1.00  0.00     0.278 HD
HETATM   16  C14 UNL     1     -31.589  12.074  13.748  1.00  0.00     0.097 A 
HETATM   17  C15 UNL     1     -31.411  10.820  14.293  1.00  0.00     0.117 A 
HETATM   18  N14 UNL     1     -32.514  10.111  14.635  1.00  0.00    -0.324 N 
ATOM     19  H14 UNL     1     -32.396   9.182  15.039  1.00  0.00     0.169 HD
ENDROOT
BRANCH   1  20
HETATM   20  C10 UNL     1     -34.934   9.788  14.846  1.00  0.00     0.288 C 
HETATM   21  N5  UNL     1     -34.834   8.656  15.657  1.00  0.00    -0.319 N 
ATOM     22  H5  UNL     1     -33.888   8.426  15.961  1.00  0.00     0.166 HD
HETATM   23  O4  UNL     1     -36.022  10.193  14.398  1.00  0.00    -0.264 OA
BRANCH  21  24
HETATM   24  C7  UNL     1     -35.829   7.787  16.119  1.00  0.00     0.186 C 
BRANCH  24  25
HETATM   25  C6  UNL     1     -36.610   7.002  15.119  1.00  0.00     0.320 C 
BRANCH  25  26
HETATM   26  O1  UNL     1     -37.813   7.415  14.710  1.00  0.00    -0.310 OA
BRANCH  26  27
HETATM   27  C5  UNL     1     -38.592   6.596  13.941  1.00  0.00     0.236 C 
BRANCH  27  28
HETATM   28  N3  UNL     1     -38.808   6.954  12.590  1.00  0.00    -0.322 N 
HETATM   29  C4  UNL     1     -38.661   6.026  11.612  1.00  0.00     0.100 A 
HETATM   30  C3  UNL     1     -38.865   6.268  10.285  1.00  0.00     0.048 A 
HETATM   31  C2  UNL     1     -39.254   7.553   9.850  1.00  0.00     0.054 A 
HETATM   32  N2  UNL     1     -39.481   7.924   8.616  1.00  0.00    -0.336 N 
HETATM   33  C21 UNL     1     -39.400   8.484  10.837  1.00  0.00     0.051 A 
HETATM   34  C1  UNL     1     -39.844   9.188   8.388  1.00  0.00     0.143 A 
ATOM     35  H2  UNL     1     -39.383   7.262   7.847  1.00  0.00     0.168 HD
HETATM   36  S1  UNL     1     -39.863   9.870   9.952  1.00  0.00    -0.051 SA
HETATM   37  C20 UNL     1     -39.179   8.184  12.194  1.00  0.00     0.119 A 
BRANCH  34  38
HETATM   38  N1  UNL     1     -40.113   9.743   7.226  1.00  0.00    -0.380 N 
ATOM     39  H12 UNL     1     -39.521   9.851   6.402  1.00  0.00     0.158 HD
ATOM     40  H11 UNL     1     -40.990  10.175   6.935  1.00  0.00     0.158 HD
ENDBRANCH  34  38
ENDBRANCH  27  28
ENDBRANCH  26  27
ENDBRANCH  25  26
BRANCH  25  41
HETATM   41  O2  UNL     1     -36.686   5.686  15.695  1.00  0.00    -0.366 OA
ATOM     42  H2  UNL     1     -36.828   5.029  15.023  1.00  0.00     0.212 HD
ENDBRANCH  25  41
ENDBRANCH  24  25
BRANCH  24  43
HETATM   43  O3  UNL     1     -35.043   6.739  16.831  1.00  0.00    -0.366 OA
ATOM     44  H3  UNL     1     -34.145   6.958  16.613  1.00  0.00     0.212 HD
ENDBRANCH  24  43
BRANCH  24  45
HETATM   45  C8  UNL     1     -36.704   8.266  17.251  1.00  0.00     0.093 C 
BRANCH  45  46
HETATM   46  C9  UNL     1     -36.028   8.673  18.505  1.00  0.00     0.234 C 
BRANCH  46  47
HETATM   47  N4  UNL     1     -36.271   7.582  19.488  1.00  0.00    -0.079 N 
ATOM     48  H43 UNL     1     -37.206   7.603  19.893  1.00  0.00     0.274 HD
ATOM     49  H42 UNL     1     -36.339   6.660  19.059  1.00  0.00     0.274 HD
ATOM     50  H41 UNL     1     -35.528   7.649  20.183  1.00  0.00     0.274 HD
ENDBRANCH  46  47
ENDBRANCH  45  46
ENDBRANCH  24  45
ENDBRANCH  21  24
ENDBRANCH   1  20
BRANCH  17  51
HETATM   51  N10 UNL     1     -30.095  10.340  14.468  1.00  0.00    -0.277 N 
HETATM   52  C16 UNL     1     -29.499  10.446  15.776  1.00  0.00     0.197 C 
HETATM   53  N11 UNL     1     -30.289  10.508  16.954  1.00  0.00    -0.063 NA
HETATM   54  N12 UNL     1     -28.198  10.480  15.795  1.00  0.00    -0.316 N 
HETATM   55  C17 UNL     1     -27.493  10.410  14.534  1.00  0.00     0.430 C 
ATOM     56  H12 UNL     1     -27.688  10.553  16.676  1.00  0.00     0.166 HD
HETATM   57  O5  UNL     1     -28.048   9.547  13.624  1.00  0.00    -0.316 OA
HETATM   58  C18 UNL     1     -29.392   9.772  13.361  1.00  0.00     0.260 C 
BRANCH  55  59
HETATM   59  N13 UNL     1     -27.280  11.742  14.028  1.00  0.00    -0.035 N 
ATOM     60 3H13 UNL     1     -28.109  12.329  14.128  1.00  0.00     0.279 HD
ATOM     61 2H13 UNL     1     -26.647  12.282  14.619  1.00  0.00     0.279 HD
ATOM     62 1H13 UNL     1     -26.957  11.692  13.061  1.00  0.00     0.279 HD
ENDBRANCH  55  59
BRANCH  58  63
HETATM   63  C19 UNL     1     -29.972   8.421  12.935  1.00  0.00     0.218 C 
BRANCH  63  64
HETATM   64  O6  UNL     1     -30.268   7.618  14.029  1.00  0.00    -0.397 OA
ATOM     65  H6  UNL     1     -31.093   7.862  14.433  1.00  0.00     0.209 HD
ENDBRANCH  63  64
ENDBRANCH  58  63
ENDBRANCH  17  51
TORSDOF 16
ENDMDL
MODEL 3
REMARK VINA RESULT: -9.607187805      1.714      1.991
REMARK  16 active torsions:
REMARK  status: ('A' for Active; 'I' for Inactive)
REMARK    1  A    between atoms: N1_1  and  C1_4 
REMARK    2  A    between atoms: N3_10  and  C5_11 
REMARK    3  A    between atoms: C5_11  and  O1_12 
REMARK    4  A    between atoms: O1_12  and  C6_13 
REMARK    5  A    between atoms: C6_13  and  O2_14 
REMARK    6  A    between atoms: C6_13  and  C7_16 
REMARK    7  A    between atoms: C7_16  and  O3_17 
REMARK    8  A    between atoms: C7_16  and  C8_19 
REMARK    9  A    between atoms: C7_16  and  N5_25 
REMARK   10  A    between atoms: C8_19  and  C9_20 
REMARK   11  A    between atoms: C9_20  and  N4_21 
REMARK       I    between atoms: N5_25  and  C10_27 
REMARK   12  A    between atoms: C10_27  and  C11_29 
REMARK       I    between atoms: N7_33  and  C13_35 
REMARK       I    between atoms: C13_35  and  N8_36 
REMARK       I    between atoms: C13_35  and  N9_40 
REMARK   13  A    between atoms: C15_45  and  N10_46 
REMARK   14  A    between atoms: C17_51  and  N13_52 
REMARK   15  A    between atoms: C18_57  and  C19_58 
REMARK   16  A    between atoms: C19_58  and  O6_59 
ROOT
HETATM    1  C11 UNL     1     -33.776  10.623  14.502  1.00  0.00     0.177 A 
HETATM    2  N6  UNL     1     -33.931  11.833  13.965  1.00  0.00    -0.324 N 
ATOM      3  H6  UNL     1     -34.866  12.214  13.829  1.00  0.00     0.169 HD
HETATM    4  C12 UNL     1     -32.855  12.551  13.605  1.00  0.00     0.109 A 
HETATM    5  N7  UNL     1     -33.024  13.715  13.090  1.00  0.00    -0.327 N 
ATOM      6  H7  UNL     1     -33.977  14.059  12.971  1.00  0.00     0.164 HD
HETATM    7  C13 UNL     1     -31.941  14.553  12.675  1.00  0.00     0.481 C 
HETATM    8  N8  UNL     1     -31.227  15.166  13.776  1.00  0.00    -0.033 N 
ATOM      9  H81 UNL     1     -30.455  15.763  13.480  1.00  0.00     0.278 HD
ATOM     10  H82 UNL     1     -30.903  14.457  14.434  1.00  0.00     0.278 HD
ATOM     11  H83 UNL     1     -31.868  15.679  14.381  1.00  0.00     0.278 HD
HETATM   12  N9  UNL     1     -32.429  15.667  11.851  1.00  0.00    -0.033 N 
ATOM     13  H91 UNL     1     -31.657  16.264  11.554  1.00  0.00     0.278 HD
ATOM     14  H92 UNL     1     -33.157  16.200  12.329  1.00  0.00     0.278 HD
ATOM     15  H93 UNL     1     -32.976  15.337  11.056  1.00  0.00     0.278 HD
HETATM   16  C14 UNL     1     -31.586  12.065  13.776  1.00  0.00     0.097 A 
HETATM   17  C15 UNL     1     -31.434  10.812  14.331  1.00  0.00     0.117 A 
HETATM   18  N14 UNL     1     -32.553  10.129  14.677  1.00  0.00    -0.324 N 
ATOM     19  H14 UNL     1     -32.453   9.200  15.088  1.00  0.00     0.169 HD
ENDROOT
BRANCH   1  20
HETATM   20  C10 UNL     1     -34.978   9.857  14.889  1.00  0.00     0.288 C 
HETATM   21  N5  UNL     1     -34.900   8.717  15.692  1.00  0.00    -0.319 N 
ATOM     22  H5  UNL     1     -33.957   8.461  15.986  1.00  0.00     0.166 HD
HETATM   23  O4  UNL     1     -36.059  10.292  14.453  1.00  0.00    -0.264 OA
BRANCH  21  24
HETATM   24  C7  UNL     1     -35.913   7.871  16.157  1.00  0.00     0.186 C 
BRANCH  24  25
HETATM   25  C6  UNL     1     -36.729   7.121  15.159  1.00  0.00     0.320 C 
BRANCH  25  26
HETATM   26  O1  UNL     1     -37.621   7.750  14.388  1.00  0.00    -0.310 OA
BRANCH  26  27
HETATM   27  C5  UNL     1     -38.296   7.060  13.421  1.00  0.00     0.236 C 
BRANCH  27  28
HETATM   28  N3  UNL     1     -38.663   7.750  12.241  1.00  0.00    -0.322 N 
HETATM   29  C4  UNL     1     -38.601   9.104  12.202  1.00  0.00     0.100 A 
HETATM   30  C3  UNL     1     -38.914   9.857  11.109  1.00  0.00     0.048 A 
HETATM   31  C2  UNL     1     -39.336   9.233   9.914  1.00  0.00     0.054 A 
HETATM   32  N2  UNL     1     -39.666   9.828   8.798  1.00  0.00    -0.336 N 
HETATM   33  C21 UNL     1     -39.397   7.870   9.958  1.00  0.00     0.051 A 
HETATM   34  C1  UNL     1     -40.044   9.074   7.762  1.00  0.00     0.143 A 
ATOM     35  H2  UNL     1     -39.637  10.845   8.720  1.00  0.00     0.168 HD
HETATM   36  S1  UNL     1     -39.930   7.488   8.381  1.00  0.00    -0.051 SA
HETATM   37  C20 UNL     1     -39.062   7.138  11.112  1.00  0.00     0.119 A 
BRANCH  34  38
HETATM   38  N1  UNL     1     -40.409   9.486   6.567  1.00  0.00    -0.380 N 
ATOM     39  H12 UNL     1     -39.937  10.124   5.926  1.00  0.00     0.158 HD
ATOM     40  H11 UNL     1     -41.254   9.231   6.057  1.00  0.00     0.158 HD
ENDBRANCH  34  38
ENDBRANCH  27  28
ENDBRANCH  26  27
ENDBRANCH  25  26
BRANCH  25  41
HETATM   41  O2  UNL     1     -37.359   6.085  15.934  1.00  0.00    -0.366 OA
ATOM     42  H2  UNL     1     -36.784   5.335  16.029  1.00  0.00     0.212 HD
ENDBRANCH  25  41
ENDBRANCH  24  25
BRANCH  24  43
HETATM   43  O3  UNL     1     -35.147   6.793  16.846  1.00  0.00    -0.366 OA
ATOM     44  H3  UNL     1     -34.248   7.092  16.780  1.00  0.00     0.212 HD
ENDBRANCH  24  43
BRANCH  24  45
HETATM   45  C8  UNL     1     -36.759   8.360  17.307  1.00  0.00     0.093 C 
BRANCH  45  46
HETATM   46  C9  UNL     1     -36.056   8.716  18.562  1.00  0.00     0.234 C 
BRANCH  46  47
HETATM   47  N4  UNL     1     -36.279   7.587  19.505  1.00  0.00    -0.079 N 
ATOM     48  H43 UNL     1     -36.256   7.868  20.485  1.00  0.00     0.274 HD
ATOM     49  H42 UNL     1     -37.237   7.237  19.497  1.00  0.00     0.274 HD
ATOM     50  H41 UNL     1     -35.587   6.875  19.272  1.00  0.00     0.274 HD
ENDBRANCH  46  47
ENDBRANCH  45  46
ENDBRANCH  24  45
ENDBRANCH  21  24
ENDBRANCH   1  20
BRANCH  17  51
HETATM   51  N10 UNL     1     -30.129  10.306  14.510  1.00  0.00    -0.277 N 
HETATM   52  C16 UNL     1     -29.533  10.407  15.819  1.00  0.00     0.197 C 
HETATM   53  N11 UNL     1     -30.323  10.491  16.995  1.00  0.00    -0.063 NA
HETATM   54  N12 UNL     1     -28.231  10.414  15.839  1.00  0.00    -0.316 N 
HETATM   55  C17 UNL     1     -27.526  10.323  14.580  1.00  0.00     0.430 C 
ATOM     56  H12 UNL     1     -27.722  10.481  16.720  1.00  0.00     0.166 HD
HETATM   57  O5  UNL     1     -28.098   9.467  13.674  1.00  0.00    -0.316 OA
HETATM   58  C18 UNL     1     -29.436   9.718  13.407  1.00  0.00     0.260 C 
BRANCH  55  59
HETATM   59  N13 UNL     1     -27.285  11.648  14.067  1.00  0.00    -0.035 N 
ATOM     60 3H13 UNL     1     -27.388  12.365  14.787  1.00  0.00     0.279 HD
ATOM     61 2H13 UNL     1     -26.302  11.803  13.846  1.00  0.00     0.279 HD
ATOM     62 1H13 UNL     1     -27.892  11.818  13.264  1.00  0.00     0.279 HD
ENDBRANCH  55  59
BRANCH  58  63
HETATM   63  C19 UNL     1     -30.042   8.376  12.987  1.00  0.00     0.218 C 
BRANCH  63  64
HETATM   64  O6  UNL     1     -30.359   7.587  14.085  1.00  0.00    -0.397 OA
ATOM     65  H6  UNL     1     -30.971   8.022  14.668  1.00  0.00     0.209 HD
ENDBRANCH  63  64
ENDBRANCH  58  63
ENDBRANCH  17  51
TORSDOF 16
ENDMDL
MODEL 4
REMARK VINA RESULT: -9.546306041      4.233      6.705
REMARK  16 active torsions:
REMARK  status: ('A' for Active; 'I' for Inactive)
REMARK    1  A    between atoms: N1_1  and  C1_4 
REMARK    2  A    between atoms: N3_10  and  C5_11 
REMARK    3  A    between atoms: C5_11  and  O1_12 
REMARK    4  A    between atoms: O1_12  and  C6_13 
REMARK    5  A    between atoms: C6_13  and  O2_14 
REMARK    6  A    between atoms: C6_13  and  C7_16 
REMARK    7  A    between atoms: C7_16  and  O3_17 
REMARK    8  A    between atoms: C7_16  and  C8_19 
REMARK    9  A    between atoms: C7_16  and  N5_25 
REMARK   10  A    between atoms: C8_19  and  C9_20 
REMARK   11  A    between atoms: C9_20  and  N4_21 
REMARK       I    between atoms: N5_25  and  C10_27 
REMARK   12  A    between atoms: C10_27  and  C11_29 
REMARK       I    between atoms: N7_33  and  C13_35 
REMARK       I    between atoms: C13_35  and  N8_36 
REMARK       I    between atoms: C13_35  and  N9_40 
REMARK   13  A    between atoms: C15_45  and  N10_46 
REMARK   14  A    between atoms: C17_51  and  N13_52 
REMARK   15  A    between atoms: C18_57  and  C19_58 
REMARK   16  A    between atoms: C19_58  and  O6_59 
ROOT
HETATM    1  C11 UNL     1     -38.775   3.906  12.871  1.00  0.00     0.177 A 
HETATM    2  N6  UNL     1     -39.193   4.763  11.939  1.00  0.00    -0.324 N 
ATOM      3  H6  UNL     1     -39.759   4.431  11.158  1.00  0.00     0.169 HD
HETATM    4  C12 UNL     1     -38.869   6.062  12.028  1.00  0.00     0.109 A 
HETATM    5  N7  UNL     1     -39.281   6.872  11.121  1.00  0.00    -0.327 N 
ATOM      6  H7  UNL     1     -39.845   6.499  10.357  1.00  0.00     0.164 HD
HETATM    7  C13 UNL     1     -38.988   8.273  11.129  1.00  0.00     0.481 C 
HETATM    8  N8  UNL     1     -39.747   9.019  12.112  1.00  0.00    -0.033 N 
ATOM      9  H81 UNL     1     -39.538  10.017  12.118  1.00  0.00     0.278 HD
ATOM     10  H82 UNL     1     -39.624   8.618  13.042  1.00  0.00     0.278 HD
ATOM     11  H83 UNL     1     -40.748   8.861  11.990  1.00  0.00     0.278 HD
HETATM   12  N9  UNL     1     -39.312   8.882   9.832  1.00  0.00    -0.033 N 
ATOM     13  H91 UNL     1     -39.103   9.880   9.838  1.00  0.00     0.278 HD
ATOM     14  H92 UNL     1     -40.279   8.701   9.562  1.00  0.00     0.278 HD
ATOM     15  H93 UNL     1     -38.844   8.404   9.063  1.00  0.00     0.278 HD
HETATM   16  C14 UNL     1     -38.111   6.537  13.065  1.00  0.00     0.097 A 
HETATM   17  C15 UNL     1     -37.682   5.645  14.024  1.00  0.00     0.117 A 
HETATM   18  N14 UNL     1     -38.037   4.343  13.888  1.00  0.00    -0.324 N 
ATOM     19  H14 UNL     1     -37.725   3.673  14.591  1.00  0.00     0.169 HD
ENDROOT
BRANCH   1  20
HETATM   20  C10 UNL     1     -39.148   2.482  12.746  1.00  0.00     0.288 C 
HETATM   21  N5  UNL     1     -38.190   1.465  12.758  1.00  0.00    -0.319 N 
ATOM     22  H5  UNL     1     -37.226   1.783  12.860  1.00  0.00     0.166 HD
HETATM   23  O4  UNL     1     -40.364   2.250  12.629  1.00  0.00    -0.264 OA
BRANCH  21  24
HETATM   24  C7  UNL     1     -38.347   0.079  12.653  1.00  0.00     0.186 C 
BRANCH  24  25
HETATM   25  C6  UNL     1     -38.764  -0.494  11.340  1.00  0.00     0.320 C 
BRANCH  25  26
HETATM   26  O1  UNL     1     -39.184   0.297  10.348  1.00  0.00    -0.310 OA
BRANCH  26  27
HETATM   27  C5  UNL     1     -38.275   0.917   9.537  1.00  0.00     0.236 C 
BRANCH  27  28
HETATM   28  N3  UNL     1     -38.576   2.218   9.070  1.00  0.00    -0.322 N 
HETATM   29  C4  UNL     1     -37.574   3.054   8.700  1.00  0.00     0.100 A 
HETATM   30  C3  UNL     1     -37.762   4.316   8.221  1.00  0.00     0.048 A 
HETATM   31  C2  UNL     1     -39.068   4.835   8.081  1.00  0.00     0.054 A 
HETATM   32  N2  UNL     1     -39.393   6.022   7.639  1.00  0.00    -0.336 N 
HETATM   33  C21 UNL     1     -40.074   3.991   8.455  1.00  0.00     0.051 A 
HETATM   34  C1  UNL     1     -40.686   6.345   7.574  1.00  0.00     0.143 A 
ATOM     35  H2  UNL     1     -38.674   6.686   7.350  1.00  0.00     0.168 HD
HETATM   36  S1  UNL     1     -41.462   4.940   8.153  1.00  0.00    -0.051 SA
HETATM   37  C20 UNL     1     -39.827   2.695   8.944  1.00  0.00     0.119 A 
BRANCH  34  38
HETATM   38  N1  UNL     1     -41.205   7.481   7.159  1.00  0.00    -0.380 N 
ATOM     39  H12 UNL     1     -40.832   8.428   7.222  1.00  0.00     0.158 HD
ATOM     40  H11 UNL     1     -42.099   7.617   6.687  1.00  0.00     0.158 HD
ENDBRANCH  34  38
ENDBRANCH  27  28
ENDBRANCH  26  27
ENDBRANCH  25  26
BRANCH  25  41
HETATM   41  O2  UNL     1     -39.771  -1.462  11.688  1.00  0.00    -0.366 OA
ATOM     42  H2  UNL     1     -40.065  -1.338  12.583  1.00  0.00     0.212 HD
ENDBRANCH  25  41
ENDBRANCH  24  25
BRANCH  24  43
HETATM   43  O3  UNL     1     -36.950  -0.420  12.811  1.00  0.00    -0.366 OA
ATOM     44  H3  UNL     1     -36.497   0.324  13.187  1.00  0.00     0.212 HD
ENDBRANCH  24  43
BRANCH  24  45
HETATM   45  C8  UNL     1     -39.008  -0.640  13.804  1.00  0.00     0.093 C 
BRANCH  45  46
HETATM   46  C9  UNL     1     -38.777  -0.098  15.163  1.00  0.00     0.234 C 
BRANCH  46  47
HETATM   47  N4  UNL     1     -37.418  -0.545  15.571  1.00  0.00    -0.079 N 
ATOM     48  H43 UNL     1     -37.418  -1.434  16.070  1.00  0.00     0.274 HD
ATOM     49  H42 UNL     1     -36.838  -0.841  14.786  1.00  0.00     0.274 HD
ATOM     50  H41 UNL     1     -37.011   0.220  16.108  1.00  0.00     0.274 HD
ENDBRANCH  46  47
ENDBRANCH  45  46
ENDBRANCH  24  45
ENDBRANCH  21  24
ENDBRANCH   1  20
BRANCH  17  51
HETATM   51  N10 UNL     1     -36.901   6.128  15.096  1.00  0.00    -0.277 N 
HETATM   52  C16 UNL     1     -37.396   5.946  16.437  1.00  0.00     0.197 C 
HETATM   53  N11 UNL     1     -38.303   4.903  16.763  1.00  0.00    -0.063 NA
HETATM   54  N12 UNL     1     -36.954   6.799  17.316  1.00  0.00    -0.316 N 
HETATM   55  C17 UNL     1     -36.032   7.821  16.873  1.00  0.00     0.430 C 
ATOM     56  H12 UNL     1     -37.249   6.747  18.290  1.00  0.00     0.166 HD
HETATM   57  O5  UNL     1     -35.111   7.390  15.952  1.00  0.00    -0.316 OA
HETATM   58  C18 UNL     1     -35.657   6.781  14.831  1.00  0.00     0.260 C 
BRANCH  55  59
HETATM   59  N13 UNL     1     -36.770   8.990  16.465  1.00  0.00    -0.035 N 
ATOM     60 3H13 UNL     1     -36.166   9.705  16.059  1.00  0.00     0.279 HD
ATOM     61 2H13 UNL     1     -37.354   8.811  15.648  1.00  0.00     0.279 HD
ATOM     62 1H13 UNL     1     -37.309   9.344  17.256  1.00  0.00     0.279 HD
ENDBRANCH  55  59
BRANCH  58  63
HETATM   63  C19 UNL     1     -34.590   5.813  14.314  1.00  0.00     0.218 C 
BRANCH  63  64
HETATM   64  O6  UNL     1     -34.912   4.492  14.596  1.00  0.00    -0.397 OA
ATOM     65  H6  UNL     1     -34.142   3.935  14.606  1.00  0.00     0.209 HD
ENDBRANCH  63  64
ENDBRANCH  58  63
ENDBRANCH  17  51
TORSDOF 16
ENDMDL
MODEL 5
REMARK VINA RESULT: -9.494561822      4.238      8.745
REMARK  16 active torsions:
REMARK  status: ('A' for Active; 'I' for Inactive)
REMARK    1  A    between atoms: N1_1  and  C1_4 
REMARK    2  A    between atoms: N3_10  and  C5_11 
REMARK    3  A    between atoms: C5_11  and  O1_12 
REMARK    4  A    between atoms: O1_12  and  C6_13 
REMARK    5  A    between atoms: C6_13  and  O2_14 
REMARK    6  A    between atoms: C6_13  and  C7_16 
REMARK    7  A    between atoms: C7_16  and  O3_17 
REMARK    8  A    between atoms: C7_16  and  C8_19 
REMARK    9  A    between atoms: C7_16  and  N5_25 
REMARK   10  A    between atoms: C8_19  and  C9_20 
REMARK   11  A    between atoms: C9_20  and  N4_21 
REMARK       I    between atoms: N5_25  and  C10_27 
REMARK   12  A    between atoms: C10_27  and  C11_29 
REMARK       I    between atoms: N7_33  and  C13_35 
REMARK       I    between atoms: C13_35  and  N8_36 
REMARK       I    between atoms: C13_35  and  N9_40 
REMARK   13  A    between atoms: C15_45  and  N10_46 
REMARK   14  A    between atoms: C17_51  and  N13_52 
REMARK   15  A    between atoms: C18_57  and  C19_58 
REMARK   16  A    between atoms: C19_58  and  O6_59 
ROOT
HETATM    1  C11 UNL     1     -38.321   6.002  12.164  1.00  0.00     0.177 A 
HETATM    2  N6  UNL     1     -37.858   4.919  11.540  1.00  0.00    -0.324 N 
ATOM      3  H6  UNL     1     -37.378   4.192  12.069  1.00  0.00     0.169 HD
HETATM    4  C12 UNL     1     -38.025   4.784  10.215  1.00  0.00     0.109 A 
HETATM    5  N7  UNL     1     -37.572   3.733   9.632  1.00  0.00    -0.327 N 
ATOM      6  H7  UNL     1     -37.098   3.030  10.198  1.00  0.00     0.164 HD
HETATM    7  C13 UNL     1     -37.701   3.500   8.225  1.00  0.00     0.481 C 
HETATM    8  N8  UNL     1     -39.040   3.125   7.820  1.00  0.00    -0.033 N 
ATOM      9  H81 UNL     1     -39.132   2.959   6.818  1.00  0.00     0.278 HD
ATOM     10  H82 UNL     1     -39.719   3.817   8.135  1.00  0.00     0.278 HD
ATOM     11  H83 UNL     1     -39.364   2.315   8.350  1.00  0.00     0.278 HD
HETATM   12  N9  UNL     1     -36.833   2.395   7.797  1.00  0.00    -0.033 N 
ATOM     13  H91 UNL     1     -36.924   2.230   6.795  1.00  0.00     0.278 HD
ATOM     14  H92 UNL     1     -37.008   1.547   8.337  1.00  0.00     0.278 HD
ATOM     15  H93 UNL     1     -35.862   2.552   8.066  1.00  0.00     0.278 HD
HETATM   16  C14 UNL     1     -38.666   5.743   9.477  1.00  0.00     0.097 A 
HETATM   17  C15 UNL     1     -39.141   6.861  10.130  1.00  0.00     0.117 A 
HETATM   18  N14 UNL     1     -38.947   6.949  11.468  1.00  0.00    -0.324 N 
ATOM     19  H14 UNL     1     -39.293   7.771  11.962  1.00  0.00     0.169 HD
ENDROOT
BRANCH   1  20
HETATM   20  C10 UNL     1     -38.123   6.122  13.622  1.00  0.00     0.288 C 
HETATM   21  N5  UNL     1     -36.850   6.129  14.196  1.00  0.00    -0.319 N 
ATOM     22  H5  UNL     1     -36.078   6.047  13.533  1.00  0.00     0.166 HD
HETATM   23  O4  UNL     1     -39.161   6.213  14.303  1.00  0.00    -0.264 OA
BRANCH  21  24
HETATM   24  C7  UNL     1     -36.467   6.231  15.538  1.00  0.00     0.186 C 
BRANCH  24  25
HETATM   25  C6  UNL     1     -36.705   5.066  16.439  1.00  0.00     0.320 C 
BRANCH  25  26
HETATM   26  O1  UNL     1     -36.577   3.814  15.991  1.00  0.00    -0.310 OA
BRANCH  26  27
HETATM   27  C5  UNL     1     -37.476   2.857  16.368  1.00  0.00     0.236 C 
BRANCH  27  28
HETATM   28  N3  UNL     1     -37.882   1.905  15.404  1.00  0.00    -0.322 N 
HETATM   29  C4  UNL     1     -37.771   0.580  15.672  1.00  0.00     0.100 A 
HETATM   30  C3  UNL     1     -38.152  -0.412  14.818  1.00  0.00     0.048 A 
HETATM   31  C2  UNL     1     -38.705  -0.092  13.559  1.00  0.00     0.054 A 
HETATM   32  N2  UNL     1     -39.109  -0.936  12.646  1.00  0.00    -0.336 N 
HETATM   33  C21 UNL     1     -38.815   1.243  13.293  1.00  0.00     0.051 A 
HETATM   34  C1  UNL     1     -39.609  -0.452  11.507  1.00  0.00     0.143 A 
ATOM     35  H2  UNL     1     -39.044  -1.943  12.801  1.00  0.00     0.168 HD
HETATM   36  S1  UNL     1     -39.504   1.237  11.730  1.00  0.00    -0.051 SA
HETATM   37  C20 UNL     1     -38.408   2.229  14.210  1.00  0.00     0.119 A 
BRANCH  34  38
HETATM   38  N1  UNL     1     -40.064  -1.137  10.481  1.00  0.00    -0.380 N 
ATOM     39  H12 UNL     1     -40.415  -2.094  10.440  1.00  0.00     0.158 HD
ATOM     40  H11 UNL     1     -40.149  -0.821   9.514  1.00  0.00     0.158 HD
ENDBRANCH  34  38
ENDBRANCH  27  28
ENDBRANCH  26  27
ENDBRANCH  25  26
BRANCH  25  41
HETATM   41  O2  UNL     1     -38.029   5.294  16.956  1.00  0.00    -0.366 OA
ATOM     42  H2  UNL     1     -38.156   6.210  17.172  1.00  0.00     0.212 HD
ENDBRANCH  25  41
ENDBRANCH  24  25
BRANCH  24  43
HETATM   43  O3  UNL     1     -34.979   6.290  15.449  1.00  0.00    -0.366 OA
ATOM     44  H3  UNL     1     -34.784   7.186  15.696  1.00  0.00     0.212 HD
ENDBRANCH  24  43
BRANCH  24  45
HETATM   45  C8  UNL     1     -36.733   7.539  16.243  1.00  0.00     0.093 C 
BRANCH  45  46
HETATM   46  C9  UNL     1     -35.561   8.384  16.569  1.00  0.00     0.234 C 
BRANCH  46  47
HETATM   47  N4  UNL     1     -35.154   8.026  17.954  1.00  0.00    -0.079 N 
ATOM     48  H43 UNL     1     -34.163   7.806  18.041  1.00  0.00     0.274 HD
ATOM     49  H42 UNL     1     -35.164   8.818  18.596  1.00  0.00     0.274 HD
ATOM     50  H41 UNL     1     -35.765   7.263  18.247  1.00  0.00     0.274 HD
ENDBRANCH  46  47
ENDBRANCH  45  46
ENDBRANCH  24  45
ENDBRANCH  21  24
ENDBRANCH   1  20
BRANCH  17  51
HETATM   51  N10 UNL     1     -39.803   7.853   9.375  1.00  0.00    -0.277 N 
HETATM   52  C16 UNL     1     -40.549   7.440   8.212  1.00  0.00     0.197 C 
HETATM   53  N11 UNL     1     -41.072   6.126   8.089  1.00  0.00    -0.063 NA
HETATM   54  N12 UNL     1     -40.705   8.353   7.297  1.00  0.00    -0.316 N 
HETATM   55  C17 UNL     1     -40.129   9.660   7.528  1.00  0.00     0.430 C 
ATOM     56  H12 UNL     1     -41.220   8.152   6.440  1.00  0.00     0.166 HD
HETATM   57  O5  UNL     1     -40.229  10.099   8.823  1.00  0.00    -0.316 OA
HETATM   58  C18 UNL     1     -39.717   9.224   9.770  1.00  0.00     0.260 C 
BRANCH  55  59
HETATM   59  N13 UNL     1     -38.791   9.696   6.995  1.00  0.00    -0.035 N 
ATOM     60 3H13 UNL     1     -38.095   9.397   7.679  1.00  0.00     0.279 HD
ATOM     61 2H13 UNL     1     -38.633   8.966   6.299  1.00  0.00     0.279 HD
ATOM     62 1H13 UNL     1     -38.596  10.627   6.627  1.00  0.00     0.279 HD
ENDBRANCH  55  59
BRANCH  58  63
HETATM   63  C19 UNL     1     -40.487   9.505  11.064  1.00  0.00     0.218 C 
BRANCH  63  64
HETATM   64  O6  UNL     1     -41.806   9.860  10.814  1.00  0.00    -0.397 OA
ATOM     65  H6  UNL     1     -42.330   9.854  11.606  1.00  0.00     0.209 HD
ENDBRANCH  63  64
ENDBRANCH  58  63
ENDBRANCH  17  51
TORSDOF 16
ENDMDL
