MODEL 1
REMARK VINA RESULT: -10.507046636      0.000      0.000
REMARK  16 active torsions:
REMARK  status: ('A' for Active; 'I' for Inactive)
REMARK    1  A    between atoms: N1_1  and  C1_4 
REMARK    2  A    between atoms: C3_8  and  C4_9 
REMARK    3  A    between atoms: N5_14  and  C5_15 
REMARK    4  A    between atoms: C7_18  and  C8_19 
REMARK    5  A    between atoms: C8_19  and  O3_20 
REMARK    6  A    between atoms: C8_19  and  C9_22 
REMARK    7  A    between atoms: C11_25  and  C12_26 
REMARK    8  A    between atoms: C11_25  and  N7_29 
REMARK    9  A    between atoms: C14_31  and  C15_32 
REMARK   10  A    between atoms: C15_32  and  C16_33 
REMARK   11  A    between atoms: C15_32  and  O6_38 
REMARK   12  A    between atoms: C16_33  and  N8_34 
REMARK   13  A    between atoms: O6_38  and  C17_39 
REMARK   14  A    between atoms: N10_41  and  O7_43 
REMARK   15  A    between atoms: C18_50  and  O9_51 
REMARK   16  A    between atoms: C19_53  and  O10_54 
ROOT
HETATM    1  C8  UNL     1     -38.403   0.959  13.246  1.00  0.00     0.205 C 
ENDROOT
BRANCH   1   2
HETATM    2  C7  UNL     1     -38.363   2.210  14.091  1.00  0.00     0.186 C 
HETATM    3  O2  UNL     1     -37.596   3.166  13.429  1.00  0.00    -0.378 OA
HETATM    4  C6  UNL     1     -37.965   4.407  13.975  1.00  0.00     0.198 C 
HETATM    5  C5  UNL     1     -37.883   4.344  15.473  1.00  0.00     0.165 C 
HETATM    6  C19 UNL     1     -37.009   3.162  15.877  1.00  0.00     0.176 C 
HETATM    7  C18 UNL     1     -37.698   1.902  15.408  1.00  0.00     0.180 C 
BRANCH   5   8
HETATM    8  N5  UNL     1     -37.331   5.572  16.021  1.00  0.00    -0.264 N 
HETATM    9  N4  UNL     1     -37.360   5.925  17.290  1.00  0.00    -0.289 N 
HETATM   10  C3  UNL     1     -36.758   7.113  17.420  1.00  0.00     0.144 A 
ATOM     11  H4  UNL     1     -37.772   5.382  18.049  1.00  0.00     0.187 HD
HETATM   12  C2  UNL     1     -36.341   7.498  16.153  1.00  0.00     0.128 A 
HETATM   13  N2  UNL     1     -35.723   8.441  15.420  1.00  0.00    -0.186 N 
HETATM   14  C20 UNL     1     -36.718   6.502  15.285  1.00  0.00     0.168 A 
HETATM   15  C1  UNL     1     -35.694   8.080  14.126  1.00  0.00     0.678 A 
ATOM     16  H2  UNL     1     -35.333   9.307  15.792  1.00  0.00     0.184 HD
HETATM   17  N13 UNL     1     -36.313   6.880  14.059  1.00  0.00    -0.173 N 
ATOM     18  H13 UNL     1     -36.452   6.340  13.204  1.00  0.00     0.186 HD
BRANCH  10  19
HETATM   19  C4  UNL     1     -36.549   7.897  18.624  1.00  0.00     0.285 C 
HETATM   20  N3  UNL     1     -36.057   9.223  18.536  1.00  0.00    -0.056 NA
HETATM   21  O1  UNL     1     -36.790   7.433  19.765  1.00  0.00    -0.269 OA
ENDBRANCH  10  19
BRANCH  15  22
HETATM   22  N1  UNL     1     -35.178   8.747  13.143  1.00  0.00    -0.234 N 
ATOM     23  H12 UNL     1     -35.582   9.555  12.670  1.00  0.00     0.174 HD
ATOM     24  H11 UNL     1     -34.283   8.571  12.686  1.00  0.00     0.174 HD
ENDBRANCH  15  22
ENDBRANCH   5   8
BRANCH   6  25
HETATM   25  O10 UNL     1     -36.807   3.158  17.260  1.00  0.00    -0.391 OA
ATOM     26  H10 UNL     1     -36.450   2.323  17.539  1.00  0.00     0.210 HD
ENDBRANCH   6  25
BRANCH   7  27
HETATM   27  O9  UNL     1     -38.613   1.469  16.359  1.00  0.00    -0.390 OA
ATOM     28  H9  UNL     1     -38.570   1.991  17.152  1.00  0.00     0.210 HD
ENDBRANCH   7  27
ENDBRANCH   1   2
BRANCH   1  29
HETATM   29  O3  UNL     1     -39.299   0.048  13.797  1.00  0.00    -0.388 OA
ATOM     30  H3  UNL     1     -39.154  -0.812  13.420  1.00  0.00     0.210 HD
ENDBRANCH   1  29
BRANCH   1  31
HETATM   31  C9  UNL     1     -38.858   1.237  11.836  1.00  0.00     0.294 C 
HETATM   32  O4  UNL     1     -39.945   0.470  11.453  1.00  0.00    -0.353 OA
HETATM   33  C10 UNL     1     -40.001   0.748  10.074  1.00  0.00     0.244 C 
HETATM   34  C11 UNL     1     -38.550   0.993   9.680  1.00  0.00     0.259 C 
HETATM   35  O8  UNL     1     -37.895   0.862  10.902  1.00  0.00    -0.316 OA
BRANCH  34  36
HETATM   36  C12 UNL     1     -38.093  -0.067   8.771  1.00  0.00     0.291 C 
HETATM   37  N6  UNL     1     -38.225   0.010   7.356  1.00  0.00    -0.057 NA
HETATM   38  O5  UNL     1     -37.554  -1.116   9.220  1.00  0.00    -0.271 OA
ENDBRANCH  34  36
BRANCH  34  39
HETATM   39  N7  UNL     1     -38.373   2.328   9.142  1.00  0.00    -0.241 N 
HETATM   40  C13 UNL     1     -39.110   3.404   9.445  1.00  0.00     0.145 A 
HETATM   41  C14 UNL     1     -38.627   4.453   8.733  1.00  0.00     0.075 A 
HETATM   42  N11 UNL     1     -37.595   3.945   8.017  1.00  0.00    -0.286 N 
HETATM   43  N12 UNL     1     -37.454   2.666   8.273  1.00  0.00    -0.237 N 
ATOM     44  H11 UNL     1     -37.012   4.479   7.372  1.00  0.00     0.188 HD
ATOM     45  H12 UNL     1     -36.754   2.045   7.867  1.00  0.00     0.208 HD
BRANCH  41  46
HETATM   46  C15 UNL     1     -39.022   5.883   8.655  1.00  0.00     0.209 C 
BRANCH  46  47
HETATM   47  C16 UNL     1     -38.206   6.654   9.651  1.00  0.00     0.268 C 
BRANCH  47  48
HETATM   48  N8  UNL     1     -38.935   7.891   9.972  1.00  0.00    -0.076 N 
ATOM     49  H83 UNL     1     -39.940   7.809   9.816  1.00  0.00     0.274 HD
ATOM     50  H82 UNL     1     -38.968   8.081  10.974  1.00  0.00     0.274 HD
ATOM     51  H81 UNL     1     -38.512   8.651   9.439  1.00  0.00     0.274 HD
ENDBRANCH  47  48
ENDBRANCH  46  47
BRANCH  46  52
HETATM   52  O6  UNL     1     -40.369   6.142   8.597  1.00  0.00    -0.310 OA
BRANCH  52  53
HETATM   53  C17 UNL     1     -41.119   6.191   7.453  1.00  0.00     0.252 C 
HETATM   54  N9  UNL     1     -41.677   5.024   6.811  1.00  0.00    -0.054 NA
HETATM   55  N10 UNL     1     -41.304   7.373   6.970  1.00  0.00    -0.235 N 
ATOM     56  H10 UNL     1     -40.907   8.193   7.427  1.00  0.00     0.197 HD
BRANCH  55  57
HETATM   57  O7  UNL     1     -42.047   7.495   5.828  1.00  0.00    -0.287 OA
ATOM     58  H7  UNL     1     -42.216   8.368   5.494  1.00  0.00     0.244 HD
ENDBRANCH  55  57
ENDBRANCH  52  53
ENDBRANCH  46  52
ENDBRANCH  41  46
ENDBRANCH  34  39
ENDBRANCH   1  31
TORSDOF 16
ENDMDL
MODEL 2
REMARK VINA RESULT: -10.458900916      2.413      3.593
REMARK  16 active torsions:
REMARK  status: ('A' for Active; 'I' for Inactive)
REMARK    1  A    between atoms: N1_1  and  C1_4 
REMARK    2  A    between atoms: C3_8  and  C4_9 
REMARK    3  A    between atoms: N5_14  and  C5_15 
REMARK    4  A    between atoms: C7_18  and  C8_19 
REMARK    5  A    between atoms: C8_19  and  O3_20 
REMARK    6  A    between atoms: C8_19  and  C9_22 
REMARK    7  A    between atoms: C11_25  and  C12_26 
REMARK    8  A    between atoms: C11_25  and  N7_29 
REMARK    9  A    between atoms: C14_31  and  C15_32 
REMARK   10  A    between atoms: C15_32  and  C16_33 
REMARK   11  A    between atoms: C15_32  and  O6_38 
REMARK   12  A    between atoms: C16_33  and  N8_34 
REMARK   13  A    between atoms: O6_38  and  C17_39 
REMARK   14  A    between atoms: N10_41  and  O7_43 
REMARK   15  A    between atoms: C18_50  and  O9_51 
REMARK   16  A    between atoms: C19_53  and  O10_54 
ROOT
HETATM    1  C8  UNL     1     -37.823   2.355  14.816  1.00  0.00     0.205 C 
ENDROOT
BRANCH   1   2
HETATM    2  C7  UNL     1     -37.909   3.843  14.572  1.00  0.00     0.186 C 
HETATM    3  O2  UNL     1     -36.914   4.200  13.664  1.00  0.00    -0.378 OA
HETATM    4  C6  UNL     1     -37.312   5.431  13.114  1.00  0.00     0.198 C 
HETATM    5  C5  UNL     1     -37.644   6.393  14.218  1.00  0.00     0.165 C 
HETATM    6  C19 UNL     1     -37.014   5.901  15.516  1.00  0.00     0.176 C 
HETATM    7  C18 UNL     1     -37.653   4.577  15.863  1.00  0.00     0.180 C 
BRANCH   5   8
HETATM    8  N5  UNL     1     -37.161   7.729  13.913  1.00  0.00    -0.264 N 
HETATM    9  N4  UNL     1     -36.069   8.279  14.404  1.00  0.00    -0.289 N 
HETATM   10  C3  UNL     1     -35.944   9.513  13.900  1.00  0.00     0.144 A 
ATOM     11  H4  UNL     1     -35.424   7.837  15.059  1.00  0.00     0.187 HD
HETATM   12  C2  UNL     1     -37.026   9.717  13.054  1.00  0.00     0.128 A 
HETATM   13  N2  UNL     1     -37.645  10.571  12.220  1.00  0.00    -0.186 N 
HETATM   14  C20 UNL     1     -37.782   8.570  13.082  1.00  0.00     0.168 A 
HETATM   15  C1  UNL     1     -38.758  10.009  11.719  1.00  0.00     0.678 A 
ATOM     16  H2  UNL     1     -37.317  11.511  11.999  1.00  0.00     0.184 HD
HETATM   17  N13 UNL     1     -38.829   8.773  12.262  1.00  0.00    -0.173 N 
ATOM     18  H13 UNL     1     -39.568   8.094  12.077  1.00  0.00     0.186 HD
BRANCH  10  19
HETATM   19  C4  UNL     1     -34.903  10.493  14.149  1.00  0.00     0.285 C 
HETATM   20  N3  UNL     1     -33.960  10.283  15.186  1.00  0.00    -0.056 NA
HETATM   21  O1  UNL     1     -34.806  11.542  13.468  1.00  0.00    -0.269 OA
ENDBRANCH  10  19
BRANCH  15  22
HETATM   22  N1  UNL     1     -39.593  10.544  10.887  1.00  0.00    -0.234 N 
ATOM     23  H12 UNL     1     -39.689  11.535  10.664  1.00  0.00     0.174 HD
ATOM     24  H11 UNL     1     -40.290  10.059  10.321  1.00  0.00     0.174 HD
ENDBRANCH  15  22
ENDBRANCH   5   8
BRANCH   6  25
HETATM   25  O10 UNL     1     -37.195   6.846  16.532  1.00  0.00    -0.391 OA
ATOM     26  H10 UNL     1     -36.356   7.108  16.891  1.00  0.00     0.210 HD
ENDBRANCH   6  25
BRANCH   7  27
HETATM   27  O9  UNL     1     -38.825   4.779  16.582  1.00  0.00    -0.390 OA
ATOM     28  H9  UNL     1     -39.433   5.339  16.113  1.00  0.00     0.210 HD
ENDBRANCH   7  27
ENDBRANCH   1   2
BRANCH   1  29
HETATM   29  O3  UNL     1     -38.331   2.056  16.076  1.00  0.00    -0.388 OA
ATOM     30  H3  UNL     1     -37.701   1.537  16.562  1.00  0.00     0.210 HD
ENDBRANCH   1  29
BRANCH   1  31
HETATM   31  C9  UNL     1     -38.622   1.565  13.812  1.00  0.00     0.294 C 
HETATM   32  O4  UNL     1     -38.795   0.240  14.175  1.00  0.00    -0.353 OA
HETATM   33  C10 UNL     1     -39.341  -0.296  12.994  1.00  0.00     0.244 C 
HETATM   34  C11 UNL     1     -38.719   0.536  11.880  1.00  0.00     0.259 C 
HETATM   35  O8  UNL     1     -37.949   1.447  12.598  1.00  0.00    -0.316 OA
BRANCH  34  36
HETATM   36  C12 UNL     1     -37.834  -0.307  11.062  1.00  0.00     0.291 C 
HETATM   37  N6  UNL     1     -38.234  -0.885   9.825  1.00  0.00    -0.057 NA
HETATM   38  O5  UNL     1     -36.655  -0.558  11.436  1.00  0.00    -0.271 OA
ENDBRANCH  34  36
BRANCH  34  39
HETATM   39  N7  UNL     1     -39.737   1.220  11.107  1.00  0.00    -0.241 N 
HETATM   40  C13 UNL     1     -39.625   2.435  10.555  1.00  0.00     0.145 A 
HETATM   41  C14 UNL     1     -40.791   2.712   9.919  1.00  0.00     0.075 A 
HETATM   42  N11 UNL     1     -41.570   1.622  10.124  1.00  0.00    -0.286 N 
HETATM   43  N12 UNL     1     -40.923   0.733  10.840  1.00  0.00    -0.237 N 
ATOM     44  H11 UNL     1     -42.521   1.510   9.773  1.00  0.00     0.188 HD
ATOM     45  H12 UNL     1     -41.280  -0.175  11.136  1.00  0.00     0.208 HD
BRANCH  41  46
HETATM   46  C15 UNL     1     -41.254   3.885   9.134  1.00  0.00     0.209 C 
BRANCH  46  47
HETATM   47  C16 UNL     1     -42.298   3.421   8.161  1.00  0.00     0.268 C 
BRANCH  47  48
HETATM   48  N8  UNL     1     -43.586   4.003   8.568  1.00  0.00    -0.076 N 
ATOM     49  H83 UNL     1     -43.554   5.020   8.644  1.00  0.00     0.274 HD
ATOM     50  H82 UNL     1     -44.296   3.944   7.837  1.00  0.00     0.274 HD
ATOM     51  H81 UNL     1     -43.875   3.551   9.436  1.00  0.00     0.274 HD
ENDBRANCH  47  48
ENDBRANCH  46  47
BRANCH  46  52
HETATM   52  O6  UNL     1     -40.279   4.731   8.668  1.00  0.00    -0.310 OA
BRANCH  52  53
HETATM   53  C17 UNL     1     -40.063   6.011   9.104  1.00  0.00     0.252 C 
HETATM   54  N9  UNL     1     -39.174   6.346  10.191  1.00  0.00    -0.054 NA
HETATM   55  N10 UNL     1     -40.717   6.923   8.469  1.00  0.00    -0.235 N 
ATOM     56  H10 UNL     1     -41.345   6.680   7.703  1.00  0.00     0.197 HD
BRANCH  55  57
HETATM   57  O7  UNL     1     -40.547   8.225   8.853  1.00  0.00    -0.287 OA
ATOM     58  H7  UNL     1     -41.318   8.774   8.933  1.00  0.00     0.244 HD
ENDBRANCH  55  57
ENDBRANCH  52  53
ENDBRANCH  46  52
ENDBRANCH  41  46
ENDBRANCH  34  39
ENDBRANCH   1  31
TORSDOF 16
ENDMDL
MODEL 3
REMARK VINA RESULT: -10.425185240      0.985      1.915
REMARK  16 active torsions:
REMARK  status: ('A' for Active; 'I' for Inactive)
REMARK    1  A    between atoms: N1_1  and  C1_4 
REMARK    2  A    between atoms: C3_8  and  C4_9 
REMARK    3  A    between atoms: N5_14  and  C5_15 
REMARK    4  A    between atoms: C7_18  and  C8_19 
REMARK    5  A    between atoms: C8_19  and  O3_20 
REMARK    6  A    between atoms: C8_19  and  C9_22 
REMARK    7  A    between atoms: C11_25  and  C12_26 
REMARK    8  A    between atoms: C11_25  and  N7_29 
REMARK    9  A    between atoms: C14_31  and  C15_32 
REMARK   10  A    between atoms: C15_32  and  C16_33 
REMARK   11  A    between atoms: C15_32  and  O6_38 
REMARK   12  A    between atoms: C16_33  and  N8_34 
REMARK   13  A    between atoms: O6_38  and  C17_39 
REMARK   14  A    between atoms: N10_41  and  O7_43 
REMARK   15  A    between atoms: C18_50  and  O9_51 
REMARK   16  A    between atoms: C19_53  and  O10_54 
ROOT
HETATM    1  C8  UNL     1     -38.291   0.906  13.346  1.00  0.00     0.205 C 
ENDROOT
BRANCH   1   2
HETATM    2  C7  UNL     1     -38.319   2.156  14.193  1.00  0.00     0.186 C 
HETATM    3  O2  UNL     1     -37.642   3.166  13.512  1.00  0.00    -0.378 OA
HETATM    4  C6  UNL     1     -38.085   4.376  14.072  1.00  0.00     0.198 C 
HETATM    5  C5  UNL     1     -37.956   4.319  15.567  1.00  0.00     0.165 C 
HETATM    6  C19 UNL     1     -36.987   3.203  15.942  1.00  0.00     0.176 C 
HETATM    7  C18 UNL     1     -37.595   1.896  15.489  1.00  0.00     0.180 C 
BRANCH   5   8
HETATM    8  N5  UNL     1     -37.480   5.583  16.102  1.00  0.00    -0.264 N 
HETATM    9  N4  UNL     1     -37.277   5.847  17.377  1.00  0.00    -0.289 N 
HETATM   10  C3  UNL     1     -36.839   7.107  17.491  1.00  0.00     0.144 A 
ATOM     11  H4  UNL     1     -37.428   5.198  18.149  1.00  0.00     0.187 HD
HETATM   12  C2  UNL     1     -36.774   7.632  16.208  1.00  0.00     0.128 A 
HETATM   13  N2  UNL     1     -36.477   8.706  15.455  1.00  0.00    -0.186 N 
HETATM   14  C20 UNL     1     -37.186   6.644  15.347  1.00  0.00     0.168 A 
HETATM   15  C1  UNL     1     -36.683   8.436  14.155  1.00  0.00     0.678 A 
ATOM     16  H2  UNL     1     -36.143   9.599  15.819  1.00  0.00     0.184 HD
HETATM   17  N13 UNL     1     -37.122   7.158  14.105  1.00  0.00    -0.173 N 
ATOM     18  H13 UNL     1     -37.368   6.657  13.251  1.00  0.00     0.186 HD
BRANCH  10  19
HETATM   19  C4  UNL     1     -36.484   7.837  18.694  1.00  0.00     0.285 C 
HETATM   20  N3  UNL     1     -35.851   9.102  18.600  1.00  0.00    -0.056 NA
HETATM   21  O1  UNL     1     -36.718   7.380  19.838  1.00  0.00    -0.269 OA
ENDBRANCH  10  19
BRANCH  15  22
HETATM   22  N1  UNL     1     -36.500   9.237  13.155  1.00  0.00    -0.234 N 
ATOM     23  H12 UNL     1     -36.354  10.246  13.195  1.00  0.00     0.174 HD
ATOM     24  H11 UNL     1     -36.473   8.987  12.166  1.00  0.00     0.174 HD
ENDBRANCH  15  22
ENDBRANCH   5   8
BRANCH   6  25
HETATM   25  O10 UNL     1     -36.745   3.213  17.319  1.00  0.00    -0.391 OA
ATOM     26  H10 UNL     1     -37.114   2.438  17.724  1.00  0.00     0.210 HD
ENDBRANCH   6  25
BRANCH   7  27
HETATM   27  O9  UNL     1     -38.449   1.398  16.465  1.00  0.00    -0.390 OA
ATOM     28  H9  UNL     1     -38.952   0.657  16.148  1.00  0.00     0.210 HD
ENDBRANCH   7  27
ENDBRANCH   1   2
BRANCH   1  29
HETATM   29  O3  UNL     1     -39.046  -0.091  13.956  1.00  0.00    -0.388 OA
ATOM     30  H3  UNL     1     -38.500  -0.583  14.559  1.00  0.00     0.210 HD
ENDBRANCH   1  29
BRANCH   1  31
HETATM   31  C9  UNL     1     -38.874   1.133  11.975  1.00  0.00     0.294 C 
HETATM   32  O4  UNL     1     -39.838   0.200  11.631  1.00  0.00    -0.353 OA
HETATM   33  C10 UNL     1     -40.027   0.494  10.268  1.00  0.00     0.244 C 
HETATM   34  C11 UNL     1     -38.666   0.992   9.798  1.00  0.00     0.259 C 
HETATM   35  O8  UNL     1     -37.922   0.948  10.975  1.00  0.00    -0.316 OA
BRANCH  34  36
HETATM   36  C12 UNL     1     -38.095   0.045   8.830  1.00  0.00     0.291 C 
HETATM   37  N6  UNL     1     -38.293   0.153   7.425  1.00  0.00    -0.057 NA
HETATM   38  O5  UNL     1     -37.390  -0.929   9.216  1.00  0.00    -0.271 OA
ENDBRANCH  34  36
BRANCH  34  39
HETATM   39  N7  UNL     1     -38.751   2.348   9.294  1.00  0.00    -0.241 N 
HETATM   40  C13 UNL     1     -39.646   3.272   9.665  1.00  0.00     0.145 A 
HETATM   41  C14 UNL     1     -39.390   4.405   8.963  1.00  0.00     0.075 A 
HETATM   42  N11 UNL     1     -38.325   4.101   8.182  1.00  0.00    -0.286 N 
HETATM   43  N12 UNL     1     -37.951   2.860   8.392  1.00  0.00    -0.237 N 
ATOM     44  H11 UNL     1     -37.878   4.743   7.527  1.00  0.00     0.188 HD
ATOM     45  H12 UNL     1     -37.177   2.380   7.934  1.00  0.00     0.208 HD
BRANCH  41  46
HETATM   46  C15 UNL     1     -40.030   5.746   8.948  1.00  0.00     0.209 C 
BRANCH  46  47
HETATM   47  C16 UNL     1     -40.845   5.867   7.693  1.00  0.00     0.268 C 
BRANCH  47  48
HETATM   48  N8  UNL     1     -41.028   7.299   7.410  1.00  0.00    -0.076 N 
ATOM     49  H83 UNL     1     -40.700   7.897   8.169  1.00  0.00     0.274 HD
ATOM     50  H82 UNL     1     -40.399   7.642   6.684  1.00  0.00     0.274 HD
ATOM     51  H81 UNL     1     -42.012   7.451   7.184  1.00  0.00     0.274 HD
ENDBRANCH  47  48
ENDBRANCH  46  47
BRANCH  46  52
HETATM   52  O6  UNL     1     -39.233   6.807   9.296  1.00  0.00    -0.310 OA
BRANCH  52  53
HETATM   53  C17 UNL     1     -38.939   7.194  10.576  1.00  0.00     0.252 C 
HETATM   54  N9  UNL     1     -37.780   6.735  11.304  1.00  0.00    -0.054 NA
HETATM   55  N10 UNL     1     -39.782   8.013  11.107  1.00  0.00    -0.235 N 
ATOM     56  H10 UNL     1     -40.600   8.332  10.589  1.00  0.00     0.197 HD
BRANCH  55  57
HETATM   57  O7  UNL     1     -39.548   8.441  12.386  1.00  0.00    -0.287 OA
ATOM     58  H7  UNL     1     -39.778   9.336  12.608  1.00  0.00     0.244 HD
ENDBRANCH  55  57
ENDBRANCH  52  53
ENDBRANCH  46  52
ENDBRANCH  41  46
ENDBRANCH  34  39
ENDBRANCH   1  31
TORSDOF 16
ENDMDL
MODEL 4
REMARK VINA RESULT: -10.332827984      2.442      3.591
REMARK  16 active torsions:
REMARK  status: ('A' for Active; 'I' for Inactive)
REMARK    1  A    between atoms: N1_1  and  C1_4 
REMARK    2  A    between atoms: C3_8  and  C4_9 
REMARK    3  A    between atoms: N5_14  and  C5_15 
REMARK    4  A    between atoms: C7_18  and  C8_19 
REMARK    5  A    between atoms: C8_19  and  O3_20 
REMARK    6  A    between atoms: C8_19  and  C9_22 
REMARK    7  A    between atoms: C11_25  and  C12_26 
REMARK    8  A    between atoms: C11_25  and  N7_29 
REMARK    9  A    between atoms: C14_31  and  C15_32 
REMARK   10  A    between atoms: C15_32  and  C16_33 
REMARK   11  A    between atoms: C15_32  and  O6_38 
REMARK   12  A    between atoms: C16_33  and  N8_34 
REMARK   13  A    between atoms: O6_38  and  C17_39 
REMARK   14  A    between atoms: N10_41  and  O7_43 
REMARK   15  A    between atoms: C18_50  and  O9_51 
REMARK   16  A    between atoms: C19_53  and  O10_54 
ROOT
HETATM    1  C8  UNL     1     -37.448   2.445  15.144  1.00  0.00     0.205 C 
ENDROOT
BRANCH   1   2
HETATM    2  C7  UNL     1     -37.562   3.918  14.824  1.00  0.00     0.186 C 
HETATM    3  O2  UNL     1     -36.483   4.280  14.021  1.00  0.00    -0.378 OA
HETATM    4  C6  UNL     1     -36.861   5.469  13.374  1.00  0.00     0.198 C 
HETATM    5  C5  UNL     1     -37.355   6.460  14.389  1.00  0.00     0.165 C 
HETATM    6  C19 UNL     1     -36.861   6.048  15.771  1.00  0.00     0.176 C 
HETATM    7  C18 UNL     1     -37.485   4.713  16.102  1.00  0.00     0.180 C 
BRANCH   5   8
HETATM    8  N5  UNL     1     -36.891   7.802  14.081  1.00  0.00    -0.264 N 
HETATM    9  N4  UNL     1     -35.799   8.363  14.559  1.00  0.00    -0.289 N 
HETATM   10  C3  UNL     1     -35.694   9.600  14.057  1.00  0.00     0.144 A 
ATOM     11  H4  UNL     1     -35.141   7.927  15.205  1.00  0.00     0.187 HD
HETATM   12  C2  UNL     1     -36.789   9.794  13.225  1.00  0.00     0.128 A 
HETATM   13  N2  UNL     1     -37.428  10.642  12.401  1.00  0.00    -0.186 N 
HETATM   14  C20 UNL     1     -37.531   8.638  13.260  1.00  0.00     0.168 A 
HETATM   15  C1  UNL     1     -38.541  10.069  11.913  1.00  0.00     0.678 A 
ATOM     16  H2  UNL     1     -37.113  11.587  12.178  1.00  0.00     0.184 HD
HETATM   17  N13 UNL     1     -38.591   8.831  12.454  1.00  0.00    -0.173 N 
ATOM     18  H13 UNL     1     -39.324   8.144  12.276  1.00  0.00     0.186 HD
BRANCH  10  19
HETATM   19  C4  UNL     1     -34.661  10.591  14.295  1.00  0.00     0.285 C 
HETATM   20  N3  UNL     1     -33.654  10.352  15.264  1.00  0.00    -0.056 NA
HETATM   21  O1  UNL     1     -34.627  11.674  13.665  1.00  0.00    -0.269 OA
ENDBRANCH  10  19
BRANCH  15  22
HETATM   22  N1  UNL     1     -39.393  10.596  11.093  1.00  0.00    -0.234 N 
ATOM     23  H12 UNL     1     -39.200  10.969  10.163  1.00  0.00     0.174 HD
ATOM     24  H11 UNL     1     -40.394  10.721  11.245  1.00  0.00     0.174 HD
ENDBRANCH  15  22
ENDBRANCH   5   8
BRANCH   6  25
HETATM   25  O10 UNL     1     -37.194   7.025  16.715  1.00  0.00    -0.391 OA
ATOM     26  H10 UNL     1     -36.818   6.807  17.560  1.00  0.00     0.210 HD
ENDBRANCH   6  25
BRANCH   7  27
HETATM   27  O9  UNL     1     -38.739   4.894  16.673  1.00  0.00    -0.390 OA
ATOM     28  H9  UNL     1     -38.676   5.178  17.577  1.00  0.00     0.210 HD
ENDBRANCH   7  27
ENDBRANCH   1   2
BRANCH   1  29
HETATM   29  O3  UNL     1     -37.916   2.207  16.432  1.00  0.00    -0.388 OA
ATOM     30  H3  UNL     1     -38.866   2.215  16.435  1.00  0.00     0.210 HD
ENDBRANCH   1  29
BRANCH   1  31
HETATM   31  C9  UNL     1     -38.265   1.594  14.207  1.00  0.00     0.294 C 
HETATM   32  O4  UNL     1     -38.845   0.501  14.829  1.00  0.00    -0.353 OA
HETATM   33  C10 UNL     1     -39.325  -0.220  13.720  1.00  0.00     0.244 C 
HETATM   34  C11 UNL     1     -38.336   0.098  12.606  1.00  0.00     0.259 C 
HETATM   35  O8  UNL     1     -37.469   0.987  13.238  1.00  0.00    -0.316 OA
BRANCH  34  36
HETATM   36  C12 UNL     1     -37.596  -1.116  12.234  1.00  0.00     0.291 C 
HETATM   37  N6  UNL     1     -37.776  -1.787  10.992  1.00  0.00    -0.057 NA
HETATM   38  O5  UNL     1     -36.752  -1.626  13.022  1.00  0.00    -0.271 OA
ENDBRANCH  34  36
BRANCH  34  39
HETATM   39  N7  UNL     1     -38.998   0.735  11.485  1.00  0.00    -0.241 N 
HETATM   40  C13 UNL     1     -38.525   1.766  10.772  1.00  0.00     0.145 A 
HETATM   41  C14 UNL     1     -39.441   2.064   9.815  1.00  0.00     0.075 A 
HETATM   42  N11 UNL     1     -40.446   1.175  10.003  1.00  0.00    -0.286 N 
HETATM   43  N12 UNL     1     -40.166   0.382  11.010  1.00  0.00    -0.237 N 
ATOM     44  H11 UNL     1     -41.297   1.129   9.442  1.00  0.00     0.188 HD
ATOM     45  H12 UNL     1     -40.754  -0.374  11.361  1.00  0.00     0.208 HD
BRANCH  41  46
HETATM   46  C15 UNL     1     -39.473   3.087   8.739  1.00  0.00     0.209 C 
BRANCH  46  47
HETATM   47  C16 UNL     1     -38.237   3.932   8.853  1.00  0.00     0.268 C 
BRANCH  47  48
HETATM   48  N8  UNL     1     -37.334   3.563   7.752  1.00  0.00    -0.076 N 
ATOM     49  H83 UNL     1     -37.388   2.573   7.512  1.00  0.00     0.274 HD
ATOM     50  H82 UNL     1     -37.633   3.939   6.852  1.00  0.00     0.274 HD
ATOM     51  H81 UNL     1     -36.391   3.857   8.009  1.00  0.00     0.274 HD
ENDBRANCH  47  48
ENDBRANCH  46  47
BRANCH  46  52
HETATM   52  O6  UNL     1     -40.669   3.730   8.543  1.00  0.00    -0.310 OA
BRANCH  52  53
HETATM   53  C17 UNL     1     -41.314   3.859   7.343  1.00  0.00     0.252 C 
HETATM   54  N9  UNL     1     -42.638   3.343   7.087  1.00  0.00    -0.054 NA
HETATM   55  N10 UNL     1     -40.652   4.484   6.430  1.00  0.00    -0.235 N 
ATOM     56  H10 UNL     1     -39.716   4.845   6.615  1.00  0.00     0.197 HD
BRANCH  55  57
HETATM   57  O7  UNL     1     -41.239   4.649   5.205  1.00  0.00    -0.287 OA
ATOM     58  H7  UNL     1     -40.677   4.684   4.439  1.00  0.00     0.244 HD
ENDBRANCH  55  57
ENDBRANCH  52  53
ENDBRANCH  46  52
ENDBRANCH  41  46
ENDBRANCH  34  39
ENDBRANCH   1  31
TORSDOF 16
ENDMDL
MODEL 5
REMARK VINA RESULT: -10.291721504      1.311      2.181
REMARK  16 active torsions:
REMARK  status: ('A' for Active; 'I' for Inactive)
REMARK    1  A    between atoms: N1_1  and  C1_4 
REMARK    2  A    between atoms: C3_8  and  C4_9 
REMARK    3  A    between atoms: N5_14  and  C5_15 
REMARK    4  A    between atoms: C7_18  and  C8_19 
REMARK    5  A    between atoms: C8_19  and  O3_20 
REMARK    6  A    between atoms: C8_19  and  C9_22 
REMARK    7  A    between atoms: C11_25  and  C12_26 
REMARK    8  A    between atoms: C11_25  and  N7_29 
REMARK    9  A    between atoms: C14_31  and  C15_32 
REMARK   10  A    between atoms: C15_32  and  C16_33 
REMARK   11  A    between atoms: C15_32  and  O6_38 
REMARK   12  A    between atoms: C16_33  and  N8_34 
REMARK   13  A    between atoms: O6_38  and  C17_39 
REMARK   14  A    between atoms: N10_41  and  O7_43 
REMARK   15  A    between atoms: C18_50  and  O9_51 
REMARK   16  A    between atoms: C19_53  and  O10_54 
ROOT
HETATM    1  C8  UNL     1     -38.431   1.405  13.258  1.00  0.00     0.205 C 
ENDROOT
BRANCH   1   2
HETATM    2  C7  UNL     1     -38.237   2.741  13.935  1.00  0.00     0.186 C 
HETATM    3  O2  UNL     1     -37.682   3.626  13.013  1.00  0.00    -0.378 OA
HETATM    4  C6  UNL     1     -37.955   4.916  13.500  1.00  0.00     0.198 C 
HETATM    5  C5  UNL     1     -37.519   5.018  14.933  1.00  0.00     0.165 C 
HETATM    6  C19 UNL     1     -36.534   3.896  15.237  1.00  0.00     0.176 C 
HETATM    7  C18 UNL     1     -37.269   2.585  15.079  1.00  0.00     0.180 C 
BRANCH   5   8
HETATM    8  N5  UNL     1     -36.898   6.304  15.203  1.00  0.00    -0.264 N 
HETATM    9  N4  UNL     1     -36.432   7.135  14.293  1.00  0.00    -0.289 N 
HETATM   10  C3  UNL     1     -35.934   8.214  14.910  1.00  0.00     0.144 A 
ATOM     11  H4  UNL     1     -36.448   6.983  13.285  1.00  0.00     0.187 HD
HETATM   12  C2  UNL     1     -36.111   8.020  16.274  1.00  0.00     0.128 A 
HETATM   13  N2  UNL     1     -35.932   8.527  17.506  1.00  0.00    -0.186 N 
HETATM   14  C20 UNL     1     -36.725   6.800  16.430  1.00  0.00     0.168 A 
HETATM   15  C1  UNL     1     -36.408   7.678  18.433  1.00  0.00     0.678 A 
ATOM     16  H2  UNL     1     -35.496   9.427  17.708  1.00  0.00     0.184 HD
HETATM   17  N13 UNL     1     -36.894   6.616  17.752  1.00  0.00    -0.173 N 
ATOM     18  H13 UNL     1     -37.326   5.796  18.178  1.00  0.00     0.186 HD
BRANCH  10  19
HETATM   19  C4  UNL     1     -35.317   9.389  14.324  1.00  0.00     0.285 C 
HETATM   20  N3  UNL     1     -34.413  10.174  15.083  1.00  0.00    -0.056 NA
HETATM   21  O1  UNL     1     -35.561   9.746  13.146  1.00  0.00    -0.269 OA
ENDBRANCH  10  19
BRANCH  15  22
HETATM   22  N1  UNL     1     -36.401   7.845  19.717  1.00  0.00    -0.234 N 
ATOM     23  H12 UNL     1     -35.623   7.676  20.354  1.00  0.00     0.174 HD
ATOM     24  H11 UNL     1     -37.174   8.173  20.296  1.00  0.00     0.174 HD
ENDBRANCH  15  22
ENDBRANCH   5   8
BRANCH   6  25
HETATM   25  O10 UNL     1     -36.011   4.045  16.525  1.00  0.00    -0.391 OA
ATOM     26  H10 UNL     1     -36.277   4.879  16.894  1.00  0.00     0.210 HD
ENDBRANCH   6  25
BRANCH   7  27
HETATM   27  O9  UNL     1     -37.918   2.251  16.261  1.00  0.00    -0.390 OA
ATOM     28  H9  UNL     1     -37.378   1.699  16.815  1.00  0.00     0.210 HD
ENDBRANCH   7  27
ENDBRANCH   1   2
BRANCH   1  29
HETATM   29  O3  UNL     1     -39.410   0.677  13.928  1.00  0.00    -0.388 OA
ATOM     30  H3  UNL     1     -39.852   0.097  13.318  1.00  0.00     0.210 HD
ENDBRANCH   1  29
BRANCH   1  31
HETATM   31  C9  UNL     1     -38.882   1.550  11.828  1.00  0.00     0.294 C 
HETATM   32  O4  UNL     1     -39.958   0.738  11.510  1.00  0.00    -0.353 OA
HETATM   33  C10 UNL     1     -40.010   0.890  10.112  1.00  0.00     0.244 C 
HETATM   34  C11 UNL     1     -38.560   1.118   9.703  1.00  0.00     0.259 C 
HETATM   35  O8  UNL     1     -37.909   1.105  10.935  1.00  0.00    -0.316 OA
BRANCH  34  36
HETATM   36  C12 UNL     1     -38.086  -0.014   8.894  1.00  0.00     0.291 C 
HETATM   37  N6  UNL     1     -38.223  -0.071   7.479  1.00  0.00    -0.057 NA
HETATM   38  O5  UNL     1     -37.526  -1.006   9.436  1.00  0.00    -0.271 OA
ENDBRANCH  34  36
BRANCH  34  39
HETATM   39  N7  UNL     1     -38.397   2.401   9.048  1.00  0.00    -0.241 N 
HETATM   40  C13 UNL     1     -39.114   3.506   9.289  1.00  0.00     0.145 A 
HETATM   41  C14 UNL     1     -38.654   4.487   8.473  1.00  0.00     0.075 A 
HETATM   42  N11 UNL     1     -37.655   3.911   7.761  1.00  0.00    -0.286 N 
HETATM   43  N12 UNL     1     -37.512   2.656   8.118  1.00  0.00    -0.237 N 
ATOM     44  H11 UNL     1     -37.095   4.384   7.051  1.00  0.00     0.188 HD
ATOM     45  H12 UNL     1     -36.833   1.997   7.737  1.00  0.00     0.208 HD
BRANCH  41  46
HETATM   46  C15 UNL     1     -39.043   5.909   8.291  1.00  0.00     0.209 C 
BRANCH  46  47
HETATM   47  C16 UNL     1     -38.271   6.740   9.275  1.00  0.00     0.268 C 
BRANCH  47  48
HETATM   48  N8  UNL     1     -39.025   7.981   9.508  1.00  0.00    -0.076 N 
ATOM     49  H83 UNL     1     -39.368   8.061  10.466  1.00  0.00     0.274 HD
ATOM     50  H82 UNL     1     -38.431   8.811   9.506  1.00  0.00     0.274 HD
ATOM     51  H81 UNL     1     -39.773   8.029   8.815  1.00  0.00     0.274 HD
ENDBRANCH  47  48
ENDBRANCH  46  47
BRANCH  46  52
HETATM   52  O6  UNL     1     -40.384   6.163   8.157  1.00  0.00    -0.310 OA
BRANCH  52  53
HETATM   53  C17 UNL     1     -41.044   6.340   6.970  1.00  0.00     0.252 C 
HETATM   54  N9  UNL     1     -41.290   5.277   6.024  1.00  0.00    -0.054 NA
HETATM   55  N10 UNL     1     -41.443   7.546   6.741  1.00  0.00    -0.235 N 
ATOM     56  H10 UNL     1     -41.264   8.293   7.411  1.00  0.00     0.197 HD
BRANCH  55  57
HETATM   57  O7  UNL     1     -42.110   7.793   5.572  1.00  0.00    -0.287 OA
ATOM     58  H7  UNL     1     -42.360   8.690   5.380  1.00  0.00     0.244 HD
ENDBRANCH  55  57
ENDBRANCH  52  53
ENDBRANCH  46  52
ENDBRANCH  41  46
ENDBRANCH  34  39
ENDBRANCH   1  31
TORSDOF 16
ENDMDL
