MODEL 1
REMARK VINA RESULT: -8.877284526      0.000      0.000
REMARK  8 active torsions:
REMARK  status: ('A' for Active; 'I' for Inactive)
REMARK    1  A    between atoms: O1_2  and  C2_3 
REMARK    2  A    between atoms: C2_3  and  C3_5 
REMARK    3  A    between atoms: C5_8  and  C6_9 
REMARK    4  A    between atoms: C6_9  and  N1_10 
REMARK    5  A    between atoms: N1_10  and  N2_12 
REMARK    6  A    between atoms: N2_12  and  C7_14 
REMARK    7  A    between atoms: C15_26  and  C16_27 
REMARK    8  A    between atoms: C17_28  and  C18_29 
ROOT
HETATM    1  C6  UNL     1      13.718  13.954  63.787  1.00  0.00     0.120 C 
ENDROOT
BRANCH   1   2
HETATM    2  C5  UNL     1      14.412  15.187  63.307  1.00  0.00    -0.001 A 
HETATM    3  C4  UNL     1      13.674  16.258  62.883  1.00  0.00     0.064 A 
HETATM    4  S1  UNL     1      14.828  17.431  62.507  1.00  0.00    -0.094 SA
HETATM    5  C3  UNL     1      16.266  16.544  62.888  1.00  0.00     0.091 A 
HETATM    6  C15 UNL     1      15.781  15.349  63.308  1.00  0.00    -0.001 A 
BRANCH   5   7
HETATM    7  C2  UNL     1      17.635  17.047  62.662  1.00  0.00     0.300 C 
HETATM    8  O2  UNL     1      18.161  17.662  63.663  1.00  0.00    -0.259 OA
BRANCH   7   9
HETATM    9  O1  UNL     1      18.351  16.926  61.522  1.00  0.00    -0.322 OA
HETATM   10  C1  UNL     1      17.709  17.288  60.292  1.00  0.00     0.213 C 
ENDBRANCH   7   9
ENDBRANCH   5   7
BRANCH   6  11
HETATM   11  C16 UNL     1      16.639  14.281  63.879  1.00  0.00     0.014 C 
HETATM   12  C17 UNL     1      17.470  13.492  63.291  1.00  0.00     0.001 C 
BRANCH  12  13
HETATM   13  C18 UNL     1      17.840  13.397  61.895  1.00  0.00     0.002 C 
HETATM   14  C19 UNL     1      19.071  13.644  61.467  1.00  0.00    -0.088 C 
HETATM   15  C20 UNL     1      20.154  14.035  62.386  1.00  0.00     0.043 C 
HETATM   16  C21 UNL     1      19.377  13.524  60.033  1.00  0.00     0.043 C 
ENDBRANCH  12  13
ENDBRANCH   6  11
ENDBRANCH   1   2
BRANCH   1  17
HETATM   17  N1  UNL     1      13.220  13.899  64.910  1.00  0.00    -0.309 N 
ATOM     18  H1  UNL     1      13.622  13.110  65.416  1.00  0.00     0.186 HD
BRANCH  17  19
HETATM   19  N2  UNL     1      12.342  14.508  65.689  1.00  0.00    -0.280 N 
ATOM     20  H2  UNL     1      12.742  14.917  66.534  1.00  0.00     0.189 HD
BRANCH  19  21
HETATM   21  C7  UNL     1      11.063  14.676  65.566  1.00  0.00     0.164 A 
HETATM   22  N3  UNL     1      10.047  14.294  66.318  1.00  0.00    -0.334 N 
HETATM   23  C8  UNL     1       8.813  14.567  65.939  1.00  0.00     0.053 A 
ATOM     24  H3  UNL     1      10.216  13.791  67.189  1.00  0.00     0.168 HD
HETATM   25  C9  UNL     1       7.632  14.220  66.617  1.00  0.00     0.055 A 
HETATM   26  C14 UNL     1       8.648  15.243  64.768  1.00  0.00     0.035 A 
HETATM   27  C10 UNL     1       6.399  14.542  66.132  1.00  0.00     0.042 A 
HETATM   28 CL1  UNL     1       4.929  14.081  67.011  1.00  0.00    -0.084 Cl
HETATM   29  C11 UNL     1       6.236  15.224  64.949  1.00  0.00    -0.039 A 
HETATM   30  C12 UNL     1       4.882  15.537  64.466  1.00  0.00     0.050 C 
HETATM   31  C13 UNL     1       7.375  15.571  64.271  1.00  0.00     0.029 A 
HETATM   32  S2  UNL     1      10.253  15.468  64.246  1.00  0.00    -0.051 SA
ENDBRANCH  19  21
ENDBRANCH  17  19
ENDBRANCH   1  17
TORSDOF 8
ENDMDL
MODEL 2
REMARK VINA RESULT: -8.765592914      2.192      3.362
REMARK  8 active torsions:
REMARK  status: ('A' for Active; 'I' for Inactive)
REMARK    1  A    between atoms: O1_2  and  C2_3 
REMARK    2  A    between atoms: C2_3  and  C3_5 
REMARK    3  A    between atoms: C5_8  and  C6_9 
REMARK    4  A    between atoms: C6_9  and  N1_10 
REMARK    5  A    between atoms: N1_10  and  N2_12 
REMARK    6  A    between atoms: N2_12  and  C7_14 
REMARK    7  A    between atoms: C15_26  and  C16_27 
REMARK    8  A    between atoms: C17_28  and  C18_29 
ROOT
HETATM    1  C6  UNL     1      13.220  15.664  63.948  1.00  0.00     0.120 C 
ENDROOT
BRANCH   1   2
HETATM    2  C5  UNL     1      13.972  14.431  63.565  1.00  0.00    -0.001 A 
HETATM    3  C4  UNL     1      13.286  13.296  63.233  1.00  0.00     0.064 A 
HETATM    4  S1  UNL     1      14.493  12.195  62.806  1.00  0.00    -0.094 SA
HETATM    5  C3  UNL     1      15.886  13.192  63.061  1.00  0.00     0.091 A 
HETATM    6  C15 UNL     1      15.345  14.367  63.468  1.00  0.00    -0.001 A 
BRANCH   5   7
HETATM    7  C2  UNL     1      17.278  12.720  62.931  1.00  0.00     0.300 C 
HETATM    8  O2  UNL     1      17.582  11.710  63.669  1.00  0.00    -0.259 OA
BRANCH   7   9
HETATM    9  O1  UNL     1      18.230  13.254  62.134  1.00  0.00    -0.322 OA
HETATM   10  C1  UNL     1      19.367  13.855  62.767  1.00  0.00     0.213 C 
ENDBRANCH   7   9
ENDBRANCH   5   7
BRANCH   6  11
HETATM   11  C16 UNL     1      16.147  15.598  63.683  1.00  0.00     0.014 C 
HETATM   12  C17 UNL     1      16.558  16.470  62.830  1.00  0.00     0.001 C 
BRANCH  12  13
HETATM   13  C18 UNL     1      16.368  16.538  61.397  1.00  0.00     0.002 C 
HETATM   14  C19 UNL     1      16.722  17.598  60.682  1.00  0.00    -0.088 C 
HETATM   15  C20 UNL     1      17.338  18.785  61.297  1.00  0.00     0.043 C 
HETATM   16  C21 UNL     1      16.500  17.596  59.227  1.00  0.00     0.043 C 
ENDBRANCH  12  13
ENDBRANCH   6  11
ENDBRANCH   1   2
BRANCH   1  17
HETATM   17  N1  UNL     1      12.030  15.617  64.253  1.00  0.00    -0.309 N 
ATOM     18  H1  UNL     1      11.949  15.456  65.257  1.00  0.00     0.186 HD
BRANCH  17  19
HETATM   19  N2  UNL     1      10.818  15.704  63.731  1.00  0.00    -0.280 N 
ATOM     20  H2  UNL     1      10.799  16.016  62.760  1.00  0.00     0.189 HD
BRANCH  19  21
HETATM   21  C7  UNL     1       9.651  15.462  64.238  1.00  0.00     0.164 A 
HETATM   22  N3  UNL     1       8.431  15.754  63.824  1.00  0.00    -0.334 N 
HETATM   23  C8  UNL     1       7.391  15.419  64.564  1.00  0.00     0.053 A 
ATOM     24  H3  UNL     1       8.294  16.236  62.937  1.00  0.00     0.168 HD
HETATM   25  C9  UNL     1       6.039  15.669  64.271  1.00  0.00     0.055 A 
HETATM   26  C14 UNL     1       7.634  14.775  65.739  1.00  0.00     0.035 A 
HETATM   27  C10 UNL     1       5.035  15.288  65.111  1.00  0.00     0.042 A 
HETATM   28 CL1  UNL     1       3.340  15.627  64.713  1.00  0.00    -0.084 Cl
HETATM   29  C11 UNL     1       5.284  14.638  66.298  1.00  0.00    -0.039 A 
HETATM   30  C12 UNL     1       4.164  14.259  67.173  1.00  0.00     0.050 C 
HETATM   31  C13 UNL     1       6.596  14.386  66.603  1.00  0.00     0.029 A 
HETATM   32  S2  UNL     1       9.333  14.667  65.753  1.00  0.00    -0.051 SA
ENDBRANCH  19  21
ENDBRANCH  17  19
ENDBRANCH   1  17
TORSDOF 8
ENDMDL
MODEL 3
REMARK VINA RESULT: -8.652986689      2.274      3.265
REMARK  8 active torsions:
REMARK  status: ('A' for Active; 'I' for Inactive)
REMARK    1  A    between atoms: O1_2  and  C2_3 
REMARK    2  A    between atoms: C2_3  and  C3_5 
REMARK    3  A    between atoms: C5_8  and  C6_9 
REMARK    4  A    between atoms: C6_9  and  N1_10 
REMARK    5  A    between atoms: N1_10  and  N2_12 
REMARK    6  A    between atoms: N2_12  and  C7_14 
REMARK    7  A    between atoms: C15_26  and  C16_27 
REMARK    8  A    between atoms: C17_28  and  C18_29 
ROOT
HETATM    1  C6  UNL     1      14.439  18.010  62.456  1.00  0.00     0.120 C 
ENDROOT
BRANCH   1   2
HETATM    2  C5  UNL     1      15.495  18.560  61.553  1.00  0.00    -0.001 A 
HETATM    3  C4  UNL     1      15.138  19.135  60.365  1.00  0.00     0.064 A 
HETATM    4  S1  UNL     1      16.598  19.674  59.713  1.00  0.00    -0.094 SA
HETATM    5  C3  UNL     1      17.675  19.156  60.966  1.00  0.00     0.091 A 
HETATM    6  C15 UNL     1      16.838  18.578  61.863  1.00  0.00    -0.001 A 
BRANCH   5   7
HETATM    7  C2  UNL     1      19.144  19.279  60.900  1.00  0.00     0.300 C 
HETATM    8  O2  UNL     1      19.642  20.240  61.598  1.00  0.00    -0.259 OA
BRANCH   7   9
HETATM    9  O1  UNL     1      19.979  18.495  60.181  1.00  0.00    -0.322 OA
HETATM   10  C1  UNL     1      21.269  18.211  60.739  1.00  0.00     0.213 C 
ENDBRANCH   7   9
ENDBRANCH   5   7
BRANCH   6  11
HETATM   11  C16 UNL     1      17.284  18.094  63.193  1.00  0.00     0.014 C 
HETATM   12  C17 UNL     1      17.966  17.046  63.500  1.00  0.00     0.001 C 
BRANCH  12  13
HETATM   13  C18 UNL     1      18.523  16.012  62.653  1.00  0.00     0.002 C 
HETATM   14  C19 UNL     1      18.114  14.752  62.707  1.00  0.00    -0.088 C 
HETATM   15  C20 UNL     1      17.059  14.312  63.636  1.00  0.00     0.043 C 
HETATM   16  C21 UNL     1      18.723  13.754  61.814  1.00  0.00     0.043 C 
ENDBRANCH  12  13
ENDBRANCH   6  11
ENDBRANCH   1   2
BRANCH   1  17
HETATM   17  N1  UNL     1      14.330  16.800  62.649  1.00  0.00    -0.309 N 
ATOM     18  H1  UNL     1      14.707  16.299  61.844  1.00  0.00     0.186 HD
BRANCH  17  19
HETATM   19  N2  UNL     1      13.895  15.924  63.538  1.00  0.00    -0.280 N 
ATOM     20  H2  UNL     1      14.631  15.377  63.986  1.00  0.00     0.189 HD
BRANCH  19  21
HETATM   21  C7  UNL     1      12.697  15.640  63.940  1.00  0.00     0.164 A 
HETATM   22  N3  UNL     1      11.519  15.749  63.352  1.00  0.00    -0.334 N 
HETATM   23  C8  UNL     1      10.425  15.418  64.010  1.00  0.00     0.053 A 
ATOM     24  H3  UNL     1      11.456  16.089  62.393  1.00  0.00     0.168 HD
HETATM   25  C9  UNL     1       9.105  15.489  63.533  1.00  0.00     0.055 A 
HETATM   26  C14 UNL     1      10.569  14.968  65.289  1.00  0.00     0.035 A 
HETATM   27  C10 UNL     1       8.038  15.130  64.301  1.00  0.00     0.042 A 
HETATM   28 CL1  UNL     1       6.384  15.241  63.668  1.00  0.00    -0.084 Cl
HETATM   29  C11 UNL     1       8.187  14.677  65.592  1.00  0.00    -0.039 A 
HETATM   30  C12 UNL     1       7.000  14.313  66.381  1.00  0.00     0.050 C 
HETATM   31  C13 UNL     1       9.466  14.601  66.077  1.00  0.00     0.029 A 
HETATM   32  S2  UNL     1      12.256  15.033  65.511  1.00  0.00    -0.051 SA
ENDBRANCH  19  21
ENDBRANCH  17  19
ENDBRANCH   1  17
TORSDOF 8
ENDMDL
MODEL 4
REMARK VINA RESULT: -8.612269643      1.275      1.558
REMARK  8 active torsions:
REMARK  status: ('A' for Active; 'I' for Inactive)
REMARK    1  A    between atoms: O1_2  and  C2_3 
REMARK    2  A    between atoms: C2_3  and  C3_5 
REMARK    3  A    between atoms: C5_8  and  C6_9 
REMARK    4  A    between atoms: C6_9  and  N1_10 
REMARK    5  A    between atoms: N1_10  and  N2_12 
REMARK    6  A    between atoms: N2_12  and  C7_14 
REMARK    7  A    between atoms: C15_26  and  C16_27 
REMARK    8  A    between atoms: C17_28  and  C18_29 
ROOT
HETATM    1  C6  UNL     1      14.293  14.511  63.560  1.00  0.00     0.120 C 
ENDROOT
BRANCH   1   2
HETATM    2  C5  UNL     1      14.914  15.767  63.040  1.00  0.00    -0.001 A 
HETATM    3  C4  UNL     1      14.116  16.768  62.559  1.00  0.00     0.064 A 
HETATM    4  S1  UNL     1      15.197  17.999  62.155  1.00  0.00    -0.094 SA
HETATM    5  C3  UNL     1      16.683  17.226  62.598  1.00  0.00     0.091 A 
HETATM    6  C15 UNL     1      16.268  16.020  63.059  1.00  0.00    -0.001 A 
BRANCH   5   7
HETATM    7  C2  UNL     1      18.019  17.810  62.376  1.00  0.00     0.300 C 
HETATM    8  O2  UNL     1      18.092  19.084  62.544  1.00  0.00    -0.259 OA
BRANCH   7   9
HETATM    9  O1  UNL     1      19.133  17.136  62.013  1.00  0.00    -0.322 OA
HETATM   10  C1  UNL     1      19.540  17.215  60.640  1.00  0.00     0.213 C 
ENDBRANCH   7   9
ENDBRANCH   5   7
BRANCH   6  11
HETATM   11  C16 UNL     1      17.183  15.035  63.690  1.00  0.00     0.014 C 
HETATM   12  C17 UNL     1      17.896  14.111  63.147  1.00  0.00     0.001 C 
BRANCH  12  13
HETATM   13  C18 UNL     1      18.042  13.739  61.756  1.00  0.00     0.002 C 
HETATM   14  C19 UNL     1      19.228  13.607  61.176  1.00  0.00    -0.088 C 
HETATM   15  C20 UNL     1      20.486  13.828  61.909  1.00  0.00     0.043 C 
HETATM   16  C21 UNL     1      19.301  13.222  59.757  1.00  0.00     0.043 C 
ENDBRANCH  12  13
ENDBRANCH   6  11
ENDBRANCH   1   2
BRANCH   1  17
HETATM   17  N1  UNL     1      13.699  14.490  64.637  1.00  0.00    -0.309 N 
ATOM     18  H1  UNL     1      14.034  13.700  65.188  1.00  0.00     0.186 HD
BRANCH  17  19
HETATM   19  N2  UNL     1      12.776  15.138  65.327  1.00  0.00    -0.280 N 
ATOM     20  H2  UNL     1      13.139  15.893  65.910  1.00  0.00     0.189 HD
BRANCH  19  21
HETATM   21  C7  UNL     1      11.492  14.981  65.394  1.00  0.00     0.164 A 
HETATM   22  N3  UNL     1      10.508  15.426  64.634  1.00  0.00    -0.334 N 
HETATM   23  C8  UNL     1       9.258  15.146  64.950  1.00  0.00     0.053 A 
ATOM     24  H3  UNL     1      10.714  15.984  63.806  1.00  0.00     0.168 HD
HETATM   25  C9  UNL     1       8.106  15.554  64.257  1.00  0.00     0.055 A 
HETATM   26  C14 UNL     1       9.043  14.395  66.067  1.00  0.00     0.035 A 
HETATM   27  C10 UNL     1       6.853  15.218  64.675  1.00  0.00     0.042 A 
HETATM   28 CL1  UNL     1       5.421  15.758  63.778  1.00  0.00    -0.084 Cl
HETATM   29  C11 UNL     1       6.639  14.460  65.803  1.00  0.00    -0.039 A 
HETATM   30  C12 UNL     1       5.265  14.135  66.216  1.00  0.00     0.050 C 
HETATM   31  C13 UNL     1       7.749  14.052  66.495  1.00  0.00     0.029 A 
HETATM   32  S2  UNL     1      10.625  14.113  66.628  1.00  0.00    -0.051 SA
ENDBRANCH  19  21
ENDBRANCH  17  19
ENDBRANCH   1  17
TORSDOF 8
ENDMDL
MODEL 5
REMARK VINA RESULT: -8.547918710      5.065     10.910
REMARK  8 active torsions:
REMARK  status: ('A' for Active; 'I' for Inactive)
REMARK    1  A    between atoms: O1_2  and  C2_3 
REMARK    2  A    between atoms: C2_3  and  C3_5 
REMARK    3  A    between atoms: C5_8  and  C6_9 
REMARK    4  A    between atoms: C6_9  and  N1_10 
REMARK    5  A    between atoms: N1_10  and  N2_12 
REMARK    6  A    between atoms: N2_12  and  C7_14 
REMARK    7  A    between atoms: C15_26  and  C16_27 
REMARK    8  A    between atoms: C17_28  and  C18_29 
ROOT
HETATM    1  C6  UNL     1       8.061  15.884  65.599  1.00  0.00     0.120 C 
ENDROOT
BRANCH   1   2
HETATM    2  C5  UNL     1       7.413  15.033  64.555  1.00  0.00    -0.001 A 
HETATM    3  C4  UNL     1       7.923  15.012  63.287  1.00  0.00     0.064 A 
HETATM    4  S1  UNL     1       6.958  13.891  62.474  1.00  0.00    -0.094 SA
HETATM    5  C3  UNL     1       5.890  13.449  63.764  1.00  0.00     0.091 A 
HETATM    6  C15 UNL     1       6.341  14.201  64.798  1.00  0.00    -0.001 A 
BRANCH   5   7
HETATM    7  C2  UNL     1       4.739  12.540  63.613  1.00  0.00     0.300 C 
HETATM    8  O2  UNL     1       4.470  11.823  64.648  1.00  0.00    -0.259 OA
BRANCH   7   9
HETATM    9  O1  UNL     1       3.976  12.396  62.506  1.00  0.00    -0.322 OA
HETATM   10  C1  UNL     1       4.389  11.426  61.534  1.00  0.00     0.213 C 
ENDBRANCH   7   9
ENDBRANCH   5   7
BRANCH   6  11
HETATM   11  C16 UNL     1       5.821  14.071  66.183  1.00  0.00     0.014 C 
HETATM   12  C17 UNL     1       4.763  14.578  66.714  1.00  0.00     0.001 C 
BRANCH  12  13
HETATM   13  C18 UNL     1       3.742  15.426  66.137  1.00  0.00     0.002 C 
HETATM   14  C19 UNL     1       2.967  16.209  66.876  1.00  0.00    -0.088 C 
HETATM   15  C20 UNL     1       3.091  16.273  68.342  1.00  0.00     0.043 C 
HETATM   16  C21 UNL     1       1.950  17.048  66.221  1.00  0.00     0.043 C 
ENDBRANCH  12  13
ENDBRANCH   6  11
ENDBRANCH   1   2
BRANCH   1  17
HETATM   17  N1  UNL     1       9.160  15.595  66.067  1.00  0.00    -0.309 N 
ATOM     18  H1  UNL     1       9.384  16.246  66.820  1.00  0.00     0.186 HD
BRANCH  17  19
HETATM   19  N2  UNL     1      10.153  14.732  65.934  1.00  0.00    -0.280 N 
ATOM     20  H2  UNL     1       9.984  13.825  66.370  1.00  0.00     0.189 HD
BRANCH  19  21
HETATM   21  C7  UNL     1      11.302  14.836  65.345  1.00  0.00     0.164 A 
HETATM   22  N3  UNL     1      11.803  15.761  64.547  1.00  0.00    -0.334 N 
HETATM   23  C8  UNL     1      13.012  15.605  64.041  1.00  0.00     0.053 A 
ATOM     24  H3  UNL     1      11.258  16.594  64.323  1.00  0.00     0.168 HD
HETATM   25  C9  UNL     1      13.677  16.486  63.171  1.00  0.00     0.055 A 
HETATM   26  C14 UNL     1      13.695  14.475  64.377  1.00  0.00     0.035 A 
HETATM   27  C10 UNL     1      14.928  16.225  62.696  1.00  0.00     0.042 A 
HETATM   28 CL1  UNL     1      15.734  17.356  61.593  1.00  0.00    -0.084 Cl
HETATM   29  C11 UNL     1      15.614  15.082  63.036  1.00  0.00    -0.039 A 
HETATM   30  C12 UNL     1      16.958  14.845  62.485  1.00  0.00     0.050 C 
HETATM   31  C13 UNL     1      14.983  14.209  63.882  1.00  0.00     0.029 A 
HETATM   32  S2  UNL     1      12.595  13.673  65.400  1.00  0.00    -0.051 SA
ENDBRANCH  19  21
ENDBRANCH  17  19
ENDBRANCH   1  17
TORSDOF 8
ENDMDL
