MODEL 1
REMARK VINA RESULT: -9.876896045      0.000      0.000
REMARK  7 active torsions:
REMARK  status: ('A' for Active; 'I' for Inactive)
REMARK    1  A    between atoms: C2_2  and  C3_3 
REMARK    2  A    between atoms: C6_6  and  C7_7 
REMARK    3  A    between atoms: C7_7  and  C8_8 
REMARK    4  A    between atoms: C8_8  and  C9_9 
REMARK    5  A    between atoms: C11_13  and  N2_14 
REMARK    6  A    between atoms: N3_17  and  C12_18 
REMARK    7  A    between atoms: C12_18  and  C13_19 
ROOT
HETATM    1  C9  UNL     1      10.874  15.561  63.729  1.00  0.00     0.044 A 
HETATM    2  C10 UNL     1      10.962  15.300  65.060  1.00  0.00     0.149 A 
HETATM    3  N1  UNL     1       9.696  14.968  65.468  1.00  0.00    -0.121 N 
HETATM    4  S1  UNL     1       8.724  14.512  66.767  1.00  0.00     0.046 SA
HETATM    5  C11 UNL     1       7.235  14.394  65.945  1.00  0.00     0.177 A 
HETATM    6  N3  UNL     1       7.570  14.716  64.695  1.00  0.00    -0.159 N 
HETATM    7  C19 UNL     1       8.837  15.009  64.458  1.00  0.00     0.699 A 
HETATM    8  N4  UNL     1       9.611  15.388  63.375  1.00  0.00    -0.193 N 
ATOM      9  H4  UNL     1       9.255  15.516  62.429  1.00  0.00     0.184 HD
ENDROOT
BRANCH   1  10
HETATM   10  C8  UNL     1      11.955  15.972  62.773  1.00  0.00     0.064 C 
BRANCH  10  11
HETATM   11  C7  UNL     1      13.258  15.337  63.204  1.00  0.00     0.045 C 
BRANCH  11  12
HETATM   12  C6  UNL     1      14.354  16.284  62.911  1.00  0.00    -0.046 A 
HETATM   13  C5  UNL     1      15.712  15.888  62.886  1.00  0.00    -0.012 A 
HETATM   14  C4  UNL     1      16.199  14.643  63.117  1.00  0.00     0.027 A 
HETATM   15  C23 UNL     1      16.625  16.864  62.601  1.00  0.00     0.016 A 
HETATM   16  C3  UNL     1      17.551  14.477  63.044  1.00  0.00    -0.016 A 
HETATM   17  S2  UNL     1      18.115  16.038  62.659  1.00  0.00    -0.094 SA
HETATM   18  C22 UNL     1      16.255  18.197  62.342  1.00  0.00     0.020 A 
HETATM   19  C21 UNL     1      14.932  18.585  62.366  1.00  0.00     0.002 A 
HETATM   20  C20 UNL     1      14.022  17.579  62.657  1.00  0.00     0.008 A 
BRANCH  16  21
HETATM   21  C2  UNL     1      18.338  13.205  63.255  1.00  0.00     0.041 C 
HETATM   22  C1  UNL     1      17.379  12.100  63.594  1.00  0.00     0.010 C 
ENDBRANCH  16  21
ENDBRANCH  11  12
ENDBRANCH  10  11
ENDBRANCH   1  10
BRANCH   6  23
HETATM   23  C12 UNL     1       6.515  14.741  63.650  1.00  0.00     0.157 C 
BRANCH  23  24
HETATM   24  C13 UNL     1       6.276  13.410  63.029  1.00  0.00     0.038 C 
HETATM   25  C14 UNL     1       6.503  13.388  61.536  1.00  0.00     0.009 C 
HETATM   26  C15 UNL     1       6.241  12.058  60.899  1.00  0.00     0.001 C 
HETATM   27  C16 UNL     1       5.059  11.352  61.490  1.00  0.00     0.003 C 
HETATM   28  C17 UNL     1       4.155  12.381  62.126  1.00  0.00     0.037 C 
HETATM   29  C18 UNL     1       4.816  13.049  63.312  1.00  0.00     0.175 C 
HETATM   30  F1  UNL     1       4.696  12.308  64.469  1.00  0.00    -0.249 F 
ENDBRANCH  23  24
ENDBRANCH   6  23
BRANCH   5  31
HETATM   31  N2  UNL     1       6.046  14.071  66.402  1.00  0.00    -0.378 N 
ATOM     32  H22 UNL     1       5.823  13.457  67.186  1.00  0.00     0.158 HD
ATOM     33  H21 UNL     1       5.122  14.357  66.078  1.00  0.00     0.158 HD
ENDBRANCH   5  31
TORSDOF 7
ENDMDL
MODEL 2
REMARK VINA RESULT: -9.702438520      1.037      2.370
REMARK  7 active torsions:
REMARK  status: ('A' for Active; 'I' for Inactive)
REMARK    1  A    between atoms: C2_2  and  C3_3 
REMARK    2  A    between atoms: C6_6  and  C7_7 
REMARK    3  A    between atoms: C7_7  and  C8_8 
REMARK    4  A    between atoms: C8_8  and  C9_9 
REMARK    5  A    between atoms: C11_13  and  N2_14 
REMARK    6  A    between atoms: N3_17  and  C12_18 
REMARK    7  A    between atoms: C12_18  and  C13_19 
ROOT
HETATM    1  C9  UNL     1      10.767  15.460  63.769  1.00  0.00     0.044 A 
HETATM    2  C10 UNL     1      10.808  15.251  65.111  1.00  0.00     0.149 A 
HETATM    3  N1  UNL     1       9.523  14.958  65.491  1.00  0.00    -0.121 N 
HETATM    4  S1  UNL     1       8.503  14.570  66.776  1.00  0.00     0.046 SA
HETATM    5  C11 UNL     1       7.039  14.447  65.912  1.00  0.00     0.177 A 
HETATM    6  N3  UNL     1       7.418  14.713  64.662  1.00  0.00    -0.159 N 
HETATM    7  C19 UNL     1       8.697  14.974  64.453  1.00  0.00     0.699 A 
HETATM    8  N4  UNL     1       9.512  15.296  63.382  1.00  0.00    -0.193 N 
ATOM      9  H4  UNL     1       9.188  15.393  62.421  1.00  0.00     0.184 HD
ENDROOT
BRANCH   1  10
HETATM   10  C8  UNL     1      11.884  15.814  62.832  1.00  0.00     0.064 C 
BRANCH  10  11
HETATM   11  C7  UNL     1      13.142  16.049  63.639  1.00  0.00     0.045 C 
BRANCH  11  12
HETATM   12  C6  UNL     1      14.055  14.909  63.413  1.00  0.00    -0.046 A 
HETATM   13  C5  UNL     1      15.439  15.082  63.171  1.00  0.00    -0.012 A 
HETATM   14  C4  UNL     1      16.111  16.258  63.109  1.00  0.00     0.027 A 
HETATM   15  C23 UNL     1      16.169  13.944  62.979  1.00  0.00     0.016 A 
HETATM   16  C3  UNL     1      17.451  16.201  62.862  1.00  0.00    -0.016 A 
HETATM   17  S2  UNL     1      17.750  14.528  62.722  1.00  0.00    -0.094 SA
HETATM   18  C22 UNL     1      15.596  12.658  63.017  1.00  0.00     0.020 A 
HETATM   19  C21 UNL     1      14.249  12.487  63.252  1.00  0.00     0.002 A 
HETATM   20  C20 UNL     1      13.525  13.657  63.444  1.00  0.00     0.008 A 
BRANCH  16  21
HETATM   21  C2  UNL     1      18.420  17.354  62.746  1.00  0.00     0.041 C 
HETATM   22  C1  UNL     1      17.649  18.591  62.382  1.00  0.00     0.010 C 
ENDBRANCH  16  21
ENDBRANCH  11  12
ENDBRANCH  10  11
ENDBRANCH   1  10
BRANCH   6  23
HETATM   23  C12 UNL     1       6.397  14.715  63.583  1.00  0.00     0.157 C 
BRANCH  23  24
HETATM   24  C13 UNL     1       6.198  13.376  62.964  1.00  0.00     0.038 C 
HETATM   25  C14 UNL     1       6.429  13.357  61.472  1.00  0.00     0.009 C 
HETATM   26  C15 UNL     1       6.206  12.020  60.837  1.00  0.00     0.001 C 
HETATM   27  C16 UNL     1       5.044  11.281  61.427  1.00  0.00     0.003 C 
HETATM   28  C17 UNL     1       4.110  12.285  62.060  1.00  0.00     0.037 C 
HETATM   29  C18 UNL     1       4.748  12.973  63.245  1.00  0.00     0.175 C 
HETATM   30  F1  UNL     1       4.647  12.232  64.404  1.00  0.00    -0.249 F 
ENDBRANCH  23  24
ENDBRANCH   6  23
BRANCH   5  31
HETATM   31  N2  UNL     1       5.830  14.162  66.343  1.00  0.00    -0.378 N 
ATOM     32  H22 UNL     1       5.454  14.294  67.282  1.00  0.00     0.158 HD
ATOM     33  H21 UNL     1       5.036  13.762  65.843  1.00  0.00     0.158 HD
ENDBRANCH   5  31
TORSDOF 7
ENDMDL
MODEL 3
REMARK VINA RESULT: -9.436356309      0.952      2.628
REMARK  7 active torsions:
REMARK  status: ('A' for Active; 'I' for Inactive)
REMARK    1  A    between atoms: C2_2  and  C3_3 
REMARK    2  A    between atoms: C6_6  and  C7_7 
REMARK    3  A    between atoms: C7_7  and  C8_8 
REMARK    4  A    between atoms: C8_8  and  C9_9 
REMARK    5  A    between atoms: C11_13  and  N2_14 
REMARK    6  A    between atoms: N3_17  and  C12_18 
REMARK    7  A    between atoms: C12_18  and  C13_19 
ROOT
HETATM    1  C9  UNL     1      10.960  15.481  63.703  1.00  0.00     0.044 A 
HETATM    2  C10 UNL     1      11.037  15.251  65.040  1.00  0.00     0.149 A 
HETATM    3  N1  UNL     1       9.761  14.961  65.451  1.00  0.00    -0.121 N 
HETATM    4  S1  UNL     1       8.773  14.562  66.757  1.00  0.00     0.046 SA
HETATM    5  C11 UNL     1       7.284  14.463  65.932  1.00  0.00     0.177 A 
HETATM    6  N3  UNL     1       7.631  14.746  64.676  1.00  0.00    -0.159 N 
HETATM    7  C19 UNL     1       8.906  15.000  64.436  1.00  0.00     0.699 A 
HETATM    8  N4  UNL     1       9.694  15.332  63.349  1.00  0.00    -0.193 N 
ATOM      9  H4  UNL     1       9.345  15.447  62.398  1.00  0.00     0.184 HD
ENDROOT
BRANCH   1  10
HETATM   10  C8  UNL     1      12.054  15.841  62.741  1.00  0.00     0.064 C 
BRANCH  10  11
HETATM   11  C7  UNL     1      13.183  16.494  63.508  1.00  0.00     0.045 C 
BRANCH  11  12
HETATM   12  C6  UNL     1      14.431  15.760  63.209  1.00  0.00    -0.046 A 
HETATM   13  C5  UNL     1      15.468  16.316  62.423  1.00  0.00    -0.012 A 
HETATM   14  C4  UNL     1      15.481  17.545  61.848  1.00  0.00     0.027 A 
HETATM   15  C23 UNL     1      16.567  15.530  62.224  1.00  0.00     0.016 A 
HETATM   16  C3  UNL     1      16.587  17.886  61.126  1.00  0.00    -0.016 A 
HETATM   17  S2  UNL     1      17.579  16.506  61.258  1.00  0.00    -0.094 SA
HETATM   18  C22 UNL     1      16.683  14.235  62.763  1.00  0.00     0.020 A 
HETATM   19  C21 UNL     1      15.674  13.691  63.528  1.00  0.00     0.002 A 
HETATM   20  C20 UNL     1      14.566  14.506  63.718  1.00  0.00     0.008 A 
BRANCH  16  21
HETATM   21  C2  UNL     1      16.850  19.181  60.394  1.00  0.00     0.041 C 
HETATM   22  C1  UNL     1      15.576  19.622  59.731  1.00  0.00     0.010 C 
ENDBRANCH  16  21
ENDBRANCH  11  12
ENDBRANCH  10  11
ENDBRANCH   1  10
BRANCH   6  23
HETATM   23  C12 UNL     1       6.582  14.773  63.626  1.00  0.00     0.157 C 
BRANCH  23  24
HETATM   24  C13 UNL     1       6.321  13.437  63.024  1.00  0.00     0.038 C 
HETATM   25  C14 UNL     1       6.517  13.397  61.527  1.00  0.00     0.009 C 
HETATM   26  C15 UNL     1       6.233  12.062  60.910  1.00  0.00     0.001 C 
HETATM   27  C16 UNL     1       5.061  11.370  61.534  1.00  0.00     0.003 C 
HETATM   28  C17 UNL     1       4.176  12.411  62.178  1.00  0.00     0.037 C 
HETATM   29  C18 UNL     1       4.865  13.087  63.342  1.00  0.00     0.175 C 
HETATM   30  F1  UNL     1       4.766  12.360  64.510  1.00  0.00    -0.249 F 
ENDBRANCH  23  24
ENDBRANCH   6  23
BRANCH   5  31
HETATM   31  N2  UNL     1       6.085  14.182  66.391  1.00  0.00    -0.378 N 
ATOM     32  H22 UNL     1       5.275  14.800  66.444  1.00  0.00     0.158 HD
ATOM     33  H21 UNL     1       5.723  13.311  66.780  1.00  0.00     0.158 HD
ENDBRANCH   5  31
TORSDOF 7
ENDMDL
MODEL 4
REMARK VINA RESULT: -8.957742668      1.714      2.496
REMARK  7 active torsions:
REMARK  status: ('A' for Active; 'I' for Inactive)
REMARK    1  A    between atoms: C2_2  and  C3_3 
REMARK    2  A    between atoms: C6_6  and  C7_7 
REMARK    3  A    between atoms: C7_7  and  C8_8 
REMARK    4  A    between atoms: C8_8  and  C9_9 
REMARK    5  A    between atoms: C11_13  and  N2_14 
REMARK    6  A    between atoms: N3_17  and  C12_18 
REMARK    7  A    between atoms: C12_18  and  C13_19 
ROOT
HETATM    1  C9  UNL     1      12.594  16.045  63.365  1.00  0.00     0.044 A 
HETATM    2  C10 UNL     1      13.147  15.073  64.139  1.00  0.00     0.149 A 
HETATM    3  N1  UNL     1      12.148  14.628  64.966  1.00  0.00    -0.121 N 
HETATM    4  S1  UNL     1      11.734  13.563  66.205  1.00  0.00     0.046 SA
HETATM    5  C11 UNL     1      10.096  14.002  66.383  1.00  0.00     0.177 A 
HETATM    6  N3  UNL     1       9.952  14.958  65.465  1.00  0.00    -0.159 N 
HETATM    7  C19 UNL     1      11.011  15.274  64.740  1.00  0.00     0.699 A 
HETATM    8  N4  UNL     1      11.326  16.162  63.727  1.00  0.00    -0.193 N 
ATOM      9  H4  UNL     1      10.667  16.820  63.312  1.00  0.00     0.184 HD
ENDROOT
BRANCH   1  10
HETATM   10  C8  UNL     1      13.230  16.874  62.289  1.00  0.00     0.064 C 
BRANCH  10  11
HETATM   11  C7  UNL     1      14.460  17.548  62.855  1.00  0.00     0.045 C 
BRANCH  11  12
HETATM   12  C6  UNL     1      15.525  17.501  61.831  1.00  0.00    -0.046 A 
HETATM   13  C5  UNL     1      16.494  16.471  61.791  1.00  0.00    -0.012 A 
HETATM   14  C4  UNL     1      16.595  15.419  62.641  1.00  0.00     0.027 A 
HETATM   15  C23 UNL     1      17.422  16.548  60.792  1.00  0.00     0.016 A 
HETATM   16  C3  UNL     1      17.610  14.534  62.424  1.00  0.00    -0.016 A 
HETATM   17  S2  UNL     1      18.398  15.174  61.055  1.00  0.00    -0.094 SA
HETATM   18  C22 UNL     1      17.432  17.587  59.843  1.00  0.00     0.020 A 
HETATM   19  C21 UNL     1      16.490  18.592  59.879  1.00  0.00     0.002 A 
HETATM   20  C20 UNL     1      15.556  18.495  60.902  1.00  0.00     0.008 A 
BRANCH  16  21
HETATM   21  C2  UNL     1      17.939  13.291  63.217  1.00  0.00     0.041 C 
HETATM   22  C1  UNL     1      16.745  12.380  63.194  1.00  0.00     0.010 C 
ENDBRANCH  16  21
ENDBRANCH  11  12
ENDBRANCH  10  11
ENDBRANCH   1  10
BRANCH   6  23
HETATM   23  C12 UNL     1       8.631  15.619  65.314  1.00  0.00     0.157 C 
BRANCH  23  24
HETATM   24  C13 UNL     1       7.554  14.684  64.889  1.00  0.00     0.038 C 
HETATM   25  C14 UNL     1       7.226  14.766  63.417  1.00  0.00     0.009 C 
HETATM   26  C15 UNL     1       6.126  13.846  62.985  1.00  0.00     0.001 C 
HETATM   27  C16 UNL     1       5.026  13.739  63.996  1.00  0.00     0.003 C 
HETATM   28  C17 UNL     1       5.048  14.978  64.860  1.00  0.00     0.037 C 
HETATM   29  C18 UNL     1       6.306  15.055  65.694  1.00  0.00     0.175 C 
HETATM   30  F1  UNL     1       6.218  14.314  66.854  1.00  0.00    -0.249 F 
ENDBRANCH  23  24
ENDBRANCH   6  23
BRANCH   5  31
HETATM   31  N2  UNL     1       9.185  13.532  67.207  1.00  0.00    -0.378 N 
ATOM     32  H22 UNL     1       9.028  12.561  67.476  1.00  0.00     0.158 HD
ATOM     33  H21 UNL     1       8.466  14.027  67.734  1.00  0.00     0.158 HD
ENDBRANCH   5  31
TORSDOF 7
ENDMDL
MODEL 5
REMARK VINA RESULT: -8.742522468      6.776     12.433
REMARK  7 active torsions:
REMARK  status: ('A' for Active; 'I' for Inactive)
REMARK    1  A    between atoms: C2_2  and  C3_3 
REMARK    2  A    between atoms: C6_6  and  C7_7 
REMARK    3  A    between atoms: C7_7  and  C8_8 
REMARK    4  A    between atoms: C8_8  and  C9_9 
REMARK    5  A    between atoms: C11_13  and  N2_14 
REMARK    6  A    between atoms: N3_17  and  C12_18 
REMARK    7  A    between atoms: C12_18  and  C13_19 
ROOT
HETATM    1  C9  UNL     1      18.483  17.926  61.480  1.00  0.00     0.044 A 
HETATM    2  C10 UNL     1      17.362  18.366  60.849  1.00  0.00     0.149 A 
HETATM    3  N1  UNL     1      17.692  19.569  60.279  1.00  0.00    -0.121 N 
HETATM    4  S1  UNL     1      17.148  20.872  59.360  1.00  0.00     0.046 SA
HETATM    5  C11 UNL     1      18.588  21.786  59.334  1.00  0.00     0.177 A 
HETATM    6  N3  UNL     1      19.424  21.027  60.044  1.00  0.00    -0.159 N 
HETATM    7  C19 UNL     1      18.956  19.889  60.526  1.00  0.00     0.699 A 
HETATM    8  N4  UNL     1      19.426  18.833  61.286  1.00  0.00    -0.193 N 
ATOM      9  H4  UNL     1      20.376  18.763  61.650  1.00  0.00     0.184 HD
ENDROOT
BRANCH   1  10
HETATM   10  C8  UNL     1      18.692  16.666  62.267  1.00  0.00     0.064 C 
BRANCH  10  11
HETATM   11  C7  UNL     1      17.553  16.509  63.250  1.00  0.00     0.045 C 
BRANCH  11  12
HETATM   12  C6  UNL     1      17.133  15.091  63.249  1.00  0.00    -0.046 A 
HETATM   13  C5  UNL     1      15.773  14.703  63.247  1.00  0.00    -0.012 A 
HETATM   14  C4  UNL     1      14.694  15.525  63.247  1.00  0.00     0.027 A 
HETATM   15  C23 UNL     1      15.524  13.360  63.246  1.00  0.00     0.016 A 
HETATM   16  C3  UNL     1      13.462  14.940  63.245  1.00  0.00    -0.016 A 
HETATM   17  S2  UNL     1      13.821  13.274  63.244  1.00  0.00    -0.094 SA
HETATM   18  C22 UNL     1      16.551  12.397  63.247  1.00  0.00     0.020 A 
HETATM   19  C21 UNL     1      17.877  12.773  63.250  1.00  0.00     0.002 A 
HETATM   20  C20 UNL     1      18.108  14.142  63.250  1.00  0.00     0.008 A 
BRANCH  16  21
HETATM   21  C2  UNL     1      12.114  15.624  63.244  1.00  0.00     0.041 C 
HETATM   22  C1  UNL     1      11.421  15.317  64.540  1.00  0.00     0.010 C 
ENDBRANCH  16  21
ENDBRANCH  11  12
ENDBRANCH  10  11
ENDBRANCH   1  10
BRANCH   6  23
HETATM   23  C12 UNL     1      20.814  21.499  60.264  1.00  0.00     0.157 C 
BRANCH  23  24
HETATM   24  C13 UNL     1      21.090  21.864  61.681  1.00  0.00     0.038 C 
HETATM   25  C14 UNL     1      21.062  23.351  61.941  1.00  0.00     0.009 C 
HETATM   26  C15 UNL     1      21.362  23.729  63.358  1.00  0.00     0.001 C 
HETATM   27  C16 UNL     1      22.432  22.879  63.973  1.00  0.00     0.003 C 
HETATM   28  C17 UNL     1      23.277  22.296  62.864  1.00  0.00     0.037 C 
HETATM   29  C18 UNL     1      22.488  21.332  62.008  1.00  0.00     0.175 C 
HETATM   30  F1  UNL     1      22.429  20.067  62.553  1.00  0.00    -0.249 F 
ENDBRANCH  23  24
ENDBRANCH   6  23
BRANCH   5  31
HETATM   31  N2  UNL     1      18.838  22.945  58.766  1.00  0.00    -0.378 N 
ATOM     32  H22 UNL     1      18.194  23.532  58.235  1.00  0.00     0.158 HD
ATOM     33  H21 UNL     1      19.703  23.485  58.738  1.00  0.00     0.158 HD
ENDBRANCH   5  31
TORSDOF 7
ENDMDL
