MODEL 1
REMARK VINA RESULT: -8.370439319      0.000      0.000
REMARK  8 active torsions:
REMARK  status: ('A' for Active; 'I' for Inactive)
REMARK    1  A    between atoms: C3_3  and  N1_4 
REMARK    2  A    between atoms: N1_4  and  O1_6 
REMARK    3  A    between atoms: C4_10  and  S1_11 
REMARK    4  A    between atoms: S1_11  and  C5_12 
REMARK    5  A    between atoms: C5_12  and  C6_13 
REMARK       I    between atoms: C6_13  and  N3_15 
REMARK    6  A    between atoms: N3_15  and  C7_16 
REMARK    7  A    between atoms: C10_20  and  N4_21 
REMARK    8  A    between atoms: C12_25  and  C13_26 
ROOT
HETATM    1  C6  UNL     1      18.502  13.594  62.545  1.00  0.00     0.301 C 
HETATM    2  O2  UNL     1      19.061  12.788  63.375  1.00  0.00    -0.256 OA
HETATM    3  N3  UNL     1      17.235  14.085  62.632  1.00  0.00    -0.368 NA
ENDROOT
BRANCH   1   4
HETATM    4  C5  UNL     1      19.439  13.970  61.433  1.00  0.00     0.200 C 
BRANCH   4   5
HETATM    5  S1  UNL     1      20.725  15.112  61.704  1.00  0.00    -0.101 SA
BRANCH   5   6
HETATM    6  C4  UNL     1      20.918  16.601  60.805  1.00  0.00     0.078 A 
HETATM    7  N2  UNL     1      20.401  17.775  61.317  1.00  0.00    -0.335 N 
HETATM    8  C3  UNL     1      20.626  18.983  60.769  1.00  0.00     0.132 A 
ATOM      9  H2  UNL     1      19.819  17.724  62.154  1.00  0.00     0.168 HD
HETATM   10  C2  UNL     1      21.382  19.147  59.643  1.00  0.00    -0.010 A 
HETATM   11  C1  UNL     1      21.652  20.466  59.081  1.00  0.00     0.052 C 
HETATM   12  C19 UNL     1      21.913  18.014  59.071  1.00  0.00    -0.044 A 
HETATM   13  C17 UNL     1      21.666  16.784  59.673  1.00  0.00    -0.022 A 
HETATM   14  C20 UNL     1      22.727  18.146  57.871  1.00  0.00     0.049 C 
HETATM   15  C18 UNL     1      22.281  15.579  59.024  1.00  0.00     0.052 C 
BRANCH   8  16
HETATM   16  N1  UNL     1      20.084  20.179  61.351  1.00  0.00    -0.253 N 
ATOM     17  H1  UNL     1      20.670  21.003  61.481  1.00  0.00     0.196 HD
BRANCH  16  18
HETATM   18  O1  UNL     1      18.873  20.194  61.697  1.00  0.00    -0.288 OA
ATOM     19  H1  UNL     1      18.380  21.001  61.610  1.00  0.00     0.244 HD
ENDBRANCH  16  18
ENDBRANCH   8  16
ENDBRANCH   5   6
ENDBRANCH   4   5
ENDBRANCH   1   4
BRANCH   3  20
HETATM   20  C7  UNL     1      15.953  14.531  62.798  1.00  0.00     0.139 A 
HETATM   21  C8  UNL     1      15.034  13.500  63.179  1.00  0.00     0.077 A 
HETATM   22 CL1  UNL     1      15.591  11.809  63.148  1.00  0.00    -0.081 Cl
HETATM   23  C9  UNL     1      13.741  13.807  63.522  1.00  0.00     0.063 A 
HETATM   24  C10 UNL     1      13.287  15.101  63.512  1.00  0.00     0.105 A 
HETATM   25  C11 UNL     1      14.190  16.113  63.133  1.00  0.00     0.047 A 
HETATM   26  C12 UNL     1      15.481  15.861  62.781  1.00  0.00    -0.006 A 
BRANCH  24  27
HETATM   27  N4  UNL     1      11.958  15.435  63.852  1.00  0.00    -0.116 N 
HETATM   28  O3  UNL     1      11.190  15.844  62.954  1.00  0.00    -0.532 OA
HETATM   29  O4  UNL     1      11.482  15.337  65.092  1.00  0.00    -0.532 OA
ENDBRANCH  24  27
BRANCH  26  30
HETATM   30  C13 UNL     1      16.281  16.924  62.280  1.00  0.00    -0.021 C 
HETATM   31  C14 UNL     1      17.374  17.382  63.239  1.00  0.00     0.019 C 
HETATM   32  C15 UNL     1      15.325  18.193  62.345  1.00  0.00     0.019 C 
HETATM   33  C16 UNL     1      16.919  16.856  60.948  1.00  0.00     0.019 C 
ENDBRANCH  26  30
ENDBRANCH   3  20
TORSDOF 8
ENDMDL
MODEL 2
REMARK VINA RESULT: -8.326500751      3.468      9.539
REMARK  8 active torsions:
REMARK  status: ('A' for Active; 'I' for Inactive)
REMARK    1  A    between atoms: C3_3  and  N1_4 
REMARK    2  A    between atoms: N1_4  and  O1_6 
REMARK    3  A    between atoms: C4_10  and  S1_11 
REMARK    4  A    between atoms: S1_11  and  C5_12 
REMARK    5  A    between atoms: C5_12  and  C6_13 
REMARK       I    between atoms: C6_13  and  N3_15 
REMARK    6  A    between atoms: N3_15  and  C7_16 
REMARK    7  A    between atoms: C10_20  and  N4_21 
REMARK    8  A    between atoms: C12_25  and  C13_26 
ROOT
HETATM    1  C6  UNL     1      14.898  14.588  63.081  1.00  0.00     0.301 C 
HETATM    2  O2  UNL     1      14.190  13.555  62.793  1.00  0.00    -0.256 OA
HETATM    3  N3  UNL     1      16.252  14.690  62.970  1.00  0.00    -0.368 NA
ENDROOT
BRANCH   1   4
HETATM    4  C5  UNL     1      14.039  15.725  63.554  1.00  0.00     0.200 C 
BRANCH   4   5
HETATM    5  S1  UNL     1      12.382  15.860  63.036  1.00  0.00    -0.101 SA
BRANCH   5   6
HETATM    6  C4  UNL     1      11.005  15.507  64.057  1.00  0.00     0.078 A 
HETATM    7  N2  UNL     1       9.733  15.809  63.609  1.00  0.00    -0.335 N 
HETATM    8  C3  UNL     1       8.614  15.443  64.261  1.00  0.00     0.132 A 
ATOM      9  H2  UNL     1       9.637  16.335  62.740  1.00  0.00     0.168 HD
HETATM   10  C2  UNL     1       8.645  14.748  65.436  1.00  0.00    -0.010 A 
HETATM   11  C1  UNL     1       7.424  14.322  66.112  1.00  0.00     0.052 C 
HETATM   12  C19 UNL     1       9.882  14.430  65.947  1.00  0.00    -0.044 A 
HETATM   13  C17 UNL     1      11.016  14.816  65.239  1.00  0.00    -0.022 A 
HETATM   14  C20 UNL     1       9.958  13.687  67.197  1.00  0.00     0.049 C 
HETATM   15  C18 UNL     1      12.342  14.432  65.826  1.00  0.00     0.052 C 
BRANCH   8  16
HETATM   16  N1  UNL     1       7.312  15.763  63.744  1.00  0.00    -0.253 N 
ATOM     17  H1  UNL     1       6.850  16.633  64.008  1.00  0.00     0.196 HD
BRANCH  16  18
HETATM   18  O1  UNL     1       6.751  14.951  62.961  1.00  0.00    -0.288 OA
ATOM     19  H1  UNL     1       6.305  15.288  62.193  1.00  0.00     0.244 HD
ENDBRANCH  16  18
ENDBRANCH   8  16
ENDBRANCH   5   6
ENDBRANCH   4   5
ENDBRANCH   1   4
BRANCH   3  20
HETATM   20  C7  UNL     1      17.611  14.707  62.826  1.00  0.00     0.139 A 
HETATM   21  C8  UNL     1      18.227  13.435  63.063  1.00  0.00     0.077 A 
HETATM   22 CL1  UNL     1      17.229  12.116  63.726  1.00  0.00    -0.081 Cl
HETATM   23  C9  UNL     1      19.565  13.249  62.823  1.00  0.00     0.063 A 
HETATM   24  C10 UNL     1      20.354  14.266  62.349  1.00  0.00     0.105 A 
HETATM   25  C11 UNL     1      19.749  15.517  62.121  1.00  0.00     0.047 A 
HETATM   26  C12 UNL     1      18.427  15.754  62.347  1.00  0.00    -0.006 A 
BRANCH  24  27
HETATM   27  N4  UNL     1      21.735  14.097  62.105  1.00  0.00    -0.116 N 
HETATM   28  O3  UNL     1      22.554  14.542  62.937  1.00  0.00    -0.532 OA
HETATM   29  O4  UNL     1      22.207  13.484  61.021  1.00  0.00    -0.532 OA
ENDBRANCH  24  27
BRANCH  26  30
HETATM   30  C13 UNL     1      17.932  17.081  62.221  1.00  0.00    -0.021 C 
HETATM   31  C14 UNL     1      16.887  17.250  61.124  1.00  0.00     0.019 C 
HETATM   32  C15 UNL     1      19.136  17.884  61.565  1.00  0.00     0.019 C 
HETATM   33  C16 UNL     1      17.415  17.831  63.385  1.00  0.00     0.019 C 
ENDBRANCH  26  30
ENDBRANCH   3  20
TORSDOF 8
ENDMDL
MODEL 3
REMARK VINA RESULT: -8.282571359      3.838      9.902
REMARK  8 active torsions:
REMARK  status: ('A' for Active; 'I' for Inactive)
REMARK    1  A    between atoms: C3_3  and  N1_4 
REMARK    2  A    between atoms: N1_4  and  O1_6 
REMARK    3  A    between atoms: C4_10  and  S1_11 
REMARK    4  A    between atoms: S1_11  and  C5_12 
REMARK    5  A    between atoms: C5_12  and  C6_13 
REMARK       I    between atoms: C6_13  and  N3_15 
REMARK    6  A    between atoms: N3_15  and  C7_16 
REMARK    7  A    between atoms: C10_20  and  N4_21 
REMARK    8  A    between atoms: C12_25  and  C13_26 
ROOT
HETATM    1  C6  UNL     1      14.125  16.788  62.885  1.00  0.00     0.301 C 
HETATM    2  O2  UNL     1      13.740  17.949  62.492  1.00  0.00    -0.256 OA
HETATM    3  N3  UNL     1      15.318  16.197  62.599  1.00  0.00    -0.368 NA
ENDROOT
BRANCH   1   4
HETATM    4  C5  UNL     1      13.086  16.131  63.747  1.00  0.00     0.200 C 
BRANCH   4   5
HETATM    5  S1  UNL     1      11.505  15.769  63.112  1.00  0.00    -0.101 SA
BRANCH   5   6
HETATM    6  C4  UNL     1      10.110  15.405  64.104  1.00  0.00     0.078 A 
HETATM    7  N2  UNL     1       8.845  15.688  63.626  1.00  0.00    -0.335 N 
HETATM    8  C3  UNL     1       7.717  15.313  64.256  1.00  0.00     0.132 A 
ATOM      9  H2  UNL     1       8.762  16.207  62.752  1.00  0.00     0.168 HD
HETATM   10  C2  UNL     1       7.729  14.626  65.436  1.00  0.00    -0.010 A 
HETATM   11  C1  UNL     1       6.500  14.190  66.088  1.00  0.00     0.052 C 
HETATM   12  C19 UNL     1       8.959  14.327  65.977  1.00  0.00    -0.044 A 
HETATM   13  C17 UNL     1      10.104  14.724  65.292  1.00  0.00    -0.022 A 
HETATM   14  C20 UNL     1       9.015  13.595  67.233  1.00  0.00     0.049 C 
HETATM   15  C18 UNL     1      11.421  14.361  65.911  1.00  0.00     0.052 C 
BRANCH   8  16
HETATM   16  N1  UNL     1       6.422  15.612  63.707  1.00  0.00    -0.253 N 
ATOM     17  H1  UNL     1       5.903  16.431  64.023  1.00  0.00     0.196 HD
BRANCH  16  18
HETATM   18  O1  UNL     1       5.940  14.846  62.831  1.00  0.00    -0.288 OA
ATOM     19  H1  UNL     1       5.412  15.219  62.135  1.00  0.00     0.244 HD
ENDBRANCH  16  18
ENDBRANCH   8  16
ENDBRANCH   5   6
ENDBRANCH   4   5
ENDBRANCH   1   4
BRANCH   3  20
HETATM   20  C7  UNL     1      16.539  15.680  62.265  1.00  0.00     0.139 A 
HETATM   21  C8  UNL     1      16.758  14.358  62.774  1.00  0.00     0.077 A 
HETATM   22 CL1  UNL     1      15.581  13.683  63.927  1.00  0.00    -0.081 Cl
HETATM   23  C9  UNL     1      17.873  13.645  62.411  1.00  0.00     0.063 A 
HETATM   24  C10 UNL     1      18.809  14.167  61.554  1.00  0.00     0.105 A 
HETATM   25  C11 UNL     1      18.594  15.468  61.059  1.00  0.00     0.047 A 
HETATM   26  C12 UNL     1      17.506  16.218  61.390  1.00  0.00    -0.006 A 
BRANCH  24  27
HETATM   27  N4  UNL     1      19.966  13.452  61.177  1.00  0.00    -0.116 N 
HETATM   28  O3  UNL     1      20.826  13.194  62.047  1.00  0.00    -0.532 OA
HETATM   29  O4  UNL     1      20.188  13.042  59.929  1.00  0.00    -0.532 OA
ENDBRANCH  24  27
BRANCH  26  30
HETATM   30  C13 UNL     1      17.441  17.569  60.954  1.00  0.00    -0.021 C 
HETATM   31  C14 UNL     1      16.434  17.810  59.834  1.00  0.00     0.019 C 
HETATM   32  C15 UNL     1      18.792  17.782  60.145  1.00  0.00     0.019 C 
HETATM   33  C16 UNL     1      17.255  18.685  61.906  1.00  0.00     0.019 C 
ENDBRANCH  26  30
ENDBRANCH   3  20
TORSDOF 8
ENDMDL
MODEL 4
REMARK VINA RESULT: -8.172287284      1.429      1.656
REMARK  8 active torsions:
REMARK  status: ('A' for Active; 'I' for Inactive)
REMARK    1  A    between atoms: C3_3  and  N1_4 
REMARK    2  A    between atoms: N1_4  and  O1_6 
REMARK    3  A    between atoms: C4_10  and  S1_11 
REMARK    4  A    between atoms: S1_11  and  C5_12 
REMARK    5  A    between atoms: C5_12  and  C6_13 
REMARK       I    between atoms: C6_13  and  N3_15 
REMARK    6  A    between atoms: N3_15  and  C7_16 
REMARK    7  A    between atoms: C10_20  and  N4_21 
REMARK    8  A    between atoms: C12_25  and  C13_26 
ROOT
HETATM    1  C6  UNL     1      18.892  14.768  61.876  1.00  0.00     0.301 C 
HETATM    2  O2  UNL     1      19.894  14.922  62.666  1.00  0.00    -0.256 OA
HETATM    3  N3  UNL     1      17.578  14.879  62.214  1.00  0.00    -0.368 NA
ENDROOT
BRANCH   1   4
HETATM    4  C5  UNL     1      19.342  14.461  60.476  1.00  0.00     0.200 C 
BRANCH   4   5
HETATM    5  S1  UNL     1      19.813  15.742  59.395  1.00  0.00    -0.101 SA
BRANCH   5   6
HETATM    6  C4  UNL     1      20.371  17.314  59.923  1.00  0.00     0.078 A 
HETATM    7  N2  UNL     1      19.484  18.374  59.958  1.00  0.00    -0.335 N 
HETATM    8  C3  UNL     1      19.788  19.574  60.483  1.00  0.00     0.132 A 
ATOM      9  H2  UNL     1      18.553  18.238  59.564  1.00  0.00     0.168 HD
HETATM   10  C2  UNL     1      21.013  19.851  61.020  1.00  0.00    -0.010 A 
HETATM   11  C1  UNL     1      21.316  21.144  61.623  1.00  0.00     0.052 C 
HETATM   12  C19 UNL     1      21.950  18.844  61.002  1.00  0.00    -0.044 A 
HETATM   13  C17 UNL     1      21.596  17.612  60.459  1.00  0.00    -0.022 A 
HETATM   14  C20 UNL     1      23.267  19.098  61.566  1.00  0.00     0.049 C 
HETATM   15  C18 UNL     1      22.644  16.540  60.477  1.00  0.00     0.052 C 
BRANCH   8  16
HETATM   16  N1  UNL     1      18.824  20.639  60.514  1.00  0.00    -0.253 N 
ATOM     17  H1  UNL     1      18.947  21.431  61.146  1.00  0.00     0.196 HD
BRANCH  16  18
HETATM   18  O1  UNL     1      17.824  20.580  59.750  1.00  0.00    -0.288 OA
ATOM     19  H1  UNL     1      17.500  21.380  59.355  1.00  0.00     0.244 HD
ENDBRANCH  16  18
ENDBRANCH   8  16
ENDBRANCH   5   6
ENDBRANCH   4   5
ENDBRANCH   1   4
BRANCH   3  20
HETATM   20  C7  UNL     1      16.285  15.011  62.640  1.00  0.00     0.139 A 
HETATM   21  C8  UNL     1      15.751  13.816  63.224  1.00  0.00     0.077 A 
HETATM   22 CL1  UNL     1      16.699  12.313  63.107  1.00  0.00    -0.081 Cl
HETATM   23  C9  UNL     1      14.518  13.823  63.827  1.00  0.00     0.063 A 
HETATM   24  C10 UNL     1      13.760  14.964  63.891  1.00  0.00     0.105 A 
HETATM   25  C11 UNL     1      14.283  16.135  63.312  1.00  0.00     0.047 A 
HETATM   26  C12 UNL     1      15.499  16.181  62.700  1.00  0.00    -0.006 A 
BRANCH  24  27
HETATM   27  N4  UNL     1      12.485  14.988  64.498  1.00  0.00    -0.116 N 
HETATM   28  O3  UNL     1      12.389  14.703  65.712  1.00  0.00    -0.532 OA
HETATM   29  O4  UNL     1      11.373  15.298  63.834  1.00  0.00    -0.532 OA
ENDBRANCH  24  27
BRANCH  26  30
HETATM   30  C13 UNL     1      15.887  17.369  62.022  1.00  0.00    -0.021 C 
HETATM   31  C14 UNL     1      16.960  18.174  62.748  1.00  0.00     0.019 C 
HETATM   32  C15 UNL     1      14.648  18.347  62.213  1.00  0.00     0.019 C 
HETATM   33  C16 UNL     1      16.290  17.356  60.600  1.00  0.00     0.019 C 
ENDBRANCH  26  30
ENDBRANCH   3  20
TORSDOF 8
ENDMDL
MODEL 5
REMARK VINA RESULT: -8.144186714      1.972      2.653
REMARK  8 active torsions:
REMARK  status: ('A' for Active; 'I' for Inactive)
REMARK    1  A    between atoms: C3_3  and  N1_4 
REMARK    2  A    between atoms: N1_4  and  O1_6 
REMARK    3  A    between atoms: C4_10  and  S1_11 
REMARK    4  A    between atoms: S1_11  and  C5_12 
REMARK    5  A    between atoms: C5_12  and  C6_13 
REMARK       I    between atoms: C6_13  and  N3_15 
REMARK    6  A    between atoms: N3_15  and  C7_16 
REMARK    7  A    between atoms: C10_20  and  N4_21 
REMARK    8  A    between atoms: C12_25  and  C13_26 
ROOT
HETATM    1  C6  UNL     1      19.259  15.713  61.694  1.00  0.00     0.301 C 
HETATM    2  O2  UNL     1      20.212  14.938  62.071  1.00  0.00    -0.256 OA
HETATM    3  N3  UNL     1      17.948  15.606  62.047  1.00  0.00    -0.368 NA
ENDROOT
BRANCH   1   4
HETATM    4  C5  UNL     1      19.767  16.808  60.801  1.00  0.00     0.200 C 
BRANCH   4   5
HETATM    5  S1  UNL     1      19.900  18.442  61.388  1.00  0.00    -0.101 SA
BRANCH   5   6
HETATM    6  C4  UNL     1      20.062  19.845  60.354  1.00  0.00     0.078 A 
HETATM    7  N2  UNL     1      18.960  20.642  60.113  1.00  0.00    -0.335 N 
HETATM    8  C3  UNL     1      19.025  21.812  59.452  1.00  0.00     0.132 A 
ATOM      9  H2  UNL     1      18.051  20.328  60.453  1.00  0.00     0.168 HD
HETATM   10  C2  UNL     1      20.195  22.307  58.950  1.00  0.00    -0.010 A 
HETATM   11  C1  UNL     1      20.259  23.596  58.271  1.00  0.00     0.052 C 
HETATM   12  C19 UNL     1      21.330  21.553  59.141  1.00  0.00    -0.044 A 
HETATM   13  C17 UNL     1      21.224  20.352  59.838  1.00  0.00    -0.022 A 
HETATM   14  C20 UNL     1      22.597  22.046  58.623  1.00  0.00     0.049 C 
HETATM   15  C18 UNL     1      22.491  19.574  60.035  1.00  0.00     0.052 C 
BRANCH   8  16
HETATM   16  N1  UNL     1      17.853  22.617  59.245  1.00  0.00    -0.253 N 
ATOM     17  H1  UNL     1      17.935  23.570  58.889  1.00  0.00     0.196 HD
BRANCH  16  18
HETATM   18  O1  UNL     1      16.722  22.128  59.508  1.00  0.00    -0.288 OA
ATOM     19  H1  UNL     1      16.016  22.238  58.882  1.00  0.00     0.244 HD
ENDBRANCH  16  18
ENDBRANCH   8  16
ENDBRANCH   5   6
ENDBRANCH   4   5
ENDBRANCH   1   4
BRANCH   3  20
HETATM   20  C7  UNL     1      16.656  15.427  62.454  1.00  0.00     0.139 A 
HETATM   21  C8  UNL     1      16.393  14.110  62.956  1.00  0.00     0.077 A 
HETATM   22 CL1  UNL     1      17.647  12.860  62.768  1.00  0.00    -0.081 Cl
HETATM   23  C9  UNL     1      15.185  13.810  63.534  1.00  0.00     0.063 A 
HETATM   24  C10 UNL     1      14.194  14.751  63.651  1.00  0.00     0.105 A 
HETATM   25  C11 UNL     1      14.452  16.043  63.153  1.00  0.00     0.047 A 
HETATM   26  C12 UNL     1      15.632  16.391  62.569  1.00  0.00    -0.006 A 
BRANCH  24  27
HETATM   27  N4  UNL     1      12.942  14.459  64.233  1.00  0.00    -0.116 N 
HETATM   28  O3  UNL     1      11.907  14.906  63.694  1.00  0.00    -0.532 OA
HETATM   29  O4  UNL     1      12.812  13.726  65.338  1.00  0.00    -0.532 OA
ENDBRANCH  24  27
BRANCH  26  30
HETATM   30  C13 UNL     1      15.755  17.675  61.971  1.00  0.00    -0.021 C 
HETATM   31  C14 UNL     1      16.621  18.647  62.765  1.00  0.00     0.019 C 
HETATM   32  C15 UNL     1      14.331  18.346  62.196  1.00  0.00     0.019 C 
HETATM   33  C16 UNL     1      16.159  17.840  60.558  1.00  0.00     0.019 C 
ENDBRANCH  26  30
ENDBRANCH   3  20
TORSDOF 8
ENDMDL
