MODEL 1
REMARK VINA RESULT: -7.038800712      0.000      0.000
REMARK  6 active torsions:
REMARK  status: ('A' for Active; 'I' for Inactive)
REMARK    1  A    between atoms: C2_2  and  C4_4 
REMARK    2  A    between atoms: C4_4  and  O2_6 
REMARK    3  A    between atoms: O2_6  and  C5_7 
REMARK    4  A    between atoms: C16_20  and  O5_21 
REMARK    5  A    between atoms: C16_20  and  C17_23 
REMARK    6  A    between atoms: C17_23  and  C18_24 
ROOT
HETATM    1  C5  UNL     1      26.056  14.374  29.885  1.00  0.00     0.185 C 
HETATM    2  C6  UNL     1      24.627  14.077  30.273  1.00  0.00     0.127 C 
HETATM    3  C7  UNL     1      24.464  12.686  30.793  1.00  0.00     0.266 C 
HETATM    4  O3  UNL     1      24.865  11.663  30.182  1.00  0.00    -0.265 OA
HETATM    5  O4  UNL     1      23.815  12.610  32.041  1.00  0.00    -0.315 OA
HETATM    6  C8  UNL     1      22.597  13.289  32.297  1.00  0.00     0.141 A 
HETATM    7  C9  UNL     1      22.497  14.448  33.177  1.00  0.00     0.045 A 
HETATM    8  C10 UNL     1      22.741  14.691  31.751  1.00  0.00    -0.007 A 
HETATM    9  C11 UNL     1      21.679  15.128  30.798  1.00  0.00     0.018 C 
HETATM   10  C12 UNL     1      24.171  14.987  31.363  1.00  0.00     0.035 C 
HETATM   11  C13 UNL     1      24.252  16.383  30.899  1.00  0.00    -0.015 C 
HETATM   12  C14 UNL     1      25.221  16.713  30.055  1.00  0.00    -0.050 C 
HETATM   13  C15 UNL     1      25.272  18.159  29.603  1.00  0.00     0.046 C 
HETATM   14  C16 UNL     1      26.246  15.822  29.523  1.00  0.00     0.117 C 
ENDROOT
BRANCH   1  15
HETATM   15  O2  UNL     1      26.961  14.041  30.919  1.00  0.00    -0.308 OA
BRANCH  15  16
HETATM   16  C4  UNL     1      27.967  13.114  30.799  1.00  0.00     0.288 C 
HETATM   17  O1  UNL     1      27.859  12.056  31.457  1.00  0.00    -0.260 OA
BRANCH  16  18
HETATM   18  C2  UNL     1      29.135  13.316  29.948  1.00  0.00     0.004 C 
HETATM   19  C1  UNL     1      30.219  13.871  30.427  1.00  0.00     0.024 C 
HETATM   20  C3  UNL     1      29.137  12.905  28.520  1.00  0.00     0.054 C 
ENDBRANCH  16  18
ENDBRANCH  15  16
ENDBRANCH   1  15
BRANCH  14  21
HETATM   21  O5  UNL     1      27.477  16.271  30.077  1.00  0.00    -0.382 OA
ATOM     22  H5  UNL     1      27.296  16.973  30.691  1.00  0.00     0.211 HD
ENDBRANCH  14  21
BRANCH  14  23
HETATM   23  C17 UNL     1      26.387  16.041  28.042  1.00  0.00     0.158 C 
BRANCH  23  24
HETATM   24  C18 UNL     1      27.678  16.621  27.641  1.00  0.00     0.175 C 
HETATM   25  O6  UNL     1      27.724  17.877  27.439  1.00  0.00    -0.648 OA
HETATM   26  O7  UNL     1      28.860  15.942  27.455  1.00  0.00    -0.648 OA
ENDBRANCH  23  24
ENDBRANCH  14  23
TORSDOF 6
ENDMDL
MODEL 2
REMARK VINA RESULT: -6.727362672      1.781      4.085
REMARK  6 active torsions:
REMARK  status: ('A' for Active; 'I' for Inactive)
REMARK    1  A    between atoms: C2_2  and  C4_4 
REMARK    2  A    between atoms: C4_4  and  O2_6 
REMARK    3  A    between atoms: O2_6  and  C5_7 
REMARK    4  A    between atoms: C16_20  and  O5_21 
REMARK    5  A    between atoms: C16_20  and  C17_23 
REMARK    6  A    between atoms: C17_23  and  C18_24 
ROOT
HETATM    1  C5  UNL     1      26.689  15.313  30.088  1.00  0.00     0.185 C 
HETATM    2  C6  UNL     1      25.419  15.409  30.899  1.00  0.00     0.127 C 
HETATM    3  C7  UNL     1      24.629  16.630  30.563  1.00  0.00     0.266 C 
HETATM    4  O3  UNL     1      25.110  17.791  30.557  1.00  0.00    -0.265 OA
HETATM    5  O4  UNL     1      23.278  16.375  30.248  1.00  0.00    -0.315 OA
HETATM    6  C8  UNL     1      22.455  15.568  31.073  1.00  0.00     0.141 A 
HETATM    7  C9  UNL     1      22.000  14.237  30.689  1.00  0.00     0.045 A 
HETATM    8  C10 UNL     1      23.254  14.340  31.442  1.00  0.00    -0.007 A 
HETATM    9  C11 UNL     1      23.364  14.052  32.902  1.00  0.00     0.018 C 
HETATM   10  C12 UNL     1      24.525  14.245  30.630  1.00  0.00     0.035 C 
HETATM   11  C13 UNL     1      25.223  12.999  30.994  1.00  0.00    -0.015 C 
HETATM   12  C14 UNL     1      26.538  12.941  30.828  1.00  0.00    -0.050 C 
HETATM   13  C15 UNL     1      27.219  11.641  31.211  1.00  0.00     0.046 C 
HETATM   14  C16 UNL     1      27.393  14.002  30.308  1.00  0.00     0.117 C 
ENDROOT
BRANCH   1  15
HETATM   15  O2  UNL     1      26.442  15.470  28.706  1.00  0.00    -0.308 OA
BRANCH  15  16
HETATM   16  C4  UNL     1      26.946  16.492  27.940  1.00  0.00     0.288 C 
HETATM   17  O1  UNL     1      26.129  17.203  27.314  1.00  0.00    -0.260 OA
BRANCH  16  18
HETATM   18  C2  UNL     1      28.374  16.773  27.832  1.00  0.00     0.004 C 
HETATM   19  C1  UNL     1      29.103  16.175  26.924  1.00  0.00     0.024 C 
HETATM   20  C3  UNL     1      29.048  17.737  28.741  1.00  0.00     0.054 C 
ENDBRANCH  16  18
ENDBRANCH  15  16
ENDBRANCH   1  15
BRANCH  14  21
HETATM   21  O5  UNL     1      27.879  13.531  29.057  1.00  0.00    -0.382 OA
ATOM     22  H5  UNL     1      27.202  13.007  28.645  1.00  0.00     0.211 HD
ENDBRANCH  14  21
BRANCH  14  23
HETATM   23  C17 UNL     1      28.617  14.133  31.172  1.00  0.00     0.158 C 
BRANCH  23  24
HETATM   24  C18 UNL     1      29.878  13.821  30.480  1.00  0.00     0.175 C 
HETATM   25  O6  UNL     1      30.404  12.683  30.696  1.00  0.00    -0.648 OA
HETATM   26  O7  UNL     1      30.560  14.640  29.611  1.00  0.00    -0.648 OA
ENDBRANCH  23  24
ENDBRANCH  14  23
TORSDOF 6
ENDMDL
MODEL 3
REMARK VINA RESULT: -6.375650584      2.353      3.854
REMARK  6 active torsions:
REMARK  status: ('A' for Active; 'I' for Inactive)
REMARK    1  A    between atoms: C2_2  and  C4_4 
REMARK    2  A    between atoms: C4_4  and  O2_6 
REMARK    3  A    between atoms: O2_6  and  C5_7 
REMARK    4  A    between atoms: C16_20  and  O5_21 
REMARK    5  A    between atoms: C16_20  and  C17_23 
REMARK    6  A    between atoms: C17_23  and  C18_24 
ROOT
HETATM    1  C5  UNL     1      27.733  16.165  28.827  1.00  0.00     0.185 C 
HETATM    2  C6  UNL     1      27.344  14.743  29.159  1.00  0.00     0.127 C 
HETATM    3  C7  UNL     1      28.498  13.804  29.039  1.00  0.00     0.266 C 
HETATM    4  O3  UNL     1      29.227  13.722  28.018  1.00  0.00    -0.265 OA
HETATM    5  O4  UNL     1      28.710  13.002  30.179  1.00  0.00    -0.315 OA
HETATM    6  C8  UNL     1      27.656  12.282  30.796  1.00  0.00     0.141 A 
HETATM    7  C9  UNL     1      27.096  12.639  32.094  1.00  0.00     0.045 A 
HETATM    8  C10 UNL     1      26.473  13.215  30.899  1.00  0.00    -0.007 A 
HETATM    9  C11 UNL     1      25.196  12.712  30.313  1.00  0.00     0.018 C 
HETATM   10  C12 UNL     1      26.862  14.638  30.567  1.00  0.00     0.035 C 
HETATM   11  C13 UNL     1      25.682  15.501  30.745  1.00  0.00    -0.015 C 
HETATM   12  C14 UNL     1      25.617  16.632  30.054  1.00  0.00    -0.050 C 
HETATM   13  C15 UNL     1      24.388  17.495  30.268  1.00  0.00     0.046 C 
HETATM   14  C16 UNL     1      26.613  17.129  29.112  1.00  0.00     0.117 C 
ENDROOT
BRANCH   1  15
HETATM   15  O2  UNL     1      28.880  16.576  29.543  1.00  0.00    -0.308 OA
BRANCH  15  16
HETATM   16  C4  UNL     1      29.947  17.234  28.983  1.00  0.00     0.288 C 
HETATM   17  O1  UNL     1      30.058  18.458  29.216  1.00  0.00    -0.260 OA
BRANCH  16  18
HETATM   18  C2  UNL     1      30.937  16.569  28.142  1.00  0.00     0.004 C 
HETATM   19  C1  UNL     1      31.981  15.989  28.675  1.00  0.00     0.024 C 
HETATM   20  C3  UNL     1      30.797  16.527  26.663  1.00  0.00     0.054 C 
ENDBRANCH  16  18
ENDBRANCH  15  16
ENDBRANCH   1  15
BRANCH  14  21
HETATM   21  O5  UNL     1      27.161  18.299  29.708  1.00  0.00    -0.382 OA
ATOM     22  H5  UNL     1      26.667  19.053  29.408  1.00  0.00     0.211 HD
ENDBRANCH  14  21
BRANCH  14  23
HETATM   23  C17 UNL     1      25.930  17.617  27.865  1.00  0.00     0.158 C 
BRANCH  23  24
HETATM   24  C18 UNL     1      26.204  19.026  27.541  1.00  0.00     0.175 C 
HETATM   25  O6  UNL     1      25.234  19.847  27.607  1.00  0.00    -0.648 OA
HETATM   26  O7  UNL     1      27.415  19.561  27.167  1.00  0.00    -0.648 OA
ENDBRANCH  23  24
ENDBRANCH  14  23
TORSDOF 6
ENDMDL
MODEL 4
REMARK VINA RESULT: -6.375459140      1.621      6.280
REMARK  6 active torsions:
REMARK  status: ('A' for Active; 'I' for Inactive)
REMARK    1  A    between atoms: C2_2  and  C4_4 
REMARK    2  A    between atoms: C4_4  and  O2_6 
REMARK    3  A    between atoms: O2_6  and  C5_7 
REMARK    4  A    between atoms: C16_20  and  O5_21 
REMARK    5  A    between atoms: C16_20  and  C17_23 
REMARK    6  A    between atoms: C17_23  and  C18_24 
ROOT
HETATM    1  C5  UNL     1      26.968  15.046  29.809  1.00  0.00     0.185 C 
HETATM    2  C6  UNL     1      28.218  14.719  29.026  1.00  0.00     0.127 C 
HETATM    3  C7  UNL     1      28.817  15.932  28.394  1.00  0.00     0.266 C 
HETATM    4  O3  UNL     1      28.170  16.733  27.672  1.00  0.00    -0.265 OA
HETATM    5  O4  UNL     1      30.187  16.110  28.672  1.00  0.00    -0.315 OA
HETATM    6  C8  UNL     1      31.127  15.060  28.519  1.00  0.00     0.141 A 
HETATM    7  C9  UNL     1      31.770  14.392  29.645  1.00  0.00     0.045 A 
HETATM    8  C10 UNL     1      30.520  13.820  29.133  1.00  0.00    -0.007 A 
HETATM    9  C11 UNL     1      30.466  12.619  28.250  1.00  0.00     0.018 C 
HETATM   10  C12 UNL     1      29.270  14.148  29.916  1.00  0.00     0.035 C 
HETATM   11  C13 UNL     1      28.766  12.910  30.536  1.00  0.00    -0.015 C 
HETATM   12  C14 UNL     1      27.472  12.827  30.819  1.00  0.00    -0.050 C 
HETATM   13  C15 UNL     1      26.993  11.539  31.459  1.00  0.00     0.046 C 
HETATM   14  C16 UNL     1      26.466  13.856  30.580  1.00  0.00     0.117 C 
ENDROOT
BRANCH   1  15
HETATM   15  O2  UNL     1      27.178  16.115  30.710  1.00  0.00    -0.308 OA
BRANCH  15  16
HETATM   16  C4  UNL     1      26.661  17.377  30.547  1.00  0.00     0.288 C 
HETATM   17  O1  UNL     1      27.284  18.328  31.070  1.00  0.00    -0.260 OA
BRANCH  16  18
HETATM   18  C2  UNL     1      25.436  17.643  29.801  1.00  0.00     0.004 C 
HETATM   19  C1  UNL     1      24.269  17.343  30.310  1.00  0.00     0.024 C 
HETATM   20  C3  UNL     1      25.467  18.257  28.448  1.00  0.00     0.054 C 
ENDBRANCH  16  18
ENDBRANCH  15  16
ENDBRANCH   1  15
BRANCH  14  21
HETATM   21  O5  UNL     1      26.044  14.292  31.867  1.00  0.00    -0.382 OA
ATOM     22  H5  UNL     1      25.569  13.584  32.287  1.00  0.00     0.211 HD
ENDBRANCH  14  21
BRANCH  14  23
HETATM   23  C17 UNL     1      25.244  13.233  29.964  1.00  0.00     0.158 C 
BRANCH  23  24
HETATM   24  C18 UNL     1      24.037  13.323  30.801  1.00  0.00     0.175 C 
HETATM   25  O6  UNL     1      23.230  14.281  30.574  1.00  0.00    -0.648 OA
HETATM   26  O7  UNL     1      23.680  12.469  31.820  1.00  0.00    -0.648 OA
ENDBRANCH  23  24
ENDBRANCH  14  23
TORSDOF 6
ENDMDL
MODEL 5
REMARK VINA RESULT: -6.341405596      3.447      6.437
REMARK  6 active torsions:
REMARK  status: ('A' for Active; 'I' for Inactive)
REMARK    1  A    between atoms: C2_2  and  C4_4 
REMARK    2  A    between atoms: C4_4  and  O2_6 
REMARK    3  A    between atoms: O2_6  and  C5_7 
REMARK    4  A    between atoms: C16_20  and  O5_21 
REMARK    5  A    between atoms: C16_20  and  C17_23 
REMARK    6  A    between atoms: C17_23  and  C18_24 
ROOT
HETATM    1  C5  UNL     1      28.926  16.979  27.682  1.00  0.00     0.185 C 
HETATM    2  C6  UNL     1      29.492  15.603  27.426  1.00  0.00     0.127 C 
HETATM    3  C7  UNL     1      30.890  15.659  26.905  1.00  0.00     0.266 C 
HETATM    4  O3  UNL     1      31.238  16.353  25.916  1.00  0.00    -0.265 OA
HETATM    5  O4  UNL     1      31.805  14.859  27.620  1.00  0.00    -0.315 OA
HETATM    6  C8  UNL     1      31.535  13.501  27.926  1.00  0.00     0.141 A 
HETATM    7  C9  UNL     1      31.242  13.029  29.275  1.00  0.00     0.045 A 
HETATM    8  C10 UNL     1      30.112  13.428  28.430  1.00  0.00    -0.007 A 
HETATM    9  C11 UNL     1      29.225  12.455  27.728  1.00  0.00     0.018 C 
HETATM   10  C12 UNL     1      29.546  14.806  28.686  1.00  0.00     0.035 C 
HETATM   11  C13 UNL     1      28.185  14.661  29.230  1.00  0.00    -0.015 C 
HETATM   12  C14 UNL     1      27.325  15.655  29.053  1.00  0.00    -0.050 C 
HETATM   13  C15 UNL     1      25.935  15.470  29.631  1.00  0.00     0.046 C 
HETATM   14  C16 UNL     1      27.586  16.913  28.362  1.00  0.00     0.117 C 
ENDROOT
BRANCH   1  15
HETATM   15  O2  UNL     1      29.797  17.767  28.468  1.00  0.00    -0.308 OA
BRANCH  15  16
HETATM   16  C4  UNL     1      30.273  19.000  28.097  1.00  0.00     0.288 C 
HETATM   17  O1  UNL     1      29.464  19.953  28.088  1.00  0.00    -0.260 OA
BRANCH  16  18
HETATM   18  C2  UNL     1      31.664  19.233  27.719  1.00  0.00     0.004 C 
HETATM   19  C1  UNL     1      32.638  18.670  28.388  1.00  0.00     0.024 C 
HETATM   20  C3  UNL     1      32.021  20.109  26.573  1.00  0.00     0.054 C 
ENDBRANCH  16  18
ENDBRANCH  15  16
ENDBRANCH   1  15
BRANCH  14  21
HETATM   21  O5  UNL     1      27.533  17.924  29.362  1.00  0.00    -0.382 OA
ATOM     22  H5  UNL     1      27.027  18.656  29.027  1.00  0.00     0.211 HD
ENDBRANCH  14  21
BRANCH  14  23
HETATM   23  C17 UNL     1      26.444  17.227  27.436  1.00  0.00     0.158 C 
BRANCH  23  24
HETATM   24  C18 UNL     1      25.817  18.536  27.676  1.00  0.00     0.175 C 
HETATM   25  O6  UNL     1      24.687  18.552  28.262  1.00  0.00    -0.648 OA
HETATM   26  O7  UNL     1      26.328  19.766  27.329  1.00  0.00    -0.648 OA
ENDBRANCH  23  24
ENDBRANCH  14  23
TORSDOF 6
ENDMDL
