MODEL 1
REMARK VINA RESULT: -7.558364677      0.000      0.000
REMARK  4 active torsions:
REMARK  status: ('A' for Active; 'I' for Inactive)
REMARK    1  A    between atoms: C2_2  and  C4_4 
REMARK    2  A    between atoms: C4_4  and  C6_6 
REMARK       I    between atoms: C6_6  and  N1_8 
REMARK       I    between atoms: N3_14  and  C10_16 
REMARK       I    between atoms: C10_16  and  N4_18 
REMARK    3  A    between atoms: N4_18  and  S1_20 
REMARK    4  A    between atoms: S1_20  and  C11_23 
ROOT
HETATM    1  C6  UNL     1      23.176  14.834  31.246  1.00  0.00     0.246 C 
HETATM    2  O1  UNL     1      23.192  16.070  31.026  1.00  0.00    -0.272 OA
HETATM    3  N1  UNL     1      24.394  14.111  31.121  1.00  0.00    -0.124 N 
HETATM    4  C7  UNL     1      24.560  12.804  31.326  1.00  0.00     0.136 A 
HETATM    5  C8  UNL     1      25.889  12.524  31.078  1.00  0.00     0.124 A 
HETATM    6  N2  UNL     1      26.471  13.691  30.731  1.00  0.00    -0.200 N 
ATOM      7  H2  UNL     1      27.456  13.795  30.489  1.00  0.00     0.183 HD
HETATM    8  C9  UNL     1      25.584  14.697  30.745  1.00  0.00     0.695 A 
HETATM    9  N3  UNL     1      25.716  15.950  30.488  1.00  0.00    -0.140 N 
ATOM     10  H3  UNL     1      24.898  16.555  30.562  1.00  0.00     0.189 HD
HETATM   11  C10 UNL     1      26.948  16.518  30.108  1.00  0.00     0.348 C 
HETATM   12  O2  UNL     1      28.064  16.104  30.575  1.00  0.00    -0.245 OA
HETATM   13  N4  UNL     1      27.004  17.587  29.178  1.00  0.00    -0.230 N 
ATOM     14  H4  UNL     1      26.142  17.954  28.776  1.00  0.00     0.183 HD
ENDROOT
BRANCH  13  15
HETATM   15  S1  UNL     1      28.507  18.265  28.728  1.00  0.00     0.288 S 
HETATM   16  O3  UNL     1      29.194  18.819  29.937  1.00  0.00    -0.198 OA
HETATM   17  O4  UNL     1      28.342  19.387  27.730  1.00  0.00    -0.198 OA
BRANCH  15  18
HETATM   18  C11 UNL     1      29.528  17.019  27.999  1.00  0.00     0.190 A 
HETATM   19  C12 UNL     1      29.183  16.160  26.979  1.00  0.00     0.053 A 
HETATM   20  C13 UNL     1      30.254  15.338  26.699  1.00  0.00     0.028 A 
HETATM   21  C14 UNL     1      31.241  15.752  27.599  1.00  0.00     0.143 A 
HETATM   22  O5  UNL     1      30.761  16.731  28.328  1.00  0.00    -0.310 OA
ENDBRANCH  15  18
ENDBRANCH  13  15
BRANCH   1  23
HETATM   23  C4  UNL     1      21.886  14.219  31.616  1.00  0.00     0.078 C 
HETATM   24  C5  UNL     1      20.809  14.633  30.638  1.00  0.00     0.020 C 
BRANCH  23  25
HETATM   25  C2  UNL     1      21.575  14.547  33.045  1.00  0.00    -0.010 C 
HETATM   26  C1  UNL     1      20.096  14.533  33.345  1.00  0.00     0.010 C 
HETATM   27  C3  UNL     1      22.223  13.478  33.920  1.00  0.00     0.010 C 
ENDBRANCH  23  25
ENDBRANCH   1  23
TORSDOF 4
ENDMDL
MODEL 2
REMARK VINA RESULT: -6.989036734      3.183      8.256
REMARK  4 active torsions:
REMARK  status: ('A' for Active; 'I' for Inactive)
REMARK    1  A    between atoms: C2_2  and  C4_4 
REMARK    2  A    between atoms: C4_4  and  C6_6 
REMARK       I    between atoms: C6_6  and  N1_8 
REMARK       I    between atoms: N3_14  and  C10_16 
REMARK       I    between atoms: C10_16  and  N4_18 
REMARK    3  A    between atoms: N4_18  and  S1_20 
REMARK    4  A    between atoms: S1_20  and  C11_23 
ROOT
HETATM    1  C6  UNL     1      26.758  16.448  29.683  1.00  0.00     0.246 C 
HETATM    2  O1  UNL     1      25.653  16.971  29.966  1.00  0.00    -0.272 OA
HETATM    3  N1  UNL     1      26.970  15.087  30.035  1.00  0.00    -0.124 N 
HETATM    4  C7  UNL     1      28.072  14.374  29.802  1.00  0.00     0.136 A 
HETATM    5  C8  UNL     1      27.853  13.113  30.322  1.00  0.00     0.124 A 
HETATM    6  N2  UNL     1      26.611  13.125  30.849  1.00  0.00    -0.200 N 
ATOM      7  H2  UNL     1      26.172  12.326  31.306  1.00  0.00     0.183 HD
HETATM    8  C9  UNL     1      26.029  14.323  30.693  1.00  0.00     0.695 A 
HETATM    9  N3  UNL     1      24.869  14.755  31.038  1.00  0.00    -0.140 N 
ATOM     10  H3  UNL     1      24.619  15.720  30.818  1.00  0.00     0.189 HD
HETATM   11  C10 UNL     1      23.931  13.948  31.710  1.00  0.00     0.348 C 
HETATM   12  O2  UNL     1      23.818  12.695  31.478  1.00  0.00    -0.245 OA
HETATM   13  N4  UNL     1      23.058  14.495  32.684  1.00  0.00    -0.230 N 
ATOM     14  H4  UNL     1      23.107  15.489  32.906  1.00  0.00     0.183 HD
ENDROOT
BRANCH  13  15
HETATM   15  S1  UNL     1      21.924  13.502  33.489  1.00  0.00     0.288 S 
HETATM   16  O3  UNL     1      22.107  13.626  34.970  1.00  0.00    -0.198 OA
HETATM   17  O4  UNL     1      22.088  12.047  33.119  1.00  0.00    -0.198 OA
BRANCH  15  18
HETATM   18  C11 UNL     1      20.284  14.003  33.061  1.00  0.00     0.190 A 
HETATM   19  C12 UNL     1      19.185  14.030  33.892  1.00  0.00     0.053 A 
HETATM   20  C13 UNL     1      18.093  14.479  33.181  1.00  0.00     0.028 A 
HETATM   21  C14 UNL     1      18.598  14.714  31.899  1.00  0.00     0.143 A 
HETATM   22  O5  UNL     1      19.876  14.419  31.890  1.00  0.00    -0.310 OA
ENDBRANCH  15  18
ENDBRANCH  13  15
BRANCH   1  23
HETATM   23  C4  UNL     1      27.764  17.291  29.006  1.00  0.00     0.078 C 
HETATM   24  C5  UNL     1      28.525  18.114  30.021  1.00  0.00     0.020 C 
BRANCH  23  25
HETATM   25  C2  UNL     1      27.092  18.101  27.939  1.00  0.00    -0.010 C 
HETATM   26  C1  UNL     1      27.874  19.332  27.553  1.00  0.00     0.010 C 
HETATM   27  C3  UNL     1      26.980  17.229  26.693  1.00  0.00     0.010 C 
ENDBRANCH  23  25
ENDBRANCH   1  23
TORSDOF 4
ENDMDL
MODEL 3
REMARK VINA RESULT: -6.936689792      3.660      5.870
REMARK  4 active torsions:
REMARK  status: ('A' for Active; 'I' for Inactive)
REMARK    1  A    between atoms: C2_2  and  C4_4 
REMARK    2  A    between atoms: C4_4  and  C6_6 
REMARK       I    between atoms: C6_6  and  N1_8 
REMARK       I    between atoms: N3_14  and  C10_16 
REMARK       I    between atoms: C10_16  and  N4_18 
REMARK    3  A    between atoms: N4_18  and  S1_20 
REMARK    4  A    between atoms: S1_20  and  C11_23 
ROOT
HETATM    1  C6  UNL     1      27.572  15.989  29.279  1.00  0.00     0.246 C 
HETATM    2  O1  UNL     1      27.164  17.055  29.804  1.00  0.00    -0.272 OA
HETATM    3  N1  UNL     1      28.586  16.070  28.287  1.00  0.00    -0.124 N 
HETATM    4  C7  UNL     1      29.139  15.045  27.638  1.00  0.00     0.136 A 
HETATM    5  C8  UNL     1      30.061  15.575  26.758  1.00  0.00     0.124 A 
HETATM    6  N2  UNL     1      30.021  16.915  26.920  1.00  0.00    -0.200 N 
ATOM      7  H2  UNL     1      30.598  17.575  26.399  1.00  0.00     0.183 HD
HETATM    8  C9  UNL     1      29.125  17.264  27.854  1.00  0.00     0.695 A 
HETATM    9  N3  UNL     1      28.780  18.414  28.313  1.00  0.00    -0.140 N 
ATOM     10  H3  UNL     1      28.065  18.458  29.040  1.00  0.00     0.189 HD
HETATM   11  C10 UNL     1      29.351  19.615  27.850  1.00  0.00     0.348 C 
HETATM   12  O2  UNL     1      30.578  19.696  27.499  1.00  0.00    -0.245 OA
HETATM   13  N4  UNL     1      28.582  20.801  27.752  1.00  0.00    -0.230 N 
ATOM     14  H4  UNL     1      27.598  20.790  28.020  1.00  0.00     0.183 HD
ENDROOT
BRANCH  13  15
HETATM   15  S1  UNL     1      29.291  22.251  27.189  1.00  0.00     0.288 S 
HETATM   16  O3  UNL     1      28.265  23.341  27.173  1.00  0.00    -0.198 OA
HETATM   17  O4  UNL     1      29.837  22.103  25.789  1.00  0.00    -0.198 OA
BRANCH  15  18
HETATM   18  C11 UNL     1      30.619  22.718  28.258  1.00  0.00     0.190 A 
HETATM   19  C12 UNL     1      30.527  23.066  29.588  1.00  0.00     0.053 A 
HETATM   20  C13 UNL     1      31.785  23.366  30.064  1.00  0.00     0.028 A 
HETATM   21  C14 UNL     1      32.618  23.179  28.957  1.00  0.00     0.143 A 
HETATM   22  O5  UNL     1      31.885  22.803  27.937  1.00  0.00    -0.310 OA
ENDBRANCH  15  18
ENDBRANCH  13  15
BRANCH   1  23
HETATM   23  C4  UNL     1      26.960  14.724  29.733  1.00  0.00     0.078 C 
HETATM   24  C5  UNL     1      25.460  14.881  29.850  1.00  0.00     0.020 C 
BRANCH  23  25
HETATM   25  C2  UNL     1      27.630  14.277  30.996  1.00  0.00    -0.010 C 
HETATM   26  C1  UNL     1      26.722  13.472  31.893  1.00  0.00     0.010 C 
HETATM   27  C3  UNL     1      28.797  13.374  30.610  1.00  0.00     0.010 C 
ENDBRANCH  23  25
ENDBRANCH   1  23
TORSDOF 4
ENDMDL
MODEL 4
REMARK VINA RESULT: -6.825771753      4.476      6.758
REMARK  4 active torsions:
REMARK  status: ('A' for Active; 'I' for Inactive)
REMARK    1  A    between atoms: C2_2  and  C4_4 
REMARK    2  A    between atoms: C4_4  and  C6_6 
REMARK       I    between atoms: C6_6  and  N1_8 
REMARK       I    between atoms: N3_14  and  C10_16 
REMARK       I    between atoms: C10_16  and  N4_18 
REMARK    3  A    between atoms: N4_18  and  S1_20 
REMARK    4  A    between atoms: S1_20  and  C11_23 
ROOT
HETATM    1  C6  UNL     1      28.513  17.031  29.262  1.00  0.00     0.246 C 
HETATM    2  O1  UNL     1      27.769  17.987  29.593  1.00  0.00    -0.272 OA
HETATM    3  N1  UNL     1      29.867  17.313  28.936  1.00  0.00    -0.124 N 
HETATM    4  C7  UNL     1      30.793  16.424  28.576  1.00  0.00     0.136 A 
HETATM    5  C8  UNL     1      31.956  17.128  28.336  1.00  0.00     0.124 A 
HETATM    6  N2  UNL     1      31.674  18.427  28.567  1.00  0.00    -0.200 N 
ATOM      7  H2  UNL     1      32.345  19.189  28.471  1.00  0.00     0.183 HD
HETATM    8  C9  UNL     1      30.396  18.587  28.940  1.00  0.00     0.695 A 
HETATM    9  N3  UNL     1      29.726  19.638  29.254  1.00  0.00    -0.140 N 
ATOM     10  H3  UNL     1      28.746  19.536  29.516  1.00  0.00     0.189 HD
HETATM   11  C10 UNL     1      30.297  20.926  29.250  1.00  0.00     0.348 C 
HETATM   12  O2  UNL     1      31.515  21.135  29.581  1.00  0.00    -0.245 OA
HETATM   13  N4  UNL     1      29.537  22.062  28.874  1.00  0.00    -0.230 N 
ATOM     14  H4  UNL     1      28.561  21.950  28.601  1.00  0.00     0.183 HD
ENDROOT
BRANCH  13  15
HETATM   15  S1  UNL     1      30.244  23.618  28.874  1.00  0.00     0.288 S 
HETATM   16  O3  UNL     1      30.877  23.884  30.205  1.00  0.00    -0.198 OA
HETATM   17  O4  UNL     1      29.223  24.701  28.619  1.00  0.00    -0.198 OA
BRANCH  15  18
HETATM   18  C11 UNL     1      31.480  23.710  27.614  1.00  0.00     0.190 A 
HETATM   19  C12 UNL     1      31.600  22.892  26.512  1.00  0.00     0.053 A 
HETATM   20  C13 UNL     1      32.694  23.288  25.772  1.00  0.00     0.028 A 
HETATM   21  C14 UNL     1      33.210  24.372  26.488  1.00  0.00     0.143 A 
HETATM   22  O5  UNL     1      32.464  24.571  27.547  1.00  0.00    -0.310 OA
ENDBRANCH  15  18
ENDBRANCH  13  15
BRANCH   1  23
HETATM   23  C4  UNL     1      27.921  15.679  29.233  1.00  0.00     0.078 C 
HETATM   24  C5  UNL     1      26.509  15.738  28.693  1.00  0.00     0.020 C 
BRANCH  23  25
HETATM   25  C2  UNL     1      28.031  15.062  30.594  1.00  0.00    -0.010 C 
HETATM   26  C1  UNL     1      26.699  14.628  31.154  1.00  0.00     0.010 C 
HETATM   27  C3  UNL     1      28.897  13.812  30.470  1.00  0.00     0.010 C 
ENDBRANCH  23  25
ENDBRANCH   1  23
TORSDOF 4
ENDMDL
MODEL 5
REMARK VINA RESULT: -6.820241800      4.239      6.734
REMARK  4 active torsions:
REMARK  status: ('A' for Active; 'I' for Inactive)
REMARK    1  A    between atoms: C2_2  and  C4_4 
REMARK    2  A    between atoms: C4_4  and  C6_6 
REMARK       I    between atoms: C6_6  and  N1_8 
REMARK       I    between atoms: N3_14  and  C10_16 
REMARK       I    between atoms: C10_16  and  N4_18 
REMARK    3  A    between atoms: N4_18  and  S1_20 
REMARK    4  A    between atoms: S1_20  and  C11_23 
ROOT
HETATM    1  C6  UNL     1      29.223  15.822  29.402  1.00  0.00     0.246 C 
HETATM    2  O1  UNL     1      30.168  16.108  28.625  1.00  0.00    -0.272 OA
HETATM    3  N1  UNL     1      28.171  16.765  29.560  1.00  0.00    -0.124 N 
HETATM    4  C7  UNL     1      27.093  16.622  30.331  1.00  0.00     0.136 A 
HETATM    5  C8  UNL     1      26.347  17.777  30.198  1.00  0.00     0.124 A 
HETATM    6  N2  UNL     1      27.020  18.573  29.341  1.00  0.00    -0.200 N 
ATOM      7  H2  UNL     1      26.709  19.500  29.050  1.00  0.00     0.183 HD
HETATM    8  C9  UNL     1      28.151  17.988  28.922  1.00  0.00     0.695 A 
HETATM    9  N3  UNL     1      29.067  18.388  28.113  1.00  0.00    -0.140 N 
ATOM     10  H3  UNL     1      29.859  17.774  27.926  1.00  0.00     0.189 HD
HETATM   11  C10 UNL     1      29.015  19.644  27.476  1.00  0.00     0.348 C 
HETATM   12  O2  UNL     1      27.914  20.175  27.101  1.00  0.00    -0.245 OA
HETATM   13  N4  UNL     1      30.198  20.383  27.220  1.00  0.00    -0.230 N 
ATOM     14  H4  UNL     1      31.102  20.004  27.500  1.00  0.00     0.183 HD
ENDROOT
BRANCH  13  15
HETATM   15  S1  UNL     1      30.118  21.905  26.446  1.00  0.00     0.288 S 
HETATM   16  O3  UNL     1      29.291  21.796  25.203  1.00  0.00    -0.198 OA
HETATM   17  O4  UNL     1      31.487  22.409  26.054  1.00  0.00    -0.198 OA
BRANCH  15  18
HETATM   18  C11 UNL     1      29.380  23.088  27.533  1.00  0.00     0.190 A 
HETATM   19  C12 UNL     1      30.035  23.925  28.410  1.00  0.00     0.053 A 
HETATM   20  C13 UNL     1      29.105  24.694  29.078  1.00  0.00     0.028 A 
HETATM   21  C14 UNL     1      27.879  24.270  28.556  1.00  0.00     0.143 A 
HETATM   22  O5  UNL     1      28.102  23.336  27.663  1.00  0.00    -0.310 OA
ENDBRANCH  15  18
ENDBRANCH  13  15
BRANCH   1  23
HETATM   23  C4  UNL     1      29.278  14.522  30.100  1.00  0.00     0.078 C 
HETATM   24  C5  UNL     1      30.714  14.076  30.263  1.00  0.00     0.020 C 
BRANCH  23  25
HETATM   25  C2  UNL     1      28.408  13.538  29.379  1.00  0.00    -0.010 C 
HETATM   26  C1  UNL     1      29.146  12.773  28.308  1.00  0.00     0.010 C 
HETATM   27  C3  UNL     1      27.912  12.519  30.401  1.00  0.00     0.010 C 
ENDBRANCH  23  25
ENDBRANCH   1  23
TORSDOF 4
ENDMDL
