MODEL 1
REMARK VINA RESULT: -6.651622448      0.000      0.000
REMARK  6 active torsions:
REMARK  status: ('A' for Active; 'I' for Inactive)
REMARK    1  A    between atoms: C2_2  and  C3_4 
REMARK    2  A    between atoms: C3_4  and  C4_5 
REMARK    3  A    between atoms: C5_7  and  C6_8 
REMARK    4  A    between atoms: C6_8  and  C7_9 
REMARK    5  A    between atoms: C16_19  and  O4_21 
REMARK    6  A    between atoms: C19_25  and  O6_26 
ROOT
HETATM    1  C4  UNL     1      26.462  15.739  30.499  1.00  0.00     0.166 C 
HETATM    2  O2  UNL     1      26.762  15.250  29.258  1.00  0.00    -0.346 OA
HETATM    3  C5  UNL     1      28.042  15.593  28.847  1.00  0.00     0.065 C 
HETATM    4  C10 UNL     1      28.055  16.983  28.452  1.00  0.00     0.131 C 
HETATM    5  C11 UNL     1      29.404  17.473  28.088  1.00  0.00     0.181 C 
HETATM    6  O3  UNL     1      30.295  17.053  27.440  1.00  0.00    -0.293 OA
HETATM    7  C12 UNL     1      29.431  18.774  28.787  1.00  0.00     0.119 C 
HETATM    8  C13 UNL     1      30.829  19.278  28.857  1.00  0.00     0.055 C 
HETATM    9  C14 UNL     1      28.496  19.659  28.010  1.00  0.00     0.049 C 
HETATM   10  C15 UNL     1      27.311  19.063  27.410  1.00  0.00     0.042 C 
HETATM   11  C16 UNL     1      27.153  17.546  27.410  1.00  0.00     0.078 C 
HETATM   12  C17 UNL     1      25.675  17.307  27.643  1.00  0.00     0.047 C 
HETATM   13  O5  UNL     1      28.928  18.421  30.034  1.00  0.00    -0.363 OA
HETATM   14  C18 UNL     1      27.693  17.805  29.715  1.00  0.00     0.180 C 
HETATM   15  C19 UNL     1      27.151  17.019  30.841  1.00  0.00     0.178 C 
ENDROOT
BRANCH   1  16
HETATM   16  C3  UNL     1      26.836  14.681  31.505  1.00  0.00     0.113 C 
BRANCH  16  17
HETATM   17  C2  UNL     1      26.175  13.387  31.331  1.00  0.00     0.125 C 
HETATM   18  C1  UNL     1      26.967  12.151  31.111  1.00  0.00     0.091 C 
HETATM   19  O1  UNL     1      24.964  13.308  31.364  1.00  0.00    -0.298 OA
ENDBRANCH  16  17
ENDBRANCH   1  16
BRANCH  15  20
HETATM   20  O6  UNL     1      28.169  16.911  31.790  1.00  0.00    -0.390 OA
ATOM     21  H6  UNL     1      28.343  17.701  32.288  1.00  0.00     0.210 HD
ENDBRANCH  15  20
BRANCH   3  22
HETATM   22  C6  UNL     1      28.776  14.515  28.175  1.00  0.00     0.011 C 
BRANCH  22  23
HETATM   23  C7  UNL     1      29.664  13.593  28.886  1.00  0.00     0.002 C 
HETATM   24  C8  UNL     1      30.974  13.456  28.062  1.00  0.00     0.013 C 
HETATM   25  C9  UNL     1      30.115  14.017  30.249  1.00  0.00     0.013 C 
ENDBRANCH  22  23
ENDBRANCH   3  22
BRANCH  11  26
HETATM   26  O4  UNL     1      27.401  17.125  26.114  1.00  0.00    -0.389 OA
ATOM     27  H4  UNL     1      26.743  17.367  25.472  1.00  0.00     0.210 HD
ENDBRANCH  11  26
TORSDOF 6
ENDMDL
MODEL 2
REMARK VINA RESULT: -5.778999888      1.904      5.428
REMARK  6 active torsions:
REMARK  status: ('A' for Active; 'I' for Inactive)
REMARK    1  A    between atoms: C2_2  and  C3_4 
REMARK    2  A    between atoms: C3_4  and  C4_5 
REMARK    3  A    between atoms: C5_7  and  C6_8 
REMARK    4  A    between atoms: C6_8  and  C7_9 
REMARK    5  A    between atoms: C16_19  and  O4_21 
REMARK    6  A    between atoms: C19_25  and  O6_26 
ROOT
HETATM    1  C4  UNL     1      29.946  16.263  26.754  1.00  0.00     0.166 C 
HETATM    2  O2  UNL     1      29.627  17.461  27.330  1.00  0.00    -0.346 OA
HETATM    3  C5  UNL     1      29.424  17.356  28.698  1.00  0.00     0.065 C 
HETATM    4  C10 UNL     1      28.137  16.744  28.939  1.00  0.00     0.131 C 
HETATM    5  C11 UNL     1      27.868  16.497  30.374  1.00  0.00     0.181 C 
HETATM    6  O3  UNL     1      28.003  17.122  31.365  1.00  0.00    -0.293 OA
HETATM    7  C12 UNL     1      27.321  15.126  30.329  1.00  0.00     0.119 C 
HETATM    8  C13 UNL     1      27.319  14.541  31.696  1.00  0.00     0.055 C 
HETATM    9  C14 UNL     1      25.955  15.266  29.717  1.00  0.00     0.049 C 
HETATM   10  C15 UNL     1      25.753  16.275  28.688  1.00  0.00     0.042 C 
HETATM   11  C16 UNL     1      26.859  17.286  28.401  1.00  0.00     0.078 C 
HETATM   12  C17 UNL     1      26.828  17.485  26.900  1.00  0.00     0.047 C 
HETATM   13  O5  UNL     1      28.230  14.501  29.482  1.00  0.00    -0.363 OA
HETATM   14  C18 UNL     1      28.203  15.321  28.328  1.00  0.00     0.180 C 
HETATM   15  C19 UNL     1      29.354  15.073  27.438  1.00  0.00     0.178 C 
ENDROOT
BRANCH   1  16
HETATM   16  C3  UNL     1      31.448  16.147  26.751  1.00  0.00     0.113 C 
BRANCH  16  17
HETATM   17  C2  UNL     1      32.112  16.625  25.538  1.00  0.00     0.125 C 
HETATM   18  C1  UNL     1      32.737  17.971  25.493  1.00  0.00     0.091 C 
HETATM   19  O1  UNL     1      32.160  15.925  24.548  1.00  0.00    -0.298 OA
ENDBRANCH  16  17
ENDBRANCH   1  16
BRANCH  15  20
HETATM   20  O6  UNL     1      30.260  14.287  28.152  1.00  0.00    -0.390 OA
ATOM     21  H6  UNL     1      30.083  13.354  28.140  1.00  0.00     0.210 HD
ENDBRANCH  15  20
BRANCH   3  22
HETATM   22  C6  UNL     1      30.002  18.450  29.486  1.00  0.00     0.011 C 
BRANCH  22  23
HETATM   23  C7  UNL     1      31.016  19.364  28.955  1.00  0.00     0.002 C 
HETATM   24  C8  UNL     1      30.524  20.818  29.192  1.00  0.00     0.013 C 
HETATM   25  C9  UNL     1      32.366  19.309  29.597  1.00  0.00     0.013 C 
ENDBRANCH  22  23
ENDBRANCH   3  22
BRANCH  11  26
HETATM   26  O4  UNL     1      26.443  18.489  28.948  1.00  0.00    -0.389 OA
ATOM     27  H4  UNL     1      25.899  19.028  28.385  1.00  0.00     0.210 HD
ENDBRANCH  11  26
TORSDOF 6
ENDMDL
MODEL 3
REMARK VINA RESULT: -5.719091106      4.172      6.709
REMARK  6 active torsions:
REMARK  status: ('A' for Active; 'I' for Inactive)
REMARK    1  A    between atoms: C2_2  and  C3_4 
REMARK    2  A    between atoms: C3_4  and  C4_5 
REMARK    3  A    between atoms: C5_7  and  C6_8 
REMARK    4  A    between atoms: C6_8  and  C7_9 
REMARK    5  A    between atoms: C16_19  and  O4_21 
REMARK    6  A    between atoms: C19_25  and  O6_26 
ROOT
HETATM    1  C4  UNL     1      30.961  19.044  27.420  1.00  0.00     0.166 C 
HETATM    2  O2  UNL     1      31.704  19.922  26.682  1.00  0.00    -0.346 OA
HETATM    3  C5  UNL     1      32.429  20.800  27.473  1.00  0.00     0.065 C 
HETATM    4  C10 UNL     1      31.535  21.800  28.010  1.00  0.00     0.131 C 
HETATM    5  C11 UNL     1      32.199  22.731  28.952  1.00  0.00     0.181 C 
HETATM    6  O3  UNL     1      33.217  23.325  28.954  1.00  0.00    -0.293 OA
HETATM    7  C12 UNL     1      31.206  22.788  30.043  1.00  0.00     0.119 C 
HETATM    8  C13 UNL     1      31.826  23.382  31.257  1.00  0.00     0.055 C 
HETATM    9  C14 UNL     1      30.055  23.582  29.489  1.00  0.00     0.049 C 
HETATM   10  C15 UNL     1      29.730  23.444  28.077  1.00  0.00     0.042 C 
HETATM   11  C16 UNL     1      30.672  22.668  27.163  1.00  0.00     0.078 C 
HETATM   12  C17 UNL     1      29.764  21.928  26.202  1.00  0.00     0.047 C 
HETATM   13  O5  UNL     1      30.902  21.440  30.203  1.00  0.00    -0.363 OA
HETATM   14  C18 UNL     1      30.513  21.046  28.900  1.00  0.00     0.180 C 
HETATM   15  C19 UNL     1      30.502  19.579  28.737  1.00  0.00     0.178 C 
ENDROOT
BRANCH   1  16
HETATM   16  C3  UNL     1      31.802  17.813  27.641  1.00  0.00     0.113 C 
BRANCH  16  17
HETATM   17  C2  UNL     1      31.064  16.550  27.690  1.00  0.00     0.125 C 
HETATM   18  C1  UNL     1      30.692  15.837  26.443  1.00  0.00     0.091 C 
HETATM   19  O1  UNL     1      30.745  16.067  28.757  1.00  0.00    -0.298 OA
ENDBRANCH  16  17
ENDBRANCH   1  16
BRANCH  15  20
HETATM   20  O6  UNL     1      31.145  19.041  29.853  1.00  0.00    -0.390 OA
ATOM     21  H6  UNL     1      31.671  18.269  29.683  1.00  0.00     0.210 HD
ENDBRANCH  15  20
BRANCH   3  22
HETATM   22  C6  UNL     1      33.798  21.052  27.008  1.00  0.00     0.011 C 
BRANCH  22  23
HETATM   23  C7  UNL     1      34.104  21.545  25.664  1.00  0.00     0.002 C 
HETATM   24  C8  UNL     1      34.830  22.912  25.807  1.00  0.00     0.013 C 
HETATM   25  C9  UNL     1      35.029  20.707  24.838  1.00  0.00     0.013 C 
ENDBRANCH  22  23
ENDBRANCH   3  22
BRANCH  11  26
HETATM   26  O4  UNL     1      31.340  23.609  26.397  1.00  0.00    -0.389 OA
ATOM     27  H4  UNL     1      30.787  24.212  25.914  1.00  0.00     0.210 HD
ENDBRANCH  11  26
TORSDOF 6
ENDMDL
MODEL 4
REMARK VINA RESULT: -5.506658736      2.056      4.653
REMARK  6 active torsions:
REMARK  status: ('A' for Active; 'I' for Inactive)
REMARK    1  A    between atoms: C2_2  and  C3_4 
REMARK    2  A    between atoms: C3_4  and  C4_5 
REMARK    3  A    between atoms: C5_7  and  C6_8 
REMARK    4  A    between atoms: C6_8  and  C7_9 
REMARK    5  A    between atoms: C16_19  and  O4_21 
REMARK    6  A    between atoms: C19_25  and  O6_26 
ROOT
HETATM    1  C4  UNL     1      28.546  16.878  28.456  1.00  0.00     0.166 C 
HETATM    2  O2  UNL     1      28.106  15.640  28.830  1.00  0.00    -0.346 OA
HETATM    3  C5  UNL     1      28.908  15.063  29.804  1.00  0.00     0.065 C 
HETATM    4  C10 UNL     1      30.130  14.593  29.193  1.00  0.00     0.131 C 
HETATM    5  C11 UNL     1      31.099  14.048  30.171  1.00  0.00     0.181 C 
HETATM    6  O3  UNL     1      31.026  13.324  31.099  1.00  0.00    -0.293 OA
HETATM    7  C12 UNL     1      32.355  14.666  29.701  1.00  0.00     0.119 C 
HETATM    8  C13 UNL     1      33.400  14.543  30.752  1.00  0.00     0.055 C 
HETATM    9  C14 UNL     1      32.688  13.956  28.417  1.00  0.00     0.049 C 
HETATM   10  C15 UNL     1      31.597  13.533  27.552  1.00  0.00     0.042 C 
HETATM   11  C16 UNL     1      30.160  13.635  28.054  1.00  0.00     0.078 C 
HETATM   12  C17 UNL     1      29.351  14.052  26.842  1.00  0.00     0.047 C 
HETATM   13  O5  UNL     1      31.951  15.981  29.500  1.00  0.00    -0.363 OA
HETATM   14  C18 UNL     1      30.848  15.843  28.622  1.00  0.00     0.180 C 
HETATM   15  C19 UNL     1      30.024  17.066  28.561  1.00  0.00     0.178 C 
ENDROOT
BRANCH   1  16
HETATM   16  C3  UNL     1      27.846  17.890  29.325  1.00  0.00     0.113 C 
BRANCH  16  17
HETATM   17  C2  UNL     1      26.405  18.021  29.101  1.00  0.00     0.125 C 
HETATM   18  C1  UNL     1      25.431  17.398  30.032  1.00  0.00     0.091 C 
HETATM   19  O1  UNL     1      25.987  18.643  28.147  1.00  0.00    -0.298 OA
ENDBRANCH  16  17
ENDBRANCH   1  16
BRANCH  15  20
HETATM   20  O6  UNL     1      30.444  17.894  29.603  1.00  0.00    -0.390 OA
ATOM     21  H6  UNL     1      31.007  17.479  30.247  1.00  0.00     0.210 HD
ENDBRANCH  15  20
BRANCH   3  22
HETATM   22  C6  UNL     1      28.173  14.370  30.868  1.00  0.00     0.011 C 
BRANCH  22  23
HETATM   23  C7  UNL     1      27.048  13.471  30.601  1.00  0.00     0.002 C 
HETATM   24  C8  UNL     1      27.460  12.040  31.046  1.00  0.00     0.013 C 
HETATM   25  C9  UNL     1      25.779  13.749  31.344  1.00  0.00     0.013 C 
ENDBRANCH  22  23
ENDBRANCH   3  22
BRANCH  11  26
HETATM   26  O4  UNL     1      29.754  12.344  28.348  1.00  0.00    -0.389 OA
ATOM     27  H4  UNL     1      30.392  11.807  28.804  1.00  0.00     0.210 HD
ENDBRANCH  11  26
TORSDOF 6
ENDMDL
MODEL 5
REMARK VINA RESULT: -5.440085529      3.085      5.911
REMARK  6 active torsions:
REMARK  status: ('A' for Active; 'I' for Inactive)
REMARK    1  A    between atoms: C2_2  and  C3_4 
REMARK    2  A    between atoms: C3_4  and  C4_5 
REMARK    3  A    between atoms: C5_7  and  C6_8 
REMARK    4  A    between atoms: C6_8  and  C7_9 
REMARK    5  A    between atoms: C16_19  and  O4_21 
REMARK    6  A    between atoms: C19_25  and  O6_26 
ROOT
HETATM    1  C4  UNL     1      30.359  13.104  30.047  1.00  0.00     0.166 C 
HETATM    2  O2  UNL     1      30.753  14.411  30.128  1.00  0.00    -0.346 OA
HETATM    3  C5  UNL     1      31.373  14.852  28.969  1.00  0.00     0.065 C 
HETATM    4  C10 UNL     1      32.712  14.311  28.915  1.00  0.00     0.131 C 
HETATM    5  C11 UNL     1      33.427  14.645  27.661  1.00  0.00     0.181 C 
HETATM    6  O3  UNL     1      33.559  15.622  27.015  1.00  0.00    -0.293 OA
HETATM    7  C12 UNL     1      34.030  13.341  27.322  1.00  0.00     0.119 C 
HETATM    8  C13 UNL     1      34.496  13.354  25.910  1.00  0.00     0.055 C 
HETATM    9  C14 UNL     1      35.129  13.140  28.330  1.00  0.00     0.049 C 
HETATM   10  C15 UNL     1      34.931  13.637  29.683  1.00  0.00     0.042 C 
HETATM   11  C16 UNL     1      33.721  14.513  29.991  1.00  0.00     0.078 C 
HETATM   12  C17 UNL     1      33.274  14.091  31.377  1.00  0.00     0.047 C 
HETATM   13  O5  UNL     1      32.953  12.485  27.522  1.00  0.00    -0.363 OA
HETATM   14  C18 UNL     1      32.565  12.769  28.853  1.00  0.00     0.180 C 
HETATM   15  C19 UNL     1      31.216  12.256  29.166  1.00  0.00     0.178 C 
ENDROOT
BRANCH   1  16
HETATM   16  C3  UNL     1      28.942  13.088  29.538  1.00  0.00     0.113 C 
BRANCH  16  17
HETATM   17  C2  UNL     1      27.905  13.035  30.570  1.00  0.00     0.125 C 
HETATM   18  C1  UNL     1      27.305  14.280  31.110  1.00  0.00     0.091 C 
HETATM   19  O1  UNL     1      27.521  11.967  30.998  1.00  0.00    -0.298 OA
ENDBRANCH  16  17
ENDBRANCH   1  16
BRANCH  15  20
HETATM   20  O6  UNL     1      30.633  11.879  27.955  1.00  0.00    -0.390 OA
ATOM     21  H6  UNL     1      30.279  10.998  27.934  1.00  0.00     0.210 HD
ENDBRANCH  15  20
BRANCH   3  22
HETATM   22  C6  UNL     1      30.989  16.203  28.547  1.00  0.00     0.011 C 
BRANCH  22  23
HETATM   23  C7  UNL     1      29.925  16.461  27.575  1.00  0.00     0.002 C 
HETATM   24  C8  UNL     1      29.892  15.274  26.572  1.00  0.00     0.013 C 
HETATM   25  C9  UNL     1      28.531  16.542  28.114  1.00  0.00     0.013 C 
ENDBRANCH  22  23
ENDBRANCH   3  22
BRANCH  11  26
HETATM   26  O4  UNL     1      34.197  15.806  30.130  1.00  0.00    -0.389 OA
ATOM     27  H4  UNL     1      34.047  16.210  30.976  1.00  0.00     0.210 HD
ENDBRANCH  11  26
TORSDOF 6
ENDMDL
