MODEL 1
REMARK VINA RESULT: -8.884788692      0.000      0.000
REMARK  7 active torsions:
REMARK  status: ('A' for Active; 'I' for Inactive)
REMARK    1  A    between atoms: N1_8  and  C6_9 
REMARK    2  A    between atoms: C6_9  and  C7_10 
REMARK       I    between atoms: C7_10  and  N2_12 
REMARK    3  A    between atoms: N2_12  and  C8_14 
REMARK    4  A    between atoms: C11_18  and  C12_19 
REMARK       I    between atoms: C12_19  and  N3_21 
REMARK    5  A    between atoms: N3_21  and  C13_23 
REMARK    6  A    between atoms: C13_23  and  C14_24 
REMARK    7  A    between atoms: C14_24  and  C15_25 
ROOT
HETATM    1  C8  UNL     1      18.994  15.764  63.108  1.00  0.00     0.165 A 
HETATM    2  O4  UNL     1      20.203  15.225  63.046  1.00  0.00    -0.305 OA
HETATM    3  C9  UNL     1      20.169  13.936  63.039  1.00  0.00     0.145 A 
HETATM    4  C10 UNL     1      18.864  13.561  63.100  1.00  0.00     0.046 A 
HETATM    5  C11 UNL     1      18.107  14.737  63.144  1.00  0.00     0.085 A 
ENDROOT
BRANCH   1   6
HETATM    6  N2  UNL     1      18.697  17.161  63.133  1.00  0.00    -0.305 N 
HETATM    7  C7  UNL     1      18.670  17.857  61.902  1.00  0.00     0.241 C 
HETATM    8  O3  UNL     1      18.897  17.241  60.842  1.00  0.00    -0.271 OA
ATOM      9  H2  UNL     1      18.510  17.643  64.012  1.00  0.00     0.171 HD
BRANCH   7  10
HETATM   10  C6  UNL     1      18.375  19.304  61.902  1.00  0.00     0.220 C 
BRANCH  10  11
HETATM   11  N1  UNL     1      19.308  20.012  61.104  1.00  0.00    -0.400 N 
HETATM   12  C5  UNL     1      18.797  20.867  60.097  1.00  0.00     0.151 C 
HETATM   13  C4  UNL     1      19.884  21.862  59.750  1.00  0.00     0.164 C 
HETATM   14  O2  UNL     1      19.403  23.176  59.743  1.00  0.00    -0.309 OA
HETATM   15  C22 UNL     1      20.883  21.760  60.880  1.00  0.00     0.032 C 
HETATM   16  C3  UNL     1      19.823  23.845  60.856  1.00  0.00     0.289 C 
HETATM   17  C2  UNL     1      20.883  23.077  61.520  1.00  0.00     0.020 C 
HETATM   18  O1  UNL     1      19.398  24.939  61.276  1.00  0.00    -0.260 OA
HETATM   19  C1  UNL     1      21.676  23.478  62.490  1.00  0.00     0.026 C 
HETATM   20  C21 UNL     1      20.384  20.650  61.779  1.00  0.00     0.134 C 
HETATM   21  C23 UNL     1      22.259  21.383  60.377  1.00  0.00     0.025 C 
ENDBRANCH  10  11
ENDBRANCH   7  10
ENDBRANCH   1   6
BRANCH   5  22
HETATM   22  C12 UNL     1      16.655  14.800  63.204  1.00  0.00     0.256 C 
HETATM   23  O5  UNL     1      15.972  15.750  62.758  1.00  0.00    -0.268 OA
HETATM   24  N3  UNL     1      15.904  13.725  63.803  1.00  0.00    -0.356 N 
ATOM     25  H3  UNL     1      16.397  12.921  64.192  1.00  0.00     0.162 HD
BRANCH  24  26
HETATM   26  C13 UNL     1      14.460  13.774  63.860  1.00  0.00     0.127 C 
BRANCH  26  27
HETATM   27  C14 UNL     1      14.084  14.171  65.256  1.00  0.00     0.053 C 
BRANCH  27  28
HETATM   28  C15 UNL     1      12.660  14.525  65.438  1.00  0.00    -0.082 C 
HETATM   29  C16 UNL     1      11.850  13.990  66.307  1.00  0.00    -0.024 C 
HETATM   30  C17 UNL     1      10.418  14.351  66.486  1.00  0.00     0.027 C 
HETATM   31  C18 UNL     1       9.865  15.227  65.414  1.00  0.00     0.004 C 
HETATM   32  C19 UNL     1      10.713  15.207  64.151  1.00  0.00     0.005 C 
HETATM   33  C20 UNL     1      12.135  15.597  64.530  1.00  0.00     0.034 C 
ENDBRANCH  27  28
ENDBRANCH  26  27
ENDBRANCH  24  26
ENDBRANCH   5  22
TORSDOF 7
ENDMDL
MODEL 2
REMARK VINA RESULT: -8.749676314      1.999      2.877
REMARK  7 active torsions:
REMARK  status: ('A' for Active; 'I' for Inactive)
REMARK    1  A    between atoms: N1_8  and  C6_9 
REMARK    2  A    between atoms: C6_9  and  C7_10 
REMARK       I    between atoms: C7_10  and  N2_12 
REMARK    3  A    between atoms: N2_12  and  C8_14 
REMARK    4  A    between atoms: C11_18  and  C12_19 
REMARK       I    between atoms: C12_19  and  N3_21 
REMARK    5  A    between atoms: N3_21  and  C13_23 
REMARK    6  A    between atoms: C13_23  and  C14_24 
REMARK    7  A    between atoms: C14_24  and  C15_25 
ROOT
HETATM    1  C8  UNL     1      19.658  13.933  63.047  1.00  0.00     0.165 A 
HETATM    2  O4  UNL     1      20.520  12.949  63.261  1.00  0.00    -0.305 OA
HETATM    3  C9  UNL     1      19.971  11.923  63.816  1.00  0.00     0.145 A 
HETATM    4  C10 UNL     1      18.655  12.210  63.996  1.00  0.00     0.046 A 
HETATM    5  C11 UNL     1      18.452  13.504  63.501  1.00  0.00     0.085 A 
ENDROOT
BRANCH   1   6
HETATM    6  N2  UNL     1      19.955  15.197  62.451  1.00  0.00    -0.305 N 
HETATM    7  C7  UNL     1      20.083  15.255  61.044  1.00  0.00     0.241 C 
HETATM    8  O3  UNL     1      19.930  14.218  60.369  1.00  0.00    -0.271 OA
ATOM      9  H2  UNL     1      20.072  16.033  63.024  1.00  0.00     0.171 HD
BRANCH   7  10
HETATM   10  C6  UNL     1      20.400  16.548  60.406  1.00  0.00     0.220 C 
BRANCH  10  11
HETATM   11  N1  UNL     1      19.745  17.615  61.070  1.00  0.00    -0.400 N 
HETATM   12  C5  UNL     1      20.402  18.870  61.104  1.00  0.00     0.151 C 
HETATM   13  C4  UNL     1      19.351  19.925  61.376  1.00  0.00     0.164 C 
HETATM   14  O2  UNL     1      19.447  20.998  60.481  1.00  0.00    -0.309 OA
HETATM   15  C22 UNL     1      18.029  19.240  61.111  1.00  0.00     0.032 C 
HETATM   16  C3  UNL     1      18.446  20.938  59.555  1.00  0.00     0.289 C 
HETATM   17  C2  UNL     1      17.433  19.968  59.988  1.00  0.00     0.020 C 
HETATM   18  O1  UNL     1      18.368  21.590  58.495  1.00  0.00    -0.260 OA
HETATM   19  C1  UNL     1      16.233  19.781  59.481  1.00  0.00     0.026 C 
HETATM   20  C21 UNL     1      18.363  17.800  60.790  1.00  0.00     0.134 C 
HETATM   21  C23 UNL     1      17.134  19.262  62.329  1.00  0.00     0.025 C 
ENDBRANCH  10  11
ENDBRANCH   7  10
ENDBRANCH   1   6
BRANCH   5  22
HETATM   22  C12 UNL     1      17.179  14.208  63.486  1.00  0.00     0.256 C 
HETATM   23  O5  UNL     1      17.035  15.394  63.112  1.00  0.00    -0.268 OA
HETATM   24  N3  UNL     1      15.975  13.543  63.917  1.00  0.00    -0.356 N 
ATOM     25  H3  UNL     1      16.020  12.576  64.239  1.00  0.00     0.162 HD
BRANCH  24  26
HETATM   26  C13 UNL     1      14.703  14.231  63.896  1.00  0.00     0.127 C 
BRANCH  26  27
HETATM   27  C14 UNL     1      14.161  14.203  65.295  1.00  0.00     0.053 C 
BRANCH  27  28
HETATM   28  C15 UNL     1      12.728  14.549  65.411  1.00  0.00    -0.082 C 
HETATM   29  C16 UNL     1      11.892  14.042  66.272  1.00  0.00    -0.024 C 
HETATM   30  C17 UNL     1      10.452  14.395  66.385  1.00  0.00     0.027 C 
HETATM   31  C18 UNL     1       9.930  15.221  65.259  1.00  0.00     0.004 C 
HETATM   32  C19 UNL     1      10.823  15.158  64.029  1.00  0.00     0.005 C 
HETATM   33  C20 UNL     1      12.227  15.578  64.442  1.00  0.00     0.034 C 
ENDBRANCH  27  28
ENDBRANCH  26  27
ENDBRANCH  24  26
ENDBRANCH   5  22
TORSDOF 7
ENDMDL
MODEL 3
REMARK VINA RESULT: -8.717391809      1.824      2.659
REMARK  7 active torsions:
REMARK  status: ('A' for Active; 'I' for Inactive)
REMARK    1  A    between atoms: N1_8  and  C6_9 
REMARK    2  A    between atoms: C6_9  and  C7_10 
REMARK       I    between atoms: C7_10  and  N2_12 
REMARK    3  A    between atoms: N2_12  and  C8_14 
REMARK    4  A    between atoms: C11_18  and  C12_19 
REMARK       I    between atoms: C12_19  and  N3_21 
REMARK    5  A    between atoms: N3_21  and  C13_23 
REMARK    6  A    between atoms: C13_23  and  C14_24 
REMARK    7  A    between atoms: C14_24  and  C15_25 
ROOT
HETATM    1  C8  UNL     1      16.040  15.921  63.011  1.00  0.00     0.165 A 
HETATM    2  O4  UNL     1      17.020  15.033  62.910  1.00  0.00    -0.305 OA
HETATM    3  C9  UNL     1      16.601  13.820  63.034  1.00  0.00     0.145 A 
HETATM    4  C10 UNL     1      15.258  13.868  63.230  1.00  0.00     0.046 A 
HETATM    5  C11 UNL     1      14.895  15.220  63.215  1.00  0.00     0.085 A 
ENDROOT
BRANCH   1   6
HETATM    6  N2  UNL     1      16.178  17.340  62.919  1.00  0.00    -0.305 N 
HETATM    7  C7  UNL     1      16.759  17.877  61.747  1.00  0.00     0.241 C 
HETATM    8  O3  UNL     1      17.124  17.110  60.834  1.00  0.00    -0.271 OA
ATOM      9  H2  UNL     1      15.867  17.948  63.678  1.00  0.00     0.171 HD
BRANCH   7  10
HETATM   10  C6  UNL     1      16.921  19.340  61.633  1.00  0.00     0.220 C 
BRANCH  10  11
HETATM   11  N1  UNL     1      18.046  19.664  60.834  1.00  0.00    -0.400 N 
HETATM   12  C5  UNL     1      17.853  20.573  59.765  1.00  0.00     0.151 C 
HETATM   13  C4  UNL     1      19.207  21.149  59.408  1.00  0.00     0.164 C 
HETATM   14  O2  UNL     1      19.171  22.545  59.313  1.00  0.00    -0.309 OA
HETATM   15  C22 UNL     1      20.100  20.805  60.579  1.00  0.00     0.032 C 
HETATM   16  C3  UNL     1      19.761  23.114  60.405  1.00  0.00     0.289 C 
HETATM   17  C2  UNL     1      20.508  22.092  61.148  1.00  0.00     0.020 C 
HETATM   18  O1  UNL     1      19.699  24.310  60.750  1.00  0.00    -0.260 OA
HETATM   19  C1  UNL     1      21.369  22.280  62.125  1.00  0.00     0.026 C 
HETATM   20  C21 UNL     1      19.256  19.969  61.516  1.00  0.00     0.134 C 
HETATM   21  C23 UNL     1      21.294  19.982  60.149  1.00  0.00     0.025 C 
ENDBRANCH  10  11
ENDBRANCH   7  10
ENDBRANCH   1   6
BRANCH   5  22
HETATM   22  C12 UNL     1      13.543  15.729  63.379  1.00  0.00     0.256 C 
HETATM   23  O5  UNL     1      13.090  16.732  62.782  1.00  0.00    -0.268 OA
HETATM   24  N3  UNL     1      12.621  15.073  64.273  1.00  0.00    -0.356 N 
ATOM     25  H3  UNL     1      12.925  14.251  64.797  1.00  0.00     0.162 HD
BRANCH  24  26
HETATM   26  C13 UNL     1      11.272  15.566  64.436  1.00  0.00     0.127 C 
BRANCH  26  27
HETATM   27  C14 UNL     1      10.652  14.798  65.566  1.00  0.00     0.053 C 
BRANCH  27  28
HETATM   28  C15 UNL     1       9.174  14.773  65.562  1.00  0.00    -0.082 C 
HETATM   29  C16 UNL     1       8.429  13.873  66.139  1.00  0.00    -0.024 C 
HETATM   30  C17 UNL     1       6.942  13.854  66.132  1.00  0.00     0.027 C 
HETATM   31  C18 UNL     1       6.317  14.826  65.189  1.00  0.00     0.004 C 
HETATM   32  C19 UNL     1       7.289  15.308  64.124  1.00  0.00     0.005 C 
HETATM   33  C20 UNL     1       8.507  15.895  64.825  1.00  0.00     0.034 C 
ENDBRANCH  27  28
ENDBRANCH  26  27
ENDBRANCH  24  26
ENDBRANCH   5  22
TORSDOF 7
ENDMDL
MODEL 4
REMARK VINA RESULT: -8.655016302      3.155      6.445
REMARK  7 active torsions:
REMARK  status: ('A' for Active; 'I' for Inactive)
REMARK    1  A    between atoms: N1_8  and  C6_9 
REMARK    2  A    between atoms: C6_9  and  C7_10 
REMARK       I    between atoms: C7_10  and  N2_12 
REMARK    3  A    between atoms: N2_12  and  C8_14 
REMARK    4  A    between atoms: C11_18  and  C12_19 
REMARK       I    between atoms: C12_19  and  N3_21 
REMARK    5  A    between atoms: N3_21  and  C13_23 
REMARK    6  A    between atoms: C13_23  and  C14_24 
REMARK    7  A    between atoms: C14_24  and  C15_25 
ROOT
HETATM    1  C8  UNL     1      17.393  18.349  59.963  1.00  0.00     0.165 A 
HETATM    2  O4  UNL     1      17.140  19.314  59.089  1.00  0.00    -0.305 OA
HETATM    3  C9  UNL     1      16.027  19.918  59.329  1.00  0.00     0.145 A 
HETATM    4  C10 UNL     1      15.477  19.342  60.430  1.00  0.00     0.046 A 
HETATM    5  C11 UNL     1      16.356  18.332  60.839  1.00  0.00     0.085 A 
ENDROOT
BRANCH   1   6
HETATM    6  N2  UNL     1      18.541  17.499  59.967  1.00  0.00    -0.305 N 
HETATM    7  C7  UNL     1      19.660  17.898  60.734  1.00  0.00     0.241 C 
HETATM    8  O3  UNL     1      19.615  18.962  61.382  1.00  0.00    -0.271 OA
ATOM      9  H2  UNL     1      18.553  16.630  59.433  1.00  0.00     0.171 HD
BRANCH   7  10
HETATM   10  C6  UNL     1      20.862  17.041  60.748  1.00  0.00     0.220 C 
BRANCH  10  11
HETATM   11  N1  UNL     1      20.538  15.717  61.138  1.00  0.00    -0.400 N 
HETATM   12  C5  UNL     1      20.357  14.756  60.114  1.00  0.00     0.151 C 
HETATM   13  C4  UNL     1      20.535  13.388  60.738  1.00  0.00     0.164 C 
HETATM   14  O2  UNL     1      21.407  12.586  59.992  1.00  0.00    -0.309 OA
HETATM   15  C22 UNL     1      21.201  13.649  62.070  1.00  0.00     0.032 C 
HETATM   16  C3  UNL     1      22.618  12.490  60.614  1.00  0.00     0.289 C 
HETATM   17  C2  UNL     1      22.505  12.987  61.990  1.00  0.00     0.020 C 
HETATM   18  O1  UNL     1      23.678  12.053  60.123  1.00  0.00    -0.260 OA
HETATM   19  C1  UNL     1      23.386  12.869  62.961  1.00  0.00     0.026 C 
HETATM   20  C21 UNL     1      21.293  15.154  62.202  1.00  0.00     0.134 C 
HETATM   21  C23 UNL     1      20.375  13.119  63.221  1.00  0.00     0.025 C 
ENDBRANCH  10  11
ENDBRANCH   7  10
ENDBRANCH   1   6
BRANCH   5  22
HETATM   22  C12 UNL     1      16.163  17.465  61.991  1.00  0.00     0.256 C 
HETATM   23  O5  UNL     1      15.555  17.803  63.033  1.00  0.00    -0.268 OA
HETATM   24  N3  UNL     1      16.682  16.120  61.985  1.00  0.00    -0.356 N 
ATOM     25  H3  UNL     1      17.192  15.780  61.170  1.00  0.00     0.162 HD
BRANCH  24  26
HETATM   26  C13 UNL     1      16.487  15.248  63.122  1.00  0.00     0.127 C 
BRANCH  26  27
HETATM   27  C14 UNL     1      15.369  14.310  62.774  1.00  0.00     0.053 C 
BRANCH  27  28
HETATM   28  C15 UNL     1      14.132  14.501  63.562  1.00  0.00    -0.082 C 
HETATM   29  C16 UNL     1      13.122  15.249  63.219  1.00  0.00    -0.024 C 
HETATM   30  C17 UNL     1      11.881  15.436  64.016  1.00  0.00     0.027 C 
HETATM   31  C18 UNL     1      11.948  14.890  65.402  1.00  0.00     0.004 C 
HETATM   32  C19 UNL     1      13.378  14.663  65.867  1.00  0.00     0.005 C 
HETATM   33  C20 UNL     1      14.066  13.752  64.860  1.00  0.00     0.034 C 
ENDBRANCH  27  28
ENDBRANCH  26  27
ENDBRANCH  24  26
ENDBRANCH   5  22
TORSDOF 7
ENDMDL
MODEL 5
REMARK VINA RESULT: -8.639800058      3.537      6.430
REMARK  7 active torsions:
REMARK  status: ('A' for Active; 'I' for Inactive)
REMARK    1  A    between atoms: N1_8  and  C6_9 
REMARK    2  A    between atoms: C6_9  and  C7_10 
REMARK       I    between atoms: C7_10  and  N2_12 
REMARK    3  A    between atoms: N2_12  and  C8_14 
REMARK    4  A    between atoms: C11_18  and  C12_19 
REMARK       I    between atoms: C12_19  and  N3_21 
REMARK    5  A    between atoms: N3_21  and  C13_23 
REMARK    6  A    between atoms: C13_23  and  C14_24 
REMARK    7  A    between atoms: C14_24  and  C15_25 
ROOT
HETATM    1  C8  UNL     1      15.990  19.336  60.830  1.00  0.00     0.165 A 
HETATM    2  O4  UNL     1      15.441  20.202  59.990  1.00  0.00    -0.305 OA
HETATM    3  C9  UNL     1      14.152  20.152  60.002  1.00  0.00     0.145 A 
HETATM    4  C10 UNL     1      13.788  19.200  60.900  1.00  0.00     0.046 A 
HETATM    5  C11 UNL     1      14.970  18.675  61.434  1.00  0.00     0.085 A 
ENDROOT
BRANCH   1   6
HETATM    6  N2  UNL     1      17.389  19.148  61.048  1.00  0.00    -0.305 N 
HETATM    7  C7  UNL     1      18.042  18.124  60.322  1.00  0.00     0.241 C 
HETATM    8  O3  UNL     1      17.391  17.427  59.519  1.00  0.00    -0.271 OA
ATOM      9  H2  UNL     1      17.902  19.734  61.707  1.00  0.00     0.171 HD
BRANCH   7  10
HETATM   10  C6  UNL     1      19.486  17.903  60.537  1.00  0.00     0.220 C 
BRANCH  10  11
HETATM   11  N1  UNL     1      19.857  16.584  60.172  1.00  0.00    -0.400 N 
HETATM   12  C5  UNL     1      21.162  16.387  59.657  1.00  0.00     0.151 C 
HETATM   13  C4  UNL     1      21.501  14.922  59.829  1.00  0.00     0.164 C 
HETATM   14  O2  UNL     1      22.761  14.745  60.413  1.00  0.00    -0.309 OA
HETATM   15  C22 UNL     1      20.478  14.395  60.810  1.00  0.00     0.032 C 
HETATM   16  C3  UNL     1      22.634  14.367  61.718  1.00  0.00     0.289 C 
HETATM   17  C2  UNL     1      21.247  13.968  61.982  1.00  0.00     0.020 C 
HETATM   18  O1  UNL     1      23.533  14.348  62.582  1.00  0.00    -0.260 OA
HETATM   19  C1  UNL     1      20.777  13.353  63.046  1.00  0.00     0.026 C 
HETATM   20  C21 UNL     1      19.538  15.547  61.090  1.00  0.00     0.134 C 
HETATM   21  C23 UNL     1      19.676  13.256  60.223  1.00  0.00     0.025 C 
ENDBRANCH  10  11
ENDBRANCH   7  10
ENDBRANCH   1   6
BRANCH   5  22
HETATM   22  C12 UNL     1      15.044  17.632  62.446  1.00  0.00     0.256 C 
HETATM   23  O5  UNL     1      16.084  17.335  63.077  1.00  0.00    -0.268 OA
HETATM   24  N3  UNL     1      13.873  16.861  62.784  1.00  0.00    -0.356 N 
ATOM     25  H3  UNL     1      12.992  17.047  62.305  1.00  0.00     0.162 HD
BRANCH  24  26
HETATM   26  C13 UNL     1      13.935  15.829  63.795  1.00  0.00     0.127 C 
BRANCH  26  27
HETATM   27  C14 UNL     1      13.679  14.520  63.108  1.00  0.00     0.053 C 
BRANCH  27  28
HETATM   28  C15 UNL     1      14.842  13.609  63.056  1.00  0.00    -0.082 C 
HETATM   29  C16 UNL     1      14.790  12.308  63.110  1.00  0.00    -0.024 C 
HETATM   30  C17 UNL     1      15.964  11.397  63.057  1.00  0.00     0.027 C 
HETATM   31  C18 UNL     1      17.283  12.081  63.185  1.00  0.00     0.004 C 
HETATM   32  C19 UNL     1      17.158  13.474  63.784  1.00  0.00     0.005 C 
HETATM   33  C20 UNL     1      16.182  14.271  62.929  1.00  0.00     0.034 C 
ENDBRANCH  27  28
ENDBRANCH  26  27
ENDBRANCH  24  26
ENDBRANCH   5  22
TORSDOF 7
ENDMDL
