MODEL 1
REMARK VINA RESULT: -8.148508259      0.000      0.000
REMARK  8 active torsions:
REMARK  status: ('A' for Active; 'I' for Inactive)
REMARK    1  A    between atoms: C18_21  and  O4_22 
REMARK    2  A    between atoms: C18_21  and  C19_24 
REMARK    3  A    between atoms: C19_24  and  C20_26 
REMARK    4  A    between atoms: C20_26  and  C21_27 
REMARK    5  A    between atoms: C21_27  and  C22_28 
REMARK    6  A    between atoms: C22_28  and  C23_29 
REMARK    7  A    between atoms: C23_29  and  C24_30 
REMARK    8  A    between atoms: C24_30  and  N1_31 
ROOT
HETATM    1  C1  UNL     1      20.235  13.713  63.126  1.00  0.00     0.018 C 
HETATM    2  C2  UNL     1      20.594  14.590  61.932  1.00  0.00    -0.013 C 
HETATM    3  C3  UNL     1      22.050  14.931  62.064  1.00  0.00     0.022 C 
HETATM    4  C4  UNL     1      22.947  13.767  61.819  1.00  0.00     0.112 C 
HETATM    5  C5  UNL     1      22.462  12.908  60.734  1.00  0.00     0.259 C 
HETATM    6  O1  UNL     1      23.284  12.267  60.001  1.00  0.00    -0.265 OA
HETATM    7  O2  UNL     1      21.132  12.775  60.482  1.00  0.00    -0.315 OA
HETATM    8  C6  UNL     1      20.226  13.840  60.703  1.00  0.00     0.140 C 
HETATM    9  C7  UNL     1      20.027  14.654  59.471  1.00  0.00     0.034 C 
HETATM   10  C8  UNL     1      20.415  16.093  59.581  1.00  0.00     0.008 C 
HETATM   11  C9  UNL     1      20.058  16.770  60.854  1.00  0.00    -0.004 C 
HETATM   12  C10 UNL     1      19.766  15.875  62.013  1.00  0.00     0.001 C 
HETATM   13  C11 UNL     1      18.338  15.597  62.286  1.00  0.00     0.007 C 
HETATM   14  C12 UNL     1      17.339  16.175  61.352  1.00  0.00     0.014 C 
HETATM   15  C13 UNL     1      17.612  17.476  60.745  1.00  0.00     0.006 C 
HETATM   16  C14 UNL     1      17.182  17.508  59.269  1.00  0.00     0.020 C 
HETATM   17  C15 UNL     1      19.067  17.887  60.746  1.00  0.00     0.009 C 
HETATM   18  C16 UNL     1      19.248  18.805  61.972  1.00  0.00     0.088 C 
HETATM   19  C17 UNL     1      17.860  18.852  62.570  1.00  0.00     0.169 C 
HETATM   20  O3  UNL     1      17.487  18.983  63.696  1.00  0.00    -0.294 OA
HETATM   21  C18 UNL     1      17.000  18.690  61.362  1.00  0.00     0.185 C 
ENDROOT
BRANCH  21  22
HETATM   22  O4  UNL     1      17.373  19.786  60.529  1.00  0.00    -0.374 OA
ATOM     23  H4  UNL     1      16.571  20.258  60.341  1.00  0.00     0.211 HD
ENDBRANCH  21  22
BRANCH  21  24
HETATM   24  C19 UNL     1      15.578  18.736  61.574  1.00  0.00     0.169 C 
HETATM   25  O5  UNL     1      14.695  19.163  60.852  1.00  0.00    -0.294 OA
BRANCH  24  26
HETATM   26  C20 UNL     1      15.025  18.189  62.869  1.00  0.00     0.082 C 
BRANCH  26  27
HETATM   27  C21 UNL     1      14.009  17.102  62.579  1.00  0.00     0.007 C 
BRANCH  27  28
HETATM   28  C22 UNL     1      14.373  15.816  63.294  1.00  0.00     0.002 C 
BRANCH  28  29
HETATM   29  C23 UNL     1      13.201  15.253  64.056  1.00  0.00     0.027 C 
BRANCH  29  30
HETATM   30  C24 UNL     1      13.699  14.126  64.943  1.00  0.00     0.229 C 
BRANCH  30  31
HETATM   31  N1  UNL     1      13.615  14.493  66.349  1.00  0.00    -0.079 N 
ATOM     32  H13 UNL     1      13.458  15.494  66.469  1.00  0.00     0.274 HD
ATOM     33  H12 UNL     1      12.754  14.150  66.776  1.00  0.00     0.274 HD
ATOM     34  H11 UNL     1      14.440  14.178  66.860  1.00  0.00     0.274 HD
ENDBRANCH  30  31
ENDBRANCH  29  30
ENDBRANCH  28  29
ENDBRANCH  27  28
ENDBRANCH  26  27
ENDBRANCH  24  26
ENDBRANCH  21  24
TORSDOF 8
ENDMDL
MODEL 2
REMARK VINA RESULT: -7.219909249      2.702      4.349
REMARK  8 active torsions:
REMARK  status: ('A' for Active; 'I' for Inactive)
REMARK    1  A    between atoms: C18_21  and  O4_22 
REMARK    2  A    between atoms: C18_21  and  C19_24 
REMARK    3  A    between atoms: C19_24  and  C20_26 
REMARK    4  A    between atoms: C20_26  and  C21_27 
REMARK    5  A    between atoms: C21_27  and  C22_28 
REMARK    6  A    between atoms: C22_28  and  C23_29 
REMARK    7  A    between atoms: C23_29  and  C24_30 
REMARK    8  A    between atoms: C24_30  and  N1_31 
ROOT
HETATM    1  C1  UNL     1      24.884  15.160  61.798  1.00  0.00     0.018 C 
HETATM    2  C2  UNL     1      23.907  14.282  61.024  1.00  0.00    -0.013 C 
HETATM    3  C3  UNL     1      24.458  14.134  59.636  1.00  0.00     0.022 C 
HETATM    4  C4  UNL     1      25.681  13.285  59.580  1.00  0.00     0.112 C 
HETATM    5  C5  UNL     1      25.607  12.142  60.495  1.00  0.00     0.259 C 
HETATM    6  O1  UNL     1      26.195  11.047  60.209  1.00  0.00    -0.265 OA
HETATM    7  O2  UNL     1      24.915  12.217  61.663  1.00  0.00    -0.315 OA
HETATM    8  C6  UNL     1      23.751  13.014  61.783  1.00  0.00     0.140 C 
HETATM    9  C7  UNL     1      22.518  12.227  61.503  1.00  0.00     0.034 C 
HETATM   10  C8  UNL     1      21.694  12.710  60.354  1.00  0.00     0.008 C 
HETATM   11  C9  UNL     1      21.549  14.183  60.228  1.00  0.00    -0.004 C 
HETATM   12  C10 UNL     1      22.559  15.006  60.958  1.00  0.00     0.001 C 
HETATM   13  C11 UNL     1      22.148  15.533  62.278  1.00  0.00     0.007 C 
HETATM   14  C12 UNL     1      20.806  15.145  62.781  1.00  0.00     0.014 C 
HETATM   15  C13 UNL     1      19.720  14.963  61.820  1.00  0.00     0.006 C 
HETATM   16  C14 UNL     1      18.845  13.752  62.185  1.00  0.00     0.020 C 
HETATM   17  C15 UNL     1      20.162  14.722  60.395  1.00  0.00     0.009 C 
HETATM   18  C16 UNL     1      20.095  16.093  59.691  1.00  0.00     0.088 C 
HETATM   19  C17 UNL     1      19.602  17.013  60.785  1.00  0.00     0.169 C 
HETATM   20  O3  UNL     1      19.793  18.172  60.990  1.00  0.00    -0.294 OA
HETATM   21  C18 UNL     1      18.765  16.091  61.607  1.00  0.00     0.185 C 
ENDROOT
BRANCH  21  22
HETATM   22  O4  UNL     1      17.786  15.610  60.687  1.00  0.00    -0.374 OA
ATOM     23  H4  UNL     1      17.547  14.742  60.990  1.00  0.00     0.211 HD
ENDBRANCH  21  22
BRANCH  21  24
HETATM   24  C19 UNL     1      18.090  16.671  62.737  1.00  0.00     0.169 C 
HETATM   25  O5  UNL     1      18.546  17.110  63.777  1.00  0.00    -0.294 OA
BRANCH  24  26
HETATM   26  C20 UNL     1      16.584  16.783  62.696  1.00  0.00     0.082 C 
BRANCH  26  27
HETATM   27  C21 UNL     1      16.177  18.240  62.599  1.00  0.00     0.007 C 
BRANCH  27  28
HETATM   28  C22 UNL     1      15.846  18.617  61.169  1.00  0.00     0.002 C 
BRANCH  28  29
HETATM   29  C23 UNL     1      16.698  19.762  60.684  1.00  0.00     0.027 C 
BRANCH  29  30
HETATM   30  C24 UNL     1      16.964  19.571  59.203  1.00  0.00     0.229 C 
BRANCH  30  31
HETATM   31  N1  UNL     1      17.142  18.161  58.881  1.00  0.00    -0.079 N 
ATOM     32  H13 UNL     1      17.210  17.589  59.723  1.00  0.00     0.274 HD
ATOM     33  H12 UNL     1      16.293  17.757  58.486  1.00  0.00     0.274 HD
ATOM     34  H11 UNL     1      17.946  18.025  58.268  1.00  0.00     0.274 HD
ENDBRANCH  30  31
ENDBRANCH  29  30
ENDBRANCH  28  29
ENDBRANCH  27  28
ENDBRANCH  26  27
ENDBRANCH  24  26
ENDBRANCH  21  24
TORSDOF 8
ENDMDL
MODEL 3
REMARK VINA RESULT: -7.207510894      2.122      3.623
REMARK  8 active torsions:
REMARK  status: ('A' for Active; 'I' for Inactive)
REMARK    1  A    between atoms: C18_21  and  O4_22 
REMARK    2  A    between atoms: C18_21  and  C19_24 
REMARK    3  A    between atoms: C19_24  and  C20_26 
REMARK    4  A    between atoms: C20_26  and  C21_27 
REMARK    5  A    between atoms: C21_27  and  C22_28 
REMARK    6  A    between atoms: C22_28  and  C23_29 
REMARK    7  A    between atoms: C23_29  and  C24_30 
REMARK    8  A    between atoms: C24_30  and  N1_31 
ROOT
HETATM    1  C1  UNL     1      25.020  15.012  62.427  1.00  0.00     0.018 C 
HETATM    2  C2  UNL     1      24.162  14.187  61.475  1.00  0.00    -0.013 C 
HETATM    3  C3  UNL     1      24.876  14.164  60.154  1.00  0.00     0.022 C 
HETATM    4  C4  UNL     1      26.118  13.341  60.176  1.00  0.00     0.112 C 
HETATM    5  C5  UNL     1      25.966  12.124  60.980  1.00  0.00     0.259 C 
HETATM    6  O1  UNL     1      26.610  11.067  60.679  1.00  0.00    -0.265 OA
HETATM    7  O2  UNL     1      25.140  12.092  62.060  1.00  0.00    -0.315 OA
HETATM    8  C6  UNL     1      23.950  12.858  62.105  1.00  0.00     0.140 C 
HETATM    9  C7  UNL     1      22.779  12.077  61.618  1.00  0.00     0.034 C 
HETATM   10  C8  UNL     1      22.083  12.642  60.422  1.00  0.00     0.008 C 
HETATM   11  C9  UNL     1      21.917  14.118  60.399  1.00  0.00    -0.004 C 
HETATM   12  C10 UNL     1      22.814  14.893  61.307  1.00  0.00     0.001 C 
HETATM   13  C11 UNL     1      22.237  15.302  62.608  1.00  0.00     0.007 C 
HETATM   14  C12 UNL     1      20.856  14.853  62.915  1.00  0.00     0.014 C 
HETATM   15  C13 UNL     1      19.895  14.734  61.820  1.00  0.00     0.006 C 
HETATM   16  C14 UNL     1      19.014  13.484  61.980  1.00  0.00     0.020 C 
HETATM   17  C15 UNL     1      20.507  14.619  60.443  1.00  0.00     0.009 C 
HETATM   18  C16 UNL     1      20.488  16.043  59.849  1.00  0.00     0.088 C 
HETATM   19  C17 UNL     1      19.847  16.861  60.947  1.00  0.00     0.169 C 
HETATM   20  O3  UNL     1      19.984  18.002  61.267  1.00  0.00    -0.294 OA
HETATM   21  C18 UNL     1      18.943  15.861  61.587  1.00  0.00     0.185 C 
ENDROOT
BRANCH  21  22
HETATM   22  O4  UNL     1      18.092  15.443  60.522  1.00  0.00    -0.374 OA
ATOM     23  H4  UNL     1      18.382  14.571  60.281  1.00  0.00     0.211 HD
ENDBRANCH  21  22
BRANCH  21  24
HETATM   24  C19 UNL     1      18.126  16.335  62.672  1.00  0.00     0.169 C 
HETATM   25  O5  UNL     1      18.453  16.798  63.750  1.00  0.00    -0.294 OA
BRANCH  24  26
HETATM   26  C20 UNL     1      16.624  16.277  62.520  1.00  0.00     0.082 C 
BRANCH  26  27
HETATM   27  C21 UNL     1      16.064  15.142  63.354  1.00  0.00     0.007 C 
BRANCH  27  28
HETATM   28  C22 UNL     1      14.712  14.701  62.830  1.00  0.00     0.002 C 
BRANCH  28  29
HETATM   29  C23 UNL     1      13.660  14.734  63.908  1.00  0.00     0.027 C 
BRANCH  29  30
HETATM   30  C24 UNL     1      14.216  14.053  65.145  1.00  0.00     0.229 C 
BRANCH  30  31
HETATM   31  N1  UNL     1      13.444  14.406  66.328  1.00  0.00    -0.079 N 
ATOM     32  H13 UNL     1      12.964  15.299  66.212  1.00  0.00     0.274 HD
ATOM     33  H12 UNL     1      12.628  13.805  66.438  1.00  0.00     0.274 HD
ATOM     34  H11 UNL     1      14.031  14.402  67.163  1.00  0.00     0.274 HD
ENDBRANCH  30  31
ENDBRANCH  29  30
ENDBRANCH  28  29
ENDBRANCH  27  28
ENDBRANCH  26  27
ENDBRANCH  24  26
ENDBRANCH  21  24
TORSDOF 8
ENDMDL
MODEL 4
REMARK VINA RESULT: -7.143809516      3.189      4.859
REMARK  8 active torsions:
REMARK  status: ('A' for Active; 'I' for Inactive)
REMARK    1  A    between atoms: C18_21  and  O4_22 
REMARK    2  A    between atoms: C18_21  and  C19_24 
REMARK    3  A    between atoms: C19_24  and  C20_26 
REMARK    4  A    between atoms: C20_26  and  C21_27 
REMARK    5  A    between atoms: C21_27  and  C22_28 
REMARK    6  A    between atoms: C22_28  and  C23_29 
REMARK    7  A    between atoms: C23_29  and  C24_30 
REMARK    8  A    between atoms: C24_30  and  N1_31 
ROOT
HETATM    1  C1  UNL     1      25.097  14.448  63.638  1.00  0.00     0.018 C 
HETATM    2  C2  UNL     1      24.544  13.705  62.428  1.00  0.00    -0.013 C 
HETATM    3  C3  UNL     1      25.693  13.487  61.486  1.00  0.00     0.022 C 
HETATM    4  C4  UNL     1      26.677  12.487  61.987  1.00  0.00     0.112 C 
HETATM    5  C5  UNL     1      26.030  11.362  62.670  1.00  0.00     0.259 C 
HETATM    6  O1  UNL     1      26.555  10.201  62.642  1.00  0.00    -0.265 OA
HETATM    7  O2  UNL     1      24.862  11.526  63.346  1.00  0.00    -0.315 OA
HETATM    8  C6  UNL     1      23.890  12.467  62.928  1.00  0.00     0.140 C 
HETATM    9  C7  UNL     1      22.881  11.845  62.025  1.00  0.00     0.034 C 
HETATM   10  C8  UNL     1      22.798  12.432  60.653  1.00  0.00     0.008 C 
HETATM   11  C9  UNL     1      22.901  13.911  60.567  1.00  0.00    -0.004 C 
HETATM   12  C10 UNL     1      23.499  14.596  61.752  1.00  0.00     0.001 C 
HETATM   13  C11 UNL     1      22.546  15.172  62.728  1.00  0.00     0.007 C 
HETATM   14  C12 UNL     1      21.099  14.960  62.477  1.00  0.00     0.014 C 
HETATM   15  C13 UNL     1      20.623  14.920  61.096  1.00  0.00     0.006 C 
HETATM   16  C14 UNL     1      19.553  13.832  60.902  1.00  0.00     0.020 C 
HETATM   17  C15 UNL     1      21.685  14.624  60.062  1.00  0.00     0.009 C 
HETATM   18  C16 UNL     1      22.131  15.992  59.508  1.00  0.00     0.088 C 
HETATM   19  C17 UNL     1      21.266  16.969  60.272  1.00  0.00     0.169 C 
HETATM   20  O3  UNL     1      21.458  18.094  60.619  1.00  0.00    -0.294 OA
HETATM   21  C18 UNL     1      20.034  16.162  60.512  1.00  0.00     0.185 C 
ENDROOT
BRANCH  21  22
HETATM   22  O4  UNL     1      19.596  15.812  59.201  1.00  0.00    -0.374 OA
ATOM     23  H4  UNL     1      18.671  16.026  59.167  1.00  0.00     0.211 HD
ENDBRANCH  21  22
BRANCH  21  24
HETATM   24  C19 UNL     1      18.955  16.824  61.196  1.00  0.00     0.169 C 
HETATM   25  O5  UNL     1      18.912  17.284  62.324  1.00  0.00    -0.294 OA
BRANCH  24  26
HETATM   26  C20 UNL     1      17.647  17.012  60.466  1.00  0.00     0.082 C 
BRANCH  26  27
HETATM   27  C21 UNL     1      17.405  18.487  60.210  1.00  0.00     0.007 C 
BRANCH  27  28
HETATM   28  C22 UNL     1      16.041  18.908  60.719  1.00  0.00     0.002 C 
BRANCH  28  29
HETATM   29  C23 UNL     1      15.259  19.649  59.665  1.00  0.00     0.027 C 
BRANCH  29  30
HETATM   30  C24 UNL     1      13.842  19.851  60.169  1.00  0.00     0.229 C 
BRANCH  30  31
HETATM   31  N1  UNL     1      13.141  20.848  59.372  1.00  0.00    -0.079 N 
ATOM     32  H13 UNL     1      13.724  21.201  58.613  1.00  0.00     0.274 HD
ATOM     33  H12 UNL     1      12.398  20.428  58.814  1.00  0.00     0.274 HD
ATOM     34  H11 UNL     1      12.789  21.605  59.959  1.00  0.00     0.274 HD
ENDBRANCH  30  31
ENDBRANCH  29  30
ENDBRANCH  28  29
ENDBRANCH  27  28
ENDBRANCH  26  27
ENDBRANCH  24  26
ENDBRANCH  21  24
TORSDOF 8
ENDMDL
MODEL 5
REMARK VINA RESULT: -7.136914454      3.723      7.609
REMARK  8 active torsions:
REMARK  status: ('A' for Active; 'I' for Inactive)
REMARK    1  A    between atoms: C18_21  and  O4_22 
REMARK    2  A    between atoms: C18_21  and  C19_24 
REMARK    3  A    between atoms: C19_24  and  C20_26 
REMARK    4  A    between atoms: C20_26  and  C21_27 
REMARK    5  A    between atoms: C21_27  and  C22_28 
REMARK    6  A    between atoms: C22_28  and  C23_29 
REMARK    7  A    between atoms: C23_29  and  C24_30 
REMARK    8  A    between atoms: C24_30  and  N1_31 
ROOT
HETATM    1  C1  UNL     1      17.949  11.865  64.271  1.00  0.00     0.018 C 
HETATM    2  C2  UNL     1      17.586  12.903  63.216  1.00  0.00    -0.013 C 
HETATM    3  C3  UNL     1      16.451  12.332  62.415  1.00  0.00     0.022 C 
HETATM    4  C4  UNL     1      15.173  12.267  63.177  1.00  0.00     0.112 C 
HETATM    5  C5  UNL     1      14.981  13.435  64.043  1.00  0.00     0.259 C 
HETATM    6  O1  UNL     1      13.808  13.866  64.295  1.00  0.00    -0.265 OA
HETATM    7  O2  UNL     1      16.040  14.084  64.595  1.00  0.00    -0.315 OA
HETATM    8  C6  UNL     1      17.284  14.173  63.927  1.00  0.00     0.140 C 
HETATM    9  C7  UNL     1      17.383  15.419  63.117  1.00  0.00     0.034 C 
HETATM   10  C8  UNL     1      17.578  15.218  61.649  1.00  0.00     0.008 C 
HETATM   11  C9  UNL     1      18.510  14.131  61.256  1.00  0.00    -0.004 C 
HETATM   12  C10 UNL     1      18.797  13.104  62.302  1.00  0.00     0.001 C 
HETATM   13  C11 UNL     1      20.049  13.284  63.073  1.00  0.00     0.007 C 
HETATM   14  C12 UNL     1      20.862  14.490  62.784  1.00  0.00     0.014 C 
HETATM   15  C13 UNL     1      20.898  15.005  61.416  1.00  0.00     0.006 C 
HETATM   16  C14 UNL     1      20.855  16.542  61.393  1.00  0.00     0.020 C 
HETATM   17  C15 UNL     1      19.751  14.560  60.537  1.00  0.00     0.009 C 
HETATM   18  C16 UNL     1      20.276  13.354  59.732  1.00  0.00     0.088 C 
HETATM   19  C17 UNL     1      21.702  13.216  60.216  1.00  0.00     0.169 C 
HETATM   20  O3  UNL     1      22.413  12.264  60.326  1.00  0.00    -0.294 OA
HETATM   21  C18 UNL     1      22.052  14.629  60.546  1.00  0.00     0.185 C 
ENDROOT
BRANCH  21  22
HETATM   22  O4  UNL     1      21.859  15.323  59.315  1.00  0.00    -0.374 OA
ATOM     23  H4  UNL     1      20.933  15.251  59.116  1.00  0.00     0.211 HD
ENDBRANCH  21  22
BRANCH  21  24
HETATM   24  C19 UNL     1      23.393  14.869  61.006  1.00  0.00     0.169 C 
HETATM   25  O5  UNL     1      23.948  14.493  62.023  1.00  0.00    -0.294 OA
BRANCH  24  26
HETATM   26  C20 UNL     1      24.309  15.708  60.147  1.00  0.00     0.082 C 
BRANCH  26  27
HETATM   27  C21 UNL     1      24.619  17.017  60.847  1.00  0.00     0.007 C 
BRANCH  27  28
HETATM   28  C22 UNL     1      24.663  18.164  59.858  1.00  0.00     0.002 C 
BRANCH  28  29
HETATM   29  C23 UNL     1      23.278  18.623  59.478  1.00  0.00     0.027 C 
BRANCH  29  30
HETATM   30  C24 UNL     1      23.203  18.727  57.966  1.00  0.00     0.229 C 
BRANCH  30  31
HETATM   31  N1  UNL     1      22.713  17.486  57.381  1.00  0.00    -0.079 N 
ATOM     32  H13 UNL     1      23.155  17.294  56.481  1.00  0.00     0.274 HD
ATOM     33  H12 UNL     1      23.048  16.671  57.894  1.00  0.00     0.274 HD
ATOM     34  H11 UNL     1      21.696  17.493  57.306  1.00  0.00     0.274 HD
ENDBRANCH  30  31
ENDBRANCH  29  30
ENDBRANCH  28  29
ENDBRANCH  27  28
ENDBRANCH  26  27
ENDBRANCH  24  26
ENDBRANCH  21  24
TORSDOF 8
ENDMDL
