MODEL 1
REMARK VINA RESULT: -7.747230996      0.000      0.000
REMARK  7 active torsions:
REMARK  status: ('A' for Active; 'I' for Inactive)
REMARK    1  A    between atoms: C2_2  and  O1_3 
REMARK    2  A    between atoms: O1_3  and  C3_4 
REMARK       I    between atoms: C3_4  and  N1_6 
REMARK    3  A    between atoms: C6_9  and  C7_10 
REMARK       I    between atoms: C7_10  and  N2_12 
REMARK    4  A    between atoms: N2_12  and  C8_14 
REMARK    5  A    between atoms: C11_18  and  C12_19 
REMARK       I    between atoms: C12_19  and  N3_21 
REMARK    6  A    between atoms: N3_21  and  C13_23 
REMARK    7  A    between atoms: C13_23  and  C14_24 
ROOT
HETATM    1  C8  UNL     1      17.785  14.038  63.701  1.00  0.00     0.092 A 
HETATM    2  S1  UNL     1      18.643  12.529  63.722  1.00  0.00    -0.083 SA
HETATM    3  C9  UNL     1      20.006  12.989  62.830  1.00  0.00     0.053 A 
HETATM    4  C10 UNL     1      19.768  14.296  62.537  1.00  0.00     0.027 A 
HETATM    5  C11 UNL     1      18.621  14.847  62.984  1.00  0.00     0.066 A 
ENDROOT
BRANCH   1   6
HETATM    6  N2  UNL     1      16.508  14.274  64.319  1.00  0.00    -0.320 N 
HETATM    7  C7  UNL     1      15.337  14.184  63.480  1.00  0.00     0.226 C 
HETATM    8  O3  UNL     1      15.465  13.909  62.267  1.00  0.00    -0.273 OA
ATOM      9  H2  UNL     1      16.433  14.497  65.312  1.00  0.00     0.169 HD
BRANCH   7  10
HETATM   10  C6  UNL     1      13.988  14.407  64.011  1.00  0.00     0.081 C 
HETATM   11  C5  UNL     1      13.904  14.270  65.493  1.00  0.00     0.034 C 
HETATM   12  C4  UNL     1      12.651  14.908  66.044  1.00  0.00     0.129 C 
HETATM   13  N1  UNL     1      11.635  15.082  65.027  1.00  0.00    -0.328 N 
HETATM   14  C3  UNL     1      10.281  14.672  65.272  1.00  0.00     0.362 C 
HETATM   15  C19 UNL     1      11.926  15.668  63.734  1.00  0.00     0.129 C 
HETATM   16  O2  UNL     1       9.971  14.151  66.393  1.00  0.00    -0.238 OA
HETATM   17  C18 UNL     1      13.433  15.774  63.626  1.00  0.00     0.034 C 
BRANCH  14  18
HETATM   18  O1  UNL     1       9.285  14.819  64.334  1.00  0.00    -0.304 OA
BRANCH  18  19
HETATM   19  C2  UNL     1       8.099  15.564  64.558  1.00  0.00     0.176 C 
HETATM   20  C1  UNL     1       6.921  14.653  64.767  1.00  0.00     0.034 C 
ENDBRANCH  18  19
ENDBRANCH  14  18
ENDBRANCH   7  10
ENDBRANCH   1   6
BRANCH   5  21
HETATM   21  C12 UNL     1      18.277  16.276  62.709  1.00  0.00     0.254 C 
HETATM   22  O4  UNL     1      18.080  17.100  63.626  1.00  0.00    -0.268 OA
HETATM   23  N3  UNL     1      18.155  16.781  61.389  1.00  0.00    -0.354 N 
ATOM     24  H3  UNL     1      18.307  16.143  60.607  1.00  0.00     0.162 HD
BRANCH  23  25
HETATM   25  C13 UNL     1      17.825  18.155  61.101  1.00  0.00     0.155 C 
BRANCH  25  26
HETATM   26  C14 UNL     1      16.430  18.270  60.497  1.00  0.00     0.139 C 
HETATM   27  C15 UNL     1      15.405  18.470  61.616  1.00  0.00     0.035 C 
HETATM   28  C16 UNL     1      14.297  19.272  60.954  1.00  0.00     0.029 C 
HETATM   29  C17 UNL     1      14.961  19.760  59.707  1.00  0.00     0.168 C 
HETATM   30  O5  UNL     1      16.299  19.444  59.779  1.00  0.00    -0.384 OA
ENDBRANCH  25  26
ENDBRANCH  23  25
ENDBRANCH   5  21
TORSDOF 7
ENDMDL
MODEL 2
REMARK VINA RESULT: -7.717985229      1.059      1.249
REMARK  7 active torsions:
REMARK  status: ('A' for Active; 'I' for Inactive)
REMARK    1  A    between atoms: C2_2  and  O1_3 
REMARK    2  A    between atoms: O1_3  and  C3_4 
REMARK       I    between atoms: C3_4  and  N1_6 
REMARK    3  A    between atoms: C6_9  and  C7_10 
REMARK       I    between atoms: C7_10  and  N2_12 
REMARK    4  A    between atoms: N2_12  and  C8_14 
REMARK    5  A    between atoms: C11_18  and  C12_19 
REMARK       I    between atoms: C12_19  and  N3_21 
REMARK    6  A    between atoms: N3_21  and  C13_23 
REMARK    7  A    between atoms: C13_23  and  C14_24 
ROOT
HETATM    1  C8  UNL     1      17.693  14.100  63.674  1.00  0.00     0.092 A 
HETATM    2  S1  UNL     1      18.545  12.593  63.543  1.00  0.00    -0.083 SA
HETATM    3  C9  UNL     1      19.902  13.131  62.688  1.00  0.00     0.053 A 
HETATM    4  C10 UNL     1      19.669  14.461  62.524  1.00  0.00     0.027 A 
HETATM    5  C11 UNL     1      18.527  14.971  63.032  1.00  0.00     0.066 A 
ENDROOT
BRANCH   1   6
HETATM    6  N2  UNL     1      16.423  14.281  64.324  1.00  0.00    -0.320 N 
HETATM    7  C7  UNL     1      15.243  14.247  63.493  1.00  0.00     0.226 C 
HETATM    8  O3  UNL     1      15.357  14.065  62.262  1.00  0.00    -0.273 OA
ATOM      9  H2  UNL     1      16.358  14.428  65.331  1.00  0.00     0.169 HD
BRANCH   7  10
HETATM   10  C6  UNL     1      13.899  14.421  64.055  1.00  0.00     0.081 C 
HETATM   11  C5  UNL     1      13.839  14.203  65.529  1.00  0.00     0.034 C 
HETATM   12  C4  UNL     1      12.586  14.792  66.132  1.00  0.00     0.129 C 
HETATM   13  N1  UNL     1      11.552  15.004  65.140  1.00  0.00    -0.328 N 
HETATM   14  C3  UNL     1      10.208  14.562  65.382  1.00  0.00     0.362 C 
HETATM   15  C19 UNL     1      11.815  15.663  63.877  1.00  0.00     0.129 C 
HETATM   16  O2  UNL     1       9.923  13.976  66.478  1.00  0.00    -0.238 OA
HETATM   17  C18 UNL     1      13.319  15.798  63.753  1.00  0.00     0.034 C 
BRANCH  14  18
HETATM   18  O1  UNL     1       9.196  14.744  64.468  1.00  0.00    -0.304 OA
BRANCH  18  19
HETATM   19  C2  UNL     1       8.081  15.592  64.690  1.00  0.00     0.176 C 
HETATM   20  C1  UNL     1       6.864  14.796  65.074  1.00  0.00     0.034 C 
ENDBRANCH  18  19
ENDBRANCH  14  18
ENDBRANCH   7  10
ENDBRANCH   1   6
BRANCH   5  21
HETATM   21  C12 UNL     1      18.188  16.421  62.898  1.00  0.00     0.254 C 
HETATM   22  O4  UNL     1      17.097  16.886  63.286  1.00  0.00    -0.268 OA
HETATM   23  N3  UNL     1      19.086  17.356  62.321  1.00  0.00    -0.354 N 
ATOM     24  H3  UNL     1      19.991  17.020  61.989  1.00  0.00     0.162 HD
BRANCH  23  25
HETATM   25  C13 UNL     1      18.780  18.758  62.182  1.00  0.00     0.155 C 
BRANCH  25  26
HETATM   26  C14 UNL     1      18.602  19.139  60.717  1.00  0.00     0.139 C 
HETATM   27  C15 UNL     1      17.208  18.719  60.246  1.00  0.00     0.035 C 
HETATM   28  C16 UNL     1      16.874  19.725  59.158  1.00  0.00     0.029 C 
HETATM   29  C17 UNL     1      17.891  20.795  59.394  1.00  0.00     0.168 C 
HETATM   30  O5  UNL     1      18.551  20.512  60.568  1.00  0.00    -0.384 OA
ENDBRANCH  25  26
ENDBRANCH  23  25
ENDBRANCH   5  21
TORSDOF 7
ENDMDL
MODEL 3
REMARK VINA RESULT: -7.528457569      1.767      2.212
REMARK  7 active torsions:
REMARK  status: ('A' for Active; 'I' for Inactive)
REMARK    1  A    between atoms: C2_2  and  O1_3 
REMARK    2  A    between atoms: O1_3  and  C3_4 
REMARK       I    between atoms: C3_4  and  N1_6 
REMARK    3  A    between atoms: C6_9  and  C7_10 
REMARK       I    between atoms: C7_10  and  N2_12 
REMARK    4  A    between atoms: N2_12  and  C8_14 
REMARK    5  A    between atoms: C11_18  and  C12_19 
REMARK       I    between atoms: C12_19  and  N3_21 
REMARK    6  A    between atoms: N3_21  and  C13_23 
REMARK    7  A    between atoms: C13_23  and  C14_24 
ROOT
HETATM    1  C8  UNL     1      16.082  13.895  63.205  1.00  0.00     0.092 A 
HETATM    2  S1  UNL     1      16.916  12.381  63.365  1.00  0.00    -0.083 SA
HETATM    3  C9  UNL     1      18.503  12.962  63.449  1.00  0.00     0.053 A 
HETATM    4  C10 UNL     1      18.354  14.311  63.353  1.00  0.00     0.027 A 
HETATM    5  C11 UNL     1      17.104  14.802  63.226  1.00  0.00     0.066 A 
ENDROOT
BRANCH   1   6
HETATM    6  N2  UNL     1      14.657  14.049  63.085  1.00  0.00    -0.320 N 
HETATM    7  C7  UNL     1      13.901  14.192  64.306  1.00  0.00     0.226 C 
HETATM    8  O3  UNL     1      14.493  14.178  65.407  1.00  0.00    -0.273 OA
ATOM      9  H2  UNL     1      14.200  14.056  62.174  1.00  0.00     0.169 HD
BRANCH   7  10
HETATM   10  C6  UNL     1      12.443  14.354  64.296  1.00  0.00     0.081 C 
HETATM   11  C5  UNL     1      11.863  14.595  65.648  1.00  0.00     0.034 C 
HETATM   12  C4  UNL     1      10.470  15.173  65.565  1.00  0.00     0.129 C 
HETATM   13  N1  UNL     1       9.857  14.933  64.275  1.00  0.00    -0.328 N 
HETATM   14  C3  UNL     1       8.520  14.416  64.189  1.00  0.00     0.362 C 
HETATM   15  C19 UNL     1      10.546  15.199  63.029  1.00  0.00     0.129 C 
HETATM   16  O2  UNL     1       7.869  14.165  65.255  1.00  0.00    -0.238 OA
HETATM   17  C18 UNL     1      11.993  15.483  63.375  1.00  0.00     0.034 C 
BRANCH  14  18
HETATM   18  O1  UNL     1       7.899  14.174  62.985  1.00  0.00    -0.304 OA
BRANCH  18  19
HETATM   19  C2  UNL     1       7.026  13.080  62.757  1.00  0.00     0.176 C 
HETATM   20  C1  UNL     1       7.278  12.459  61.411  1.00  0.00     0.034 C 
ENDBRANCH  18  19
ENDBRANCH  14  18
ENDBRANCH   7  10
ENDBRANCH   1   6
BRANCH   5  21
HETATM   21  C12 UNL     1      16.846  16.271  63.114  1.00  0.00     0.254 C 
HETATM   22  O4  UNL     1      15.692  16.737  63.027  1.00  0.00    -0.268 OA
HETATM   23  N3  UNL     1      17.899  17.222  63.098  1.00  0.00    -0.354 N 
ATOM     24  H3  UNL     1      18.859  16.886  63.166  1.00  0.00     0.162 HD
BRANCH  23  25
HETATM   25  C13 UNL     1      17.673  18.643  62.991  1.00  0.00     0.155 C 
BRANCH  25  26
HETATM   26  C14 UNL     1      17.639  19.084  61.532  1.00  0.00     0.139 C 
HETATM   27  C15 UNL     1      18.000  17.901  60.632  1.00  0.00     0.035 C 
HETATM   28  C16 UNL     1      17.254  18.186  59.340  1.00  0.00     0.029 C 
HETATM   29  C17 UNL     1      16.280  19.238  59.763  1.00  0.00     0.168 C 
HETATM   30  O5  UNL     1      16.344  19.360  61.132  1.00  0.00    -0.384 OA
ENDBRANCH  25  26
ENDBRANCH  23  25
ENDBRANCH   5  21
TORSDOF 7
ENDMDL
MODEL 4
REMARK VINA RESULT: -7.383242583      2.872      8.526
REMARK  7 active torsions:
REMARK  status: ('A' for Active; 'I' for Inactive)
REMARK    1  A    between atoms: C2_2  and  O1_3 
REMARK    2  A    between atoms: O1_3  and  C3_4 
REMARK       I    between atoms: C3_4  and  N1_6 
REMARK    3  A    between atoms: C6_9  and  C7_10 
REMARK       I    between atoms: C7_10  and  N2_12 
REMARK    4  A    between atoms: N2_12  and  C8_14 
REMARK    5  A    between atoms: C11_18  and  C12_19 
REMARK       I    between atoms: C12_19  and  N3_21 
REMARK    6  A    between atoms: N3_21  and  C13_23 
REMARK    7  A    between atoms: C13_23  and  C14_24 
ROOT
HETATM    1  C8  UNL     1      17.491  15.048  63.025  1.00  0.00     0.092 A 
HETATM    2  S1  UNL     1      18.616  13.738  63.199  1.00  0.00    -0.083 SA
HETATM    3  C9  UNL     1      17.520  12.485  63.494  1.00  0.00     0.053 A 
HETATM    4  C10 UNL     1      16.309  13.104  63.452  1.00  0.00     0.027 A 
HETATM    5  C11 UNL     1      16.285  14.431  63.210  1.00  0.00     0.066 A 
ENDROOT
BRANCH   1   6
HETATM    6  N2  UNL     1      17.844  16.415  62.754  1.00  0.00    -0.320 N 
HETATM    7  C7  UNL     1      18.145  16.763  61.386  1.00  0.00     0.226 C 
HETATM    8  O3  UNL     1      18.090  15.886  60.497  1.00  0.00    -0.273 OA
ATOM      9  H2  UNL     1      17.881  17.111  63.498  1.00  0.00     0.169 HD
BRANCH   7  10
HETATM   10  C6  UNL     1      18.516  18.130  61.001  1.00  0.00     0.081 C 
HETATM   11  C5  UNL     1      17.506  18.796  60.130  1.00  0.00     0.034 C 
HETATM   12  C4  UNL     1      17.691  20.295  60.105  1.00  0.00     0.129 C 
HETATM   13  N1  UNL     1      19.020  20.688  60.525  1.00  0.00    -0.328 N 
HETATM   14  C3  UNL     1      19.780  21.629  59.751  1.00  0.00     0.362 C 
HETATM   15  C19 UNL     1      19.640  20.162  61.724  1.00  0.00     0.129 C 
HETATM   16  O2  UNL     1      19.281  22.122  58.687  1.00  0.00    -0.238 OA
HETATM   17  C18 UNL     1      18.767  19.023  62.211  1.00  0.00     0.034 C 
BRANCH  14  18
HETATM   18  O1  UNL     1      21.045  22.030  60.114  1.00  0.00    -0.304 OA
BRANCH  18  19
HETATM   19  C2  UNL     1      21.382  23.369  60.439  1.00  0.00     0.176 C 
HETATM   20  C1  UNL     1      20.601  23.848  61.631  1.00  0.00     0.034 C 
ENDBRANCH  18  19
ENDBRANCH  14  18
ENDBRANCH   7  10
ENDBRANCH   1   6
BRANCH   5  21
HETATM   21  C12 UNL     1      15.000  15.194  63.146  1.00  0.00     0.254 C 
HETATM   22  O4  UNL     1      14.966  16.417  62.897  1.00  0.00    -0.268 OA
HETATM   23  N3  UNL     1      13.744  14.574  63.364  1.00  0.00    -0.354 N 
ATOM     24  H3  UNL     1      13.723  13.575  63.571  1.00  0.00     0.162 HD
BRANCH  23  25
HETATM   25  C13 UNL     1      12.493  15.290  63.307  1.00  0.00     0.155 C 
BRANCH  25  26
HETATM   26  C14 UNL     1      11.866  15.410  64.691  1.00  0.00     0.139 C 
HETATM   27  C15 UNL     1      10.354  15.197  64.587  1.00  0.00     0.035 C 
HETATM   28  C16 UNL     1       9.975  14.613  65.937  1.00  0.00     0.029 C 
HETATM   29  C17 UNL     1      11.304  14.204  66.488  1.00  0.00     0.168 C 
HETATM   30  O5  UNL     1      12.247  14.353  65.497  1.00  0.00    -0.384 OA
ENDBRANCH  25  26
ENDBRANCH  23  25
ENDBRANCH   5  21
TORSDOF 7
ENDMDL
MODEL 5
REMARK VINA RESULT: -7.219119460      2.880      8.431
REMARK  7 active torsions:
REMARK  status: ('A' for Active; 'I' for Inactive)
REMARK    1  A    between atoms: C2_2  and  O1_3 
REMARK    2  A    between atoms: O1_3  and  C3_4 
REMARK       I    between atoms: C3_4  and  N1_6 
REMARK    3  A    between atoms: C6_9  and  C7_10 
REMARK       I    between atoms: C7_10  and  N2_12 
REMARK    4  A    between atoms: N2_12  and  C8_14 
REMARK    5  A    between atoms: C11_18  and  C12_19 
REMARK       I    between atoms: C12_19  and  N3_21 
REMARK    6  A    between atoms: N3_21  and  C13_23 
REMARK    7  A    between atoms: C13_23  and  C14_24 
ROOT
HETATM    1  C8  UNL     1      17.207  14.133  63.204  1.00  0.00     0.092 A 
HETATM    2  S1  UNL     1      17.996  12.588  63.266  1.00  0.00    -0.083 SA
HETATM    3  C9  UNL     1      16.628  11.595  63.320  1.00  0.00     0.053 A 
HETATM    4  C10 UNL     1      15.593  12.478  63.288  1.00  0.00     0.027 A 
HETATM    5  C11 UNL     1      15.884  13.793  63.228  1.00  0.00     0.066 A 
ENDROOT
BRANCH   1   6
HETATM    6  N2  UNL     1      17.877  15.405  63.143  1.00  0.00    -0.320 N 
HETATM    7  C7  UNL     1      18.476  15.779  61.884  1.00  0.00     0.226 C 
HETATM    8  O3  UNL     1      18.397  15.005  60.906  1.00  0.00    -0.273 OA
ATOM      9  H2  UNL     1      17.926  16.017  63.957  1.00  0.00     0.169 HD
BRANCH   7  10
HETATM   10  C6  UNL     1      19.182  17.054  61.715  1.00  0.00     0.081 C 
HETATM   11  C5  UNL     1      20.571  16.899  61.196  1.00  0.00     0.034 C 
HETATM   12  C4  UNL     1      21.108  18.195  60.637  1.00  0.00     0.129 C 
HETATM   13  N1  UNL     1      20.380  19.344  61.131  1.00  0.00    -0.328 N 
HETATM   14  C3  UNL     1      21.084  20.487  61.645  1.00  0.00     0.362 C 
HETATM   15  C19 UNL     1      18.933  19.403  61.134  1.00  0.00     0.129 C 
HETATM   16  O2  UNL     1      22.358  20.487  61.665  1.00  0.00    -0.238 OA
HETATM   17  C18 UNL     1      18.433  18.013  60.796  1.00  0.00     0.034 C 
BRANCH  14  18
HETATM   18  O1  UNL     1      20.433  21.600  62.124  1.00  0.00    -0.304 OA
BRANCH  18  19
HETATM   19  C2  UNL     1      20.867  22.928  61.883  1.00  0.00     0.176 C 
HETATM   20  C1  UNL     1      20.224  23.492  60.647  1.00  0.00     0.034 C 
ENDBRANCH  18  19
ENDBRANCH  14  18
ENDBRANCH   7  10
ENDBRANCH   1   6
BRANCH   5  21
HETATM   21  C12 UNL     1      14.810  14.834  63.189  1.00  0.00     0.254 C 
HETATM   22  O4  UNL     1      15.058  16.034  62.954  1.00  0.00    -0.268 OA
HETATM   23  N3  UNL     1      13.446  14.518  63.418  1.00  0.00    -0.354 N 
ATOM     24  H3  UNL     1      13.197  13.549  63.616  1.00  0.00     0.162 HD
BRANCH  23  25
HETATM   25  C13 UNL     1      12.395  15.505  63.386  1.00  0.00     0.155 C 
BRANCH  25  26
HETATM   26  C14 UNL     1      11.644  15.551  64.712  1.00  0.00     0.139 C 
HETATM   27  C15 UNL     1      10.175  15.191  64.479  1.00  0.00     0.035 C 
HETATM   28  C16 UNL     1       9.743  14.560  65.791  1.00  0.00     0.029 C 
HETATM   29  C17 UNL     1      11.054  14.280  66.454  1.00  0.00     0.168 C 
HETATM   30  O5  UNL     1      12.058  14.529  65.546  1.00  0.00    -0.384 OA
ENDBRANCH  25  26
ENDBRANCH  23  25
ENDBRANCH   5  21
TORSDOF 7
ENDMDL
