MODEL 1
REMARK VINA RESULT: -6.787179248      0.000      0.000
REMARK  8 active torsions:
REMARK  status: ('A' for Active; 'I' for Inactive)
REMARK    1  A    between atoms: C2_2  and  C4_4 
REMARK    2  A    between atoms: C18_20  and  C19_21 
REMARK       I    between atoms: C19_21  and  N1_23 
REMARK    3  A    between atoms: N1_23  and  C20_25 
REMARK    4  A    between atoms: C20_25  and  C21_26 
REMARK    5  A    between atoms: C21_26  and  C22_27 
REMARK    6  A    between atoms: C22_27  and  O5_29 
REMARK    7  A    between atoms: O5_29  and  C23_30 
REMARK    8  A    between atoms: C23_30  and  O6_31 
ROOT
HETATM    1  C4  UNL     1      20.012  15.143  62.340  1.00  0.00     0.052 C 
HETATM    2  C5  UNL     1      20.311  15.369  60.861  1.00  0.00     0.026 C 
HETATM    3  C6  UNL     1      21.174  16.488  60.463  1.00  0.00    -0.008 C 
HETATM    4  C7  UNL     1      21.531  16.198  58.969  1.00  0.00     0.018 C 
HETATM    5  C8  UNL     1      20.441  17.817  60.364  1.00  0.00     0.122 C 
HETATM    6  C9  UNL     1      21.614  18.727  60.331  1.00  0.00     0.260 C 
HETATM    7  O1  UNL     1      21.705  19.785  59.688  1.00  0.00    -0.265 OA
HETATM    8  O2  UNL     1      22.585  18.186  61.143  1.00  0.00    -0.315 OA
HETATM    9  C10 UNL     1      22.416  16.758  61.171  1.00  0.00     0.141 C 
HETATM   10  C11 UNL     1      23.631  16.104  60.534  1.00  0.00     0.037 C 
HETATM   11  C12 UNL     1      24.599  15.626  61.543  1.00  0.00     0.036 C 
HETATM   12  C13 UNL     1      24.056  15.141  62.827  1.00  0.00    -0.087 C 
HETATM   13  C14 UNL     1      24.604  15.843  64.028  1.00  0.00     0.043 C 
HETATM   14  C15 UNL     1      23.179  14.199  63.038  1.00  0.00    -0.020 C 
HETATM   15  C16 UNL     1      22.473  13.339  62.009  1.00  0.00     0.055 C 
HETATM   16  C17 UNL     1      21.142  12.957  62.470  1.00  0.00    -0.010 C 
HETATM   17  C18 UNL     1      20.045  13.689  62.640  1.00  0.00     0.014 C 
ENDROOT
BRANCH  17  18
HETATM   18  C19 UNL     1      18.882  13.007  63.261  1.00  0.00     0.248 C 
HETATM   19  O3  UNL     1      18.745  13.083  64.493  1.00  0.00    -0.268 OA
HETATM   20  N1  UNL     1      17.911  12.275  62.572  1.00  0.00    -0.353 N 
ATOM     21  H1  UNL     1      18.046  12.197  61.565  1.00  0.00     0.163 HD
BRANCH  20  22
HETATM   22  C20 UNL     1      16.764  11.629  63.092  1.00  0.00     0.156 C 
BRANCH  22  23
HETATM   23  C21 UNL     1      15.453  12.276  63.032  1.00  0.00     0.075 C 
BRANCH  23  24
HETATM   24  C22 UNL     1      15.053  13.336  63.933  1.00  0.00     0.282 C 
HETATM   25  O4  UNL     1      15.775  14.366  64.060  1.00  0.00    -0.260 OA
BRANCH  24  26
HETATM   26  O5  UNL     1      13.890  13.286  64.685  1.00  0.00    -0.293 OA
BRANCH  26  27
HETATM   27  C23 UNL     1      13.369  14.432  65.317  1.00  0.00     0.345 C 
BRANCH  27  28
HETATM   28  O6  UNL     1      13.854  14.581  66.626  1.00  0.00    -0.377 OA
ATOM     29  H6  UNL     1      14.241  15.438  66.769  1.00  0.00     0.212 HD
ENDBRANCH  27  28
ENDBRANCH  26  27
ENDBRANCH  24  26
ENDBRANCH  23  24
ENDBRANCH  22  23
ENDBRANCH  20  22
ENDBRANCH  17  18
BRANCH   1  30
HETATM   30  C2  UNL     1      18.703  15.819  62.534  1.00  0.00    -0.084 C 
HETATM   31  C1  UNL     1      18.508  16.636  63.591  1.00  0.00     0.014 C 
HETATM   32  C3  UNL     1      17.606  15.764  61.525  1.00  0.00     0.043 C 
ENDBRANCH   1  30
TORSDOF 8
ENDMDL
MODEL 2
REMARK VINA RESULT: -6.687832464      2.761      7.007
REMARK  8 active torsions:
REMARK  status: ('A' for Active; 'I' for Inactive)
REMARK    1  A    between atoms: C2_2  and  C4_4 
REMARK    2  A    between atoms: C18_20  and  C19_21 
REMARK       I    between atoms: C19_21  and  N1_23 
REMARK    3  A    between atoms: N1_23  and  C20_25 
REMARK    4  A    between atoms: C20_25  and  C21_26 
REMARK    5  A    between atoms: C21_26  and  C22_27 
REMARK    6  A    between atoms: C22_27  and  O5_29 
REMARK    7  A    between atoms: O5_29  and  C23_30 
REMARK    8  A    between atoms: C23_30  and  O6_31 
ROOT
HETATM    1  C4  UNL     1      20.164  14.398  61.415  1.00  0.00     0.052 C 
HETATM    2  C5  UNL     1      19.845  15.565  62.345  1.00  0.00     0.026 C 
HETATM    3  C6  UNL     1      18.484  16.113  62.374  1.00  0.00    -0.008 C 
HETATM    4  C7  UNL     1      18.449  17.015  63.649  1.00  0.00     0.018 C 
HETATM    5  C8  UNL     1      18.208  17.116  61.264  1.00  0.00     0.122 C 
HETATM    6  C9  UNL     1      16.726  17.159  61.353  1.00  0.00     0.260 C 
HETATM    7  O1  UNL     1      16.007  18.154  61.168  1.00  0.00    -0.265 OA
HETATM    8  O2  UNL     1      16.291  15.894  61.680  1.00  0.00    -0.315 OA
HETATM    9  C10 UNL     1      17.328  15.231  62.423  1.00  0.00     0.141 C 
HETATM   10  C11 UNL     1      16.831  14.962  63.834  1.00  0.00     0.037 C 
HETATM   11  C12 UNL     1      16.351  13.575  64.001  1.00  0.00     0.036 C 
HETATM   12  C13 UNL     1      17.030  12.523  63.217  1.00  0.00    -0.087 C 
HETATM   13  C14 UNL     1      16.116  11.722  62.347  1.00  0.00     0.043 C 
HETATM   14  C15 UNL     1      18.297  12.216  63.192  1.00  0.00    -0.020 C 
HETATM   15  C16 UNL     1      19.426  12.862  63.968  1.00  0.00     0.055 C 
HETATM   16  C17 UNL     1      20.678  12.801  63.220  1.00  0.00    -0.010 C 
HETATM   17  C18 UNL     1      21.052  13.433  62.112  1.00  0.00     0.014 C 
ENDROOT
BRANCH  17  18
HETATM   18  C19 UNL     1      22.359  13.035  61.530  1.00  0.00     0.248 C 
HETATM   19  O3  UNL     1      22.361  12.250  60.569  1.00  0.00    -0.268 OA
HETATM   20  N1  UNL     1      23.609  13.474  61.976  1.00  0.00    -0.353 N 
ATOM     21  H1  UNL     1      23.599  14.099  62.782  1.00  0.00     0.163 HD
BRANCH  20  22
HETATM   22  C20 UNL     1      24.887  13.164  61.452  1.00  0.00     0.156 C 
BRANCH  22  23
HETATM   23  C21 UNL     1      26.097  13.705  62.072  1.00  0.00     0.075 C 
BRANCH  23  24
HETATM   24  C22 UNL     1      26.196  14.000  63.486  1.00  0.00     0.282 C 
HETATM   25  O4  UNL     1      27.264  13.746  64.113  1.00  0.00    -0.260 OA
BRANCH  24  26
HETATM   26  O5  UNL     1      25.158  14.562  64.211  1.00  0.00    -0.293 OA
BRANCH  26  27
HETATM   27  C23 UNL     1      24.847  15.933  64.115  1.00  0.00     0.345 C 
BRANCH  27  28
HETATM   28  O6  UNL     1      23.627  16.152  63.455  1.00  0.00    -0.377 OA
ATOM     29  H6  UNL     1      23.668  16.896  62.864  1.00  0.00     0.212 HD
ENDBRANCH  27  28
ENDBRANCH  26  27
ENDBRANCH  24  26
ENDBRANCH  23  24
ENDBRANCH  22  23
ENDBRANCH  20  22
ENDBRANCH  17  18
BRANCH   1  30
HETATM   30  C2  UNL     1      20.737  15.061  60.214  1.00  0.00    -0.084 C 
HETATM   31  C1  UNL     1      20.207  14.835  58.994  1.00  0.00     0.014 C 
HETATM   32  C3  UNL     1      21.800  16.105  60.295  1.00  0.00     0.043 C 
ENDBRANCH   1  30
TORSDOF 8
ENDMDL
MODEL 3
REMARK VINA RESULT: -6.626493719      3.554      6.499
REMARK  8 active torsions:
REMARK  status: ('A' for Active; 'I' for Inactive)
REMARK    1  A    between atoms: C2_2  and  C4_4 
REMARK    2  A    between atoms: C18_20  and  C19_21 
REMARK       I    between atoms: C19_21  and  N1_23 
REMARK    3  A    between atoms: N1_23  and  C20_25 
REMARK    4  A    between atoms: C20_25  and  C21_26 
REMARK    5  A    between atoms: C21_26  and  C22_27 
REMARK    6  A    between atoms: C22_27  and  O5_29 
REMARK    7  A    between atoms: O5_29  and  C23_30 
REMARK    8  A    between atoms: C23_30  and  O6_31 
ROOT
HETATM    1  C4  UNL     1      15.298  15.047  62.710  1.00  0.00     0.052 C 
HETATM    2  C5  UNL     1      16.571  15.176  63.541  1.00  0.00     0.026 C 
HETATM    3  C6  UNL     1      17.877  15.047  62.884  1.00  0.00    -0.008 C 
HETATM    4  C7  UNL     1      18.902  15.574  63.940  1.00  0.00     0.018 C 
HETATM    5  C8  UNL     1      18.324  13.605  62.696  1.00  0.00     0.122 C 
HETATM    6  C9  UNL     1      19.417  13.828  61.716  1.00  0.00     0.260 C 
HETATM    7  O1  UNL     1      20.483  13.194  61.647  1.00  0.00    -0.265 OA
HETATM    8  O2  UNL     1      19.037  14.866  60.895  1.00  0.00    -0.315 OA
HETATM    9  C10 UNL     1      18.148  15.726  61.627  1.00  0.00     0.141 C 
HETATM   10  C11 UNL     1      18.805  17.084  61.801  1.00  0.00     0.037 C 
HETATM   11  C12 UNL     1      18.325  18.068  60.808  1.00  0.00     0.036 C 
HETATM   12  C13 UNL     1      16.923  17.950  60.361  1.00  0.00    -0.087 C 
HETATM   13  C14 UNL     1      16.762  17.807  58.881  1.00  0.00     0.043 C 
HETATM   14  C15 UNL     1      15.835  17.956  61.079  1.00  0.00    -0.020 C 
HETATM   15  C16 UNL     1      15.715  18.085  62.584  1.00  0.00     0.055 C 
HETATM   16  C17 UNL     1      14.548  17.365  63.081  1.00  0.00    -0.010 C 
HETATM   17  C18 UNL     1      14.306  16.060  63.155  1.00  0.00     0.014 C 
ENDROOT
BRANCH  17  18
HETATM   18  C19 UNL     1      12.945  15.660  63.591  1.00  0.00     0.248 C 
HETATM   19  O3  UNL     1      12.048  15.597  62.736  1.00  0.00    -0.268 OA
HETATM   20  N1  UNL     1      12.577  15.342  64.902  1.00  0.00    -0.353 N 
ATOM     21  H1  UNL     1      13.315  15.421  65.601  1.00  0.00     0.163 HD
BRANCH  20  22
HETATM   22  C20 UNL     1      11.313  14.924  65.383  1.00  0.00     0.156 C 
BRANCH  22  23
HETATM   23  C21 UNL     1      10.088  15.587  64.934  1.00  0.00     0.075 C 
BRANCH  23  24
HETATM   24  C22 UNL     1       8.854  14.876  64.677  1.00  0.00     0.282 C 
HETATM   25  O4  UNL     1       8.106  14.537  65.638  1.00  0.00    -0.260 OA
BRANCH  24  26
HETATM   26  O5  UNL     1       8.432  14.539  63.401  1.00  0.00    -0.293 OA
BRANCH  26  27
HETATM   27  C23 UNL     1       7.259  13.789  63.185  1.00  0.00     0.345 C 
BRANCH  27  28
HETATM   28  O6  UNL     1       7.078  13.469  61.829  1.00  0.00    -0.377 OA
ATOM     29  H6  UNL     1       6.646  12.631  61.714  1.00  0.00     0.212 HD
ENDBRANCH  27  28
ENDBRANCH  26  27
ENDBRANCH  24  26
ENDBRANCH  23  24
ENDBRANCH  22  23
ENDBRANCH  20  22
ENDBRANCH  17  18
BRANCH   1  30
HETATM   30  C2  UNL     1      14.906  13.625  62.897  1.00  0.00    -0.084 C 
HETATM   31  C1  UNL     1      14.502  12.886  61.842  1.00  0.00     0.014 C 
HETATM   32  C3  UNL     1      15.076  12.902  64.190  1.00  0.00     0.043 C 
ENDBRANCH   1  30
TORSDOF 8
ENDMDL
MODEL 4
REMARK VINA RESULT: -6.620142559      0.953      1.030
REMARK  8 active torsions:
REMARK  status: ('A' for Active; 'I' for Inactive)
REMARK    1  A    between atoms: C2_2  and  C4_4 
REMARK    2  A    between atoms: C18_20  and  C19_21 
REMARK       I    between atoms: C19_21  and  N1_23 
REMARK    3  A    between atoms: N1_23  and  C20_25 
REMARK    4  A    between atoms: C20_25  and  C21_26 
REMARK    5  A    between atoms: C21_26  and  C22_27 
REMARK    6  A    between atoms: C22_27  and  O5_29 
REMARK    7  A    between atoms: O5_29  and  C23_30 
REMARK    8  A    between atoms: C23_30  and  O6_31 
ROOT
HETATM    1  C4  UNL     1      19.800  15.130  62.365  1.00  0.00     0.052 C 
HETATM    2  C5  UNL     1      20.068  15.363  60.881  1.00  0.00     0.026 C 
HETATM    3  C6  UNL     1      20.966  16.451  60.473  1.00  0.00    -0.008 C 
HETATM    4  C7  UNL     1      21.270  16.166  58.967  1.00  0.00     0.018 C 
HETATM    5  C8  UNL     1      20.286  17.810  60.411  1.00  0.00     0.122 C 
HETATM    6  C9  UNL     1      21.494  18.671  60.357  1.00  0.00     0.260 C 
HETATM    7  O1  UNL     1      21.612  19.733  59.725  1.00  0.00    -0.265 OA
HETATM    8  O2  UNL     1      22.464  18.080  61.135  1.00  0.00    -0.315 OA
HETATM    9  C10 UNL     1      22.236  16.660  61.150  1.00  0.00     0.141 C 
HETATM   10  C11 UNL     1      23.405  15.965  60.472  1.00  0.00     0.037 C 
HETATM   11  C12 UNL     1      24.379  15.434  61.447  1.00  0.00     0.036 C 
HETATM   12  C13 UNL     1      23.851  14.955  62.741  1.00  0.00    -0.087 C 
HETATM   13  C14 UNL     1      24.460  15.618  63.934  1.00  0.00     0.043 C 
HETATM   14  C15 UNL     1      22.943  14.047  62.963  1.00  0.00    -0.020 C 
HETATM   15  C16 UNL     1      22.174  13.230  61.944  1.00  0.00     0.055 C 
HETATM   16  C17 UNL     1      20.841  12.897  62.436  1.00  0.00    -0.010 C 
HETATM   17  C18 UNL     1      19.780  13.671  62.645  1.00  0.00     0.014 C 
ENDROOT
BRANCH  17  18
HETATM   18  C19 UNL     1      18.608  13.030  63.290  1.00  0.00     0.248 C 
HETATM   19  O3  UNL     1      18.518  13.075  64.528  1.00  0.00    -0.268 OA
HETATM   20  N1  UNL     1      17.576  12.368  62.618  1.00  0.00    -0.353 N 
ATOM     21  H1  UNL     1      17.671  12.314  61.604  1.00  0.00     0.163 HD
BRANCH  20  22
HETATM   22  C20 UNL     1      16.417  11.764  63.162  1.00  0.00     0.156 C 
BRANCH  22  23
HETATM   23  C21 UNL     1      15.101  12.378  62.978  1.00  0.00     0.075 C 
BRANCH  23  24
HETATM   24  C22 UNL     1      14.789  13.721  63.419  1.00  0.00     0.282 C 
HETATM   25  O4  UNL     1      15.515  14.291  64.282  1.00  0.00    -0.260 OA
BRANCH  24  26
HETATM   26  O5  UNL     1      13.709  14.440  62.932  1.00  0.00    -0.293 OA
BRANCH  26  27
HETATM   27  C23 UNL     1      13.479  15.777  63.312  1.00  0.00     0.345 C 
BRANCH  27  28
HETATM   28  O6  UNL     1      12.214  16.232  62.906  1.00  0.00    -0.377 OA
ATOM     29  H6  UNL     1      12.009  17.088  63.265  1.00  0.00     0.212 HD
ENDBRANCH  27  28
ENDBRANCH  26  27
ENDBRANCH  24  26
ENDBRANCH  23  24
ENDBRANCH  22  23
ENDBRANCH  20  22
ENDBRANCH  17  18
BRANCH   1  30
HETATM   30  C2  UNL     1      18.525  15.856  62.603  1.00  0.00    -0.084 C 
HETATM   31  C1  UNL     1      18.411  16.707  63.645  1.00  0.00     0.014 C 
HETATM   32  C3  UNL     1      17.379  15.814  61.650  1.00  0.00     0.043 C 
ENDBRANCH   1  30
TORSDOF 8
ENDMDL
MODEL 5
REMARK VINA RESULT: -6.552304059      3.047      6.999
REMARK  8 active torsions:
REMARK  status: ('A' for Active; 'I' for Inactive)
REMARK    1  A    between atoms: C2_2  and  C4_4 
REMARK    2  A    between atoms: C18_20  and  C19_21 
REMARK       I    between atoms: C19_21  and  N1_23 
REMARK    3  A    between atoms: N1_23  and  C20_25 
REMARK    4  A    between atoms: C20_25  and  C21_26 
REMARK    5  A    between atoms: C21_26  and  C22_27 
REMARK    6  A    between atoms: C22_27  and  O5_29 
REMARK    7  A    between atoms: O5_29  and  C23_30 
REMARK    8  A    between atoms: C23_30  and  O6_31 
ROOT
HETATM    1  C4  UNL     1      20.131  14.584  61.267  1.00  0.00     0.052 C 
HETATM    2  C5  UNL     1      19.823  15.707  62.252  1.00  0.00     0.026 C 
HETATM    3  C6  UNL     1      18.442  16.188  62.389  1.00  0.00    -0.008 C 
HETATM    4  C7  UNL     1      18.453  17.050  63.692  1.00  0.00     0.018 C 
HETATM    5  C8  UNL     1      18.046  17.208  61.333  1.00  0.00     0.122 C 
HETATM    6  C9  UNL     1      16.574  17.177  61.521  1.00  0.00     0.260 C 
HETATM    7  O1  UNL     1      15.799  18.142  61.416  1.00  0.00    -0.265 OA
HETATM    8  O2  UNL     1      16.220  15.884  61.836  1.00  0.00    -0.315 OA
HETATM    9  C10 UNL     1      17.334  15.251  62.487  1.00  0.00     0.141 C 
HETATM   10  C11 UNL     1      16.947  14.918  63.918  1.00  0.00     0.037 C 
HETATM   11  C12 UNL     1      16.544  13.505  64.072  1.00  0.00     0.036 C 
HETATM   12  C13 UNL     1      17.216  12.510  63.212  1.00  0.00    -0.087 C 
HETATM   13  C14 UNL     1      16.282  11.691  62.379  1.00  0.00     0.043 C 
HETATM   14  C15 UNL     1      18.490  12.265  63.093  1.00  0.00    -0.020 C 
HETATM   15  C16 UNL     1      19.639  12.941  63.812  1.00  0.00     0.055 C 
HETATM   16  C17 UNL     1      20.839  12.962  62.982  1.00  0.00    -0.010 C 
HETATM   17  C18 UNL     1      21.108  13.643  61.872  1.00  0.00     0.014 C 
ENDROOT
BRANCH  17  18
HETATM   18  C19 UNL     1      22.389  13.325  61.193  1.00  0.00     0.248 C 
HETATM   19  O3  UNL     1      22.416  12.365  60.407  1.00  0.00    -0.268 OA
HETATM   20  N1  UNL     1      23.588  14.023  61.361  1.00  0.00    -0.353 N 
ATOM     21  H1  UNL     1      23.563  14.794  62.028  1.00  0.00     0.163 HD
BRANCH  20  22
HETATM   22  C20 UNL     1      24.833  13.798  60.726  1.00  0.00     0.156 C 
BRANCH  22  23
HETATM   23  C21 UNL     1      25.940  13.178  61.456  1.00  0.00     0.075 C 
BRANCH  23  24
HETATM   24  C22 UNL     1      25.807  12.660  62.801  1.00  0.00     0.282 C 
HETATM   25  O4  UNL     1      25.702  13.454  63.779  1.00  0.00    -0.260 OA
BRANCH  24  26
HETATM   26  O5  UNL     1      25.785  11.304  63.085  1.00  0.00    -0.293 OA
BRANCH  26  27
HETATM   27  C23 UNL     1      24.578  10.581  63.142  1.00  0.00     0.345 C 
BRANCH  27  28
HETATM   28  O6  UNL     1      23.690  11.107  64.095  1.00  0.00    -0.377 OA
ATOM     29  H6  UNL     1      24.098  11.207  64.947  1.00  0.00     0.212 HD
ENDBRANCH  27  28
ENDBRANCH  26  27
ENDBRANCH  24  26
ENDBRANCH  23  24
ENDBRANCH  22  23
ENDBRANCH  20  22
ENDBRANCH  17  18
BRANCH   1  30
HETATM   30  C2  UNL     1      20.590  15.308  60.052  1.00  0.00    -0.084 C 
HETATM   31  C1  UNL     1      20.130  14.954  58.834  1.00  0.00     0.014 C 
HETATM   32  C3  UNL     1      21.441  16.532  60.113  1.00  0.00     0.043 C 
ENDBRANCH   1  30
TORSDOF 8
ENDMDL
