MODEL 1
REMARK VINA RESULT: -8.526755331      0.000      0.000
REMARK  9 active torsions:
REMARK  status: ('A' for Active; 'I' for Inactive)
REMARK    1  A    between atoms: C2_2  and  C3_3 
REMARK    2  A    between atoms: C4_5  and  N1_6 
REMARK    3  A    between atoms: C10_14  and  C11_15 
REMARK    4  A    between atoms: C11_15  and  S2_16 
REMARK    5  A    between atoms: S2_16  and  C12_17 
REMARK    6  A    between atoms: C12_17  and  C13_18 
REMARK    7  A    between atoms: C13_18  and  O1_19 
REMARK    8  A    between atoms: C13_18  and  N3_21 
REMARK    9  A    between atoms: N3_21  and  C14_23 
ROOT
HETATM    1  C11 UNL     1      14.440  13.407  63.455  1.00  0.00     0.118 C 
ENDROOT
BRANCH   1   2
HETATM    2  C10 UNL     1      15.663  14.123  62.839  1.00  0.00    -0.029 A 
HETATM    3  C3  UNL     1      16.900  13.726  63.258  1.00  0.00     0.013 A 
HETATM    4  S1  UNL     1      17.906  15.022  62.968  1.00  0.00    -0.072 SA
HETATM    5  C4  UNL     1      16.748  16.124  62.256  1.00  0.00     0.073 A 
HETATM    6  C9  UNL     1      15.586  15.386  62.292  1.00  0.00     0.046 A 
BRANCH   3   7
HETATM    7  C2  UNL     1      17.248  12.293  63.495  1.00  0.00     0.009 C 
HETATM    8  C1  UNL     1      18.379  11.949  63.908  1.00  0.00     0.013 C 
ENDBRANCH   3   7
BRANCH   5   9
HETATM    9  N1  UNL     1      17.120  17.420  61.827  1.00  0.00    -0.366 N 
HETATM   10  C5  UNL     1      16.669  18.568  62.620  1.00  0.00     0.168 C 
HETATM   11  C6  UNL     1      17.925  18.970  63.381  1.00  0.00     0.080 C 
HETATM   12  N2  UNL     1      19.068  19.068  62.599  1.00  0.00    -0.379 N 
HETATM   13  C7  UNL     1      19.276  18.300  61.448  1.00  0.00     0.080 C 
ATOM     14  H2  UNL     1      19.791  19.732  62.877  1.00  0.00     0.164 HD
HETATM   15  C8  UNL     1      18.013  17.748  60.761  1.00  0.00     0.168 C 
ENDBRANCH   5   9
ENDBRANCH   1   2
BRANCH   1  16
HETATM   16  S2  UNL     1      13.942  14.100  65.006  1.00  0.00    -0.133 SA
BRANCH  16  17
HETATM   17  C12 UNL     1      12.903  15.599  64.719  1.00  0.00     0.101 C 
BRANCH  17  18
HETATM   18  C13 UNL     1      11.900  15.473  63.825  1.00  0.00     0.147 C 
BRANCH  18  19
HETATM   19  O1  UNL     1      12.356  16.596  62.844  1.00  0.00    -0.346 OA
ATOM     20  H1  UNL     1      13.237  16.277  62.686  1.00  0.00     0.219 HD
ENDBRANCH  18  19
BRANCH  18  21
HETATM   21  N3  UNL     1      10.786  15.084  63.168  1.00  0.00    -0.330 N 
ATOM     22  H3  UNL     1      10.814  14.937  62.159  1.00  0.00     0.168 HD
BRANCH  21  23
HETATM   23  C14 UNL     1       9.548  14.873  63.898  1.00  0.00     0.093 A 
HETATM   24  C15 UNL     1       8.385  14.223  63.415  1.00  0.00     0.128 A 
HETATM   25  N4  UNL     1       7.524  14.023  64.368  1.00  0.00    -0.352 N 
HETATM   26  C16 UNL     1       7.613  14.330  65.561  1.00  0.00     0.055 A 
HETATM   27  C19 UNL     1       6.136  13.316  64.211  1.00  0.00     0.129 A 
HETATM   28  S3  UNL     1       9.229  15.088  65.557  1.00  0.00    -0.058 SA
HETATM   29  C17 UNL     1       6.522  13.982  66.481  1.00  0.00     0.067 A 
HETATM   30  C18 UNL     1       5.590  13.245  65.572  1.00  0.00     0.027 A 
ENDBRANCH  21  23
ENDBRANCH  18  21
ENDBRANCH  17  18
ENDBRANCH  16  17
ENDBRANCH   1  16
TORSDOF 9
ENDMDL
MODEL 2
REMARK VINA RESULT: -8.409132573      0.673      1.119
REMARK  9 active torsions:
REMARK  status: ('A' for Active; 'I' for Inactive)
REMARK    1  A    between atoms: C2_2  and  C3_3 
REMARK    2  A    between atoms: C4_5  and  N1_6 
REMARK    3  A    between atoms: C10_14  and  C11_15 
REMARK    4  A    between atoms: C11_15  and  S2_16 
REMARK    5  A    between atoms: S2_16  and  C12_17 
REMARK    6  A    between atoms: C12_17  and  C13_18 
REMARK    7  A    between atoms: C13_18  and  O1_19 
REMARK    8  A    between atoms: C13_18  and  N3_21 
REMARK    9  A    between atoms: N3_21  and  C14_23 
ROOT
HETATM    1  C11 UNL     1      14.516  13.374  63.565  1.00  0.00     0.118 C 
ENDROOT
BRANCH   1   2
HETATM    2  C10 UNL     1      15.731  14.159  63.022  1.00  0.00    -0.029 A 
HETATM    3  C3  UNL     1      16.970  13.761  63.435  1.00  0.00     0.013 A 
HETATM    4  S1  UNL     1      17.950  15.097  63.255  1.00  0.00    -0.072 SA
HETATM    5  C4  UNL     1      16.778  16.219  62.601  1.00  0.00     0.073 A 
HETATM    6  C9  UNL     1      15.633  15.454  62.564  1.00  0.00     0.046 A 
BRANCH   3   7
HETATM    7  C2  UNL     1      17.349  12.323  63.578  1.00  0.00     0.009 C 
HETATM    8  C1  UNL     1      18.512  11.974  63.883  1.00  0.00     0.013 C 
ENDBRANCH   3   7
BRANCH   5   9
HETATM    9  N1  UNL     1      17.126  17.550  62.270  1.00  0.00    -0.366 N 
HETATM   10  C5  UNL     1      18.542  17.929  62.326  1.00  0.00     0.168 C 
HETATM   11  C6  UNL     1      18.946  17.955  60.858  1.00  0.00     0.080 C 
HETATM   12  N2  UNL     1      18.072  18.645  60.030  1.00  0.00    -0.379 N 
HETATM   13  C7  UNL     1      16.700  18.749  60.283  1.00  0.00     0.080 C 
ATOM     14  H2  UNL     1      18.448  19.098  59.197  1.00  0.00     0.164 HD
HETATM   15  C8  UNL     1      16.261  18.560  61.747  1.00  0.00     0.168 C 
ENDBRANCH   5   9
ENDBRANCH   1   2
BRANCH   1  16
HETATM   16  S2  UNL     1      13.866  14.056  65.063  1.00  0.00    -0.133 SA
BRANCH  16  17
HETATM   17  C12 UNL     1      12.896  15.582  64.690  1.00  0.00     0.101 C 
BRANCH  17  18
HETATM   18  C13 UNL     1      11.884  15.450  63.809  1.00  0.00     0.147 C 
BRANCH  18  19
HETATM   19  O1  UNL     1      12.311  16.586  62.830  1.00  0.00    -0.346 OA
ATOM     20  H1  UNL     1      13.249  16.439  62.867  1.00  0.00     0.219 HD
ENDBRANCH  18  19
BRANCH  18  21
HETATM   21  N3  UNL     1      10.766  15.051  63.163  1.00  0.00    -0.330 N 
ATOM     22  H3  UNL     1      10.788  14.892  62.156  1.00  0.00     0.168 HD
BRANCH  21  23
HETATM   23  C14 UNL     1       9.533  14.847  63.904  1.00  0.00     0.093 A 
HETATM   24  C15 UNL     1       8.351  14.232  63.420  1.00  0.00     0.128 A 
HETATM   25  N4  UNL     1       7.498  14.025  64.379  1.00  0.00    -0.352 N 
HETATM   26  C16 UNL     1       7.608  14.303  65.578  1.00  0.00     0.055 A 
HETATM   27  C19 UNL     1       6.095  13.350  64.222  1.00  0.00     0.129 A 
HETATM   28  S3  UNL     1       9.238  15.028  65.571  1.00  0.00    -0.058 SA
HETATM   29  C17 UNL     1       6.521  13.954  66.503  1.00  0.00     0.067 A 
HETATM   30  C18 UNL     1       5.564  13.257  65.588  1.00  0.00     0.027 A 
ENDBRANCH  21  23
ENDBRANCH  18  21
ENDBRANCH  17  18
ENDBRANCH  16  17
ENDBRANCH   1  16
TORSDOF 9
ENDMDL
MODEL 3
REMARK VINA RESULT: -8.363990469      1.643      2.054
REMARK  9 active torsions:
REMARK  status: ('A' for Active; 'I' for Inactive)
REMARK    1  A    between atoms: C2_2  and  C3_3 
REMARK    2  A    between atoms: C4_5  and  N1_6 
REMARK    3  A    between atoms: C10_14  and  C11_15 
REMARK    4  A    between atoms: C11_15  and  S2_16 
REMARK    5  A    between atoms: S2_16  and  C12_17 
REMARK    6  A    between atoms: C12_17  and  C13_18 
REMARK    7  A    between atoms: C13_18  and  O1_19 
REMARK    8  A    between atoms: C13_18  and  N3_21 
REMARK    9  A    between atoms: N3_21  and  C14_23 
ROOT
HETATM    1  C11 UNL     1      13.687  14.269  64.412  1.00  0.00     0.118 C 
ENDROOT
BRANCH   1   2
HETATM    2  C10 UNL     1      14.789  14.612  63.385  1.00  0.00    -0.029 A 
HETATM    3  C3  UNL     1      15.859  13.768  63.308  1.00  0.00     0.013 A 
HETATM    4  S1  UNL     1      17.099  14.679  62.667  1.00  0.00    -0.072 SA
HETATM    5  C4  UNL     1      16.251  16.194  62.446  1.00  0.00     0.073 A 
HETATM    6  C9  UNL     1      14.991  15.891  62.913  1.00  0.00     0.046 A 
BRANCH   3   7
HETATM    7  C2  UNL     1      15.722  12.283  63.391  1.00  0.00     0.009 C 
HETATM    8  C1  UNL     1      16.646  11.515  63.040  1.00  0.00     0.013 C 
ENDBRANCH   3   7
BRANCH   5   9
HETATM    9  N1  UNL     1      16.894  17.336  61.914  1.00  0.00    -0.366 N 
HETATM   10  C5  UNL     1      16.675  18.626  62.578  1.00  0.00     0.168 C 
HETATM   11  C6  UNL     1      17.971  18.835  63.349  1.00  0.00     0.080 C 
HETATM   12  N2  UNL     1      19.126  18.618  62.610  1.00  0.00    -0.379 N 
HETATM   13  C7  UNL     1      19.193  17.713  61.545  1.00  0.00     0.080 C 
ATOM     14  H2  UNL     1      19.964  19.144  62.855  1.00  0.00     0.164 HD
HETATM   15  C8  UNL     1      17.858  17.367  60.860  1.00  0.00     0.168 C 
ENDBRANCH   5   9
ENDBRANCH   1   2
BRANCH   1  16
HETATM   16  S2  UNL     1      12.467  15.542  64.568  1.00  0.00    -0.133 SA
BRANCH  16  17
HETATM   17  C12 UNL     1      10.874  14.816  65.158  1.00  0.00     0.101 C 
BRANCH  17  18
HETATM   18  C13 UNL     1       9.775  15.111  64.435  1.00  0.00     0.147 C 
BRANCH  18  19
HETATM   19  O1  UNL     1      10.443  15.095  63.026  1.00  0.00    -0.346 OA
ATOM     20  H1  UNL     1      10.269  16.000  62.793  1.00  0.00     0.219 HD
ENDBRANCH  18  19
BRANCH  18  21
HETATM   21  N3  UNL     1       8.517  15.416  64.048  1.00  0.00    -0.330 N 
ATOM     22  H3  UNL     1       8.250  16.389  63.901  1.00  0.00     0.168 HD
BRANCH  21  23
HETATM   23  C14 UNL     1       7.544  14.357  63.840  1.00  0.00     0.093 A 
HETATM   24  C15 UNL     1       7.368  13.593  62.660  1.00  0.00     0.128 A 
HETATM   25  N4  UNL     1       6.554  12.599  62.856  1.00  0.00    -0.352 N 
HETATM   26  C16 UNL     1       5.958  12.287  63.892  1.00  0.00     0.055 A 
HETATM   27  C19 UNL     1       6.140  11.534  61.786  1.00  0.00     0.129 A 
HETATM   28  S3  UNL     1       6.555  13.568  64.981  1.00  0.00    -0.058 SA
HETATM   29  C17 UNL     1       5.098  11.096  63.900  1.00  0.00     0.067 A 
HETATM   30  C18 UNL     1       5.297  10.575  62.512  1.00  0.00     0.027 A 
ENDBRANCH  21  23
ENDBRANCH  18  21
ENDBRANCH  17  18
ENDBRANCH  16  17
ENDBRANCH   1  16
TORSDOF 9
ENDMDL
MODEL 4
REMARK VINA RESULT: -8.275445941      1.788      2.443
REMARK  9 active torsions:
REMARK  status: ('A' for Active; 'I' for Inactive)
REMARK    1  A    between atoms: C2_2  and  C3_3 
REMARK    2  A    between atoms: C4_5  and  N1_6 
REMARK    3  A    between atoms: C10_14  and  C11_15 
REMARK    4  A    between atoms: C11_15  and  S2_16 
REMARK    5  A    between atoms: S2_16  and  C12_17 
REMARK    6  A    between atoms: C12_17  and  C13_18 
REMARK    7  A    between atoms: C13_18  and  O1_19 
REMARK    8  A    between atoms: C13_18  and  N3_21 
REMARK    9  A    between atoms: N3_21  and  C14_23 
ROOT
HETATM    1  C11 UNL     1      13.688  14.291  64.411  1.00  0.00     0.118 C 
ENDROOT
BRANCH   1   2
HETATM    2  C10 UNL     1      14.815  14.602  63.402  1.00  0.00    -0.029 A 
HETATM    3  C3  UNL     1      15.855  13.720  63.331  1.00  0.00     0.013 A 
HETATM    4  S1  UNL     1      17.136  14.589  62.715  1.00  0.00    -0.072 SA
HETATM    5  C4  UNL     1      16.348  16.136  62.498  1.00  0.00     0.073 A 
HETATM    6  C9  UNL     1      15.071  15.876  62.944  1.00  0.00     0.046 A 
BRANCH   3   7
HETATM    7  C2  UNL     1      15.661  12.240  63.398  1.00  0.00     0.009 C 
HETATM    8  C1  UNL     1      16.558  11.441  63.046  1.00  0.00     0.013 C 
ENDBRANCH   3   7
BRANCH   5   9
HETATM    9  N1  UNL     1      17.040  17.259  61.984  1.00  0.00    -0.366 N 
HETATM   10  C5  UNL     1      18.477  17.126  61.726  1.00  0.00     0.168 C 
HETATM   11  C6  UNL     1      18.539  16.985  60.211  1.00  0.00     0.080 C 
HETATM   12  N2  UNL     1      17.788  17.919  59.512  1.00  0.00    -0.379 N 
HETATM   13  C7  UNL     1      16.619  18.495  60.019  1.00  0.00     0.080 C 
ATOM     14  H2  UNL     1      18.104  18.199  58.584  1.00  0.00     0.164 HD
HETATM   15  C8  UNL     1      16.470  18.496  61.553  1.00  0.00     0.168 C 
ENDBRANCH   5   9
ENDBRANCH   1   2
BRANCH   1  16
HETATM   16  S2  UNL     1      12.440  15.546  64.462  1.00  0.00    -0.133 SA
BRANCH  16  17
HETATM   17  C12 UNL     1      10.867  14.841  65.123  1.00  0.00     0.101 C 
BRANCH  17  18
HETATM   18  C13 UNL     1       9.743  15.126  64.433  1.00  0.00     0.147 C 
BRANCH  18  19
HETATM   19  O1  UNL     1      10.367  15.104  63.004  1.00  0.00    -0.346 OA
ATOM     20  H1  UNL     1       9.557  15.032  62.514  1.00  0.00     0.219 HD
ENDBRANCH  18  19
BRANCH  18  21
HETATM   21  N3  UNL     1       8.472  15.421  64.084  1.00  0.00    -0.330 N 
ATOM     22  H3  UNL     1       8.186  16.394  63.975  1.00  0.00     0.168 HD
BRANCH  21  23
HETATM   23  C14 UNL     1       7.512  14.353  63.863  1.00  0.00     0.093 A 
HETATM   24  C15 UNL     1       7.354  13.594  62.677  1.00  0.00     0.128 A 
HETATM   25  N4  UNL     1       6.550  12.589  62.861  1.00  0.00    -0.352 N 
HETATM   26  C16 UNL     1       5.949  12.265  63.891  1.00  0.00     0.055 A 
HETATM   27  C19 UNL     1       6.155  11.526  61.783  1.00  0.00     0.129 A 
HETATM   28  S3  UNL     1       6.524  13.547  64.992  1.00  0.00    -0.058 SA
HETATM   29  C17 UNL     1       5.102  11.065  63.886  1.00  0.00     0.067 A 
HETATM   30  C18 UNL     1       5.317  10.554  62.496  1.00  0.00     0.027 A 
ENDBRANCH  21  23
ENDBRANCH  18  21
ENDBRANCH  17  18
ENDBRANCH  16  17
ENDBRANCH   1  16
TORSDOF 9
ENDMDL
MODEL 5
REMARK VINA RESULT: -8.094003388      1.725      2.072
REMARK  9 active torsions:
REMARK  status: ('A' for Active; 'I' for Inactive)
REMARK    1  A    between atoms: C2_2  and  C3_3 
REMARK    2  A    between atoms: C4_5  and  N1_6 
REMARK    3  A    between atoms: C10_14  and  C11_15 
REMARK    4  A    between atoms: C11_15  and  S2_16 
REMARK    5  A    between atoms: S2_16  and  C12_17 
REMARK    6  A    between atoms: C12_17  and  C13_18 
REMARK    7  A    between atoms: C13_18  and  O1_19 
REMARK    8  A    between atoms: C13_18  and  N3_21 
REMARK    9  A    between atoms: N3_21  and  C14_23 
ROOT
HETATM    1  C11 UNL     1      16.459  12.877  63.324  1.00  0.00     0.118 C 
ENDROOT
BRANCH   1   2
HETATM    2  C10 UNL     1      17.180  14.189  62.943  1.00  0.00    -0.029 A 
HETATM    3  C3  UNL     1      18.478  14.331  63.341  1.00  0.00     0.013 A 
HETATM    4  S1  UNL     1      18.753  15.974  63.387  1.00  0.00    -0.072 SA
HETATM    5  C4  UNL     1      17.184  16.537  62.855  1.00  0.00     0.073 A 
HETATM    6  C9  UNL     1      16.500  15.356  62.668  1.00  0.00     0.046 A 
BRANCH   3   7
HETATM    7  C2  UNL     1      19.462  13.208  63.292  1.00  0.00     0.009 C 
HETATM    8  C1  UNL     1      20.621  13.366  62.845  1.00  0.00     0.013 C 
ENDBRANCH   3   7
BRANCH   5   9
HETATM    9  N1  UNL     1      16.892  17.916  62.728  1.00  0.00    -0.366 N 
HETATM   10  C5  UNL     1      17.770  18.875  63.407  1.00  0.00     0.168 C 
HETATM   11  C6  UNL     1      18.615  19.428  62.268  1.00  0.00     0.080 C 
HETATM   12  N2  UNL     1      17.893  19.816  61.148  1.00  0.00    -0.379 N 
HETATM   13  C7  UNL     1      16.685  19.218  60.772  1.00  0.00     0.080 C 
ATOM     14  H2  UNL     1      18.260  20.573  60.572  1.00  0.00     0.164 HD
HETATM   15  C8  UNL     1      15.898  18.510  61.891  1.00  0.00     0.168 C 
ENDBRANCH   5   9
ENDBRANCH   1   2
BRANCH   1  16
HETATM   16  S2  UNL     1      14.696  13.013  63.260  1.00  0.00    -0.133 SA
BRANCH  16  17
HETATM   17  C12 UNL     1      14.025  13.283  64.959  1.00  0.00     0.101 C 
BRANCH  17  18
HETATM   18  C13 UNL     1      13.257  14.378  65.135  1.00  0.00     0.147 C 
BRANCH  18  19
HETATM   19  O1  UNL     1      13.672  14.688  66.606  1.00  0.00    -0.346 OA
ATOM     20  H1  UNL     1      14.545  14.314  66.573  1.00  0.00     0.219 HD
ENDBRANCH  18  19
BRANCH  18  21
HETATM   21  N3  UNL     1      12.387  15.397  64.962  1.00  0.00    -0.330 N 
ATOM     22  H3  UNL     1      12.723  16.309  64.655  1.00  0.00     0.168 HD
BRANCH  21  23
HETATM   23  C14 UNL     1      10.970  15.193  65.214  1.00  0.00     0.093 A 
HETATM   24  C15 UNL     1       9.900  15.582  64.372  1.00  0.00     0.128 A 
HETATM   25  N4  UNL     1       8.770  15.086  64.781  1.00  0.00    -0.352 N 
HETATM   26  C16 UNL     1       8.557  14.371  65.765  1.00  0.00     0.055 A 
HETATM   27  C19 UNL     1       7.381  15.288  64.090  1.00  0.00     0.129 A 
HETATM   28  S3  UNL     1      10.218  14.232  66.403  1.00  0.00    -0.058 SA
HETATM   29  C17 UNL     1       7.192  13.895  66.031  1.00  0.00     0.067 A 
HETATM   30  C18 UNL     1       6.448  14.458  64.862  1.00  0.00     0.027 A 
ENDBRANCH  21  23
ENDBRANCH  18  21
ENDBRANCH  17  18
ENDBRANCH  16  17
ENDBRANCH   1  16
TORSDOF 9
ENDMDL
