MODEL 1
REMARK VINA RESULT: -8.845130425      0.000      0.000
REMARK  7 active torsions:
REMARK  status: ('A' for Active; 'I' for Inactive)
REMARK    1  A    between atoms: O1_2  and  C2_3 
REMARK    2  A    between atoms: C4_5  and  C5_6 
REMARK    3  A    between atoms: C6_7  and  C8_10 
REMARK       I    between atoms: C8_10  and  N2_12 
REMARK    4  A    between atoms: N2_12  and  C9_14 
REMARK    5  A    between atoms: C18_25  and  O3_26 
REMARK    6  A    between atoms: O3_26  and  C19_27 
REMARK    7  A    between atoms: C19_27  and  C20_28 
ROOT
HETATM    1  C5  UNL     1      15.568  14.043  63.556  1.00  0.00     0.058 C 
HETATM    2  C6  UNL     1      16.516  14.750  62.984  1.00  0.00     0.114 C 
HETATM    3  C7  UNL     1      16.290  16.123  62.643  1.00  0.00     0.105 C 
HETATM    4  N1  UNL     1      16.128  17.260  62.369  1.00  0.00    -0.191 NA
ENDROOT
BRANCH   2   5
HETATM    5  C8  UNL     1      17.832  14.150  62.678  1.00  0.00     0.262 C 
HETATM    6  O2  UNL     1      18.141  13.088  63.271  1.00  0.00    -0.267 OA
HETATM    7  N2  UNL     1      18.718  14.752  61.747  1.00  0.00    -0.351 N 
ATOM      8  H2  UNL     1      18.454  15.616  61.271  1.00  0.00     0.163 HD
BRANCH   7   9
HETATM    9  C9  UNL     1      19.979  14.140  61.481  1.00  0.00     0.095 C 
HETATM   10  C10 UNL     1      20.247  14.103  60.039  1.00  0.00     0.026 C 
HETATM   11  C11 UNL     1      20.147  15.294  59.145  1.00  0.00     0.002 C 
HETATM   12  C12 UNL     1      21.499  15.968  58.893  1.00  0.00     0.001 C 
HETATM   13  C13 UNL     1      21.899  17.145  59.672  1.00  0.00     0.011 C 
HETATM   14  C14 UNL     1      22.430  16.863  61.118  1.00  0.00     0.080 C 
HETATM   15  C15 UNL     1      21.612  15.823  61.586  1.00  0.00    -0.181 C 
HETATM   16  C16 UNL     1      21.086  14.788  62.378  1.00  0.00     0.105 C 
ENDBRANCH   7   9
ENDBRANCH   2   5
BRANCH   1  17
HETATM   17  C4  UNL     1      14.247  14.491  63.909  1.00  0.00     0.036 A 
HETATM   18  C3  UNL     1      13.712  14.246  65.136  1.00  0.00     0.069 A 
HETATM   19  C2  UNL     1      12.438  14.627  65.497  1.00  0.00     0.105 A 
HETATM   20  C18 UNL     1      11.641  15.311  64.545  1.00  0.00     0.117 A 
HETATM   21  C17 UNL     1      12.245  15.536  63.301  1.00  0.00     0.128 A 
HETATM   22  N3  UNL     1      13.475  15.144  63.015  1.00  0.00    -0.363 N 
ATOM     23  H3  UNL     1      13.852  15.341  62.088  1.00  0.00     0.165 HD
BRANCH  19  24
HETATM   24  O1  UNL     1      11.904  14.371  66.747  1.00  0.00    -0.353 OA
HETATM   25  C1  UNL     1      11.138  13.194  66.924  1.00  0.00     0.210 C 
ENDBRANCH  19  24
BRANCH  20  26
HETATM   26  O3  UNL     1      10.445  15.666  64.884  1.00  0.00    -0.346 OA
BRANCH  26  27
HETATM   27  C19 UNL     1       9.208  15.835  65.207  1.00  0.00     0.182 C 
BRANCH  27  28
HETATM   28  C20 UNL     1       8.281  14.697  64.799  1.00  0.00     0.036 C 
HETATM   29  C21 UNL     1       7.712  13.984  65.980  1.00  0.00     0.035 C 
HETATM   30  C22 UNL     1       6.224  14.034  65.709  1.00  0.00     0.168 C 
HETATM   31  O4  UNL     1       6.032  15.069  64.825  1.00  0.00    -0.391 OA
HETATM   32  C23 UNL     1       7.126  15.145  63.991  1.00  0.00     0.174 C 
ENDBRANCH  27  28
ENDBRANCH  26  27
ENDBRANCH  20  26
ENDBRANCH   1  17
TORSDOF 7
ENDMDL
MODEL 2
REMARK VINA RESULT: -8.843793857      1.024      1.523
REMARK  7 active torsions:
REMARK  status: ('A' for Active; 'I' for Inactive)
REMARK    1  A    between atoms: O1_2  and  C2_3 
REMARK    2  A    between atoms: C4_5  and  C5_6 
REMARK    3  A    between atoms: C6_7  and  C8_10 
REMARK       I    between atoms: C8_10  and  N2_12 
REMARK    4  A    between atoms: N2_12  and  C9_14 
REMARK    5  A    between atoms: C18_25  and  O3_26 
REMARK    6  A    between atoms: O3_26  and  C19_27 
REMARK    7  A    between atoms: C19_27  and  C20_28 
ROOT
HETATM    1  C5  UNL     1      15.782  14.384  63.885  1.00  0.00     0.058 C 
HETATM    2  C6  UNL     1      16.237  13.257  63.384  1.00  0.00     0.114 C 
HETATM    3  C7  UNL     1      15.330  12.212  63.012  1.00  0.00     0.105 C 
HETATM    4  N1  UNL     1      14.598  11.345  62.684  1.00  0.00    -0.191 NA
ENDROOT
BRANCH   2   5
HETATM    5  C8  UNL     1      17.687  13.040  63.195  1.00  0.00     0.262 C 
HETATM    6  O2  UNL     1      18.209  12.053  63.769  1.00  0.00    -0.267 OA
HETATM    7  N2  UNL     1      18.465  13.916  62.394  1.00  0.00    -0.351 N 
ATOM      8  H2  UNL     1      18.028  14.715  61.933  1.00  0.00     0.163 HD
BRANCH   7   9
HETATM    9  C9  UNL     1      19.862  13.670  62.239  1.00  0.00     0.095 C 
HETATM   10  C10 UNL     1      20.180  13.335  60.846  1.00  0.00     0.026 C 
HETATM   11  C11 UNL     1      19.752  14.155  59.676  1.00  0.00     0.002 C 
HETATM   12  C12 UNL     1      20.841  15.117  59.189  1.00  0.00     0.001 C 
HETATM   13  C13 UNL     1      20.833  16.522  59.610  1.00  0.00     0.011 C 
HETATM   14  C14 UNL     1      21.371  16.811  61.052  1.00  0.00     0.080 C 
HETATM   15  C15 UNL     1      20.895  15.735  61.817  1.00  0.00    -0.181 C 
HETATM   16  C16 UNL     1      20.683  14.839  62.878  1.00  0.00     0.105 C 
ENDBRANCH   7   9
ENDBRANCH   2   5
BRANCH   1  17
HETATM   17  C4  UNL     1      14.407  14.731  64.125  1.00  0.00     0.036 A 
HETATM   18  C3  UNL     1      13.788  14.436  65.300  1.00  0.00     0.069 A 
HETATM   19  C2  UNL     1      12.464  14.719  65.553  1.00  0.00     0.105 A 
HETATM   20  C18 UNL     1      11.703  15.351  64.538  1.00  0.00     0.117 A 
HETATM   21  C17 UNL     1      12.392  15.632  63.351  1.00  0.00     0.128 A 
HETATM   22  N3  UNL     1      13.667  15.334  63.170  1.00  0.00    -0.363 N 
ATOM     23  H3  UNL     1      14.107  15.567  62.279  1.00  0.00     0.165 HD
BRANCH  19  24
HETATM   24  O1  UNL     1      11.846  14.414  66.752  1.00  0.00    -0.353 OA
HETATM   25  C1  UNL     1      11.217  13.152  66.882  1.00  0.00     0.210 C 
ENDBRANCH  19  24
BRANCH  20  26
HETATM   26  O3  UNL     1      10.459  15.615  64.775  1.00  0.00    -0.346 OA
BRANCH  26  27
HETATM   27  C19 UNL     1       9.245  15.783  65.175  1.00  0.00     0.182 C 
BRANCH  27  28
HETATM   28  C20 UNL     1       8.286  14.665  64.791  1.00  0.00     0.036 C 
HETATM   29  C21 UNL     1       7.722  13.972  65.987  1.00  0.00     0.035 C 
HETATM   30  C22 UNL     1       6.231  14.054  65.741  1.00  0.00     0.168 C 
HETATM   31  O4  UNL     1       6.046  15.088  64.855  1.00  0.00    -0.391 OA
HETATM   32  C23 UNL     1       7.127  15.133  64.001  1.00  0.00     0.174 C 
ENDBRANCH  27  28
ENDBRANCH  26  27
ENDBRANCH  20  26
ENDBRANCH   1  17
TORSDOF 7
ENDMDL
MODEL 3
REMARK VINA RESULT: -8.291146589      2.336     10.978
REMARK  7 active torsions:
REMARK  status: ('A' for Active; 'I' for Inactive)
REMARK    1  A    between atoms: O1_2  and  C2_3 
REMARK    2  A    between atoms: C4_5  and  C5_6 
REMARK    3  A    between atoms: C6_7  and  C8_10 
REMARK       I    between atoms: C8_10  and  N2_12 
REMARK    4  A    between atoms: N2_12  and  C9_14 
REMARK    5  A    between atoms: C18_25  and  O3_26 
REMARK    6  A    between atoms: O3_26  and  C19_27 
REMARK    7  A    between atoms: C19_27  and  C20_28 
ROOT
HETATM    1  C5  UNL     1      11.767  15.300  63.856  1.00  0.00     0.058 C 
HETATM    2  C6  UNL     1      10.986  14.982  64.864  1.00  0.00     0.114 C 
HETATM    3  C7  UNL     1      11.537  14.401  66.051  1.00  0.00     0.105 C 
HETATM    4  N1  UNL     1      11.975  13.935  67.045  1.00  0.00    -0.191 NA
ENDROOT
BRANCH   2   5
HETATM    5  C8  UNL     1       9.527  15.214  64.798  1.00  0.00     0.262 C 
HETATM    6  O2  UNL     1       9.112  16.380  65.005  1.00  0.00    -0.267 OA
HETATM    7  N2  UNL     1       8.625  14.157  64.512  1.00  0.00    -0.351 N 
ATOM      8  H2  UNL     1       8.976  13.214  64.345  1.00  0.00     0.163 HD
BRANCH   7   9
HETATM    9  C9  UNL     1       7.225  14.425  64.459  1.00  0.00     0.095 C 
HETATM   10  C10 UNL     1       6.729  14.338  63.080  1.00  0.00     0.026 C 
HETATM   11  C11 UNL     1       6.982  13.177  62.179  1.00  0.00     0.002 C 
HETATM   12  C12 UNL     1       5.822  12.178  62.149  1.00  0.00     0.001 C 
HETATM   13  C13 UNL     1       5.861  10.969  62.980  1.00  0.00     0.011 C 
HETATM   14  C14 UNL     1       5.514  11.165  64.494  1.00  0.00     0.080 C 
HETATM   15  C15 UNL     1       6.107  12.393  64.825  1.00  0.00    -0.181 C 
HETATM   16  C16 UNL     1       6.475  13.556  65.523  1.00  0.00     0.105 C 
ENDBRANCH   7   9
ENDBRANCH   2   5
BRANCH   1  17
HETATM   17  C4  UNL     1      13.193  15.131  63.779  1.00  0.00     0.036 A 
HETATM   18  C3  UNL     1      13.994  16.062  63.193  1.00  0.00     0.069 A 
HETATM   19  C2  UNL     1      15.358  15.918  63.068  1.00  0.00     0.105 A 
HETATM   20  C18 UNL     1      15.963  14.741  63.576  1.00  0.00     0.117 A 
HETATM   21  C17 UNL     1      15.090  13.820  64.169  1.00  0.00     0.128 A 
HETATM   22  N3  UNL     1      13.786  14.017  64.258  1.00  0.00    -0.363 N 
ATOM     23  H3  UNL     1      13.208  13.303  64.703  1.00  0.00     0.165 HD
BRANCH  19  24
HETATM   24  O1  UNL     1      16.163  16.871  62.469  1.00  0.00    -0.353 OA
HETATM   25  C1  UNL     1      15.651  18.182  62.316  1.00  0.00     0.210 C 
ENDBRANCH  19  24
BRANCH  20  26
HETATM   26  O3  UNL     1      17.244  14.606  63.457  1.00  0.00    -0.346 OA
BRANCH  26  27
HETATM   27  C19 UNL     1      18.533  14.600  63.479  1.00  0.00     0.182 C 
BRANCH  27  28
HETATM   28  C20 UNL     1      19.180  13.491  62.659  1.00  0.00     0.036 C 
HETATM   29  C21 UNL     1      19.223  13.819  61.204  1.00  0.00     0.035 C 
HETATM   30  C22 UNL     1      20.687  13.630  60.868  1.00  0.00     0.168 C 
HETATM   31  O4  UNL     1      21.367  13.724  62.058  1.00  0.00    -0.391 OA
HETATM   32  C23 UNL     1      20.575  13.205  63.059  1.00  0.00     0.174 C 
ENDBRANCH  27  28
ENDBRANCH  26  27
ENDBRANCH  20  26
ENDBRANCH   1  17
TORSDOF 7
ENDMDL
MODEL 4
REMARK VINA RESULT: -8.078756863      2.189     10.858
REMARK  7 active torsions:
REMARK  status: ('A' for Active; 'I' for Inactive)
REMARK    1  A    between atoms: O1_2  and  C2_3 
REMARK    2  A    between atoms: C4_5  and  C5_6 
REMARK    3  A    between atoms: C6_7  and  C8_10 
REMARK       I    between atoms: C8_10  and  N2_12 
REMARK    4  A    between atoms: N2_12  and  C9_14 
REMARK    5  A    between atoms: C18_25  and  O3_26 
REMARK    6  A    between atoms: O3_26  and  C19_27 
REMARK    7  A    between atoms: C19_27  and  C20_28 
ROOT
HETATM    1  C5  UNL     1      11.743  15.407  63.590  1.00  0.00     0.058 C 
HETATM    2  C6  UNL     1      11.055  15.090  64.664  1.00  0.00     0.114 C 
HETATM    3  C7  UNL     1      11.718  14.559  65.818  1.00  0.00     0.105 C 
HETATM    4  N1  UNL     1      12.248  14.136  66.784  1.00  0.00    -0.191 NA
ENDROOT
BRANCH   2   5
HETATM    5  C8  UNL     1       9.588  15.270  64.708  1.00  0.00     0.262 C 
HETATM    6  O2  UNL     1       9.148  16.370  65.120  1.00  0.00    -0.267 OA
HETATM    7  N2  UNL     1       8.706  14.236  64.299  1.00  0.00    -0.351 N 
ATOM      8  H2  UNL     1       9.077  13.346  63.966  1.00  0.00     0.163 HD
BRANCH   7   9
HETATM    9  C9  UNL     1       7.297  14.452  64.359  1.00  0.00     0.095 C 
HETATM   10  C10 UNL     1       6.693  14.325  63.027  1.00  0.00     0.026 C 
HETATM   11  C11 UNL     1       6.915  13.160  62.123  1.00  0.00     0.002 C 
HETATM   12  C12 UNL     1       5.794  12.119  62.202  1.00  0.00     0.001 C 
HETATM   13  C13 UNL     1       5.947  10.926  63.043  1.00  0.00     0.011 C 
HETATM   14  C14 UNL     1       5.719  11.133  64.578  1.00  0.00     0.080 C 
HETATM   15  C15 UNL     1       6.291  12.387  64.843  1.00  0.00    -0.181 C 
HETATM   16  C16 UNL     1       6.670  13.574  65.492  1.00  0.00     0.105 C 
ENDBRANCH   7   9
ENDBRANCH   2   5
BRANCH   1  17
HETATM   17  C4  UNL     1      13.164  15.285  63.405  1.00  0.00     0.036 A 
HETATM   18  C3  UNL     1      13.790  14.077  63.446  1.00  0.00     0.069 A 
HETATM   19  C2  UNL     1      15.152  13.924  63.311  1.00  0.00     0.105 A 
HETATM   20  C18 UNL     1      15.947  15.082  63.118  1.00  0.00     0.117 A 
HETATM   21  C17 UNL     1      15.248  16.296  63.084  1.00  0.00     0.128 A 
HETATM   22  N3  UNL     1      13.936  16.376  63.221  1.00  0.00    -0.363 N 
ATOM     23  H3  UNL     1      13.491  17.294  63.185  1.00  0.00     0.165 HD
BRANCH  19  24
HETATM   24  O1  UNL     1      15.778  12.691  63.355  1.00  0.00    -0.353 OA
HETATM   25  C1  UNL     1      15.051  11.553  62.931  1.00  0.00     0.210 C 
ENDBRANCH  19  24
BRANCH  20  26
HETATM   26  O3  UNL     1      17.226  14.938  62.993  1.00  0.00    -0.346 OA
BRANCH  26  27
HETATM   27  C19 UNL     1      18.514  14.906  63.024  1.00  0.00     0.182 C 
BRANCH  27  28
HETATM   28  C20 UNL     1      19.136  13.657  62.413  1.00  0.00     0.036 C 
HETATM   29  C21 UNL     1      19.401  13.818  60.952  1.00  0.00     0.035 C 
HETATM   30  C22 UNL     1      20.866  13.454  60.842  1.00  0.00     0.168 C 
HETATM   31  O4  UNL     1      21.394  13.613  62.101  1.00  0.00    -0.391 OA
HETATM   32  C23 UNL     1      20.429  13.286  63.028  1.00  0.00     0.174 C 
ENDBRANCH  27  28
ENDBRANCH  26  27
ENDBRANCH  20  26
ENDBRANCH   1  17
TORSDOF 7
ENDMDL
MODEL 5
REMARK VINA RESULT: -8.044164010      1.973      2.966
REMARK  7 active torsions:
REMARK  status: ('A' for Active; 'I' for Inactive)
REMARK    1  A    between atoms: O1_2  and  C2_3 
REMARK    2  A    between atoms: C4_5  and  C5_6 
REMARK    3  A    between atoms: C6_7  and  C8_10 
REMARK       I    between atoms: C8_10  and  N2_12 
REMARK    4  A    between atoms: N2_12  and  C9_14 
REMARK    5  A    between atoms: C18_25  and  O3_26 
REMARK    6  A    between atoms: O3_26  and  C19_27 
REMARK    7  A    between atoms: C19_27  and  C20_28 
ROOT
HETATM    1  C5  UNL     1      13.791  16.250  63.387  1.00  0.00     0.058 C 
HETATM    2  C6  UNL     1      14.836  15.521  63.064  1.00  0.00     0.114 C 
HETATM    3  C7  UNL     1      14.735  14.092  63.020  1.00  0.00     0.105 C 
HETATM    4  N1  UNL     1      14.668  12.915  62.963  1.00  0.00    -0.191 NA
ENDROOT
BRANCH   2   5
HETATM    5  C8  UNL     1      16.134  16.151  62.742  1.00  0.00     0.262 C 
HETATM    6  O2  UNL     1      16.156  17.397  62.591  1.00  0.00    -0.267 OA
HETATM    7  N2  UNL     1      17.315  15.378  62.608  1.00  0.00    -0.351 N 
ATOM      8  H2  UNL     1      17.284  14.366  62.733  1.00  0.00     0.163 HD
BRANCH   7   9
HETATM    9  C9  UNL     1      18.547  16.027  62.295  1.00  0.00     0.095 C 
HETATM   10  C10 UNL     1      19.661  15.413  63.028  1.00  0.00     0.026 C 
HETATM   11  C11 UNL     1      19.936  13.947  63.044  1.00  0.00     0.002 C 
HETATM   12  C12 UNL     1      21.003  13.527  62.029  1.00  0.00     0.001 C 
HETATM   13  C13 UNL     1      20.613  12.986  60.722  1.00  0.00     0.011 C 
HETATM   14  C14 UNL     1      20.161  14.036  59.652  1.00  0.00     0.080 C 
HETATM   15  C15 UNL     1      19.428  14.980  60.388  1.00  0.00    -0.181 C 
HETATM   16  C16 UNL     1      18.714  16.137  60.743  1.00  0.00     0.105 C 
ENDBRANCH   7   9
ENDBRANCH   2   5
BRANCH   1  17
HETATM   17  C4  UNL     1      12.476  15.777  63.723  1.00  0.00     0.036 A 
HETATM   18  C3  UNL     1      12.158  15.383  64.987  1.00  0.00     0.069 A 
HETATM   19  C2  UNL     1      10.921  14.889  65.339  1.00  0.00     0.105 A 
HETATM   20  C18 UNL     1       9.925  14.785  64.336  1.00  0.00     0.117 A 
HETATM   21  C17 UNL     1      10.308  15.206  63.056  1.00  0.00     0.128 A 
HETATM   22  N3  UNL     1      11.515  15.671  62.781  1.00  0.00    -0.363 N 
ATOM     23  H3  UNL     1      11.727  15.960  61.826  1.00  0.00     0.165 HD
BRANCH  19  24
HETATM   24  O1  UNL     1      10.610  14.491  66.626  1.00  0.00    -0.353 OA
HETATM   25  C1  UNL     1      11.007  13.199  67.045  1.00  0.00     0.210 C 
ENDBRANCH  19  24
BRANCH  20  26
HETATM   26  O3  UNL     1       8.764  14.320  64.666  1.00  0.00    -0.346 OA
BRANCH  26  27
HETATM   27  C19 UNL     1       7.643  13.929  65.169  1.00  0.00     0.182 C 
BRANCH  27  28
HETATM   28  C20 UNL     1       6.553  13.634  64.147  1.00  0.00     0.036 C 
HETATM   29  C21 UNL     1       7.116  13.311  62.802  1.00  0.00     0.035 C 
HETATM   30  C22 UNL     1       6.460  11.985  62.483  1.00  0.00     0.168 C 
HETATM   31  O4  UNL     1       6.060  11.457  63.686  1.00  0.00    -0.391 OA
HETATM   32  C23 UNL     1       5.694  12.490  64.521  1.00  0.00     0.174 C 
ENDBRANCH  27  28
ENDBRANCH  26  27
ENDBRANCH  20  26
ENDBRANCH   1  17
TORSDOF 7
ENDMDL
