MODEL 1
REMARK VINA RESULT: -6.827405901      0.000      0.000
REMARK  5 active torsions:
REMARK  status: ('A' for Active; 'I' for Inactive)
REMARK    1  A    between atoms: C2_2  and  C4_4 
REMARK    2  A    between atoms: C7_7  and  O1_9 
REMARK    3  A    between atoms: C10_12  and  O2_13 
REMARK    4  A    between atoms: C12_16  and  C13_17 
REMARK    5  A    between atoms: C13_17  and  O3_18 
ROOT
HETATM    1  C4  UNL     1     -31.116 -10.848  -0.249  1.00  0.00     0.013 C 
HETATM    2  C5  UNL     1     -31.693  -9.507  -0.531  1.00  0.00     0.012 C 
HETATM    3  C6  UNL     1     -32.017  -8.682   0.683  1.00  0.00     0.038 C 
HETATM    4  C7  UNL     1     -33.524  -8.629   0.978  1.00  0.00     0.057 C 
HETATM    5  C8  UNL     1     -33.669  -7.310   1.783  1.00  0.00     0.045 C 
HETATM    6  C9  UNL     1     -33.901  -9.818   1.756  1.00  0.00     0.076 C 
HETATM    7  C10 UNL     1     -35.002 -10.715   1.254  1.00  0.00     0.071 C 
HETATM    8  C11 UNL     1     -35.885 -10.928   2.463  1.00  0.00     0.074 C 
HETATM    9  C12 UNL     1     -36.741 -12.068   2.551  1.00  0.00    -0.058 C 
HETATM   10  C14 UNL     1     -36.474 -13.351   2.427  1.00  0.00    -0.022 C 
HETATM   11  C15 UNL     1     -35.167 -13.953   2.153  1.00  0.00     0.028 C 
HETATM   12  C16 UNL     1     -34.127 -13.038   1.626  1.00  0.00     0.016 C 
HETATM   13  C17 UNL     1     -34.556 -12.021   0.620  1.00  0.00    -0.012 C 
HETATM   14  C18 UNL     1     -35.762 -12.498  -0.219  1.00  0.00     0.018 C 
HETATM   15  C19 UNL     1     -33.431 -11.876  -0.371  1.00  0.00     0.013 C 
HETATM   16  C20 UNL     1     -32.040 -11.970   0.079  1.00  0.00     0.010 C 
ENDROOT
BRANCH   1  17
HETATM   17  C2  UNL     1     -30.197 -11.179  -1.407  1.00  0.00    -0.089 C 
HETATM   18  C1  UNL     1     -30.353 -12.269  -2.138  1.00  0.00     0.014 C 
HETATM   19  C3  UNL     1     -29.074 -10.265  -1.753  1.00  0.00     0.043 C 
ENDBRANCH   1  17
BRANCH   4  20
HETATM   20  O1  UNL     1     -34.169  -8.352  -0.190  1.00  0.00    -0.390 OA
ATOM     21  H1  UNL     1     -34.228  -7.407  -0.273  1.00  0.00     0.210 HD
ENDBRANCH   4  20
BRANCH   7  22
HETATM   22  O2  UNL     1     -35.799 -10.030   0.319  1.00  0.00    -0.389 OA
ATOM     23  H2  UNL     1     -36.715 -10.090   0.562  1.00  0.00     0.210 HD
ENDBRANCH   7  22
BRANCH   9  24
HETATM   24  C13 UNL     1     -38.185 -11.793   2.831  1.00  0.00     0.198 C 
BRANCH  24  25
HETATM   25  O3  UNL     1     -38.618 -12.472   3.966  1.00  0.00    -0.397 OA
ATOM     26  H3  UNL     1     -38.388 -13.394   3.925  1.00  0.00     0.209 HD
ENDBRANCH  24  25
ENDBRANCH   9  24
TORSDOF 5
ENDMDL
MODEL 2
REMARK VINA RESULT: -5.825061610      2.097      6.446
REMARK  5 active torsions:
REMARK  status: ('A' for Active; 'I' for Inactive)
REMARK    1  A    between atoms: C2_2  and  C4_4 
REMARK    2  A    between atoms: C7_7  and  O1_9 
REMARK    3  A    between atoms: C10_12  and  O2_13 
REMARK    4  A    between atoms: C12_16  and  C13_17 
REMARK    5  A    between atoms: C13_17  and  O3_18 
ROOT
HETATM    1  C4  UNL     1     -35.917 -12.660   2.653  1.00  0.00     0.013 C 
HETATM    2  C5  UNL     1     -35.821 -13.406   1.370  1.00  0.00     0.012 C 
HETATM    3  C6  UNL     1     -34.524 -14.133   1.148  1.00  0.00     0.038 C 
HETATM    4  C7  UNL     1     -33.613 -13.423   0.134  1.00  0.00     0.057 C 
HETATM    5  C8  UNL     1     -32.723 -14.579  -0.394  1.00  0.00     0.045 C 
HETATM    6  C9  UNL     1     -32.844 -12.381   0.830  1.00  0.00     0.076 C 
HETATM    7  C10 UNL     1     -32.899 -10.961   0.332  1.00  0.00     0.071 C 
HETATM    8  C11 UNL     1     -31.450 -10.531   0.281  1.00  0.00     0.074 C 
HETATM    9  C12 UNL     1     -31.095  -9.148   0.329  1.00  0.00    -0.058 C 
HETATM   10  C14 UNL     1     -31.421  -8.210   1.194  1.00  0.00    -0.022 C 
HETATM   11  C15 UNL     1     -32.270  -8.364   2.377  1.00  0.00     0.028 C 
HETATM   12  C16 UNL     1     -33.116  -9.581   2.417  1.00  0.00     0.016 C 
HETATM   13  C17 UNL     1     -33.762 -10.007   1.140  1.00  0.00    -0.012 C 
HETATM   14  C18 UNL     1     -34.043  -8.816   0.198  1.00  0.00     0.018 C 
HETATM   15  C19 UNL     1     -35.122 -10.550   1.490  1.00  0.00     0.013 C 
HETATM   16  C20 UNL     1     -35.315 -11.298   2.734  1.00  0.00     0.010 C 
ENDROOT
BRANCH   1  17
HETATM   17  C2  UNL     1     -37.377 -12.669   3.054  1.00  0.00    -0.089 C 
HETATM   18  C1  UNL     1     -38.117 -11.573   3.039  1.00  0.00     0.014 C 
HETATM   19  C3  UNL     1     -38.024 -13.939   3.484  1.00  0.00     0.043 C 
ENDBRANCH   1  17
BRANCH   4  20
HETATM   20  O1  UNL     1     -34.370 -13.095  -0.949  1.00  0.00    -0.390 OA
ATOM     21  H1  UNL     1     -35.066 -13.738  -1.024  1.00  0.00     0.210 HD
ENDBRANCH   4  20
BRANCH   7  22
HETATM   22  O2  UNL     1     -33.350 -10.930  -1.000  1.00  0.00    -0.389 OA
ATOM     23  H2  UNL     1     -34.001 -11.606  -1.142  1.00  0.00     0.210 HD
ENDBRANCH   7  22
BRANCH   9  24
HETATM   24  C13 UNL     1     -30.207  -8.652  -0.768  1.00  0.00     0.198 C 
BRANCH  24  25
HETATM   25  O3  UNL     1     -28.864  -8.838  -0.454  1.00  0.00    -0.397 OA
ATOM     26  H3  UNL     1     -28.412  -9.317  -1.140  1.00  0.00     0.209 HD
ENDBRANCH  24  25
ENDBRANCH   9  24
TORSDOF 5
ENDMDL
MODEL 3
REMARK VINA RESULT: -4.501494504      1.168      1.414
REMARK  5 active torsions:
REMARK  status: ('A' for Active; 'I' for Inactive)
REMARK    1  A    between atoms: C2_2  and  C4_4 
REMARK    2  A    between atoms: C7_7  and  O1_9 
REMARK    3  A    between atoms: C10_12  and  O2_13 
REMARK    4  A    between atoms: C12_16  and  C13_17 
REMARK    5  A    between atoms: C13_17  and  O3_18 
ROOT
HETATM    1  C4  UNL     1     -30.210  -9.922  -0.331  1.00  0.00     0.013 C 
HETATM    2  C5  UNL     1     -30.971  -8.644  -0.300  1.00  0.00     0.012 C 
HETATM    3  C6  UNL     1     -31.379  -8.176   1.069  1.00  0.00     0.038 C 
HETATM    4  C7  UNL     1     -32.873  -8.400   1.350  1.00  0.00     0.057 C 
HETATM    5  C8  UNL     1     -33.180  -7.337   2.437  1.00  0.00     0.045 C 
HETATM    6  C9  UNL     1     -33.069  -9.778   1.825  1.00  0.00     0.076 C 
HETATM    7  C10 UNL     1     -34.046 -10.676   1.115  1.00  0.00     0.071 C 
HETATM    8  C11 UNL     1     -34.868 -11.283   2.231  1.00  0.00     0.074 C 
HETATM    9  C12 UNL     1     -35.558 -12.518   2.041  1.00  0.00    -0.058 C 
HETATM   10  C14 UNL     1     -35.121 -13.689   1.625  1.00  0.00    -0.022 C 
HETATM   11  C15 UNL     1     -33.750 -14.025   1.235  1.00  0.00     0.028 C 
HETATM   12  C16 UNL     1     -32.856 -12.879   0.948  1.00  0.00     0.016 C 
HETATM   13  C17 UNL     1     -33.440 -11.726   0.200  1.00  0.00    -0.012 C 
HETATM   14  C18 UNL     1     -34.587 -12.156  -0.741  1.00  0.00     0.018 C 
HETATM   15  C19 UNL     1     -32.366 -11.201  -0.716  1.00  0.00     0.013 C 
HETATM   16  C20 UNL     1     -30.967 -11.205  -0.284  1.00  0.00     0.010 C 
ENDROOT
BRANCH   1  17
HETATM   17  C2  UNL     1     -29.279  -9.846  -1.523  1.00  0.00    -0.089 C 
HETATM   18  C1  UNL     1     -28.404 -10.799  -1.793  1.00  0.00     0.014 C 
HETATM   19  C3  UNL     1     -29.330  -8.670  -2.435  1.00  0.00     0.043 C 
ENDBRANCH   1  17
BRANCH   4  20
HETATM   20  O1  UNL     1     -33.573  -7.951   0.271  1.00  0.00    -0.390 OA
ATOM     21  H1  UNL     1     -32.950  -7.608  -0.359  1.00  0.00     0.210 HD
ENDBRANCH   4  20
BRANCH   7  22
HETATM   22  O2  UNL     1     -34.949  -9.909   0.356  1.00  0.00    -0.389 OA
ATOM     23  H2  UNL     1     -34.552  -9.081   0.112  1.00  0.00     0.210 HD
ENDBRANCH   7  22
BRANCH   9  24
HETATM   24  C13 UNL     1     -37.021 -12.517   2.360  1.00  0.00     0.198 C 
BRANCH  24  25
HETATM   25  O3  UNL     1     -37.632 -11.345   1.925  1.00  0.00    -0.397 OA
ATOM     26  H3  UNL     1     -37.004 -10.762   1.513  1.00  0.00     0.209 HD
ENDBRANCH  24  25
ENDBRANCH   9  24
TORSDOF 5
ENDMDL
MODEL 4
REMARK VINA RESULT: -3.888895497      2.181      3.722
REMARK  5 active torsions:
REMARK  status: ('A' for Active; 'I' for Inactive)
REMARK    1  A    between atoms: C2_2  and  C4_4 
REMARK    2  A    between atoms: C7_7  and  O1_9 
REMARK    3  A    between atoms: C10_12  and  O2_13 
REMARK    4  A    between atoms: C12_16  and  C13_17 
REMARK    5  A    between atoms: C13_17  and  O3_18 
ROOT
HETATM    1  C4  UNL     1     -31.924 -11.213  -0.764  1.00  0.00     0.013 C 
HETATM    2  C5  UNL     1     -31.552 -12.635  -0.536  1.00  0.00     0.012 C 
HETATM    3  C6  UNL     1     -32.432 -13.644  -1.220  1.00  0.00     0.038 C 
HETATM    4  C7  UNL     1     -33.396 -14.343  -0.249  1.00  0.00     0.057 C 
HETATM    5  C8  UNL     1     -33.699 -15.682  -0.974  1.00  0.00     0.045 C 
HETATM    6  C9  UNL     1     -34.591 -13.505  -0.075  1.00  0.00     0.076 C 
HETATM    7  C10 UNL     1     -35.013 -13.093   1.310  1.00  0.00     0.071 C 
HETATM    8  C11 UNL     1     -36.495 -13.392   1.350  1.00  0.00     0.074 C 
HETATM    9  C12 UNL     1     -37.351 -12.722   2.276  1.00  0.00    -0.058 C 
HETATM   10  C14 UNL     1     -37.529 -11.437   2.504  1.00  0.00    -0.022 C 
HETATM   11  C15 UNL     1     -36.855 -10.325   1.829  1.00  0.00     0.028 C 
HETATM   12  C16 UNL     1     -35.624 -10.670   1.078  1.00  0.00     0.016 C 
HETATM   13  C17 UNL     1     -34.697 -11.660   1.703  1.00  0.00    -0.012 C 
HETATM   14  C18 UNL     1     -34.764 -11.636   3.245  1.00  0.00     0.018 C 
HETATM   15  C19 UNL     1     -33.294 -11.224   1.371  1.00  0.00     0.013 C 
HETATM   16  C20 UNL     1     -33.003 -10.613   0.071  1.00  0.00     0.010 C 
ENDROOT
BRANCH   1  17
HETATM   17  C2  UNL     1     -30.640 -10.412  -0.707  1.00  0.00    -0.089 C 
HETATM   18  C1  UNL     1     -29.570 -10.749  -1.406  1.00  0.00     0.014 C 
HETATM   19  C3  UNL     1     -30.553  -9.203   0.158  1.00  0.00     0.043 C 
ENDBRANCH   1  17
BRANCH   4  20
HETATM   20  O1  UNL     1     -32.680 -14.735   0.841  1.00  0.00    -0.390 OA
ATOM     21  H1  UNL     1     -32.119 -15.456   0.577  1.00  0.00     0.210 HD
ENDBRANCH   4  20
BRANCH   7  22
HETATM   22  O2  UNL     1     -34.430 -13.942   2.269  1.00  0.00    -0.389 OA
ATOM     23  H2  UNL     1     -33.759 -14.481   1.866  1.00  0.00     0.210 HD
ENDBRANCH   7  22
BRANCH   9  24
HETATM   24  C13 UNL     1     -38.202 -13.595   3.144  1.00  0.00     0.198 C 
BRANCH  24  25
HETATM   25  O3  UNL     1     -37.425 -14.483   3.882  1.00  0.00    -0.397 OA
ATOM     26  H3  UNL     1     -37.954 -15.184   4.246  1.00  0.00     0.209 HD
ENDBRANCH  24  25
ENDBRANCH   9  24
TORSDOF 5
ENDMDL
MODEL 5
REMARK VINA RESULT: -3.869839330      1.938      5.014
REMARK  5 active torsions:
REMARK  status: ('A' for Active; 'I' for Inactive)
REMARK    1  A    between atoms: C2_2  and  C4_4 
REMARK    2  A    between atoms: C7_7  and  O1_9 
REMARK    3  A    between atoms: C10_12  and  O2_13 
REMARK    4  A    between atoms: C12_16  and  C13_17 
REMARK    5  A    between atoms: C13_17  and  O3_18 
ROOT
HETATM    1  C4  UNL     1     -33.222 -13.495  -0.557  1.00  0.00     0.013 C 
HETATM    2  C5  UNL     1     -34.122 -13.727   0.604  1.00  0.00     0.012 C 
HETATM    3  C6  UNL     1     -35.464 -13.055   0.519  1.00  0.00     0.038 C 
HETATM    4  C7  UNL     1     -35.565 -11.819   1.427  1.00  0.00     0.057 C 
HETATM    5  C8  UNL     1     -37.093 -11.696   1.667  1.00  0.00     0.045 C 
HETATM    6  C9  UNL     1     -35.002 -10.659   0.720  1.00  0.00     0.076 C 
HETATM    7  C10 UNL     1     -33.903  -9.859   1.365  1.00  0.00     0.071 C 
HETATM    8  C11 UNL     1     -34.348  -8.422   1.207  1.00  0.00     0.074 C 
HETATM    9  C12 UNL     1     -33.401  -7.354   1.242  1.00  0.00    -0.058 C 
HETATM   10  C14 UNL     1     -32.297  -7.166   0.550  1.00  0.00    -0.022 C 
HETATM   11  C15 UNL     1     -31.742  -8.052  -0.476  1.00  0.00     0.028 C 
HETATM   12  C16 UNL     1     -32.270  -9.436  -0.494  1.00  0.00     0.016 C 
HETATM   13  C17 UNL     1     -32.503 -10.097   0.825  1.00  0.00    -0.012 C 
HETATM   14  C18 UNL     1     -31.549  -9.574   1.921  1.00  0.00     0.018 C 
HETATM   15  C19 UNL     1     -32.143 -11.550   0.663  1.00  0.00     0.013 C 
HETATM   16  C20 UNL     1     -32.421 -12.239  -0.600  1.00  0.00     0.010 C 
ENDROOT
BRANCH   1  17
HETATM   17  C2  UNL     1     -32.361 -14.733  -0.696  1.00  0.00    -0.089 C 
HETATM   18  C1  UNL     1     -32.721 -15.899  -0.190  1.00  0.00     0.014 C 
HETATM   19  C3  UNL     1     -31.061 -14.659  -1.419  1.00  0.00     0.043 C 
ENDBRANCH   1  17
BRANCH   4  20
HETATM   20  O1  UNL     1     -35.084 -12.161   2.654  1.00  0.00    -0.390 OA
ATOM     21  H1  UNL     1     -35.015 -11.368   3.172  1.00  0.00     0.210 HD
ENDBRANCH   4  20
BRANCH   7  22
HETATM   22  O2  UNL     1     -33.878 -10.096   2.752  1.00  0.00    -0.389 OA
ATOM     23  H2  UNL     1     -34.393 -10.866   2.962  1.00  0.00     0.210 HD
ENDBRANCH   7  22
BRANCH   9  24
HETATM   24  C13 UNL     1     -33.681  -6.251   2.214  1.00  0.00     0.198 C 
BRANCH  24  25
HETATM   25  O3  UNL     1     -32.948  -5.109   1.905  1.00  0.00    -0.397 OA
ATOM     26  H3  UNL     1     -33.430  -4.319   2.124  1.00  0.00     0.209 HD
ENDBRANCH  24  25
ENDBRANCH   9  24
TORSDOF 5
ENDMDL
