MODEL 1
REMARK VINA RESULT: -3.676312605      0.000      0.000
REMARK  4 active torsions:
REMARK  status: ('A' for Active; 'I' for Inactive)
REMARK    1  A    between atoms: C2_2  and  O1_3 
REMARK    2  A    between atoms: C2_2  and  C3_5 
REMARK    3  A    between atoms: C3_5  and  C5_7 
REMARK    4  A    between atoms: C11_13  and  O2_14 
ROOT
HETATM    1  C5  UNL     1     -34.930 -10.739   1.169  1.00  0.00    -0.031 C 
HETATM    2  C6  UNL     1     -36.357 -10.333   1.465  1.00  0.00     0.016 C 
HETATM    3  C7  UNL     1     -34.483 -11.314   2.540  1.00  0.00     0.011 C 
HETATM    4  C8  UNL     1     -35.208 -12.616   2.591  1.00  0.00     0.007 C 
HETATM    5  C9  UNL     1     -35.367 -13.026   1.153  1.00  0.00     0.002 C 
HETATM    6  C10 UNL     1     -34.839 -14.380   0.944  1.00  0.00     0.027 C 
HETATM    7  C11 UNL     1     -33.685 -14.852   1.782  1.00  0.00     0.124 C 
HETATM    8  C12 UNL     1     -33.021 -15.434   0.539  1.00  0.00     0.041 C 
HETATM    9  C13 UNL     1     -34.082 -14.685  -0.274  1.00  0.00    -0.035 C 
HETATM   10  C14 UNL     1     -34.686 -15.714  -1.240  1.00  0.00     0.016 C 
HETATM   11  C15 UNL     1     -33.493 -13.543  -1.001  1.00  0.00     0.010 C 
HETATM   12  C16 UNL     1     -33.442 -12.257  -0.159  1.00  0.00     0.011 C 
HETATM   13  C17 UNL     1     -34.823 -11.899   0.298  1.00  0.00    -0.032 C 
HETATM   14  C18 UNL     1     -35.648 -11.899  -0.971  1.00  0.00     0.016 C 
ENDROOT
BRANCH   1  15
HETATM   15  C3  UNL     1     -34.162  -9.516   0.987  1.00  0.00     0.020 C 
HETATM   16  C4  UNL     1     -34.885  -8.194   0.893  1.00  0.00     0.013 C 
BRANCH  15  17
HETATM   17  C2  UNL     1     -32.936  -9.286   1.830  1.00  0.00     0.139 C 
HETATM   18  C1  UNL     1     -32.673  -7.754   1.934  1.00  0.00     0.041 C 
BRANCH  17  19
HETATM   19  O1  UNL     1     -31.751  -9.764   1.285  1.00  0.00    -0.303 OA
HETATM   20  S1  UNL     1     -30.978  -8.678   0.235  1.00  0.00     0.093 SA
ENDBRANCH  17  19
ENDBRANCH  15  17
ENDBRANCH   1  15
BRANCH   7  21
HETATM   21  O2  UNL     1     -33.971 -15.864   2.699  1.00  0.00    -0.395 OA
ATOM     22  H2  UNL     1     -33.530 -16.693   2.555  1.00  0.00     0.210 HD
ENDBRANCH   7  21
TORSDOF 4
ENDMDL
MODEL 2
REMARK VINA RESULT: -3.455904619      2.299      5.568
REMARK  4 active torsions:
REMARK  status: ('A' for Active; 'I' for Inactive)
REMARK    1  A    between atoms: C2_2  and  O1_3 
REMARK    2  A    between atoms: C2_2  and  C3_5 
REMARK    3  A    between atoms: C3_5  and  C5_7 
REMARK    4  A    between atoms: C11_13  and  O2_14 
ROOT
HETATM    1  C5  UNL     1     -35.295 -12.112   1.013  1.00  0.00    -0.031 C 
HETATM    2  C6  UNL     1     -36.348 -12.439   2.048  1.00  0.00     0.016 C 
HETATM    3  C7  UNL     1     -36.112 -11.268  -0.001  1.00  0.00     0.011 C 
HETATM    4  C8  UNL     1     -36.292  -9.980   0.728  1.00  0.00     0.007 C 
HETATM    5  C9  UNL     1     -35.092  -9.876   1.630  1.00  0.00     0.002 C 
HETATM    6  C10 UNL     1     -34.401  -8.597   1.418  1.00  0.00     0.027 C 
HETATM    7  C11 UNL     1     -34.428  -7.968   0.055  1.00  0.00     0.124 C 
HETATM    8  C12 UNL     1     -32.939  -7.660   0.168  1.00  0.00     0.041 C 
HETATM    9  C13 UNL     1     -32.936  -8.556   1.412  1.00  0.00    -0.035 C 
HETATM   10  C14 UNL     1     -32.249  -7.745   2.521  1.00  0.00     0.016 C 
HETATM   11  C15 UNL     1     -32.230  -9.827   1.156  1.00  0.00     0.010 C 
HETATM   12  C16 UNL     1     -33.143 -10.910   0.558  1.00  0.00     0.011 C 
HETATM   13  C17 UNL     1     -34.299 -11.158   1.477  1.00  0.00    -0.032 C 
HETATM   14  C18 UNL     1     -33.658 -11.416   2.824  1.00  0.00     0.016 C 
ENDROOT
BRANCH   1  15
HETATM   15  C3  UNL     1     -34.969 -13.350   0.322  1.00  0.00     0.020 C 
HETATM   16  C4  UNL     1     -35.228 -13.460  -1.162  1.00  0.00     0.013 C 
BRANCH  15  17
HETATM   17  C2  UNL     1     -33.643 -14.012   0.586  1.00  0.00     0.139 C 
HETATM   18  C1  UNL     1     -32.674 -13.693  -0.593  1.00  0.00     0.041 C 
BRANCH  17  19
HETATM   19  O1  UNL     1     -33.671 -15.400   0.593  1.00  0.00    -0.303 OA
HETATM   20  S1  UNL     1     -32.458 -16.127  -0.343  1.00  0.00     0.093 SA
ENDBRANCH  17  19
ENDBRANCH  15  17
ENDBRANCH   1  15
BRANCH   7  21
HETATM   21  O2  UNL     1     -35.161  -6.786  -0.058  1.00  0.00    -0.395 OA
ATOM     22  H2  UNL     1     -35.159  -6.376  -0.915  1.00  0.00     0.210 HD
ENDBRANCH   7  21
TORSDOF 4
ENDMDL
MODEL 3
REMARK VINA RESULT: -3.444435468      2.408      3.946
REMARK  4 active torsions:
REMARK  status: ('A' for Active; 'I' for Inactive)
REMARK    1  A    between atoms: C2_2  and  O1_3 
REMARK    2  A    between atoms: C2_2  and  C3_5 
REMARK    3  A    between atoms: C3_5  and  C5_7 
REMARK    4  A    between atoms: C11_13  and  O2_14 
ROOT
HETATM    1  C5  UNL     1     -34.437 -11.574   0.747  1.00  0.00    -0.031 C 
HETATM    2  C6  UNL     1     -34.470 -12.030  -0.694  1.00  0.00     0.016 C 
HETATM    3  C7  UNL     1     -35.482 -10.426   0.732  1.00  0.00     0.011 C 
HETATM    4  C8  UNL     1     -36.771 -11.170   0.634  1.00  0.00     0.007 C 
HETATM    5  C9  UNL     1     -36.504 -12.493   1.299  1.00  0.00     0.002 C 
HETATM    6  C10 UNL     1     -37.498 -12.748   2.350  1.00  0.00     0.027 C 
HETATM    7  C11 UNL     1     -38.087 -11.586   3.098  1.00  0.00     0.124 C 
HETATM    8  C12 UNL     1     -37.913 -12.343   4.410  1.00  0.00     0.041 C 
HETATM    9  C13 UNL     1     -37.078 -13.354   3.616  1.00  0.00    -0.035 C 
HETATM   10  C14 UNL     1     -37.646 -14.740   3.957  1.00  0.00     0.016 C 
HETATM   11  C15 UNL     1     -35.646 -13.257   3.963  1.00  0.00     0.010 C 
HETATM   12  C16 UNL     1     -34.896 -12.205   3.129  1.00  0.00     0.011 C 
HETATM   13  C17 UNL     1     -35.036 -12.524   1.672  1.00  0.00    -0.032 C 
HETATM   14  C18 UNL     1     -34.607 -13.971   1.564  1.00  0.00     0.016 C 
ENDROOT
BRANCH   1  15
HETATM   15  C3  UNL     1     -33.151 -10.931   0.968  1.00  0.00     0.020 C 
HETATM   16  C4  UNL     1     -31.952 -11.377   0.166  1.00  0.00     0.013 C 
BRANCH  15  17
HETATM   17  C2  UNL     1     -33.085  -9.429   1.054  1.00  0.00     0.139 C 
HETATM   18  C1  UNL     1     -31.993  -8.912   0.070  1.00  0.00     0.041 C 
BRANCH  17  19
HETATM   19  O1  UNL     1     -32.657  -8.931   2.277  1.00  0.00    -0.303 OA
HETATM   20  S1  UNL     1     -32.237  -7.287   2.252  1.00  0.00     0.093 SA
ENDBRANCH  17  19
ENDBRANCH  15  17
ENDBRANCH   1  15
BRANCH   7  21
HETATM   21  O2  UNL     1     -39.437 -11.328   2.861  1.00  0.00    -0.395 OA
ATOM     22  H2  UNL     1     -39.926 -12.025   2.439  1.00  0.00     0.210 HD
ENDBRANCH   7  21
TORSDOF 4
ENDMDL
MODEL 4
REMARK VINA RESULT: -3.262496244      2.073      3.192
REMARK  4 active torsions:
REMARK  status: ('A' for Active; 'I' for Inactive)
REMARK    1  A    between atoms: C2_2  and  O1_3 
REMARK    2  A    between atoms: C2_2  and  C3_5 
REMARK    3  A    between atoms: C3_5  and  C5_7 
REMARK    4  A    between atoms: C11_13  and  O2_14 
ROOT
HETATM    1  C5  UNL     1     -33.721  -9.454   1.138  1.00  0.00    -0.031 C 
HETATM    2  C6  UNL     1     -32.886  -8.979   2.306  1.00  0.00     0.016 C 
HETATM    3  C7  UNL     1     -32.705  -9.348  -0.030  1.00  0.00     0.011 C 
HETATM    4  C8  UNL     1     -31.794 -10.499   0.234  1.00  0.00     0.007 C 
HETATM    5  C9  UNL     1     -32.649 -11.512   0.945  1.00  0.00     0.002 C 
HETATM    6  C10 UNL     1     -32.585 -12.809   0.259  1.00  0.00     0.027 C 
HETATM    7  C11 UNL     1     -32.389 -12.840  -1.230  1.00  0.00     0.124 C 
HETATM    8  C12 UNL     1     -33.471 -13.907  -1.350  1.00  0.00     0.041 C 
HETATM    9  C13 UNL     1     -33.800 -13.616   0.118  1.00  0.00    -0.035 C 
HETATM   10  C14 UNL     1     -33.828 -14.978   0.828  1.00  0.00     0.016 C 
HETATM   11  C15 UNL     1     -35.092 -12.913   0.248  1.00  0.00     0.010 C 
HETATM   12  C16 UNL     1     -34.959 -11.386   0.129  1.00  0.00     0.011 C 
HETATM   13  C17 UNL     1     -34.008 -10.880   1.170  1.00  0.00    -0.032 C 
HETATM   14  C18 UNL     1     -34.531 -11.460   2.466  1.00  0.00     0.016 C 
ENDROOT
BRANCH   1  15
HETATM   15  C3  UNL     1     -34.725  -8.433   0.880  1.00  0.00     0.020 C 
HETATM   16  C4  UNL     1     -36.189  -8.793   0.968  1.00  0.00     0.013 C 
BRANCH  15  17
HETATM   17  C2  UNL     1     -34.570  -7.074   1.511  1.00  0.00     0.139 C 
HETATM   18  C1  UNL     1     -35.504  -6.065   0.778  1.00  0.00     0.041 C 
BRANCH  17  19
HETATM   19  O1  UNL     1     -33.316  -6.497   1.359  1.00  0.00    -0.303 OA
HETATM   20  S1  UNL     1     -33.193  -4.924   1.980  1.00  0.00     0.093 SA
ENDBRANCH  17  19
ENDBRANCH  15  17
ENDBRANCH   1  15
BRANCH   7  21
HETATM   21  O2  UNL     1     -31.163 -13.337  -1.674  1.00  0.00    -0.395 OA
ATOM     22  H2  UNL     1     -31.206 -14.010  -2.343  1.00  0.00     0.210 HD
ENDBRANCH   7  21
TORSDOF 4
ENDMDL
MODEL 5
REMARK VINA RESULT: -3.188767625      2.675      5.555
REMARK  4 active torsions:
REMARK  status: ('A' for Active; 'I' for Inactive)
REMARK    1  A    between atoms: C2_2  and  O1_3 
REMARK    2  A    between atoms: C2_2  and  C3_5 
REMARK    3  A    between atoms: C3_5  and  C5_7 
REMARK    4  A    between atoms: C11_13  and  O2_14 
ROOT
HETATM    1  C5  UNL     1     -34.705 -12.334   0.762  1.00  0.00    -0.031 C 
HETATM    2  C6  UNL     1     -35.412 -12.649  -0.537  1.00  0.00     0.016 C 
HETATM    3  C7  UNL     1     -33.271 -12.848   0.465  1.00  0.00     0.011 C 
HETATM    4  C8  UNL     1     -32.749 -11.812  -0.473  1.00  0.00     0.007 C 
HETATM    5  C9  UNL     1     -33.480 -10.551  -0.100  1.00  0.00     0.002 C 
HETATM    6  C10 UNL     1     -32.527  -9.467   0.168  1.00  0.00     0.027 C 
HETATM    7  C11 UNL     1     -31.178  -9.802   0.739  1.00  0.00     0.124 C 
HETATM    8  C12 UNL     1     -31.306  -8.644   1.722  1.00  0.00     0.041 C 
HETATM    9  C13 UNL     1     -32.771  -8.544   1.280  1.00  0.00    -0.035 C 
HETATM   10  C14 UNL     1     -33.013  -7.068   0.932  1.00  0.00     0.016 C 
HETATM   11  C15 UNL     1     -33.684  -9.004   2.346  1.00  0.00     0.010 C 
HETATM   12  C16 UNL     1     -33.930 -10.521   2.311  1.00  0.00     0.011 C 
HETATM   13  C17 UNL     1     -34.485 -10.911   0.975  1.00  0.00    -0.032 C 
HETATM   14  C18 UNL     1     -35.664  -9.983   0.775  1.00  0.00     0.016 C 
ENDROOT
BRANCH   1  15
HETATM   15  C3  UNL     1     -35.241 -13.230   1.775  1.00  0.00     0.020 C 
HETATM   16  C4  UNL     1     -34.342 -14.276   2.390  1.00  0.00     0.013 C 
BRANCH  15  17
HETATM   17  C2  UNL     1     -36.078 -12.662   2.890  1.00  0.00     0.139 C 
HETATM   18  C1  UNL     1     -36.453 -13.808   3.878  1.00  0.00     0.041 C 
BRANCH  17  19
HETATM   19  O1  UNL     1     -37.319 -12.174   2.502  1.00  0.00    -0.303 OA
HETATM   20  S1  UNL     1     -38.453 -12.070   3.759  1.00  0.00     0.093 SA
ENDBRANCH  17  19
ENDBRANCH  15  17
ENDBRANCH   1  15
BRANCH   7  21
HETATM   21  O2  UNL     1     -30.089  -9.601  -0.110  1.00  0.00    -0.395 OA
ATOM     22  H2  UNL     1     -29.322  -9.205   0.286  1.00  0.00     0.210 HD
ENDBRANCH   7  21
TORSDOF 4
ENDMDL
