MODEL 1
REMARK VINA RESULT: -6.467559957      0.000      0.000
REMARK  4 active torsions:
REMARK  status: ('A' for Active; 'I' for Inactive)
REMARK    1  A    between atoms: C8_9  and  O2_10 
REMARK    2  A    between atoms: C10_13  and  O3_14 
REMARK    3  A    between atoms: C15_20  and  C16_21 
REMARK    4  A    between atoms: C16_21  and  C17_22 
ROOT
HETATM    1  C1  UNL     1     -31.181 -14.399  -1.890  1.00  0.00     0.019 C 
HETATM    2  C2  UNL     1     -32.090 -14.167  -0.992  1.00  0.00    -0.062 C 
HETATM    3  C3  UNL     1     -32.742 -15.201  -0.153  1.00  0.00     0.038 C 
HETATM    4  C4  UNL     1     -33.287 -14.763   1.168  1.00  0.00     0.013 C 
HETATM    5  C5  UNL     1     -33.893 -13.463   1.122  1.00  0.00     0.038 C 
HETATM    6  C6  UNL     1     -33.923 -12.731  -0.195  1.00  0.00     0.089 C 
HETATM    7  C7  UNL     1     -34.870 -13.317  -1.231  1.00  0.00     0.051 C 
HETATM    8  O1  UNL     1     -34.483 -11.537   0.166  1.00  0.00    -0.339 OA
HETATM    9  C8  UNL     1     -35.308 -11.735   1.235  1.00  0.00     0.173 C 
HETATM   10  C9  UNL     1     -36.706 -11.315   1.215  1.00  0.00     0.100 C 
HETATM   11  C10 UNL     1     -37.274 -11.495   2.595  1.00  0.00     0.123 C 
HETATM   12  C11 UNL     1     -36.625 -12.399   3.544  1.00  0.00     0.033 C 
HETATM   13  C12 UNL     1     -35.343 -13.079   3.182  1.00  0.00     0.017 C 
HETATM   14  C13 UNL     1     -35.249 -13.195   1.650  1.00  0.00     0.019 C 
HETATM   15  C14 UNL     1     -36.339 -14.075   1.246  1.00  0.00     0.021 C 
HETATM   16  C15 UNL     1     -32.567 -12.751  -0.720  1.00  0.00    -0.037 C 
ENDROOT
BRANCH  16  17
HETATM   17  C16 UNL     1     -31.479 -11.873  -0.266  1.00  0.00     0.065 C 
BRANCH  17  18
HETATM   18  C17 UNL     1     -30.545 -11.382  -1.229  1.00  0.00    -0.020 C 
HETATM   19  C18 UNL     1     -29.887 -10.283  -1.236  1.00  0.00    -0.091 C 
HETATM   20  C19 UNL     1     -29.924  -9.209  -0.225  1.00  0.00     0.042 C 
HETATM   21  C20 UNL     1     -28.929  -9.999  -2.399  1.00  0.00     0.042 C 
ENDBRANCH  17  18
ENDBRANCH  16  17
BRANCH   9  22
HETATM   22  O2  UNL     1     -34.705 -10.952   2.269  1.00  0.00    -0.364 OA
ATOM     23  H2  UNL     1     -35.195 -11.197   3.045  1.00  0.00     0.213 HD
ENDBRANCH   9  22
BRANCH  11  24
HETATM   24  O3  UNL     1     -38.620 -11.934   2.387  1.00  0.00    -0.395 OA
ATOM     25  H3  UNL     1     -38.911 -12.244   3.237  1.00  0.00     0.210 HD
ENDBRANCH  11  24
TORSDOF 4
ENDMDL
MODEL 2
REMARK VINA RESULT: -6.296662474      0.692      1.213
REMARK  4 active torsions:
REMARK  status: ('A' for Active; 'I' for Inactive)
REMARK    1  A    between atoms: C8_9  and  O2_10 
REMARK    2  A    between atoms: C10_13  and  O3_14 
REMARK    3  A    between atoms: C15_20  and  C16_21 
REMARK    4  A    between atoms: C16_21  and  C17_22 
ROOT
HETATM    1  C1  UNL     1     -31.256 -14.327  -1.923  1.00  0.00     0.019 C 
HETATM    2  C2  UNL     1     -32.154 -14.113  -1.009  1.00  0.00    -0.062 C 
HETATM    3  C3  UNL     1     -32.771 -15.161  -0.160  1.00  0.00     0.038 C 
HETATM    4  C4  UNL     1     -33.302 -14.734   1.171  1.00  0.00     0.013 C 
HETATM    5  C5  UNL     1     -33.934 -13.446   1.137  1.00  0.00     0.038 C 
HETATM    6  C6  UNL     1     -34.000 -12.714  -0.179  1.00  0.00     0.089 C 
HETATM    7  C7  UNL     1     -34.953 -13.318  -1.199  1.00  0.00     0.051 C 
HETATM    8  O1  UNL     1     -34.578 -11.531   0.193  1.00  0.00    -0.339 OA
HETATM    9  C8  UNL     1     -35.381 -11.746   1.276  1.00  0.00     0.173 C 
HETATM   10  C9  UNL     1     -36.786 -11.354   1.280  1.00  0.00     0.100 C 
HETATM   11  C10 UNL     1     -37.327 -11.546   2.670  1.00  0.00     0.123 C 
HETATM   12  C11 UNL     1     -36.644 -12.438   3.606  1.00  0.00     0.033 C 
HETATM   13  C12 UNL     1     -35.356 -13.092   3.222  1.00  0.00     0.017 C 
HETATM   14  C13 UNL     1     -35.285 -13.205   1.688  1.00  0.00     0.019 C 
HETATM   15  C14 UNL     1     -36.365 -14.106   1.302  1.00  0.00     0.021 C 
HETATM   16  C15 UNL     1     -32.654 -12.707  -0.727  1.00  0.00    -0.037 C 
ENDROOT
BRANCH  16  17
HETATM   17  C16 UNL     1     -31.576 -11.808  -0.291  1.00  0.00     0.065 C 
BRANCH  17  18
HETATM   18  C17 UNL     1     -31.924 -10.561   0.314  1.00  0.00    -0.020 C 
HETATM   19  C18 UNL     1     -31.281  -9.454   0.321  1.00  0.00    -0.091 C 
HETATM   20  C19 UNL     1     -29.979  -9.169  -0.311  1.00  0.00     0.042 C 
HETATM   21  C20 UNL     1     -31.888  -8.246   1.046  1.00  0.00     0.042 C 
ENDBRANCH  17  18
ENDBRANCH  16  17
BRANCH   9  22
HETATM   22  O2  UNL     1     -34.775 -10.952   2.300  1.00  0.00    -0.364 OA
ATOM     23  H2  UNL     1     -34.268 -11.583   2.798  1.00  0.00     0.213 HD
ENDBRANCH   9  22
BRANCH  11  24
HETATM   24  O3  UNL     1     -38.667 -12.011   2.484  1.00  0.00    -0.395 OA
ATOM     25  H3  UNL     1     -38.592 -12.748   1.890  1.00  0.00     0.210 HD
ENDBRANCH  11  24
TORSDOF 4
ENDMDL
MODEL 3
REMARK VINA RESULT: -5.253242926      2.218      4.383
REMARK  4 active torsions:
REMARK  status: ('A' for Active; 'I' for Inactive)
REMARK    1  A    between atoms: C8_9  and  O2_10 
REMARK    2  A    between atoms: C10_13  and  O3_14 
REMARK    3  A    between atoms: C15_20  and  C16_21 
REMARK    4  A    between atoms: C16_21  and  C17_22 
ROOT
HETATM    1  C1  UNL     1     -34.143  -7.223   1.535  1.00  0.00     0.019 C 
HETATM    2  C2  UNL     1     -34.327  -8.458   1.180  1.00  0.00    -0.062 C 
HETATM    3  C3  UNL     1     -35.644  -9.135   1.103  1.00  0.00     0.038 C 
HETATM    4  C4  UNL     1     -35.763 -10.291   0.162  1.00  0.00     0.013 C 
HETATM    5  C5  UNL     1     -34.587 -11.114   0.133  1.00  0.00     0.038 C 
HETATM    6  C6  UNL     1     -33.430 -10.745   1.025  1.00  0.00     0.089 C 
HETATM    7  C7  UNL     1     -33.671 -10.970   2.510  1.00  0.00     0.051 C 
HETATM    8  O1  UNL     1     -32.499 -11.681   0.669  1.00  0.00    -0.339 OA
HETATM    9  C8  UNL     1     -33.137 -12.813   0.252  1.00  0.00     0.173 C 
HETATM   10  C9  UNL     1     -32.851 -14.117   0.841  1.00  0.00     0.100 C 
HETATM   11  C10 UNL     1     -33.567 -15.167   0.037  1.00  0.00     0.123 C 
HETATM   12  C11 UNL     1     -34.700 -14.796  -0.810  1.00  0.00     0.033 C 
HETATM   13  C12 UNL     1     -35.098 -13.362  -0.954  1.00  0.00     0.017 C 
HETATM   14  C13 UNL     1     -34.638 -12.584   0.292  1.00  0.00     0.019 C 
HETATM   15  C14 UNL     1     -35.395 -13.137   1.411  1.00  0.00     0.021 C 
HETATM   16  C15 UNL     1     -33.150  -9.337   0.793  1.00  0.00    -0.037 C 
ENDROOT
BRANCH  16  17
HETATM   17  C16 UNL     1     -32.415  -8.809  -0.365  1.00  0.00     0.065 C 
BRANCH  17  18
HETATM   18  C17 UNL     1     -30.991  -8.720  -0.292  1.00  0.00    -0.020 C 
HETATM   19  C18 UNL     1     -30.103  -9.552  -0.690  1.00  0.00    -0.091 C 
HETATM   20  C19 UNL     1     -30.325 -10.854  -1.348  1.00  0.00     0.042 C 
HETATM   21  C20 UNL     1     -28.621  -9.207  -0.499  1.00  0.00     0.042 C 
ENDBRANCH  17  18
ENDBRANCH  16  17
BRANCH   9  22
HETATM   22  O2  UNL     1     -32.740 -12.933  -1.117  1.00  0.00    -0.364 OA
ATOM     23  H2  UNL     1     -33.566 -12.928  -1.587  1.00  0.00     0.213 HD
ENDBRANCH   9  22
BRANCH  11  24
HETATM   24  O3  UNL     1     -34.004 -16.134   0.996  1.00  0.00    -0.395 OA
ATOM     25  H3  UNL     1     -34.915 -16.298   0.781  1.00  0.00     0.210 HD
ENDBRANCH  11  24
TORSDOF 4
ENDMDL
MODEL 4
REMARK VINA RESULT: -4.336627730      2.390      4.419
REMARK  4 active torsions:
REMARK  status: ('A' for Active; 'I' for Inactive)
REMARK    1  A    between atoms: C8_9  and  O2_10 
REMARK    2  A    between atoms: C10_13  and  O3_14 
REMARK    3  A    between atoms: C15_20  and  C16_21 
REMARK    4  A    between atoms: C16_21  and  C17_22 
ROOT
HETATM    1  C1  UNL     1     -32.081  -6.195   1.417  1.00  0.00     0.019 C 
HETATM    2  C2  UNL     1     -32.796  -7.271   1.280  1.00  0.00    -0.062 C 
HETATM    3  C3  UNL     1     -34.259  -7.356   1.511  1.00  0.00     0.038 C 
HETATM    4  C4  UNL     1     -35.003  -8.426   0.780  1.00  0.00     0.013 C 
HETATM    5  C5  UNL     1     -34.270  -9.657   0.687  1.00  0.00     0.038 C 
HETATM    6  C6  UNL     1     -32.905  -9.729   1.322  1.00  0.00     0.089 C 
HETATM    7  C7  UNL     1     -32.908  -9.730   2.843  1.00  0.00     0.051 C 
HETATM    8  O1  UNL     1     -32.501 -10.986   0.965  1.00  0.00    -0.339 OA
HETATM    9  C8  UNL     1     -33.598 -11.786   0.824  1.00  0.00     0.173 C 
HETATM   10  C9  UNL     1     -33.726 -13.048   1.544  1.00  0.00     0.100 C 
HETATM   11  C10 UNL     1     -34.938 -13.769   1.025  1.00  0.00     0.123 C 
HETATM   12  C11 UNL     1     -35.986 -13.030   0.322  1.00  0.00     0.033 C 
HETATM   13  C12 UNL     1     -35.819 -11.573   0.034  1.00  0.00     0.017 C 
HETATM   14  C13 UNL     1     -34.852 -10.963   1.066  1.00  0.00     0.019 C 
HETATM   15  C14 UNL     1     -35.519 -11.079   2.358  1.00  0.00     0.021 C 
HETATM   16  C15 UNL     1     -32.156  -8.578   0.846  1.00  0.00    -0.037 C 
ENDROOT
BRANCH  16  17
HETATM   17  C16 UNL     1     -31.525  -8.478  -0.478  1.00  0.00     0.065 C 
BRANCH  17  18
HETATM   18  C17 UNL     1     -30.142  -8.813  -0.607  1.00  0.00    -0.020 C 
HETATM   19  C18 UNL     1     -29.604  -9.897  -1.025  1.00  0.00    -0.091 C 
HETATM   20  C19 UNL     1     -30.291 -11.115  -1.496  1.00  0.00     0.042 C 
HETATM   21  C20 UNL     1     -28.075  -9.997  -1.074  1.00  0.00     0.042 C 
ENDBRANCH  17  18
ENDBRANCH  16  17
BRANCH   9  22
HETATM   22  O2  UNL     1     -33.565 -12.154  -0.558  1.00  0.00    -0.364 OA
ATOM     23  H2  UNL     1     -33.868 -13.054  -0.553  1.00  0.00     0.213 HD
ENDBRANCH   9  22
BRANCH  11  24
HETATM   24  O3  UNL     1     -35.511 -14.404   2.172  1.00  0.00    -0.395 OA
ATOM     25  H3  UNL     1     -35.721 -15.285   1.886  1.00  0.00     0.210 HD
ENDBRANCH  11  24
TORSDOF 4
ENDMDL
MODEL 5
REMARK VINA RESULT: -3.385714207      2.328      4.318
REMARK  4 active torsions:
REMARK  status: ('A' for Active; 'I' for Inactive)
REMARK    1  A    between atoms: C8_9  and  O2_10 
REMARK    2  A    between atoms: C10_13  and  O3_14 
REMARK    3  A    between atoms: C15_20  and  C16_21 
REMARK    4  A    between atoms: C16_21  and  C17_22 
ROOT
HETATM    1  C1  UNL     1     -31.484  -6.435   1.440  1.00  0.00     0.019 C 
HETATM    2  C2  UNL     1     -32.356  -7.383   1.272  1.00  0.00    -0.062 C 
HETATM    3  C3  UNL     1     -33.826  -7.194   1.253  1.00  0.00     0.038 C 
HETATM    4  C4  UNL     1     -34.633  -8.199   0.496  1.00  0.00     0.013 C 
HETATM    5  C5  UNL     1     -34.135  -9.538   0.635  1.00  0.00     0.038 C 
HETATM    6  C6  UNL     1     -32.923  -9.767   1.501  1.00  0.00     0.089 C 
HETATM    7  C7  UNL     1     -33.162  -9.595   2.993  1.00  0.00     0.051 C 
HETATM    8  O1  UNL     1     -32.708 -11.106   1.325  1.00  0.00    -0.339 OA
HETATM    9  C8  UNL     1     -33.899 -11.720   1.065  1.00  0.00     0.173 C 
HETATM   10  C9  UNL     1     -34.368 -12.853   1.855  1.00  0.00     0.100 C 
HETATM   11  C10 UNL     1     -35.597 -13.414   1.197  1.00  0.00     0.123 C 
HETATM   12  C11 UNL     1     -36.368 -12.593   0.264  1.00  0.00     0.033 C 
HETATM   13  C12 UNL     1     -35.892 -11.227  -0.113  1.00  0.00     0.017 C 
HETATM   14  C13 UNL     1     -35.000 -10.676   1.016  1.00  0.00     0.019 C 
HETATM   15  C14 UNL     1     -35.870 -10.531   2.178  1.00  0.00     0.021 C 
HETATM   16  C15 UNL     1     -31.908  -8.820   1.066  1.00  0.00    -0.037 C 
ENDROOT
BRANCH  16  17
HETATM   17  C16 UNL     1     -31.072  -8.979  -0.132  1.00  0.00     0.065 C 
BRANCH  17  18
HETATM   18  C17 UNL     1     -30.981 -10.269  -0.740  1.00  0.00    -0.020 C 
HETATM   19  C18 UNL     1     -30.028 -10.778  -1.426  1.00  0.00    -0.091 C 
HETATM   20  C19 UNL     1     -28.739 -10.149  -1.776  1.00  0.00     0.042 C 
HETATM   21  C20 UNL     1     -30.179 -12.206  -1.964  1.00  0.00     0.042 C 
ENDBRANCH  17  18
ENDBRANCH  16  17
BRANCH   9  22
HETATM   22  O2  UNL     1     -33.720 -12.243  -0.255  1.00  0.00    -0.364 OA
ATOM     23  H2  UNL     1     -33.069 -11.666  -0.634  1.00  0.00     0.213 HD
ENDBRANCH   9  22
BRANCH  11  24
HETATM   24  O3  UNL     1     -36.449 -13.808   2.276  1.00  0.00    -0.395 OA
ATOM     25  H3  UNL     1     -37.149 -14.304   1.868  1.00  0.00     0.210 HD
ENDBRANCH  11  24
TORSDOF 4
ENDMDL
