MODEL 1
REMARK VINA RESULT: -4.200377366      0.000      0.000
REMARK  4 active torsions:
REMARK  status: ('A' for Active; 'I' for Inactive)
REMARK    1  A    between atoms: C2_2  and  C3_3 
REMARK    2  A    between atoms: C10_10  and  C11_11 
REMARK    3  A    between atoms: C11_11  and  O1_14 
REMARK    4  A    between atoms: C20_23  and  O3_24 
ROOT
HETATM    1  C3  UNL     1     -36.335 -11.966   2.010  1.00  0.00    -0.001 C 
HETATM    2  C4  UNL     1     -35.588 -12.446   3.221  1.00  0.00     0.022 C 
HETATM    3  C5  UNL     1     -36.214 -12.915   0.828  1.00  0.00     0.017 C 
HETATM    4  C6  UNL     1     -34.949 -13.695   0.843  1.00  0.00     0.015 C 
HETATM    5  C7  UNL     1     -33.916 -13.304  -0.147  1.00  0.00    -0.010 C 
HETATM    6  C8  UNL     1     -34.605 -13.161  -1.488  1.00  0.00     0.021 C 
HETATM    7  C9  UNL     1     -33.240 -12.010   0.166  1.00  0.00     0.002 C 
HETATM    8  C10 UNL     1     -32.107 -11.629  -0.401  1.00  0.00    -0.036 C 
HETATM    9  C14 UNL     1     -31.644 -12.703  -1.413  1.00  0.00     0.038 C 
HETATM   10  C15 UNL     1     -31.601 -13.993  -0.691  1.00  0.00     0.010 C 
HETATM   11  C16 UNL     1     -32.953 -14.457  -0.281  1.00  0.00    -0.005 C 
HETATM   12  C17 UNL     1     -32.800 -15.219   1.026  1.00  0.00     0.011 C 
HETATM   13  C18 UNL     1     -33.564 -10.947   1.104  1.00  0.00     0.159 C 
HETATM   14  O2  UNL     1     -32.422 -10.656   1.609  1.00  0.00    -0.293 OA
HETATM   15  C19 UNL     1     -34.623 -10.125   1.671  1.00  0.00     0.116 C 
HETATM   16  C20 UNL     1     -36.016 -10.591   1.574  1.00  0.00     0.137 C 
ENDROOT
BRANCH   8  17
HETATM   17  C11 UNL     1     -31.465 -10.379  -0.104  1.00  0.00     0.075 C 
HETATM   18  C12 UNL     1     -32.051  -9.018  -0.581  1.00  0.00     0.050 C 
HETATM   19  C13 UNL     1     -30.020 -10.247   0.338  1.00  0.00     0.050 C 
BRANCH  17  20
HETATM   20  O1  UNL     1     -31.038 -10.448  -1.547  1.00  0.00    -0.386 OA
ATOM     21  H1  UNL     1     -30.815  -9.534  -1.414  1.00  0.00     0.211 HD
ENDBRANCH  17  20
ENDBRANCH   8  17
BRANCH  16  22
HETATM   22  O3  UNL     1     -36.483 -10.378   0.286  1.00  0.00    -0.394 OA
ATOM     23  H3  UNL     1     -36.133  -9.565  -0.058  1.00  0.00     0.210 HD
ENDBRANCH  16  22
BRANCH   1  24
HETATM   24  C2  UNL     1     -37.798 -11.995   2.402  1.00  0.00    -0.025 C 
HETATM   25  C1  UNL     1     -38.143 -12.323   3.634  1.00  0.00     0.008 C 
ENDBRANCH   1  24
TORSDOF 4
ENDMDL
MODEL 2
REMARK VINA RESULT: -2.911440796      1.895      4.261
REMARK  4 active torsions:
REMARK  status: ('A' for Active; 'I' for Inactive)
REMARK    1  A    between atoms: C2_2  and  C3_3 
REMARK    2  A    between atoms: C10_10  and  C11_11 
REMARK    3  A    between atoms: C11_11  and  O1_14 
REMARK    4  A    between atoms: C20_23  and  O3_24 
ROOT
HETATM    1  C3  UNL     1     -33.243  -8.384   1.428  1.00  0.00    -0.001 C 
HETATM    2  C4  UNL     1     -32.675  -8.896   2.719  1.00  0.00     0.022 C 
HETATM    3  C5  UNL     1     -34.710  -8.738   1.246  1.00  0.00     0.017 C 
HETATM    4  C6  UNL     1     -35.092  -9.988   1.954  1.00  0.00     0.015 C 
HETATM    5  C7  UNL     1     -35.329 -11.184   1.107  1.00  0.00    -0.010 C 
HETATM    6  C8  UNL     1     -36.221 -10.757  -0.039  1.00  0.00     0.021 C 
HETATM    7  C9  UNL     1     -34.083 -11.770   0.531  1.00  0.00     0.002 C 
HETATM    8  C10 UNL     1     -34.029 -12.985   0.008  1.00  0.00    -0.036 C 
HETATM    9  C14 UNL     1     -35.426 -13.645   0.078  1.00  0.00     0.038 C 
HETATM   10  C15 UNL     1     -35.875 -13.569   1.486  1.00  0.00     0.010 C 
HETATM   11  C16 UNL     1     -36.124 -12.171   1.925  1.00  0.00    -0.005 C 
HETATM   12  C17 UNL     1     -35.780 -12.085   3.403  1.00  0.00     0.011 C 
HETATM   13  C18 UNL     1     -32.724 -11.262   0.433  1.00  0.00     0.159 C 
HETATM   14  O2  UNL     1     -32.015 -12.283   0.741  1.00  0.00    -0.293 OA
HETATM   15  C19 UNL     1     -31.893 -10.103   0.141  1.00  0.00     0.116 C 
HETATM   16  C20 UNL     1     -32.491  -8.760   0.212  1.00  0.00     0.137 C 
ENDROOT
BRANCH   8  17
HETATM   17  C11 UNL     1     -32.831 -13.542  -0.555  1.00  0.00     0.075 C 
HETATM   18  C12 UNL     1     -32.055 -12.836  -1.704  1.00  0.00     0.050 C 
HETATM   19  C13 UNL     1     -32.408 -14.990  -0.395  1.00  0.00     0.050 C 
BRANCH  17  20
HETATM   20  O1  UNL     1     -33.740 -13.913  -1.697  1.00  0.00    -0.386 OA
ATOM     21  H1  UNL     1     -32.960 -13.778  -2.222  1.00  0.00     0.211 HD
ENDBRANCH  17  20
ENDBRANCH   8  17
BRANCH  16  22
HETATM   22  O3  UNL     1     -33.265  -8.541  -0.916  1.00  0.00    -0.394 OA
ATOM     23  H3  UNL     1     -33.178  -7.640  -1.203  1.00  0.00     0.210 HD
ENDBRANCH  16  22
BRANCH   1  24
HETATM   24  C2  UNL     1     -33.204  -6.874   1.541  1.00  0.00    -0.025 C 
HETATM   25  C1  UNL     1     -34.326  -6.180   1.487  1.00  0.00     0.008 C 
ENDBRANCH   1  24
TORSDOF 4
ENDMDL
