MODEL 1
REMARK VINA RESULT: -4.061641097      0.000      0.000
REMARK  4 active torsions:
REMARK  status: ('A' for Active; 'I' for Inactive)
REMARK    1  A    between atoms: C2_2  and  C3_3 
REMARK    2  A    between atoms: C3_3  and  C4_4 
REMARK    3  A    between atoms: C6_6  and  O1_7 
REMARK    4  A    between atoms: N1_19  and  O2_21 
ROOT
HETATM    1  C4  UNL     1     -33.659 -13.954  -0.968  1.00  0.00    -0.011 C 
HETATM    2  C5  UNL     1     -32.288 -14.259  -1.622  1.00  0.00     0.018 C 
HETATM    3  C6  UNL     1     -33.844 -15.060   0.020  1.00  0.00     0.127 C 
HETATM    4  C7  UNL     1     -34.098 -14.715   1.429  1.00  0.00     0.033 C 
HETATM    5  C8  UNL     1     -33.931 -13.286   1.836  1.00  0.00     0.013 C 
HETATM    6  C9  UNL     1     -34.578 -12.409   0.804  1.00  0.00    -0.032 C 
HETATM    7  C10 UNL     1     -35.981 -12.839   0.615  1.00  0.00     0.016 C 
HETATM    8  C11 UNL     1     -33.711 -12.578  -0.446  1.00  0.00     0.005 C 
HETATM    9  C12 UNL     1     -32.303 -12.107  -0.197  1.00  0.00     0.007 C 
HETATM   10  C13 UNL     1     -32.175 -10.845   0.583  1.00  0.00     0.006 C 
HETATM   11  C14 UNL     1     -33.482 -10.154   0.619  1.00  0.00    -0.000 C 
HETATM   12  C15 UNL     1     -33.355  -8.840   1.357  1.00  0.00     0.060 C 
HETATM   13  C16 UNL     1     -34.642  -8.133   1.129  1.00  0.00     0.010 C 
HETATM   14  N1  UNL     1     -34.598  -6.847   1.130  1.00  0.00    -0.277 N 
ATOM     15  H1  UNL     1     -33.699  -6.392   1.284  1.00  0.00     0.193 HD
HETATM   16  C17 UNL     1     -35.912  -8.808   0.914  1.00  0.00     0.055 C 
HETATM   17  C18 UNL     1     -35.874 -10.258   0.663  1.00  0.00     0.016 C 
HETATM   18  C19 UNL     1     -34.604 -10.939   1.197  1.00  0.00    -0.032 C 
HETATM   19  C20 UNL     1     -34.675 -10.887   2.697  1.00  0.00     0.016 C 
ENDROOT
BRANCH   1  20
HETATM   20  C3  UNL     1     -34.605 -14.121  -2.145  1.00  0.00     0.038 C 
BRANCH  20  21
HETATM   21  C2  UNL     1     -35.521 -15.276  -2.010  1.00  0.00    -0.036 C 
HETATM   22  C1  UNL     1     -36.331 -15.629  -3.008  1.00  0.00     0.007 C 
ENDBRANCH  20  21
ENDBRANCH   1  20
BRANCH   3  23
HETATM   23  O1  UNL     1     -32.814 -16.025  -0.016  1.00  0.00    -0.395 OA
ATOM     24  H1  UNL     1     -32.996 -16.794   0.514  1.00  0.00     0.210 HD
ENDBRANCH   3  23
BRANCH  14  25
HETATM   25  O2  UNL     1     -35.712  -6.054   0.933  1.00  0.00    -0.290 OA
ATOM     26  H2  UNL     1     -35.660  -5.131   0.713  1.00  0.00     0.244 HD
ENDBRANCH  14  25
TORSDOF 4
ENDMDL
MODEL 2
REMARK VINA RESULT: -1.591115771      2.735      6.050
REMARK  4 active torsions:
REMARK  status: ('A' for Active; 'I' for Inactive)
REMARK    1  A    between atoms: C2_2  and  C3_3 
REMARK    2  A    between atoms: C3_3  and  C4_4 
REMARK    3  A    between atoms: C6_6  and  O1_7 
REMARK    4  A    between atoms: N1_19  and  O2_21 
ROOT
HETATM    1  C4  UNL     1     -34.808 -11.161   1.887  1.00  0.00    -0.011 C 
HETATM    2  C5  UNL     1     -34.173  -9.780   2.186  1.00  0.00     0.018 C 
HETATM    3  C6  UNL     1     -36.125 -10.828   1.263  1.00  0.00     0.127 C 
HETATM    4  C7  UNL     1     -36.444 -11.390  -0.060  1.00  0.00     0.033 C 
HETATM    5  C8  UNL     1     -35.344 -12.076  -0.807  1.00  0.00     0.013 C 
HETATM    6  C9  UNL     1     -34.599 -12.971   0.139  1.00  0.00    -0.032 C 
HETATM    7  C10 UNL     1     -35.560 -13.881   0.801  1.00  0.00     0.016 C 
HETATM    8  C11 UNL     1     -33.897 -12.013   1.104  1.00  0.00     0.005 C 
HETATM    9  C12 UNL     1     -32.921 -11.128   0.376  1.00  0.00     0.007 C 
HETATM   10  C13 UNL     1     -32.101 -11.800  -0.670  1.00  0.00     0.006 C 
HETATM   11  C14 UNL     1     -32.185 -13.265  -0.497  1.00  0.00    -0.000 C 
HETATM   12  C15 UNL     1     -31.311 -13.961  -1.516  1.00  0.00     0.060 C 
HETATM   13  C16 UNL     1     -31.283 -15.388  -1.105  1.00  0.00     0.010 C 
HETATM   14  N1  UNL     1     -30.222 -16.052  -1.406  1.00  0.00    -0.277 N 
ATOM     15  H1  UNL     1     -29.471 -15.570  -1.901  1.00  0.00     0.193 HD
HETATM   16  C17 UNL     1     -32.368 -16.051  -0.401  1.00  0.00     0.055 C 
HETATM   17  C18 UNL     1     -33.438 -15.201   0.149  1.00  0.00     0.016 C 
HETATM   18  C19 UNL     1     -33.556 -13.838  -0.550  1.00  0.00    -0.032 C 
HETATM   19  C20 UNL     1     -34.054 -14.100  -1.943  1.00  0.00     0.016 C 
ENDROOT
BRANCH   1  20
HETATM   20  C3  UNL     1     -35.003 -11.719   3.286  1.00  0.00     0.038 C 
BRANCH  20  21
HETATM   21  C2  UNL     1     -36.371 -12.226   3.537  1.00  0.00    -0.036 C 
HETATM   22  C1  UNL     1     -36.576 -13.487   3.916  1.00  0.00     0.007 C 
ENDBRANCH  20  21
ENDBRANCH   1  20
BRANCH   3  23
HETATM   23  O1  UNL     1     -36.397  -9.443   1.227  1.00  0.00    -0.395 OA
ATOM     24  H1  UNL     1     -35.892  -8.940   1.856  1.00  0.00     0.210 HD
ENDBRANCH   3  23
BRANCH  14  25
HETATM   25  O2  UNL     1     -30.051 -17.386  -1.090  1.00  0.00    -0.290 OA
ATOM     26  H2  UNL     1     -29.209 -17.824  -1.124  1.00  0.00     0.244 HD
ENDBRANCH  14  25
TORSDOF 4
ENDMDL
MODEL 3
REMARK VINA RESULT: -0.923207980      2.116      3.959
REMARK  4 active torsions:
REMARK  status: ('A' for Active; 'I' for Inactive)
REMARK    1  A    between atoms: C2_2  and  C3_3 
REMARK    2  A    between atoms: C3_3  and  C4_4 
REMARK    3  A    between atoms: C6_6  and  O1_7 
REMARK    4  A    between atoms: N1_19  and  O2_21 
ROOT
HETATM    1  C4  UNL     1     -35.384 -12.328   1.864  1.00  0.00    -0.011 C 
HETATM    2  C5  UNL     1     -36.881 -12.623   1.596  1.00  0.00     0.018 C 
HETATM    3  C6  UNL     1     -34.660 -13.302   0.992  1.00  0.00     0.127 C 
HETATM    4  C7  UNL     1     -33.670 -12.791   0.029  1.00  0.00     0.033 C 
HETATM    5  C8  UNL     1     -33.608 -11.312  -0.184  1.00  0.00     0.013 C 
HETATM    6  C9  UNL     1     -33.661 -10.626   1.150  1.00  0.00    -0.032 C 
HETATM    7  C10 UNL     1     -32.594 -11.174   2.017  1.00  0.00     0.016 C 
HETATM    8  C11 UNL     1     -35.074 -10.902   1.669  1.00  0.00     0.005 C 
HETATM    9  C12 UNL     1     -36.113 -10.306   0.756  1.00  0.00     0.007 C 
HETATM   10  C13 UNL     1     -35.807  -8.945   0.235  1.00  0.00     0.006 C 
HETATM   11  C14 UNL     1     -34.714  -8.347   1.031  1.00  0.00    -0.000 C 
HETATM   12  C15 UNL     1     -34.431  -6.941   0.552  1.00  0.00     0.060 C 
HETATM   13  C16 UNL     1     -33.502  -6.361   1.556  1.00  0.00     0.010 C 
HETATM   14  N1  UNL     1     -33.560  -5.086   1.722  1.00  0.00    -0.277 N 
ATOM     15  H1  UNL     1     -34.230  -4.553   1.167  1.00  0.00     0.193 HD
HETATM   16  C17 UNL     1     -32.556  -7.143   2.334  1.00  0.00     0.055 C 
HETATM   17  C18 UNL     1     -32.702  -8.608   2.303  1.00  0.00     0.016 C 
HETATM   18  C19 UNL     1     -33.446  -9.123   1.062  1.00  0.00    -0.032 C 
HETATM   19  C20 UNL     1     -32.552  -8.876  -0.121  1.00  0.00     0.016 C 
ENDROOT
BRANCH   1  20
HETATM   20  C3  UNL     1     -35.252 -12.715   3.327  1.00  0.00     0.038 C 
BRANCH  20  21
HETATM   21  C2  UNL     1     -36.449 -13.393   3.872  1.00  0.00    -0.036 C 
HETATM   22  C1  UNL     1     -37.578 -12.719   4.092  1.00  0.00     0.007 C 
ENDBRANCH  20  21
ENDBRANCH   1  20
BRANCH   3  23
HETATM   23  O1  UNL     1     -35.518 -14.191   0.307  1.00  0.00    -0.395 OA
ATOM     24  H1  UNL     1     -36.371 -13.820   0.111  1.00  0.00     0.210 HD
ENDBRANCH   3  23
BRANCH  14  25
HETATM   25  O2  UNL     1     -32.760  -4.404   2.619  1.00  0.00    -0.290 OA
ATOM     26  H2  UNL     1     -32.520  -3.491   2.511  1.00  0.00     0.244 HD
ENDBRANCH  14  25
TORSDOF 4
ENDMDL
MODEL 4
REMARK VINA RESULT: -0.627322746      2.714      6.347
REMARK  4 active torsions:
REMARK  status: ('A' for Active; 'I' for Inactive)
REMARK    1  A    between atoms: C2_2  and  C3_3 
REMARK    2  A    between atoms: C3_3  and  C4_4 
REMARK    3  A    between atoms: C6_6  and  O1_7 
REMARK    4  A    between atoms: N1_19  and  O2_21 
ROOT
HETATM    1  C4  UNL     1     -33.066  -9.365   1.080  1.00  0.00    -0.011 C 
HETATM    2  C5  UNL     1     -31.891  -8.886   0.193  1.00  0.00     0.018 C 
HETATM    3  C6  UNL     1     -34.233  -8.563   0.600  1.00  0.00     0.127 C 
HETATM    4  C7  UNL     1     -35.446  -9.273   0.160  1.00  0.00     0.033 C 
HETATM    5  C8  UNL     1     -35.363 -10.758   0.000  1.00  0.00     0.013 C 
HETATM    6  C9  UNL     1     -34.644 -11.334   1.184  1.00  0.00    -0.032 C 
HETATM    7  C10 UNL     1     -35.312 -10.879   2.424  1.00  0.00     0.016 C 
HETATM    8  C11 UNL     1     -33.205 -10.830   1.044  1.00  0.00     0.005 C 
HETATM    9  C12 UNL     1     -32.574 -11.340  -0.224  1.00  0.00     0.007 C 
HETATM   10  C13 UNL     1     -32.858 -12.763  -0.557  1.00  0.00     0.006 C 
HETATM   11  C14 UNL     1     -33.401 -13.449   0.634  1.00  0.00    -0.000 C 
HETATM   12  C15 UNL     1     -33.640 -14.911   0.329  1.00  0.00     0.060 C 
HETATM   13  C16 UNL     1     -33.952 -15.541   1.638  1.00  0.00     0.010 C 
HETATM   14  N1  UNL     1     -33.632 -16.781   1.769  1.00  0.00    -0.277 N 
ATOM     15  H1  UNL     1     -33.188 -17.254   0.981  1.00  0.00     0.193 HD
HETATM   16  C17 UNL     1     -34.587 -14.843   2.744  1.00  0.00     0.055 C 
HETATM   17  C18 UNL     1     -34.697 -13.378   2.647  1.00  0.00     0.016 C 
HETATM   18  C19 UNL     1     -34.640 -12.855   1.204  1.00  0.00    -0.032 C 
HETATM   19  C20 UNL     1     -35.901 -13.306   0.523  1.00  0.00     0.016 C 
ENDROOT
BRANCH   1  20
HETATM   20  C3  UNL     1     -32.623  -8.897   2.456  1.00  0.00     0.038 C 
BRANCH  20  21
HETATM   21  C2  UNL     1     -31.956  -7.576   2.447  1.00  0.00    -0.036 C 
HETATM   22  C1  UNL     1     -32.658  -6.452   2.587  1.00  0.00     0.007 C 
ENDBRANCH  20  21
ENDBRANCH   1  20
BRANCH   3  23
HETATM   23  O1  UNL     1     -33.896  -7.616  -0.391  1.00  0.00    -0.395 OA
ATOM     24  H1  UNL     1     -33.991  -7.944  -1.278  1.00  0.00     0.210 HD
ENDBRANCH   3  23
BRANCH  14  25
HETATM   25  O2  UNL     1     -33.860 -17.501   2.926  1.00  0.00    -0.290 OA
ATOM     26  H2  UNL     1     -34.584 -18.109   3.024  1.00  0.00     0.244 HD
ENDBRANCH  14  25
TORSDOF 4
ENDMDL
MODEL 5
REMARK VINA RESULT: -0.562212772      1.877      3.258
REMARK  4 active torsions:
REMARK  status: ('A' for Active; 'I' for Inactive)
REMARK    1  A    between atoms: C2_2  and  C3_3 
REMARK    2  A    between atoms: C3_3  and  C4_4 
REMARK    3  A    between atoms: C6_6  and  O1_7 
REMARK    4  A    between atoms: N1_19  and  O2_21 
ROOT
HETATM    1  C4  UNL     1     -33.489 -14.792   0.597  1.00  0.00    -0.011 C 
HETATM    2  C5  UNL     1     -34.236 -15.641   1.655  1.00  0.00     0.018 C 
HETATM    3  C6  UNL     1     -34.200 -15.099  -0.682  1.00  0.00     0.127 C 
HETATM    4  C7  UNL     1     -34.747 -13.984  -1.473  1.00  0.00     0.033 C 
HETATM    5  C8  UNL     1     -34.764 -12.628  -0.843  1.00  0.00     0.013 C 
HETATM    6  C9  UNL     1     -33.444 -12.388  -0.173  1.00  0.00    -0.032 C 
HETATM    7  C10 UNL     1     -32.357 -12.602  -1.154  1.00  0.00     0.016 C 
HETATM    8  C11 UNL     1     -33.419 -13.376   0.996  1.00  0.00     0.005 C 
HETATM    9  C12 UNL     1     -34.534 -13.096   1.967  1.00  0.00     0.007 C 
HETATM   10  C13 UNL     1     -34.780 -11.659   2.266  1.00  0.00     0.006 C 
HETATM   11  C14 UNL     1     -33.625 -10.856   1.813  1.00  0.00    -0.000 C 
HETATM   12  C15 UNL     1     -33.834  -9.399   2.162  1.00  0.00     0.060 C 
HETATM   13  C16 UNL     1     -32.535  -8.736   1.883  1.00  0.00     0.010 C 
HETATM   14  N1  UNL     1     -32.252  -7.702   2.596  1.00  0.00    -0.277 N 
ATOM     15  H1  UNL     1     -32.924  -7.401   3.302  1.00  0.00     0.193 HD
HETATM   16  C17 UNL     1     -31.595  -9.185   0.868  1.00  0.00     0.055 C 
HETATM   17  C18 UNL     1     -31.833 -10.506   0.263  1.00  0.00     0.016 C 
HETATM   18  C19 UNL     1     -33.293 -10.974   0.368  1.00  0.00    -0.032 C 
HETATM   19  C20 UNL     1     -34.107 -10.075  -0.520  1.00  0.00     0.016 C 
ENDROOT
BRANCH   1  20
HETATM   20  C3  UNL     1     -32.110 -15.427   0.610  1.00  0.00     0.038 C 
BRANCH  20  21
HETATM   21  C2  UNL     1     -31.755 -16.103  -0.658  1.00  0.00    -0.036 C 
HETATM   22  C1  UNL     1     -30.652 -15.769  -1.327  1.00  0.00     0.007 C 
ENDBRANCH  20  21
ENDBRANCH   1  20
BRANCH   3  23
HETATM   23  O1  UNL     1     -35.210 -16.076  -0.545  1.00  0.00    -0.395 OA
ATOM     24  H1  UNL     1     -34.899 -16.895  -0.174  1.00  0.00     0.210 HD
ENDBRANCH   3  23
BRANCH  14  25
HETATM   25  O2  UNL     1     -31.083  -6.981   2.450  1.00  0.00    -0.290 OA
ATOM     26  H2  UNL     1     -31.065  -6.071   2.179  1.00  0.00     0.244 HD
ENDBRANCH  14  25
TORSDOF 4
ENDMDL
