MODEL 1
REMARK VINA RESULT: -7.272816482      0.000      0.000
REMARK  8 active torsions:
REMARK  status: ('A' for Active; 'I' for Inactive)
REMARK    1  A    between atoms: O1_3  and  C2_4 
REMARK    2  A    between atoms: C2_4  and  C3_5 
REMARK    3  A    between atoms: C3_5  and  C4_6 
REMARK    4  A    between atoms: C4_6  and  N2_7 
REMARK    5  A    between atoms: C17_22  and  O2_23 
REMARK    6  A    between atoms: O2_23  and  C18_24 
REMARK    7  A    between atoms: C18_24  and  C19_25 
REMARK    8  A    between atoms: C19_25  and  O3_26 
ROOT
HETATM    1  N1  UNL     1      17.319   2.460  16.317  1.00  0.00    -0.164 NA
HETATM    2  C1  UNL     1      16.159   2.291  16.294  1.00  0.00     0.228 C 
HETATM    3  O1  UNL     1      14.809   2.115  16.278  1.00  0.00    -0.283 OA
ENDROOT
BRANCH   3   4
HETATM    4  C2  UNL     1      13.937   3.166  16.719  1.00  0.00     0.191 C 
BRANCH   4   5
HETATM    5  C3  UNL     1      14.594   4.513  16.516  1.00  0.00     0.047 C 
BRANCH   5   6
HETATM    6  C4  UNL     1      14.535   4.909  15.056  1.00  0.00     0.125 C 
BRANCH   6   7
HETATM    7  N2  UNL     1      15.724   5.585  14.645  1.00  0.00    -0.379 N 
HETATM    8  C5  UNL     1      16.099   6.871  15.179  1.00  0.00     0.124 C 
HETATM    9  C6  UNL     1      16.683   7.821  14.167  1.00  0.00     0.035 C 
HETATM   10  C7  UNL     1      17.642   7.253  13.232  1.00  0.00     0.006 C 
HETATM   11  C8  UNL     1      17.472   5.820  13.061  1.00  0.00     0.002 A 
HETATM   12  C14 UNL     1      19.115   7.516  13.375  1.00  0.00     0.026 C 
HETATM   13  C20 UNL     1      17.750   7.863  11.855  1.00  0.00     0.037 C 
HETATM   14  C9  UNL     1      16.594   5.006  13.688  1.00  0.00     0.054 A 
HETATM   15  C11 UNL     1      18.248   5.124  12.171  1.00  0.00     0.018 A 
HETATM   16  C10 UNL     1      16.821   3.748  13.176  1.00  0.00     0.118 A 
HETATM   17  N3  UNL     1      17.829   3.852  12.261  1.00  0.00    -0.366 N 
ATOM     18  H3  UNL     1      18.208   3.073  11.722  1.00  0.00     0.165 HD
HETATM   19  C12 UNL     1      19.251   5.906  11.426  1.00  0.00     0.063 C 
HETATM   20  C13 UNL     1      19.180   7.358  11.853  1.00  0.00     0.008 C 
HETATM   21  C15 UNL     1      19.342   8.945  13.681  1.00  0.00    -0.022 C 
HETATM   22  C16 UNL     1      18.733   9.844  12.928  1.00  0.00     0.002 C 
HETATM   23  C17 UNL     1      17.854   9.386  11.816  1.00  0.00     0.149 C 
BRANCH  23  24
HETATM   24  O2  UNL     1      16.649   9.997  11.786  1.00  0.00    -0.380 OA
BRANCH  24  25
HETATM   25  C18 UNL     1      15.719   9.417  10.967  1.00  0.00     0.194 C 
BRANCH  25  26
HETATM   26  C19 UNL     1      14.288   9.565  11.318  1.00  0.00     0.190 C 
BRANCH  26  27
HETATM   27  O3  UNL     1      13.798   8.807  12.358  1.00  0.00    -0.399 OA
ATOM     28  H3  UNL     1      12.959   8.378  12.238  1.00  0.00     0.209 HD
ENDBRANCH  26  27
ENDBRANCH  25  26
ENDBRANCH  24  25
ENDBRANCH  23  24
ENDBRANCH   6   7
ENDBRANCH   5   6
ENDBRANCH   4   5
ENDBRANCH   3   4
TORSDOF 8
ENDMDL
MODEL 2
REMARK VINA RESULT: -7.101048867      1.885      2.369
REMARK  8 active torsions:
REMARK  status: ('A' for Active; 'I' for Inactive)
REMARK    1  A    between atoms: O1_3  and  C2_4 
REMARK    2  A    between atoms: C2_4  and  C3_5 
REMARK    3  A    between atoms: C3_5  and  C4_6 
REMARK    4  A    between atoms: C4_6  and  N2_7 
REMARK    5  A    between atoms: C17_22  and  O2_23 
REMARK    6  A    between atoms: O2_23  and  C18_24 
REMARK    7  A    between atoms: C18_24  and  C19_25 
REMARK    8  A    between atoms: C19_25  and  O3_26 
ROOT
HETATM    1  N1  UNL     1      17.389   2.124  15.949  1.00  0.00    -0.164 NA
HETATM    2  C1  UNL     1      16.235   2.147  16.151  1.00  0.00     0.228 C 
HETATM    3  O1  UNL     1      14.894   2.198  16.386  1.00  0.00    -0.283 OA
ENDROOT
BRANCH   3   4
HETATM    4  C2  UNL     1      14.203   3.455  16.365  1.00  0.00     0.191 C 
BRANCH   4   5
HETATM    5  C3  UNL     1      14.780   4.354  15.296  1.00  0.00     0.047 C 
BRANCH   5   6
HETATM    6  C4  UNL     1      14.789   5.792  15.769  1.00  0.00     0.125 C 
BRANCH   6   7
HETATM    7  N2  UNL     1      15.476   6.645  14.852  1.00  0.00    -0.379 N 
HETATM    8  C5  UNL     1      14.870   7.837  14.312  1.00  0.00     0.124 C 
HETATM    9  C6  UNL     1      15.171   8.086  12.858  1.00  0.00     0.035 C 
HETATM   10  C7  UNL     1      16.547   7.867  12.440  1.00  0.00     0.006 C 
HETATM   11  C8  UNL     1      17.255   6.945  13.314  1.00  0.00     0.002 A 
HETATM   12  C14 UNL     1      17.468   9.022  12.165  1.00  0.00     0.026 C 
HETATM   13  C20 UNL     1      16.805   7.428  11.018  1.00  0.00     0.037 C 
HETATM   14  C9  UNL     1      16.799   6.350  14.438  1.00  0.00     0.054 A 
HETATM   15  C11 UNL     1      18.544   6.573  13.041  1.00  0.00     0.018 A 
HETATM   16  C10 UNL     1      17.838   5.570  14.894  1.00  0.00     0.118 A 
HETATM   17  N3  UNL     1      18.881   5.726  14.027  1.00  0.00    -0.366 N 
ATOM     18  H3  UNL     1      19.786   5.265  14.117  1.00  0.00     0.165 HD
HETATM   19  C12 UNL     1      19.156   7.163  11.837  1.00  0.00     0.063 C 
HETATM   20  C13 UNL     1      18.162   8.089  11.166  1.00  0.00     0.008 C 
HETATM   21  C15 UNL     1      16.757  10.055  11.383  1.00  0.00    -0.022 C 
HETATM   22  C16 UNL     1      16.087   9.670  10.311  1.00  0.00     0.002 C 
HETATM   23  C17 UNL     1      16.076   8.228   9.941  1.00  0.00     0.149 C 
BRANCH  23  24
HETATM   24  O2  UNL     1      14.844   7.744   9.666  1.00  0.00    -0.380 OA
BRANCH  24  25
HETATM   25  C18 UNL     1      13.923   8.677   9.273  1.00  0.00     0.194 C 
BRANCH  25  26
HETATM   26  C19 UNL     1      13.404   8.607   7.888  1.00  0.00     0.190 C 
BRANCH  26  27
HETATM   27  O3  UNL     1      14.076   7.811   6.987  1.00  0.00    -0.399 OA
ATOM     28  H3  UNL     1      14.716   7.197   7.328  1.00  0.00     0.209 HD
ENDBRANCH  26  27
ENDBRANCH  25  26
ENDBRANCH  24  25
ENDBRANCH  23  24
ENDBRANCH   6   7
ENDBRANCH   5   6
ENDBRANCH   4   5
ENDBRANCH   3   4
TORSDOF 8
ENDMDL
MODEL 3
REMARK VINA RESULT: -6.882893796      2.713      4.539
REMARK  8 active torsions:
REMARK  status: ('A' for Active; 'I' for Inactive)
REMARK    1  A    between atoms: O1_3  and  C2_4 
REMARK    2  A    between atoms: C2_4  and  C3_5 
REMARK    3  A    between atoms: C3_5  and  C4_6 
REMARK    4  A    between atoms: C4_6  and  N2_7 
REMARK    5  A    between atoms: C17_22  and  O2_23 
REMARK    6  A    between atoms: O2_23  and  C18_24 
REMARK    7  A    between atoms: C18_24  and  C19_25 
REMARK    8  A    between atoms: C19_25  and  O3_26 
ROOT
HETATM    1  N1  UNL     1      17.448   2.726  16.036  1.00  0.00    -0.164 NA
HETATM    2  C1  UNL     1      16.922   2.081  15.211  1.00  0.00     0.228 C 
HETATM    3  O1  UNL     1      16.325   1.341  14.236  1.00  0.00    -0.283 OA
ENDROOT
BRANCH   3   4
HETATM    4  C2  UNL     1      16.844   1.355  12.898  1.00  0.00     0.191 C 
BRANCH   4   5
HETATM    5  C3  UNL     1      17.464   2.698  12.588  1.00  0.00     0.047 C 
BRANCH   5   6
HETATM    6  C4  UNL     1      16.447   3.603  11.925  1.00  0.00     0.125 C 
BRANCH   6   7
HETATM    7  N2  UNL     1      16.871   4.967  11.932  1.00  0.00    -0.379 N 
HETATM    8  C5  UNL     1      17.480   5.586  10.781  1.00  0.00     0.124 C 
HETATM    9  C6  UNL     1      18.620   6.516  11.102  1.00  0.00     0.035 C 
HETATM   10  C7  UNL     1      18.422   7.408  12.234  1.00  0.00     0.006 C 
HETATM   11  C8  UNL     1      17.440   6.901  13.178  1.00  0.00     0.002 A 
HETATM   12  C14 UNL     1      18.136   8.870  12.029  1.00  0.00     0.026 C 
HETATM   13  C20 UNL     1      19.632   7.840  13.029  1.00  0.00     0.037 C 
HETATM   14  C9  UNL     1      16.702   5.774  13.084  1.00  0.00     0.054 A 
HETATM   15  C11 UNL     1      17.168   7.581  14.336  1.00  0.00     0.018 A 
HETATM   16  C10 UNL     1      15.933   5.736  14.226  1.00  0.00     0.118 A 
HETATM   17  N3  UNL     1      16.237   6.843  14.964  1.00  0.00    -0.366 N 
ATOM     18  H3  UNL     1      15.818   7.076  15.864  1.00  0.00     0.165 HD
HETATM   19  C12 UNL     1      17.911   8.835  14.551  1.00  0.00     0.063 C 
HETATM   20  C13 UNL     1      18.835   9.083  13.376  1.00  0.00     0.008 C 
HETATM   21  C15 UNL     1      19.024   9.412  10.980  1.00  0.00    -0.022 C 
HETATM   22  C16 UNL     1      20.317   9.152  11.066  1.00  0.00     0.002 C 
HETATM   23  C17 UNL     1      20.819   8.333  12.204  1.00  0.00     0.149 C 
BRANCH  23  24
HETATM   24  O2  UNL     1      21.654   7.337  11.833  1.00  0.00    -0.380 OA
BRANCH  24  25
HETATM   25  C18 UNL     1      22.902   7.736  11.437  1.00  0.00     0.194 C 
BRANCH  25  26
HETATM   26  C19 UNL     1      23.905   6.692  11.128  1.00  0.00     0.190 C 
BRANCH  26  27
HETATM   27  O3  UNL     1      24.623   6.159  12.175  1.00  0.00    -0.399 OA
ATOM     28  H3  UNL     1      25.509   6.473  12.312  1.00  0.00     0.209 HD
ENDBRANCH  26  27
ENDBRANCH  25  26
ENDBRANCH  24  25
ENDBRANCH  23  24
ENDBRANCH   6   7
ENDBRANCH   5   6
ENDBRANCH   4   5
ENDBRANCH   3   4
TORSDOF 8
ENDMDL
MODEL 4
REMARK VINA RESULT: -6.859602232      2.271      3.469
REMARK  8 active torsions:
REMARK  status: ('A' for Active; 'I' for Inactive)
REMARK    1  A    between atoms: O1_3  and  C2_4 
REMARK    2  A    between atoms: C2_4  and  C3_5 
REMARK    3  A    between atoms: C3_5  and  C4_6 
REMARK    4  A    between atoms: C4_6  and  N2_7 
REMARK    5  A    between atoms: C17_22  and  O2_23 
REMARK    6  A    between atoms: O2_23  and  C18_24 
REMARK    7  A    between atoms: C18_24  and  C19_25 
REMARK    8  A    between atoms: C19_25  and  O3_26 
ROOT
HETATM    1  N1  UNL     1      17.133   4.672  10.113  1.00  0.00    -0.164 NA
HETATM    2  C1  UNL     1      16.519   4.371  11.064  1.00  0.00     0.228 C 
HETATM    3  O1  UNL     1      15.826   4.014  12.180  1.00  0.00    -0.283 OA
ENDROOT
BRANCH   3   4
HETATM    4  C2  UNL     1      16.523   3.580  13.357  1.00  0.00     0.191 C 
BRANCH   4   5
HETATM    5  C3  UNL     1      16.066   4.373  14.560  1.00  0.00     0.047 C 
BRANCH   5   6
HETATM    6  C4  UNL     1      17.177   5.282  15.041  1.00  0.00     0.125 C 
BRANCH   6   7
HETATM    7  N2  UNL     1      17.323   6.427  14.200  1.00  0.00    -0.379 N 
HETATM    8  C5  UNL     1      16.293   7.430  14.084  1.00  0.00     0.124 C 
HETATM    9  C6  UNL     1      16.094   7.962  12.690  1.00  0.00     0.035 C 
HETATM   10  C7  UNL     1      17.303   8.248  11.933  1.00  0.00     0.006 C 
HETATM   11  C8  UNL     1      18.448   7.485  12.401  1.00  0.00     0.002 A 
HETATM   12  C14 UNL     1      17.765   9.662  11.713  1.00  0.00     0.026 C 
HETATM   13  C20 UNL     1      17.256   8.116  10.428  1.00  0.00     0.037 C 
HETATM   14  C9  UNL     1      18.504   6.625  13.441  1.00  0.00     0.054 A 
HETATM   15  C11 UNL     1      19.658   7.580  11.767  1.00  0.00     0.018 A 
HETATM   16  C10 UNL     1      19.798   6.157  13.468  1.00  0.00     0.118 A 
HETATM   17  N3  UNL     1      20.473   6.753  12.443  1.00  0.00    -0.366 N 
ATOM     18  H3  UNL     1      21.456   6.593  12.221  1.00  0.00     0.165 HD
HETATM   19  C12 UNL     1      19.725   8.494  10.613  1.00  0.00     0.063 C 
HETATM   20  C13 UNL     1      18.371   9.144  10.404  1.00  0.00     0.008 C 
HETATM   21  C15 UNL     1      16.613  10.517  11.358  1.00  0.00    -0.022 C 
HETATM   22  C16 UNL     1      15.796  10.094  10.409  1.00  0.00     0.002 C 
HETATM   23  C17 UNL     1      16.067   8.788   9.746  1.00  0.00     0.149 C 
BRANCH  23  24
HETATM   24  O2  UNL     1      14.984   7.984   9.660  1.00  0.00    -0.380 OA
BRANCH  24  25
HETATM   25  C18 UNL     1      13.832   8.596   9.244  1.00  0.00     0.194 C 
BRANCH  25  26
HETATM   26  C19 UNL     1      13.616   8.764   7.790  1.00  0.00     0.190 C 
BRANCH  26  27
HETATM   27  O3  UNL     1      14.013   7.742   6.957  1.00  0.00    -0.399 OA
ATOM     28  H3  UNL     1      14.929   7.491   6.966  1.00  0.00     0.209 HD
ENDBRANCH  26  27
ENDBRANCH  25  26
ENDBRANCH  24  25
ENDBRANCH  23  24
ENDBRANCH   6   7
ENDBRANCH   5   6
ENDBRANCH   4   5
ENDBRANCH   3   4
TORSDOF 8
ENDMDL
MODEL 5
REMARK VINA RESULT: -6.791746397      2.067      2.745
REMARK  8 active torsions:
REMARK  status: ('A' for Active; 'I' for Inactive)
REMARK    1  A    between atoms: O1_3  and  C2_4 
REMARK    2  A    between atoms: C2_4  and  C3_5 
REMARK    3  A    between atoms: C3_5  and  C4_6 
REMARK    4  A    between atoms: C4_6  and  N2_7 
REMARK    5  A    between atoms: C17_22  and  O2_23 
REMARK    6  A    between atoms: O2_23  and  C18_24 
REMARK    7  A    between atoms: C18_24  and  C19_25 
REMARK    8  A    between atoms: C19_25  and  O3_26 
ROOT
HETATM    1  N1  UNL     1      15.244   1.399  17.071  1.00  0.00    -0.164 NA
HETATM    2  C1  UNL     1      15.334   2.566  17.123  1.00  0.00     0.228 C 
HETATM    3  O1  UNL     1      15.424   3.924  17.166  1.00  0.00    -0.283 OA
ENDROOT
BRANCH   3   4
HETATM    4  C2  UNL     1      14.604   4.731  16.308  1.00  0.00     0.191 C 
BRANCH   4   5
HETATM    5  C3  UNL     1      15.259   4.895  14.956  1.00  0.00     0.047 C 
BRANCH   5   6
HETATM    6  C4  UNL     1      16.687   5.372  15.121  1.00  0.00     0.125 C 
BRANCH   6   7
HETATM    7  N2  UNL     1      16.972   6.487  14.275  1.00  0.00    -0.379 N 
HETATM    8  C5  UNL     1      16.008   7.532  14.033  1.00  0.00     0.124 C 
HETATM    9  C6  UNL     1      15.978   8.037  12.615  1.00  0.00     0.035 C 
HETATM   10  C7  UNL     1      17.270   8.248  11.981  1.00  0.00     0.006 C 
HETATM   11  C8  UNL     1      18.323   7.446  12.580  1.00  0.00     0.002 A 
HETATM   12  C14 UNL     1      17.818   9.633  11.780  1.00  0.00     0.026 C 
HETATM   13  C20 UNL     1      17.370   8.080  10.483  1.00  0.00     0.037 C 
HETATM   14  C9  UNL     1      18.232   6.612  13.639  1.00  0.00     0.054 A 
HETATM   15  C11 UNL     1      19.595   7.470  12.072  1.00  0.00     0.018 A 
HETATM   16  C10 UNL     1      19.493   6.086  13.808  1.00  0.00     0.118 A 
HETATM   17  N3  UNL     1      20.296   6.624  12.845  1.00  0.00    -0.366 N 
ATOM     18  H3  UNL     1      21.288   6.414  12.729  1.00  0.00     0.165 HD
HETATM   19  C12 UNL     1      19.822   8.350  10.913  1.00  0.00     0.063 C 
HETATM   20  C13 UNL     1      18.530   9.055  10.552  1.00  0.00     0.008 C 
HETATM   21  C15 UNL     1      16.751  10.530  11.291  1.00  0.00    -0.022 C 
HETATM   22  C16 UNL     1      16.015  10.120  10.272  1.00  0.00     0.002 C 
HETATM   23  C17 UNL     1      16.290   8.787   9.668  1.00  0.00     0.149 C 
BRANCH  23  24
HETATM   24  O2  UNL     1      15.184   8.031   9.488  1.00  0.00    -0.380 OA
BRANCH  24  25
HETATM   25  C18 UNL     1      14.027   8.729   9.267  1.00  0.00     0.194 C 
BRANCH  25  26
HETATM   26  C19 UNL     1      13.252   8.429   8.042  1.00  0.00     0.190 C 
BRANCH  26  27
HETATM   27  O3  UNL     1      13.943   7.995   6.933  1.00  0.00    -0.399 OA
ATOM     28  H3  UNL     1      14.266   7.101   6.932  1.00  0.00     0.209 HD
ENDBRANCH  26  27
ENDBRANCH  25  26
ENDBRANCH  24  25
ENDBRANCH  23  24
ENDBRANCH   6   7
ENDBRANCH   5   6
ENDBRANCH   4   5
ENDBRANCH   3   4
TORSDOF 8
ENDMDL
