MODEL 1
REMARK VINA RESULT: -6.768419112      0.000      0.000
REMARK  8 active torsions:
REMARK  status: ('A' for Active; 'I' for Inactive)
REMARK    1  A    between atoms: N2_7  and  C5_8 
REMARK    2  A    between atoms: C5_8  and  C6_9 
REMARK    3  A    between atoms: C6_9  and  C7_10 
REMARK    4  A    between atoms: C7_10  and  O1_11 
REMARK    5  A    between atoms: C7_10  and  C8_13 
REMARK    6  A    between atoms: C8_13  and  N3_14 
REMARK    7  A    between atoms: C11_17  and  N4_18 
REMARK       I    between atoms: N4_18  and  C12_20 
REMARK    8  A    between atoms: C12_20  and  C13_22 
ROOT
HETATM    1  N3  UNL     1      19.297   6.854  10.007  1.00  0.00     0.092 N 
HETATM    2  C9  UNL     1      19.703   8.189   9.645  1.00  0.00     0.274 C 
HETATM    3  C10 UNL     1      18.498   9.069   9.819  1.00  0.00     0.057 C 
HETATM    4  C11 UNL     1      17.355   8.122   9.962  1.00  0.00     0.114 C 
HETATM    5  C20 UNL     1      17.902   6.768   9.728  1.00  0.00     0.297 C 
ENDROOT
BRANCH   1   6
HETATM    6  C8  UNL     1      19.687   6.472  11.320  1.00  0.00     0.303 C 
BRANCH   6   7
HETATM    7  C7  UNL     1      18.804   5.360  11.858  1.00  0.00     0.148 C 
BRANCH   7   8
HETATM    8  C6  UNL     1      18.056   5.892  13.025  1.00  0.00     0.053 C 
BRANCH   8   9
HETATM    9  C5  UNL     1      16.758   5.242  13.308  1.00  0.00     0.132 C 
BRANCH   9  10
HETATM   10  N2  UNL     1      16.743   4.079  14.120  1.00  0.00    -0.346 N 
HETATM   11  C2  UNL     1      16.769   2.784  13.764  1.00  0.00     0.079 A 
HETATM   12  C1  UNL     1      16.779   2.325  12.349  1.00  0.00     0.089 C 
HETATM   13  N1  UNL     1      16.782   1.971  14.833  1.00  0.00    -0.355 N 
HETATM   14  C3  UNL     1      16.764   2.756  15.899  1.00  0.00     0.106 A 
ATOM     15  H1  UNL     1      16.802   0.951  14.825  1.00  0.00     0.166 HD
HETATM   16  C4  UNL     1      16.741   4.058  15.476  1.00  0.00     0.109 A 
ENDBRANCH   9  10
ENDBRANCH   8   9
ENDBRANCH   7   8
BRANCH   7  17
HETATM   17  O1  UNL     1      19.666   4.307  12.152  1.00  0.00    -0.394 OA
ATOM     18  H1  UNL     1      19.852   3.731  11.420  1.00  0.00     0.210 HD
ENDBRANCH   7  17
ENDBRANCH   6   7
ENDBRANCH   1   6
BRANCH   4  19
HETATM   19  N4  UNL     1      16.234   8.453   9.116  1.00  0.00    -0.354 N 
HETATM   20  C12 UNL     1      14.895   8.585   9.528  1.00  0.00     0.222 C 
HETATM   21  O2  UNL     1      14.542   8.420  10.719  1.00  0.00    -0.273 OA
ATOM     22  H4  UNL     1      16.430   8.606   8.127  1.00  0.00     0.162 HD
BRANCH  20  23
HETATM   23  C13 UNL     1      13.804   8.933   8.561  1.00  0.00     0.082 C 
HETATM   24  C14 UNL     1      14.384   9.614   7.323  1.00  0.00     0.019 C 
HETATM   25  C15 UNL     1      13.868  11.026   7.336  1.00  0.00    -0.013 C 
HETATM   26  C16 UNL     1      12.419  10.990   6.918  1.00  0.00     0.005 C 
HETATM   27  C19 UNL     1      13.698  11.247   8.848  1.00  0.00     0.010 C 
HETATM   28  C17 UNL     1      11.792  10.172   8.044  1.00  0.00     0.006 C 
HETATM   29  C18 UNL     1      12.874   9.969   9.082  1.00  0.00    -0.001 C 
ENDBRANCH  20  23
ENDBRANCH   4  19
TORSDOF 8
ENDMDL
MODEL 2
REMARK VINA RESULT: -6.764141568      1.520      1.933
REMARK  8 active torsions:
REMARK  status: ('A' for Active; 'I' for Inactive)
REMARK    1  A    between atoms: N2_7  and  C5_8 
REMARK    2  A    between atoms: C5_8  and  C6_9 
REMARK    3  A    between atoms: C6_9  and  C7_10 
REMARK    4  A    between atoms: C7_10  and  O1_11 
REMARK    5  A    between atoms: C7_10  and  C8_13 
REMARK    6  A    between atoms: C8_13  and  N3_14 
REMARK    7  A    between atoms: C11_17  and  N4_18 
REMARK       I    between atoms: N4_18  and  C12_20 
REMARK    8  A    between atoms: C12_20  and  C13_22 
ROOT
HETATM    1  N3  UNL     1      19.087   7.954  12.413  1.00  0.00     0.092 N 
HETATM    2  C9  UNL     1      19.322   9.349  12.132  1.00  0.00     0.274 C 
HETATM    3  C10 UNL     1      17.980   9.967  11.865  1.00  0.00     0.057 C 
HETATM    4  C11 UNL     1      17.058   8.808  11.684  1.00  0.00     0.114 C 
HETATM    5  C20 UNL     1      17.903   7.595  11.706  1.00  0.00     0.297 C 
ENDROOT
BRANCH   1   6
HETATM    6  C8  UNL     1      19.097   7.639  13.800  1.00  0.00     0.303 C 
BRANCH   6   7
HETATM    7  C7  UNL     1      18.839   6.160  14.033  1.00  0.00     0.148 C 
BRANCH   7   8
HETATM    8  C6  UNL     1      17.599   6.033  14.838  1.00  0.00     0.053 C 
BRANCH   8   9
HETATM    9  C5  UNL     1      16.486   5.303  14.195  1.00  0.00     0.132 C 
BRANCH   9  10
HETATM   10  N2  UNL     1      16.678   3.941  13.844  1.00  0.00    -0.346 N 
HETATM   11  C2  UNL     1      16.660   2.846  14.620  1.00  0.00     0.079 A 
HETATM   12  C1  UNL     1      16.456   2.889  16.094  1.00  0.00     0.089 C 
HETATM   13  N1  UNL     1      16.847   1.723  13.906  1.00  0.00    -0.355 N 
HETATM   14  C3  UNL     1      16.990   2.102  12.646  1.00  0.00     0.106 A 
ATOM     15  H1  UNL     1      16.874   0.768  14.264  1.00  0.00     0.166 HD
HETATM   16  C4  UNL     1      16.888   3.467  12.592  1.00  0.00     0.109 A 
ENDBRANCH   9  10
ENDBRANCH   8   9
ENDBRANCH   7   8
BRANCH   7  17
HETATM   17  O1  UNL     1      19.987   5.673  14.652  1.00  0.00    -0.394 OA
ATOM     18  H1  UNL     1      19.831   4.989  15.293  1.00  0.00     0.210 HD
ENDBRANCH   7  17
ENDBRANCH   6   7
ENDBRANCH   1   6
BRANCH   4  19
HETATM   19  N4  UNL     1      16.229   8.921  10.508  1.00  0.00    -0.354 N 
HETATM   20  C12 UNL     1      14.823   8.921  10.481  1.00  0.00     0.222 C 
HETATM   21  O2  UNL     1      14.135   8.821  11.523  1.00  0.00    -0.273 OA
ATOM     22  H4  UNL     1      16.708   9.008   9.611  1.00  0.00     0.162 HD
BRANCH  20  23
HETATM   23  C13 UNL     1      14.059   9.044   9.197  1.00  0.00     0.082 C 
HETATM   24  C14 UNL     1      14.980   9.503   8.069  1.00  0.00     0.019 C 
HETATM   25  C15 UNL     1      14.507  10.873   7.669  1.00  0.00    -0.013 C 
HETATM   26  C16 UNL     1      13.237  10.707   6.873  1.00  0.00     0.005 C 
HETATM   27  C19 UNL     1      13.917  11.365   9.001  1.00  0.00     0.010 C 
HETATM   28  C17 UNL     1      12.300  10.089   7.908  1.00  0.00     0.006 C 
HETATM   29  C18 UNL     1      13.038  10.123   9.229  1.00  0.00    -0.001 C 
ENDBRANCH  20  23
ENDBRANCH   4  19
TORSDOF 8
ENDMDL
MODEL 3
REMARK VINA RESULT: -6.759603905      2.009      2.816
REMARK  8 active torsions:
REMARK  status: ('A' for Active; 'I' for Inactive)
REMARK    1  A    between atoms: N2_7  and  C5_8 
REMARK    2  A    between atoms: C5_8  and  C6_9 
REMARK    3  A    between atoms: C6_9  and  C7_10 
REMARK    4  A    between atoms: C7_10  and  O1_11 
REMARK    5  A    between atoms: C7_10  and  C8_13 
REMARK    6  A    between atoms: C8_13  and  N3_14 
REMARK    7  A    between atoms: C11_17  and  N4_18 
REMARK       I    between atoms: N4_18  and  C12_20 
REMARK    8  A    between atoms: C12_20  and  C13_22 
ROOT
HETATM    1  N3  UNL     1      18.531   6.442  11.833  1.00  0.00     0.092 N 
HETATM    2  C9  UNL     1      18.872   7.152  13.041  1.00  0.00     0.274 C 
HETATM    3  C10 UNL     1      17.623   7.850  13.498  1.00  0.00     0.057 C 
HETATM    4  C11 UNL     1      16.696   7.768  12.333  1.00  0.00     0.114 C 
HETATM    5  C20 UNL     1      17.470   7.171  11.223  1.00  0.00     0.297 C 
ENDROOT
BRANCH   1   6
HETATM    6  C8  UNL     1      18.292   5.054  12.032  1.00  0.00     0.303 C 
BRANCH   6   7
HETATM    7  C7  UNL     1      16.901   4.661  11.568  1.00  0.00     0.148 C 
BRANCH   7   8
HETATM    8  C6  UNL     1      16.250   3.897  12.662  1.00  0.00     0.053 C 
BRANCH   8   9
HETATM    9  C5  UNL     1      16.821   4.094  14.011  1.00  0.00     0.132 C 
BRANCH   9  10
HETATM   10  N2  UNL     1      16.009   3.813  15.140  1.00  0.00    -0.346 N 
HETATM   11  C2  UNL     1      15.095   4.584  15.751  1.00  0.00     0.079 A 
HETATM   12  C1  UNL     1      14.788   5.979  15.333  1.00  0.00     0.089 C 
HETATM   13  N1  UNL     1      14.502   3.944  16.773  1.00  0.00    -0.355 N 
HETATM   14  C3  UNL     1      15.045   2.737  16.823  1.00  0.00     0.106 A 
ATOM     15  H1  UNL     1      13.777   4.314  17.388  1.00  0.00     0.166 HD
HETATM   16  C4  UNL     1      15.976   2.642  15.822  1.00  0.00     0.109 A 
ENDBRANCH   9  10
ENDBRANCH   8   9
ENDBRANCH   7   8
BRANCH   7  17
HETATM   17  O1  UNL     1      17.088   3.943  10.390  1.00  0.00    -0.394 OA
ATOM     18  H1  UNL     1      17.512   3.100  10.503  1.00  0.00     0.210 HD
ENDBRANCH   7  17
ENDBRANCH   6   7
ENDBRANCH   1   6
BRANCH   4  19
HETATM   19  N4  UNL     1      16.084   9.033  12.004  1.00  0.00    -0.354 N 
HETATM   20  C12 UNL     1      15.012   9.230  11.116  1.00  0.00     0.222 C 
HETATM   21  O2  UNL     1      14.467   8.282  10.505  1.00  0.00    -0.273 OA
ATOM     22  H4  UNL     1      16.466   9.863  12.459  1.00  0.00     0.162 HD
BRANCH  20  23
HETATM   23  C13 UNL     1      14.452  10.595  10.845  1.00  0.00     0.082 C 
HETATM   24  C14 UNL     1      13.687  10.605   9.524  1.00  0.00     0.019 C 
HETATM   25  C15 UNL     1      14.459  11.502   8.596  1.00  0.00    -0.013 C 
HETATM   26  C16 UNL     1      14.205  12.928   9.017  1.00  0.00     0.005 C 
HETATM   27  C19 UNL     1      15.881  11.316   9.147  1.00  0.00     0.010 C 
HETATM   28  C17 UNL     1      14.808  12.949  10.419  1.00  0.00     0.006 C 
HETATM   29  C18 UNL     1      15.504  11.617  10.608  1.00  0.00    -0.001 C 
ENDBRANCH  20  23
ENDBRANCH   4  19
TORSDOF 8
ENDMDL
MODEL 4
REMARK VINA RESULT: -6.713988330      1.818      2.289
REMARK  8 active torsions:
REMARK  status: ('A' for Active; 'I' for Inactive)
REMARK    1  A    between atoms: N2_7  and  C5_8 
REMARK    2  A    between atoms: C5_8  and  C6_9 
REMARK    3  A    between atoms: C6_9  and  C7_10 
REMARK    4  A    between atoms: C7_10  and  O1_11 
REMARK    5  A    between atoms: C7_10  and  C8_13 
REMARK    6  A    between atoms: C8_13  and  N3_14 
REMARK    7  A    between atoms: C11_17  and  N4_18 
REMARK       I    between atoms: N4_18  and  C12_20 
REMARK    8  A    between atoms: C12_20  and  C13_22 
ROOT
HETATM    1  N3  UNL     1      18.896   7.398  12.340  1.00  0.00     0.092 N 
HETATM    2  C9  UNL     1      19.386   8.708  12.688  1.00  0.00     0.274 C 
HETATM    3  C10 UNL     1      18.182   9.595  12.830  1.00  0.00     0.057 C 
HETATM    4  C11 UNL     1      17.064   8.814  12.227  1.00  0.00     0.114 C 
HETATM    5  C20 UNL     1      17.669   7.599  11.643  1.00  0.00     0.297 C 
ENDROOT
BRANCH   1   6
HETATM    6  C8  UNL     1      18.841   6.496  13.438  1.00  0.00     0.303 C 
BRANCH   6   7
HETATM    7  C7  UNL     1      17.669   5.539  13.309  1.00  0.00     0.148 C 
BRANCH   7   8
HETATM    8  C6  UNL     1      16.975   5.483  14.620  1.00  0.00     0.053 C 
BRANCH   8   9
HETATM    9  C5  UNL     1      15.702   4.733  14.643  1.00  0.00     0.132 C 
BRANCH   9  10
HETATM   10  N2  UNL     1      15.448   3.857  15.730  1.00  0.00    -0.346 N 
HETATM   11  C2  UNL     1      15.899   2.611  15.950  1.00  0.00     0.079 A 
HETATM   12  C1  UNL     1      16.774   1.876  14.997  1.00  0.00     0.089 C 
HETATM   13  N1  UNL     1      15.463   2.121  17.123  1.00  0.00    -0.355 N 
HETATM   14  C3  UNL     1      14.716   3.069  17.669  1.00  0.00     0.106 A 
ATOM     15  H1  UNL     1      15.667   1.202  17.515  1.00  0.00     0.166 HD
HETATM   16  C4  UNL     1      14.698   4.145  16.822  1.00  0.00     0.109 A 
ENDBRANCH   9  10
ENDBRANCH   8   9
ENDBRANCH   7   8
BRANCH   7  17
HETATM   17  O1  UNL     1      18.218   4.329  12.891  1.00  0.00    -0.394 OA
ATOM     18  H1  UNL     1      18.582   4.341  12.013  1.00  0.00     0.210 HD
ENDBRANCH   7  17
ENDBRANCH   6   7
ENDBRANCH   1   6
BRANCH   4  19
HETATM   19  N4  UNL     1      16.276   9.582  11.292  1.00  0.00    -0.354 N 
HETATM   20  C12 UNL     1      14.876   9.541  11.159  1.00  0.00     0.222 C 
HETATM   21  O2  UNL     1      14.157   8.804  11.872  1.00  0.00    -0.273 OA
ATOM     22  H4  UNL     1      16.781  10.212  10.669  1.00  0.00     0.162 HD
BRANCH  20  23
HETATM   23  C13 UNL     1      14.156  10.383  10.149  1.00  0.00     0.082 C 
HETATM   24  C14 UNL     1      12.934   9.642   9.610  1.00  0.00     0.019 C 
HETATM   25  C15 UNL     1      13.210   9.373   8.156  1.00  0.00    -0.013 C 
HETATM   26  C16 UNL     1      13.038  10.671   7.408  1.00  0.00     0.005 C 
HETATM   27  C19 UNL     1      14.745   9.286   8.176  1.00  0.00     0.010 C 
HETATM   28  C17 UNL     1      14.140  11.532   8.021  1.00  0.00     0.006 C 
HETATM   29  C18 UNL     1      14.950  10.619   8.915  1.00  0.00    -0.001 C 
ENDBRANCH  20  23
ENDBRANCH   4  19
TORSDOF 8
ENDMDL
MODEL 5
REMARK VINA RESULT: -6.688702349      1.772      2.410
REMARK  8 active torsions:
REMARK  status: ('A' for Active; 'I' for Inactive)
REMARK    1  A    between atoms: N2_7  and  C5_8 
REMARK    2  A    between atoms: C5_8  and  C6_9 
REMARK    3  A    between atoms: C6_9  and  C7_10 
REMARK    4  A    between atoms: C7_10  and  O1_11 
REMARK    5  A    between atoms: C7_10  and  C8_13 
REMARK    6  A    between atoms: C8_13  and  N3_14 
REMARK    7  A    between atoms: C11_17  and  N4_18 
REMARK       I    between atoms: N4_18  and  C12_20 
REMARK    8  A    between atoms: C12_20  and  C13_22 
ROOT
HETATM    1  N3  UNL     1      18.122   6.742  11.334  1.00  0.00     0.092 N 
HETATM    2  C9  UNL     1      18.436   7.713  12.352  1.00  0.00     0.274 C 
HETATM    3  C10 UNL     1      17.138   8.351  12.755  1.00  0.00     0.057 C 
HETATM    4  C11 UNL     1      16.169   7.937  11.699  1.00  0.00     0.114 C 
HETATM    5  C20 UNL     1      16.951   7.215  10.673  1.00  0.00     0.297 C 
ENDROOT
BRANCH   1   6
HETATM    6  C8  UNL     1      18.060   5.405  11.816  1.00  0.00     0.303 C 
BRANCH   6   7
HETATM    7  C7  UNL     1      16.779   4.718  11.377  1.00  0.00     0.148 C 
BRANCH   7   8
HETATM    8  C6  UNL     1      16.281   3.904  12.514  1.00  0.00     0.053 C 
BRANCH   8   9
HETATM    9  C5  UNL     1      16.813   4.265  13.845  1.00  0.00     0.132 C 
BRANCH   9  10
HETATM   10  N2  UNL     1      15.966   4.129  14.975  1.00  0.00    -0.346 N 
HETATM   11  C2  UNL     1      15.093   5.003  15.503  1.00  0.00     0.079 A 
HETATM   12  C1  UNL     1      14.885   6.376  14.969  1.00  0.00     0.089 C 
HETATM   13  N1  UNL     1      14.444   4.486  16.560  1.00  0.00    -0.355 N 
HETATM   14  C3  UNL     1      14.908   3.255  16.717  1.00  0.00     0.106 A 
ATOM     15  H1  UNL     1      13.735   4.949  17.128  1.00  0.00     0.166 HD
HETATM   16  C4  UNL     1      15.846   3.021  15.747  1.00  0.00     0.109 A 
ENDBRANCH   9  10
ENDBRANCH   8   9
ENDBRANCH   7   8
BRANCH   7  17
HETATM   17  O1  UNL     1      17.118   3.985  10.243  1.00  0.00    -0.394 OA
ATOM     18  H1  UNL     1      16.431   3.924   9.589  1.00  0.00     0.210 HD
ENDBRANCH   7  17
ENDBRANCH   6   7
ENDBRANCH   1   6
BRANCH   4  19
HETATM   19  N4  UNL     1      15.395   9.038  11.176  1.00  0.00    -0.354 N 
HETATM   20  C12 UNL     1      14.445   8.966  10.142  1.00  0.00     0.222 C 
HETATM   21  O2  UNL     1      14.173   7.892   9.557  1.00  0.00    -0.273 OA
ATOM     22  H4  UNL     1      15.553   9.954  11.596  1.00  0.00     0.162 HD
BRANCH  20  23
HETATM   23  C13 UNL     1      13.696  10.178   9.673  1.00  0.00     0.082 C 
HETATM   24  C14 UNL     1      12.608   9.780   8.678  1.00  0.00     0.019 C 
HETATM   25  C15 UNL     1      13.007  10.377   7.356  1.00  0.00    -0.013 C 
HETATM   26  C16 UNL     1      12.730  11.858   7.417  1.00  0.00     0.005 C 
HETATM   27  C19 UNL     1      14.536  10.391   7.507  1.00  0.00     0.010 C 
HETATM   28  C17 UNL     1      13.680  12.306   8.525  1.00  0.00     0.006 C 
HETATM   29  C18 UNL     1      14.535  11.104   8.870  1.00  0.00    -0.001 C 
ENDBRANCH  20  23
ENDBRANCH   4  19
TORSDOF 8
ENDMDL
