MODEL 1
REMARK VINA RESULT: -7.981589390      0.000      0.000
REMARK  5 active torsions:
REMARK  status: ('A' for Active; 'I' for Inactive)
REMARK    1  A    between atoms: C3_5  and  C4_6 
REMARK    2  A    between atoms: C4_6  and  N3_10 
REMARK    3  A    between atoms: N3_10  and  C5_12 
REMARK    4  A    between atoms: C11_20  and  C12_21 
REMARK    5  A    between atoms: C12_21  and  C13_22 
ROOT
HETATM    1  C1  UNL     1     -43.966   5.543  29.976  1.00  0.00     0.070 C 
HETATM    2  C2  UNL     1     -44.698   4.948  31.132  1.00  0.00     0.029 A 
HETATM    3  N1  UNL     1     -44.240   4.844  32.406  1.00  0.00    -0.341 N 
ATOM      4  H1  UNL     1     -43.319   5.151  32.716  1.00  0.00     0.167 HD
HETATM    5  C3  UNL     1     -45.157   4.289  33.193  1.00  0.00     0.150 A 
HETATM    6  N4  UNL     1     -46.220   4.033  32.410  1.00  0.00    -0.341 N 
ATOM      7  H4  UNL     1     -47.090   3.606  32.727  1.00  0.00     0.167 HD
HETATM    8  C11 UNL     1     -45.964   4.432  31.122  1.00  0.00     0.033 A 
ENDROOT
BRANCH   5   9
HETATM    9  C4  UNL     1     -45.012   4.020  34.608  1.00  0.00     0.140 C 
HETATM   10  N2  UNL     1     -45.507   4.819  35.487  1.00  0.00    -0.383 N 
ATOM     11  H22 UNL     1     -46.009   5.649  35.170  1.00  0.00     0.157 HD
ATOM     12  H21 UNL     1     -45.404   4.630  36.484  1.00  0.00     0.157 HD
BRANCH   9  13
HETATM   13  N3  UNL     1     -44.316   2.869  35.047  1.00  0.00    -0.369 N 
ATOM     14  H3  UNL     1     -43.460   2.989  35.590  1.00  0.00     0.161 HD
BRANCH  13  15
HETATM   15  C5  UNL     1     -44.775   1.526  34.754  1.00  0.00     0.083 C 
HETATM   16  C6  UNL     1     -43.748   0.556  35.225  1.00  0.00     0.025 C 
HETATM   17  C7  UNL     1     -44.407  -0.646  35.810  1.00  0.00     0.002 C 
HETATM   18  C8  UNL     1     -45.230  -0.265  37.018  1.00  0.00     0.000 C 
HETATM   19  C9  UNL     1     -46.189   0.859  36.717  1.00  0.00     0.002 C 
HETATM   20  C10 UNL     1     -46.167   1.263  35.267  1.00  0.00     0.025 C 
ENDBRANCH  13  15
ENDBRANCH   9  13
ENDBRANCH   5   9
BRANCH   8  21
HETATM   21  C12 UNL     1     -46.919   4.257  30.014  1.00  0.00     0.064 C 
BRANCH  21  22
HETATM   22  C13 UNL     1     -47.010   2.908  29.410  1.00  0.00    -0.000 A 
HETATM   23  C14 UNL     1     -45.949   1.925  29.238  1.00  0.00     0.015 A 
HETATM   24  C15 UNL     1     -46.511   2.692  28.034  1.00  0.00    -0.043 A 
HETATM   25  C16 UNL     1     -45.504   3.619  27.394  1.00  0.00     0.015 C 
HETATM   26  C17 UNL     1     -47.399   1.988  27.060  1.00  0.00     0.015 C 
ENDBRANCH  21  22
ENDBRANCH   8  21
TORSDOF 5
ENDMDL
MODEL 2
REMARK VINA RESULT: -7.786207455      1.297      2.099
REMARK  5 active torsions:
REMARK  status: ('A' for Active; 'I' for Inactive)
REMARK    1  A    between atoms: C3_5  and  C4_6 
REMARK    2  A    between atoms: C4_6  and  N3_10 
REMARK    3  A    between atoms: N3_10  and  C5_12 
REMARK    4  A    between atoms: C11_20  and  C12_21 
REMARK    5  A    between atoms: C12_21  and  C13_22 
ROOT
HETATM    1  C1  UNL     1     -44.493   7.977  31.774  1.00  0.00     0.070 C 
HETATM    2  C2  UNL     1     -44.613   6.604  32.345  1.00  0.00     0.029 A 
HETATM    3  N1  UNL     1     -45.105   6.282  33.568  1.00  0.00    -0.341 N 
ATOM      4  H1  UNL     1     -45.437   6.959  34.255  1.00  0.00     0.167 HD
HETATM    5  C3  UNL     1     -45.096   4.965  33.750  1.00  0.00     0.150 A 
HETATM    6  N4  UNL     1     -44.591   4.434  32.623  1.00  0.00    -0.341 N 
ATOM      7  H4  UNL     1     -44.458   3.437  32.455  1.00  0.00     0.167 HD
HETATM    8  C11 UNL     1     -44.280   5.429  31.730  1.00  0.00     0.033 A 
ENDROOT
BRANCH   5   9
HETATM    9  C4  UNL     1     -45.544   4.267  34.937  1.00  0.00     0.140 C 
HETATM   10  N2  UNL     1     -46.608   4.638  35.560  1.00  0.00    -0.383 N 
ATOM     11  H22 UNL     1     -47.135   5.434  35.201  1.00  0.00     0.157 HD
ATOM     12  H21 UNL     1     -46.923   4.147  36.396  1.00  0.00     0.157 HD
BRANCH   9  13
HETATM   13  N3  UNL     1     -44.812   3.163  35.434  1.00  0.00    -0.369 N 
ATOM     14  H3  UNL     1     -44.170   3.309  36.213  1.00  0.00     0.161 HD
BRANCH  13  15
HETATM   15  C5  UNL     1     -44.941   1.832  34.874  1.00  0.00     0.083 C 
HETATM   16  C6  UNL     1     -43.655   1.107  35.065  1.00  0.00     0.025 C 
HETATM   17  C7  UNL     1     -43.916  -0.321  35.403  1.00  0.00     0.002 C 
HETATM   18  C8  UNL     1     -44.671  -0.429  36.707  1.00  0.00     0.000 C 
HETATM   19  C9  UNL     1     -45.913   0.426  36.713  1.00  0.00     0.002 C 
HETATM   20  C10 UNL     1     -46.154   1.102  35.389  1.00  0.00     0.025 C 
ENDBRANCH  13  15
ENDBRANCH   9  13
ENDBRANCH   5   9
BRANCH   8  21
HETATM   21  C12 UNL     1     -43.674   5.175  30.412  1.00  0.00     0.064 C 
BRANCH  21  22
HETATM   22  C13 UNL     1     -44.422   5.648  29.224  1.00  0.00    -0.000 A 
HETATM   23  C14 UNL     1     -45.860   5.832  29.080  1.00  0.00     0.015 A 
HETATM   24  C15 UNL     1     -45.142   4.671  28.380  1.00  0.00    -0.043 A 
HETATM   25  C16 UNL     1     -45.553   3.313  28.901  1.00  0.00     0.015 C 
HETATM   26  C17 UNL     1     -44.930   4.719  26.901  1.00  0.00     0.015 C 
ENDBRANCH  21  22
ENDBRANCH   8  21
TORSDOF 5
ENDMDL
MODEL 3
REMARK VINA RESULT: -7.648381443      2.018      3.501
REMARK  5 active torsions:
REMARK  status: ('A' for Active; 'I' for Inactive)
REMARK    1  A    between atoms: C3_5  and  C4_6 
REMARK    2  A    between atoms: C4_6  and  N3_10 
REMARK    3  A    between atoms: N3_10  and  C5_12 
REMARK    4  A    between atoms: C11_20  and  C12_21 
REMARK    5  A    between atoms: C12_21  and  C13_22 
ROOT
HETATM    1  C1  UNL     1     -44.655   5.845  34.253  1.00  0.00     0.070 C 
HETATM    2  C2  UNL     1     -44.982   4.394  34.135  1.00  0.00     0.029 A 
HETATM    3  N1  UNL     1     -44.776   3.443  35.081  1.00  0.00    -0.341 N 
ATOM      4  H1  UNL     1     -44.348   3.616  35.991  1.00  0.00     0.167 HD
HETATM    5  C3  UNL     1     -45.207   2.257  34.662  1.00  0.00     0.150 A 
HETATM    6  N4  UNL     1     -45.699   2.452  33.426  1.00  0.00    -0.341 N 
ATOM      7  H4  UNL     1     -46.107   1.725  32.838  1.00  0.00     0.167 HD
HETATM    8  C11 UNL     1     -45.572   3.771  33.070  1.00  0.00     0.033 A 
ENDROOT
BRANCH   5   9
HETATM    9  C4  UNL     1     -45.144   1.018  35.407  1.00  0.00     0.140 C 
HETATM   10  N2  UNL     1     -44.052   0.338  35.468  1.00  0.00    -0.383 N 
ATOM     11  H22 UNL     1     -43.227   0.689  34.983  1.00  0.00     0.157 HD
ATOM     12  H21 UNL     1     -44.008  -0.536  35.993  1.00  0.00     0.157 HD
BRANCH   9  13
HETATM   13  N3  UNL     1     -46.290   0.531  36.080  1.00  0.00    -0.369 N 
ATOM     14  H3  UNL     1     -47.142   1.092  36.070  1.00  0.00     0.161 HD
BRANCH  13  15
HETATM   15  C5  UNL     1     -46.295  -0.736  36.784  1.00  0.00     0.083 C 
HETATM   16  C6  UNL     1     -46.544  -0.479  38.229  1.00  0.00     0.025 C 
HETATM   17  C7  UNL     1     -47.428  -1.538  38.795  1.00  0.00     0.002 C 
HETATM   18  C8  UNL     1     -48.776  -1.524  38.114  1.00  0.00     0.000 C 
HETATM   19  C9  UNL     1     -48.651  -1.585  36.612  1.00  0.00     0.002 C 
HETATM   20  C10 UNL     1     -47.225  -1.743  36.158  1.00  0.00     0.025 C 
ENDBRANCH  13  15
ENDBRANCH   9  13
ENDBRANCH   5   9
BRANCH   8  21
HETATM   21  C12 UNL     1     -45.987   4.300  31.759  1.00  0.00     0.064 C 
BRANCH  21  22
HETATM   22  C13 UNL     1     -44.956   4.359  30.699  1.00  0.00    -0.000 A 
HETATM   23  C14 UNL     1     -43.785   5.223  30.629  1.00  0.00     0.015 A 
HETATM   24  C15 UNL     1     -44.990   5.457  29.709  1.00  0.00    -0.043 A 
HETATM   25  C16 UNL     1     -45.706   6.760  29.984  1.00  0.00     0.015 C 
HETATM   26  C17 UNL     1     -44.891   5.110  28.259  1.00  0.00     0.015 C 
ENDBRANCH  21  22
ENDBRANCH   8  21
TORSDOF 5
ENDMDL
MODEL 4
REMARK VINA RESULT: -7.598503948      1.670      7.121
REMARK  5 active torsions:
REMARK  status: ('A' for Active; 'I' for Inactive)
REMARK    1  A    between atoms: C3_5  and  C4_6 
REMARK    2  A    between atoms: C4_6  and  N3_10 
REMARK    3  A    between atoms: N3_10  and  C5_12 
REMARK    4  A    between atoms: C11_20  and  C12_21 
REMARK    5  A    between atoms: C12_21  and  C13_22 
ROOT
HETATM    1  C1  UNL     1     -43.696   0.200  35.101  1.00  0.00     0.070 C 
HETATM    2  C2  UNL     1     -44.460   1.481  35.082  1.00  0.00     0.029 A 
HETATM    3  N1  UNL     1     -43.988   2.693  34.692  1.00  0.00    -0.341 N 
ATOM      4  H1  UNL     1     -43.034   2.869  34.379  1.00  0.00     0.167 HD
HETATM    5  C3  UNL     1     -44.940   3.619  34.773  1.00  0.00     0.150 A 
HETATM    6  N4  UNL     1     -46.040   2.989  35.221  1.00  0.00    -0.341 N 
ATOM      7  H4  UNL     1     -46.942   3.435  35.387  1.00  0.00     0.167 HD
HETATM    8  C11 UNL     1     -45.772   1.658  35.424  1.00  0.00     0.033 A 
ENDROOT
BRANCH   5   9
HETATM    9  C4  UNL     1     -44.793   5.020  34.441  1.00  0.00     0.140 C 
HETATM   10  N2  UNL     1     -44.350   5.862  35.309  1.00  0.00    -0.383 N 
ATOM     11  H22 UNL     1     -44.101   5.524  36.238  1.00  0.00     0.157 HD
ATOM     12  H21 UNL     1     -44.246   6.849  35.075  1.00  0.00     0.157 HD
BRANCH   9  13
HETATM   13  N3  UNL     1     -45.139   5.488  33.151  1.00  0.00    -0.369 N 
ATOM     14  H3  UNL     1     -45.460   6.450  33.047  1.00  0.00     0.161 HD
BRANCH  13  15
HETATM   15  C5  UNL     1     -45.053   4.648  31.973  1.00  0.00     0.083 C 
HETATM   16  C6  UNL     1     -46.393   4.594  31.327  1.00  0.00     0.025 C 
HETATM   17  C7  UNL     1     -46.249   4.611  29.843  1.00  0.00     0.002 C 
HETATM   18  C8  UNL     1     -45.599   5.897  29.388  1.00  0.00     0.000 C 
HETATM   19  C9  UNL     1     -44.310   6.168  30.120  1.00  0.00     0.002 C 
HETATM   20  C10 UNL     1     -43.930   5.050  31.054  1.00  0.00     0.025 C 
ENDBRANCH  13  15
ENDBRANCH   9  13
ENDBRANCH   5   9
BRANCH   8  21
HETATM   21  C12 UNL     1     -46.764   0.702  35.946  1.00  0.00     0.064 C 
BRANCH  21  22
HETATM   22  C13 UNL     1     -46.585   0.241  37.342  1.00  0.00    -0.000 A 
HETATM   23  C14 UNL     1     -45.732  -0.834  37.832  1.00  0.00     0.015 A 
HETATM   24  C15 UNL     1     -47.257  -0.998  37.792  1.00  0.00    -0.043 A 
HETATM   25  C16 UNL     1     -47.717  -2.057  36.816  1.00  0.00     0.015 C 
HETATM   26  C17 UNL     1     -48.038  -0.959  39.065  1.00  0.00     0.015 C 
ENDBRANCH  21  22
ENDBRANCH   8  21
TORSDOF 5
ENDMDL
MODEL 5
REMARK VINA RESULT: -7.500719347      1.675      6.985
REMARK  5 active torsions:
REMARK  status: ('A' for Active; 'I' for Inactive)
REMARK    1  A    between atoms: C3_5  and  C4_6 
REMARK    2  A    between atoms: C4_6  and  N3_10 
REMARK    3  A    between atoms: N3_10  and  C5_12 
REMARK    4  A    between atoms: C11_20  and  C12_21 
REMARK    5  A    between atoms: C12_21  and  C13_22 
ROOT
HETATM    1  C1  UNL     1     -44.344  -0.223  35.822  1.00  0.00     0.070 C 
HETATM    2  C2  UNL     1     -44.864   1.136  35.494  1.00  0.00     0.029 A 
HETATM    3  N1  UNL     1     -44.263   2.056  34.696  1.00  0.00    -0.341 N 
ATOM      4  H1  UNL     1     -43.362   1.924  34.237  1.00  0.00     0.167 HD
HETATM    5  C3  UNL     1     -45.010   3.152  34.593  1.00  0.00     0.150 A 
HETATM    6  N4  UNL     1     -46.108   2.930  35.337  1.00  0.00    -0.341 N 
ATOM      7  H4  UNL     1     -46.875   3.590  35.458  1.00  0.00     0.167 HD
HETATM    8  C11 UNL     1     -46.045   1.684  35.911  1.00  0.00     0.033 A 
ENDROOT
BRANCH   5   9
HETATM    9  C4  UNL     1     -44.680   4.336  33.829  1.00  0.00     0.140 C 
HETATM   10  N2  UNL     1     -44.674   5.499  34.381  1.00  0.00    -0.383 N 
ATOM     11  H22 UNL     1     -44.902   5.574  35.372  1.00  0.00     0.157 HD
ATOM     12  H21 UNL     1     -44.442   6.333  33.842  1.00  0.00     0.157 HD
BRANCH   9  13
HETATM   13  N3  UNL     1     -44.363   4.231  32.454  1.00  0.00    -0.369 N 
ATOM     14  H3  UNL     1     -43.697   3.518  32.155  1.00  0.00     0.161 HD
BRANCH  13  15
HETATM   15  C5  UNL     1     -44.949   5.102  31.454  1.00  0.00     0.083 C 
HETATM   16  C6  UNL     1     -43.949   5.334  30.377  1.00  0.00     0.025 C 
HETATM   17  C7  UNL     1     -44.622   5.359  29.047  1.00  0.00     0.002 C 
HETATM   18  C8  UNL     1     -45.270   4.026  28.755  1.00  0.00     0.000 C 
HETATM   19  C9  UNL     1     -46.173   3.580  29.877  1.00  0.00     0.002 C 
HETATM   20  C10 UNL     1     -46.288   4.609  30.969  1.00  0.00     0.025 C 
ENDBRANCH  13  15
ENDBRANCH   9  13
ENDBRANCH   5   9
BRANCH   8  21
HETATM   21  C12 UNL     1     -47.082   1.155  36.813  1.00  0.00     0.064 C 
BRANCH  21  22
HETATM   22  C13 UNL     1     -47.963   0.092  36.278  1.00  0.00    -0.000 A 
HETATM   23  C14 UNL     1     -49.239  -0.370  36.807  1.00  0.00     0.015 A 
HETATM   24  C15 UNL     1     -47.979  -1.237  36.927  1.00  0.00    -0.043 A 
HETATM   25  C16 UNL     1     -47.525  -1.435  38.354  1.00  0.00     0.015 C 
HETATM   26  C17 UNL     1     -47.832  -2.449  36.065  1.00  0.00     0.015 C 
ENDBRANCH  21  22
ENDBRANCH   8  21
TORSDOF 5
ENDMDL
