MODEL 1
REMARK VINA RESULT: -7.418259251      0.000      0.000
REMARK  7 active torsions:
REMARK  status: ('A' for Active; 'I' for Inactive)
REMARK    1  A    between atoms: C2_2  and  N1_4 
REMARK    2  A    between atoms: N1_4  and  C4_6 
REMARK    3  A    between atoms: C6_10  and  C7_11 
REMARK    4  A    between atoms: C7_11  and  O1_12 
REMARK    5  A    between atoms: O1_12  and  C8_13 
REMARK    6  A    between atoms: C8_13  and  C9_14 
REMARK    7  A    between atoms: C15_20  and  N3_21 
ROOT
HETATM    1  C4  UNL     1     -45.033   8.151  31.106  1.00  0.00     0.679 A 
HETATM    2  N2  UNL     1     -46.342   7.945  31.258  1.00  0.00    -0.201 N 
ATOM      3  H2  UNL     1     -47.021   8.698  31.357  1.00  0.00     0.183 HD
HETATM    4  C5  UNL     1     -46.687   6.586  31.269  1.00  0.00     0.119 A 
HETATM    5  C6  UNL     1     -45.764   5.605  31.136  1.00  0.00     0.025 A 
HETATM    6  C15 UNL     1     -44.423   5.911  30.978  1.00  0.00     0.124 A 
HETATM    7  N4  UNL     1     -44.102   7.198  30.960  1.00  0.00    -0.177 N 
ATOM      8  H4  UNL     1     -43.127   7.468  30.833  1.00  0.00     0.186 HD
ENDROOT
BRANCH   5   9
HETATM    9  C7  UNL     1     -46.077   4.128  31.310  1.00  0.00     0.211 C 
BRANCH   9  10
HETATM   10  O1  UNL     1     -46.837   3.679  30.213  1.00  0.00    -0.386 OA
BRANCH  10  11
HETATM   11  C8  UNL     1     -46.103   2.836  29.409  1.00  0.00     0.172 C 
BRANCH  11  12
HETATM   12  C9  UNL     1     -46.022   3.328  28.018  1.00  0.00     0.009 C 
HETATM   13  C10 UNL     1     -44.791   4.161  27.708  1.00  0.00     0.007 C 
HETATM   14  C11 UNL     1     -45.078   4.984  26.483  1.00  0.00     0.000 C 
HETATM   15  C12 UNL     1     -45.402   4.039  25.331  1.00  0.00     0.000 C 
HETATM   16  C13 UNL     1     -46.599   3.173  25.716  1.00  0.00     0.000 C 
HETATM   17  C14 UNL     1     -46.209   2.312  26.935  1.00  0.00     0.007 C 
ENDBRANCH  11  12
ENDBRANCH  10  11
ENDBRANCH   9  10
ENDBRANCH   5   9
BRANCH   6  18
HETATM   18  N3  UNL     1     -43.531   4.956  30.938  1.00  0.00    -0.385 N 
ATOM     19  H32 UNL     1     -43.133   4.607  30.067  1.00  0.00     0.157 HD
ATOM     20  H31 UNL     1     -43.151   4.572  31.803  1.00  0.00     0.157 HD
ENDBRANCH   6  18
BRANCH   1  21
HETATM   21  N1  UNL     1     -44.539   9.308  31.219  1.00  0.00    -0.222 N 
ATOM     22  H1  UNL     1     -44.968  10.021  30.629  1.00  0.00     0.178 HD
BRANCH  21  23
HETATM   23  C2  UNL     1     -43.498   9.762  32.026  1.00  0.00     0.091 C 
HETATM   24  C1  UNL     1     -44.066  10.280  33.319  1.00  0.00     0.032 C 
HETATM   25  C3  UNL     1     -42.862  10.957  31.259  1.00  0.00     0.032 C 
ENDBRANCH  21  23
ENDBRANCH   1  21
TORSDOF 7
ENDMDL
MODEL 2
REMARK VINA RESULT: -7.394361271      0.750      1.520
REMARK  7 active torsions:
REMARK  status: ('A' for Active; 'I' for Inactive)
REMARK    1  A    between atoms: C2_2  and  N1_4 
REMARK    2  A    between atoms: N1_4  and  C4_6 
REMARK    3  A    between atoms: C6_10  and  C7_11 
REMARK    4  A    between atoms: C7_11  and  O1_12 
REMARK    5  A    between atoms: O1_12  and  C8_13 
REMARK    6  A    between atoms: C8_13  and  C9_14 
REMARK    7  A    between atoms: C15_20  and  N3_21 
ROOT
HETATM    1  C4  UNL     1     -44.888   7.798  31.615  1.00  0.00     0.679 A 
HETATM    2  N2  UNL     1     -43.960   6.949  31.170  1.00  0.00    -0.201 N 
ATOM      3  H2  UNL     1     -43.033   7.241  30.863  1.00  0.00     0.183 HD
HETATM    4  C5  UNL     1     -44.390   5.615  31.168  1.00  0.00     0.119 A 
HETATM    5  C6  UNL     1     -45.627   5.254  31.582  1.00  0.00     0.025 A 
HETATM    6  C15 UNL     1     -46.528   6.203  32.033  1.00  0.00     0.124 A 
HETATM    7  N4  UNL     1     -46.114   7.464  32.040  1.00  0.00    -0.177 N 
ATOM      8  H4  UNL     1     -46.742   8.194  32.377  1.00  0.00     0.186 HD
ENDROOT
BRANCH   5   9
HETATM    9  C7  UNL     1     -46.183   3.847  31.439  1.00  0.00     0.211 C 
BRANCH   9  10
HETATM   10  O1  UNL     1     -46.871   3.739  30.215  1.00  0.00    -0.386 OA
BRANCH  10  11
HETATM   11  C8  UNL     1     -46.261   2.830  29.378  1.00  0.00     0.172 C 
BRANCH  11  12
HETATM   12  C9  UNL     1     -46.084   3.367  28.012  1.00  0.00     0.009 C 
HETATM   13  C10 UNL     1     -44.833   4.204  27.815  1.00  0.00     0.007 C 
HETATM   14  C11 UNL     1     -45.033   5.067  26.600  1.00  0.00     0.000 C 
HETATM   15  C12 UNL     1     -45.280   4.162  25.398  1.00  0.00     0.000 C 
HETATM   16  C13 UNL     1     -46.503   3.290  25.672  1.00  0.00     0.000 C 
HETATM   17  C14 UNL     1     -46.200   2.388  26.887  1.00  0.00     0.007 C 
ENDBRANCH  11  12
ENDBRANCH  10  11
ENDBRANCH   9  10
ENDBRANCH   5   9
BRANCH   6  18
HETATM   18  N3  UNL     1     -47.748   5.855  32.348  1.00  0.00    -0.385 N 
ATOM     19  H32 UNL     1     -48.020   4.888  32.521  1.00  0.00     0.157 HD
ATOM     20  H31 UNL     1     -48.463   6.567  32.497  1.00  0.00     0.157 HD
ENDBRANCH   6  18
BRANCH   1  21
HETATM   21  N1  UNL     1     -44.716   9.047  31.544  1.00  0.00    -0.222 N 
ATOM     22  H1  UNL     1     -45.481   9.565  31.112  1.00  0.00     0.178 HD
BRANCH  21  23
HETATM   23  C2  UNL     1     -43.642   9.828  31.965  1.00  0.00     0.091 C 
HETATM   24  C1  UNL     1     -43.981  10.463  33.286  1.00  0.00     0.032 C 
HETATM   25  C3  UNL     1     -43.501  10.957  30.904  1.00  0.00     0.032 C 
ENDBRANCH  21  23
ENDBRANCH   1  21
TORSDOF 7
ENDMDL
MODEL 3
REMARK VINA RESULT: -7.123004215      0.853      1.420
REMARK  7 active torsions:
REMARK  status: ('A' for Active; 'I' for Inactive)
REMARK    1  A    between atoms: C2_2  and  N1_4 
REMARK    2  A    between atoms: N1_4  and  C4_6 
REMARK    3  A    between atoms: C6_10  and  C7_11 
REMARK    4  A    between atoms: C7_11  and  O1_12 
REMARK    5  A    between atoms: O1_12  and  C8_13 
REMARK    6  A    between atoms: C8_13  and  C9_14 
REMARK    7  A    between atoms: C15_20  and  N3_21 
ROOT
HETATM    1  C4  UNL     1     -45.030   8.221  32.142  1.00  0.00     0.679 A 
HETATM    2  N2  UNL     1     -46.192   7.856  32.685  1.00  0.00    -0.201 N 
ATOM      3  H2  UNL     1     -46.809   8.500  33.179  1.00  0.00     0.183 HD
HETATM    4  C5  UNL     1     -46.480   6.495  32.507  1.00  0.00     0.119 A 
HETATM    5  C6  UNL     1     -45.643   5.661  31.846  1.00  0.00     0.025 A 
HETATM    6  C15 UNL     1     -44.455   6.127  31.310  1.00  0.00     0.124 A 
HETATM    7  N4  UNL     1     -44.191   7.417  31.474  1.00  0.00    -0.177 N 
ATOM      8  H4  UNL     1     -43.332   7.805  31.084  1.00  0.00     0.186 HD
ENDROOT
BRANCH   5   9
HETATM    9  C7  UNL     1     -45.839   4.155  31.779  1.00  0.00     0.211 C 
BRANCH   9  10
HETATM   10  O1  UNL     1     -46.563   3.830  30.616  1.00  0.00    -0.386 OA
BRANCH  10  11
HETATM   11  C8  UNL     1     -46.046   2.710  30.002  1.00  0.00     0.172 C 
BRANCH  11  12
HETATM   12  C9  UNL     1     -45.941   2.879  28.538  1.00  0.00     0.009 C 
HETATM   13  C10 UNL     1     -47.112   2.326  27.748  1.00  0.00     0.007 C 
HETATM   14  C11 UNL     1     -46.661   2.108  26.330  1.00  0.00     0.000 C 
HETATM   15  C12 UNL     1     -46.199   3.445  25.759  1.00  0.00     0.000 C 
HETATM   16  C13 UNL     1     -45.071   3.996  26.626  1.00  0.00     0.000 C 
HETATM   17  C14 UNL     1     -45.624   4.256  28.043  1.00  0.00     0.007 C 
ENDBRANCH  11  12
ENDBRANCH  10  11
ENDBRANCH   9  10
ENDBRANCH   5   9
BRANCH   6  18
HETATM   18  N3  UNL     1     -43.615   5.296  30.751  1.00  0.00    -0.385 N 
ATOM     19  H32 UNL     1     -43.897   4.615  30.047  1.00  0.00     0.157 HD
ATOM     20  H31 UNL     1     -42.618   5.355  30.960  1.00  0.00     0.157 HD
ENDBRANCH   6  18
BRANCH   1  21
HETATM   21  N1  UNL     1     -44.554   9.375  32.337  1.00  0.00    -0.222 N 
ATOM     22  H1  UNL     1     -45.238  10.084  32.604  1.00  0.00     0.178 HD
BRANCH  21  23
HETATM   23  C2  UNL     1     -43.241   9.830  32.244  1.00  0.00     0.091 C 
HETATM   24  C1  UNL     1     -42.838  10.446  33.556  1.00  0.00     0.032 C 
HETATM   25  C3  UNL     1     -43.260  10.950  31.164  1.00  0.00     0.032 C 
ENDBRANCH  21  23
ENDBRANCH   1  21
TORSDOF 7
ENDMDL
MODEL 4
REMARK VINA RESULT: -7.093442096      3.735      6.866
REMARK  7 active torsions:
REMARK  status: ('A' for Active; 'I' for Inactive)
REMARK    1  A    between atoms: C2_2  and  N1_4 
REMARK    2  A    between atoms: N1_4  and  C4_6 
REMARK    3  A    between atoms: C6_10  and  C7_11 
REMARK    4  A    between atoms: C7_11  and  O1_12 
REMARK    5  A    between atoms: O1_12  and  C8_13 
REMARK    6  A    between atoms: C8_13  and  C9_14 
REMARK    7  A    between atoms: C15_20  and  N3_21 
ROOT
HETATM    1  C4  UNL     1     -45.168   5.386  29.514  1.00  0.00     0.679 A 
HETATM    2  N2  UNL     1     -43.973   5.079  30.020  1.00  0.00    -0.201 N 
ATOM      3  H2  UNL     1     -43.147   4.911  29.448  1.00  0.00     0.183 HD
HETATM    4  C5  UNL     1     -43.970   5.010  31.421  1.00  0.00     0.119 A 
HETATM    5  C6  UNL     1     -45.082   5.238  32.157  1.00  0.00     0.025 A 
HETATM    6  C15 UNL     1     -46.283   5.556  31.547  1.00  0.00     0.124 A 
HETATM    7  N4  UNL     1     -46.279   5.628  30.222  1.00  0.00    -0.177 N 
ATOM      8  H4  UNL     1     -47.141   5.871  29.732  1.00  0.00     0.186 HD
ENDROOT
BRANCH   5   9
HETATM    9  C7  UNL     1     -45.157   5.011  33.658  1.00  0.00     0.211 C 
BRANCH   9  10
HETATM   10  O1  UNL     1     -45.376   3.643  33.913  1.00  0.00    -0.386 OA
BRANCH  10  11
HETATM   11  C8  UNL     1     -44.292   3.073  34.545  1.00  0.00     0.172 C 
BRANCH  11  12
HETATM   12  C9  UNL     1     -44.658   1.834  35.262  1.00  0.00     0.009 C 
HETATM   13  C10 UNL     1     -46.124   1.453  35.168  1.00  0.00     0.007 C 
HETATM   14  C11 UNL     1     -46.441   0.520  36.303  1.00  0.00     0.000 C 
HETATM   15  C12 UNL     1     -45.548  -0.710  36.182  1.00  0.00     0.000 C 
HETATM   16  C13 UNL     1     -44.086  -0.271  36.210  1.00  0.00     0.000 C 
HETATM   17  C14 UNL     1     -43.820   0.626  34.982  1.00  0.00     0.007 C 
ENDBRANCH  11  12
ENDBRANCH  10  11
ENDBRANCH   9  10
ENDBRANCH   5   9
BRANCH   6  18
HETATM   18  N3  UNL     1     -47.370   5.689  32.262  1.00  0.00    -0.385 N 
ATOM     19  H32 UNL     1     -47.737   4.944  32.854  1.00  0.00     0.157 HD
ATOM     20  H31 UNL     1     -47.855   6.585  32.298  1.00  0.00     0.157 HD
ENDBRANCH   6  18
BRANCH   1  21
HETATM   21  N1  UNL     1     -45.377   5.346  28.268  1.00  0.00    -0.222 N 
ATOM     22  H1  UNL     1     -46.012   6.061  27.914  1.00  0.00     0.178 HD
BRANCH  21  23
HETATM   23  C2  UNL     1     -44.875   4.476  27.304  1.00  0.00     0.091 C 
HETATM   24  C1  UNL     1     -44.998   5.118  25.949  1.00  0.00     0.032 C 
HETATM   25  C3  UNL     1     -45.805   3.228  27.338  1.00  0.00     0.032 C 
ENDBRANCH  21  23
ENDBRANCH   1  21
TORSDOF 7
ENDMDL
MODEL 5
REMARK VINA RESULT: -7.050848426      5.633      8.173
REMARK  7 active torsions:
REMARK  status: ('A' for Active; 'I' for Inactive)
REMARK    1  A    between atoms: C2_2  and  N1_4 
REMARK    2  A    between atoms: N1_4  and  C4_6 
REMARK    3  A    between atoms: C6_10  and  C7_11 
REMARK    4  A    between atoms: C7_11  and  O1_12 
REMARK    5  A    between atoms: O1_12  and  C8_13 
REMARK    6  A    between atoms: C8_13  and  C9_14 
REMARK    7  A    between atoms: C15_20  and  N3_21 
ROOT
HETATM    1  C4  UNL     1     -45.720  -0.232  36.488  1.00  0.00     0.679 A 
HETATM    2  N2  UNL     1     -44.541  -0.468  35.912  1.00  0.00    -0.201 N 
ATOM      3  H2  UNL     1     -44.049  -1.358  35.984  1.00  0.00     0.183 HD
HETATM    4  C5  UNL     1     -44.046   0.633  35.199  1.00  0.00     0.119 A 
HETATM    5  C6  UNL     1     -44.721   1.804  35.119  1.00  0.00     0.025 A 
HETATM    6  C15 UNL     1     -45.945   1.960  35.747  1.00  0.00     0.124 A 
HETATM    7  N4  UNL     1     -46.413   0.913  36.414  1.00  0.00    -0.177 N 
ATOM      8  H4  UNL     1     -47.317   0.981  36.880  1.00  0.00     0.186 HD
ENDROOT
BRANCH   5   9
HETATM    9  C7  UNL     1     -44.143   3.065  34.500  1.00  0.00     0.211 C 
BRANCH   9  10
HETATM   10  O1  UNL     1     -44.968   3.485  33.439  1.00  0.00    -0.386 OA
BRANCH  10  11
HETATM   11  C8  UNL     1     -44.551   4.696  32.931  1.00  0.00     0.172 C 
BRANCH  11  12
HETATM   12  C9  UNL     1     -44.614   4.729  31.455  1.00  0.00     0.009 C 
HETATM   13  C10 UNL     1     -45.813   4.019  30.853  1.00  0.00     0.007 C 
HETATM   14  C11 UNL     1     -45.497   3.697  29.419  1.00  0.00     0.000 C 
HETATM   15  C12 UNL     1     -45.208   5.001  28.683  1.00  0.00     0.000 C 
HETATM   16  C13 UNL     1     -44.044   5.713  29.366  1.00  0.00     0.000 C 
HETATM   17  C14 UNL     1     -44.465   6.070  30.807  1.00  0.00     0.007 C 
ENDBRANCH  11  12
ENDBRANCH  10  11
ENDBRANCH   9  10
ENDBRANCH   5   9
BRANCH   6  18
HETATM   18  N3  UNL     1     -46.546   3.121  35.737  1.00  0.00    -0.385 N 
ATOM     19  H32 UNL     1     -46.042   4.005  35.669  1.00  0.00     0.157 HD
ATOM     20  H31 UNL     1     -47.565   3.172  35.729  1.00  0.00     0.157 HD
ENDBRANCH   6  18
BRANCH   1  21
HETATM   21  N1  UNL     1     -46.235  -1.067  37.285  1.00  0.00    -0.222 N 
ATOM     22  H1  UNL     1     -45.569  -1.569  37.872  1.00  0.00     0.178 HD
BRANCH  21  23
HETATM   23  C2  UNL     1     -47.570  -1.408  37.486  1.00  0.00     0.091 C 
HETATM   24  C1  UNL     1     -47.697  -2.160  38.783  1.00  0.00     0.032 C 
HETATM   25  C3  UNL     1     -47.936  -2.375  36.324  1.00  0.00     0.032 C 
ENDBRANCH  21  23
ENDBRANCH   1  21
TORSDOF 7
ENDMDL
