MODEL 1
REMARK VINA RESULT: -6.972460267      0.000      0.000
REMARK  5 active torsions:
REMARK  status: ('A' for Active; 'I' for Inactive)
REMARK    1  A    between atoms: C6_6  and  C7_7 
REMARK    2  A    between atoms: C8_8  and  C9_9 
REMARK    3  A    between atoms: C9_9  and  O1_10 
REMARK    4  A    between atoms: C9_9  and  C10_12 
REMARK    5  A    between atoms: C10_12  and  C11_13 
ROOT
HETATM    1  C7  UNL     1     -45.256   5.368  33.366  1.00  0.00    -0.022 C 
HETATM    2  C8  UNL     1     -44.718   4.610  34.296  1.00  0.00     0.001 C 
ENDROOT
BRANCH   1   3
HETATM    3  C6  UNL     1     -45.628   4.832  32.064  1.00  0.00     0.021 C 
HETATM    4  C5  UNL     1     -47.103   5.082  31.733  1.00  0.00     0.019 C 
HETATM    5  C4  UNL     1     -47.074   5.684  30.369  1.00  0.00     0.018 C 
HETATM    6  C3  UNL     1     -46.499   7.058  30.507  1.00  0.00    -0.018 C 
HETATM    7  C16 UNL     1     -45.844   4.984  29.763  1.00  0.00    -0.029 C 
HETATM    8  C2  UNL     1     -45.212   6.929  30.818  1.00  0.00    -0.077 C 
HETATM    9  C1  UNL     1     -44.298   8.072  31.039  1.00  0.00     0.044 C 
HETATM   10  C14 UNL     1     -44.910   5.453  30.895  1.00  0.00    -0.007 C 
HETATM   11  C15 UNL     1     -43.512   5.106  30.703  1.00  0.00     0.021 C 
HETATM   12  C17 UNL     1     -45.426   5.604  28.473  1.00  0.00     0.016 C 
HETATM   13  C18 UNL     1     -45.995   3.509  29.728  1.00  0.00     0.016 C 
ENDBRANCH   1   3
BRANCH   2  14
HETATM   14  C9  UNL     1     -44.418   3.164  34.185  1.00  0.00     0.142 C 
BRANCH  14  15
HETATM   15  O1  UNL     1     -43.062   2.871  34.201  1.00  0.00    -0.392 OA
ATOM     16  H1  UNL     1     -42.568   3.377  34.834  1.00  0.00     0.210 HD
ENDBRANCH  14  15
BRANCH  14  17
HETATM   17  C10 UNL     1     -45.152   2.369  35.258  1.00  0.00     0.068 C 
BRANCH  17  18
HETATM   18  C11 UNL     1     -44.886   0.905  35.148  1.00  0.00     0.190 C 
HETATM   19  C12 UNL     1     -45.481   0.170  36.329  1.00  0.00     0.060 C 
HETATM   20  C13 UNL     1     -44.253  -0.709  36.174  1.00  0.00     0.235 C 
HETATM   21  N1  UNL     1     -43.581   0.457  35.580  1.00  0.00    -0.071 N 
ATOM     22  H12 UNL     1     -42.815   0.343  34.915  1.00  0.00     0.277 HD
ATOM     23  H11 UNL     1     -42.975   1.058  36.138  1.00  0.00     0.277 HD
ENDBRANCH  17  18
ENDBRANCH  14  17
ENDBRANCH   2  14
TORSDOF 5
ENDMDL
MODEL 2
REMARK VINA RESULT: -6.941169991      3.819      5.664
REMARK  5 active torsions:
REMARK  status: ('A' for Active; 'I' for Inactive)
REMARK    1  A    between atoms: C6_6  and  C7_7 
REMARK    2  A    between atoms: C8_8  and  C9_9 
REMARK    3  A    between atoms: C9_9  and  O1_10 
REMARK    4  A    between atoms: C9_9  and  C10_12 
REMARK    5  A    between atoms: C10_12  and  C11_13 
ROOT
HETATM    1  C7  UNL     1     -46.145   6.213  33.345  1.00  0.00    -0.022 C 
HETATM    2  C8  UNL     1     -46.094   7.340  34.022  1.00  0.00     0.001 C 
ENDROOT
BRANCH   1   3
HETATM    3  C6  UNL     1     -45.325   5.993  32.163  1.00  0.00     0.021 C 
HETATM    4  C5  UNL     1     -44.787   4.561  32.088  1.00  0.00     0.019 C 
HETATM    5  C4  UNL     1     -45.136   4.112  30.709  1.00  0.00     0.018 C 
HETATM    6  C3  UNL     1     -46.621   3.940  30.666  1.00  0.00    -0.018 C 
HETATM    7  C16 UNL     1     -45.039   5.437  29.933  1.00  0.00    -0.029 C 
HETATM    8  C2  UNL     1     -47.171   5.149  30.748  1.00  0.00    -0.077 C 
HETATM    9  C1  UNL     1     -48.631   5.394  30.738  1.00  0.00     0.044 C 
HETATM   10  C14 UNL     1     -46.049   6.151  30.852  1.00  0.00    -0.007 C 
HETATM   11  C15 UNL     1     -46.394   7.499  30.432  1.00  0.00     0.021 C 
HETATM   12  C17 UNL     1     -45.601   5.322  28.557  1.00  0.00     0.016 C 
HETATM   13  C18 UNL     1     -43.684   6.036  30.007  1.00  0.00     0.016 C 
ENDBRANCH   1   3
BRANCH   2  14
HETATM   14  C9  UNL     1     -45.240   8.510  33.714  1.00  0.00     0.142 C 
BRANCH  14  15
HETATM   15  O1  UNL     1     -45.889   9.729  33.846  1.00  0.00    -0.392 OA
ATOM     16  H1  UNL     1     -45.539  10.412  33.288  1.00  0.00     0.210 HD
ENDBRANCH  14  15
BRANCH  14  17
HETATM   17  C10 UNL     1     -43.963   8.489  34.545  1.00  0.00     0.068 C 
BRANCH  17  18
HETATM   18  C11 UNL     1     -42.780   8.952  33.763  1.00  0.00     0.190 C 
HETATM   19  C12 UNL     1     -42.453  10.390  34.102  1.00  0.00     0.060 C 
HETATM   20  C13 UNL     1     -42.073  10.463  32.634  1.00  0.00     0.235 C 
HETATM   21  N1  UNL     1     -43.035   9.374  32.405  1.00  0.00    -0.071 N 
ATOM     22  H12 UNL     1     -42.925   8.728  31.622  1.00  0.00     0.277 HD
ATOM     23  H11 UNL     1     -43.983   9.566  32.081  1.00  0.00     0.277 HD
ENDBRANCH  17  18
ENDBRANCH  14  17
ENDBRANCH   2  14
TORSDOF 5
ENDMDL
MODEL 3
REMARK VINA RESULT: -6.925684521      7.180     10.198
REMARK  5 active torsions:
REMARK  status: ('A' for Active; 'I' for Inactive)
REMARK    1  A    between atoms: C6_6  and  C7_7 
REMARK    2  A    between atoms: C8_8  and  C9_9 
REMARK    3  A    between atoms: C9_9  and  O1_10 
REMARK    4  A    between atoms: C9_9  and  C10_12 
REMARK    5  A    between atoms: C10_12  and  C11_13 
ROOT
HETATM    1  C7  UNL     1     -49.120  -2.211  39.622  1.00  0.00    -0.022 C 
HETATM    2  C8  UNL     1     -50.269  -2.427  40.225  1.00  0.00     0.001 C 
ENDROOT
BRANCH   1   3
HETATM    3  C6  UNL     1     -48.664  -0.865  39.306  1.00  0.00     0.021 C 
HETATM    4  C5  UNL     1     -47.211  -0.629  39.732  1.00  0.00     0.019 C 
HETATM    5  C4  UNL     1     -46.562  -0.063  38.515  1.00  0.00     0.018 C 
HETATM    6  C3  UNL     1     -46.467  -1.169  37.513  1.00  0.00    -0.018 C 
HETATM    7  C16 UNL     1     -47.734   0.711  37.887  1.00  0.00    -0.029 C 
HETATM    8  C2  UNL     1     -47.701  -1.452  37.103  1.00  0.00    -0.077 C 
HETATM    9  C1  UNL     1     -48.021  -2.498  36.106  1.00  0.00     0.044 C 
HETATM   10  C14 UNL     1     -48.644  -0.531  37.838  1.00  0.00    -0.007 C 
HETATM   11  C15 UNL     1     -49.921  -0.314  37.179  1.00  0.00     0.021 C 
HETATM   12  C17 UNL     1     -47.425   1.167  36.502  1.00  0.00     0.016 C 
HETATM   13  C18 UNL     1     -48.261   1.764  38.788  1.00  0.00     0.016 C 
ENDBRANCH   1   3
BRANCH   2  14
HETATM   14  C9  UNL     1     -51.238  -1.396  40.663  1.00  0.00     0.142 C 
BRANCH  14  15
HETATM   15  O1  UNL     1     -52.537  -1.866  40.789  1.00  0.00    -0.392 OA
ATOM     16  H1  UNL     1     -53.167  -1.396  40.256  1.00  0.00     0.210 HD
ENDBRANCH  14  15
BRANCH  14  17
HETATM   17  C10 UNL     1     -50.780  -0.729  41.954  1.00  0.00     0.068 C 
BRANCH  17  18
HETATM   18  C11 UNL     1     -50.881   0.757  41.880  1.00  0.00     0.190 C 
HETATM   19  C12 UNL     1     -52.160   1.233  42.535  1.00  0.00     0.060 C 
HETATM   20  C13 UNL     1     -52.126   2.278  41.435  1.00  0.00     0.235 C 
HETATM   21  N1  UNL     1     -51.366   1.306  40.634  1.00  0.00    -0.071 N 
ATOM     22  H12 UNL     1     -50.720   1.612  39.905  1.00  0.00     0.277 HD
ATOM     23  H11 UNL     1     -51.828   0.715  39.942  1.00  0.00     0.277 HD
ENDBRANCH  17  18
ENDBRANCH  14  17
ENDBRANCH   2  14
TORSDOF 5
ENDMDL
MODEL 4
REMARK VINA RESULT: -6.837629309      1.134      1.291
REMARK  5 active torsions:
REMARK  status: ('A' for Active; 'I' for Inactive)
REMARK    1  A    between atoms: C6_6  and  C7_7 
REMARK    2  A    between atoms: C8_8  and  C9_9 
REMARK    3  A    between atoms: C9_9  and  O1_10 
REMARK    4  A    between atoms: C9_9  and  C10_12 
REMARK    5  A    between atoms: C10_12  and  C11_13 
ROOT
HETATM    1  C7  UNL     1     -45.324   5.267  33.336  1.00  0.00    -0.022 C 
HETATM    2  C8  UNL     1     -44.742   4.479  34.213  1.00  0.00     0.001 C 
ENDROOT
BRANCH   1   3
HETATM    3  C6  UNL     1     -45.667   4.802  32.000  1.00  0.00     0.021 C 
HETATM    4  C5  UNL     1     -47.135   5.069  31.651  1.00  0.00     0.019 C 
HETATM    5  C4  UNL     1     -47.076   5.742  30.322  1.00  0.00     0.018 C 
HETATM    6  C3  UNL     1     -46.506   7.107  30.545  1.00  0.00    -0.018 C 
HETATM    7  C16 UNL     1     -45.833   5.075  29.706  1.00  0.00    -0.029 C 
HETATM    8  C2  UNL     1     -45.226   6.961  30.876  1.00  0.00    -0.077 C 
HETATM    9  C1  UNL     1     -44.317   8.091  31.177  1.00  0.00     0.044 C 
HETATM   10  C14 UNL     1     -44.924   5.483  30.881  1.00  0.00    -0.007 C 
HETATM   11  C15 UNL     1     -43.522   5.146  30.700  1.00  0.00     0.021 C 
HETATM   12  C17 UNL     1     -45.389   5.763  28.460  1.00  0.00     0.016 C 
HETATM   13  C18 UNL     1     -45.983   3.605  29.589  1.00  0.00     0.016 C 
ENDBRANCH   1   3
BRANCH   2  14
HETATM   14  C9  UNL     1     -44.360   3.064  34.004  1.00  0.00     0.142 C 
BRANCH  14  15
HETATM   15  O1  UNL     1     -43.238   2.674  34.721  1.00  0.00    -0.392 OA
ATOM     16  H1  UNL     1     -43.006   1.761  34.602  1.00  0.00     0.210 HD
ENDBRANCH  14  15
BRANCH  14  17
HETATM   17  C10 UNL     1     -45.532   2.133  34.293  1.00  0.00     0.068 C 
BRANCH  17  18
HETATM   18  C11 UNL     1     -45.801   2.012  35.756  1.00  0.00     0.190 C 
HETATM   19  C12 UNL     1     -46.054   0.567  36.129  1.00  0.00     0.060 C 
HETATM   20  C13 UNL     1     -47.034   1.178  37.114  1.00  0.00     0.235 C 
HETATM   21  N1  UNL     1     -47.147   2.315  36.187  1.00  0.00    -0.071 N 
ATOM     22  H12 UNL     1     -47.397   3.246  36.522  1.00  0.00     0.277 HD
ATOM     23  H11 UNL     1     -47.914   2.376  35.517  1.00  0.00     0.277 HD
ENDBRANCH  17  18
ENDBRANCH  14  17
ENDBRANCH   2  14
TORSDOF 5
ENDMDL
MODEL 5
REMARK VINA RESULT: -6.700382877      4.762      8.648
REMARK  5 active torsions:
REMARK  status: ('A' for Active; 'I' for Inactive)
REMARK    1  A    between atoms: C6_6  and  C7_7 
REMARK    2  A    between atoms: C8_8  and  C9_9 
REMARK    3  A    between atoms: C9_9  and  O1_10 
REMARK    4  A    between atoms: C9_9  and  C10_12 
REMARK    5  A    between atoms: C10_12  and  C11_13 
ROOT
HETATM    1  C7  UNL     1     -48.891   1.778  38.846  1.00  0.00    -0.022 C 
HETATM    2  C8  UNL     1     -49.356   2.944  38.454  1.00  0.00     0.001 C 
ENDROOT
BRANCH   1   3
HETATM    3  C6  UNL     1     -48.066   0.951  37.977  1.00  0.00     0.021 C 
HETATM    4  C5  UNL     1     -46.824   0.413  38.694  1.00  0.00     0.019 C 
HETATM    5  C4  UNL     1     -46.843  -1.050  38.408  1.00  0.00     0.018 C 
HETATM    6  C3  UNL     1     -47.984  -1.633  39.180  1.00  0.00    -0.018 C 
HETATM    7  C16 UNL     1     -47.483  -1.070  37.009  1.00  0.00    -0.029 C 
HETATM    8  C2  UNL     1     -49.113  -1.194  38.629  1.00  0.00    -0.077 C 
HETATM    9  C1  UNL     1     -50.463  -1.554  39.115  1.00  0.00     0.044 C 
HETATM   10  C14 UNL     1     -48.734  -0.301  37.473  1.00  0.00    -0.007 C 
HETATM   11  C15 UNL     1     -49.761  -0.153  36.455  1.00  0.00     0.021 C 
HETATM   12  C17 UNL     1     -47.864  -2.448  36.587  1.00  0.00     0.016 C 
HETATM   13  C18 UNL     1     -46.687  -0.310  36.015  1.00  0.00     0.016 C 
ENDBRANCH   1   3
BRANCH   2  14
HETATM   14  C9  UNL     1     -49.130   3.579  37.135  1.00  0.00     0.142 C 
BRANCH  14  15
HETATM   15  O1  UNL     1     -50.296   3.990  36.505  1.00  0.00    -0.392 OA
ATOM     16  H1  UNL     1     -51.080   3.572  36.838  1.00  0.00     0.210 HD
ENDBRANCH  14  15
BRANCH  14  17
HETATM   17  C10 UNL     1     -48.144   4.735  37.247  1.00  0.00     0.068 C 
BRANCH  17  18
HETATM   18  C11 UNL     1     -46.737   4.291  37.020  1.00  0.00     0.190 C 
HETATM   19  C12 UNL     1     -45.955   5.364  36.293  1.00  0.00     0.060 C 
HETATM   20  C13 UNL     1     -45.276   4.176  35.637  1.00  0.00     0.235 C 
HETATM   21  N1  UNL     1     -46.514   3.421  35.888  1.00  0.00    -0.071 N 
ATOM     22  H12 UNL     1     -46.501   2.406  35.997  1.00  0.00     0.277 HD
ATOM     23  H11 UNL     1     -47.221   3.309  35.161  1.00  0.00     0.277 HD
ENDBRANCH  17  18
ENDBRANCH  14  17
ENDBRANCH   2  14
TORSDOF 5
ENDMDL
