MODEL 1
REMARK VINA RESULT: -6.680142049      0.000      0.000
REMARK  6 active torsions:
REMARK  status: ('A' for Active; 'I' for Inactive)
REMARK    1  A    between atoms: C2_2  and  C3_3 
REMARK    2  A    between atoms: C3_3  and  O1_4 
REMARK    3  A    between atoms: C3_3  and  C4_6 
REMARK    4  A    between atoms: C3_3  and  C15_22 
REMARK    5  A    between atoms: C4_6  and  N2_10 
REMARK    6  A    between atoms: N2_10  and  C5_12 
ROOT
HETATM    1  C4  UNL     1     -46.675   6.273  34.088  1.00  0.00     0.106 C 
HETATM    2  N1  UNL     1     -47.950   6.367  34.136  1.00  0.00    -0.387 N 
ATOM      3  H11 UNL     1     -48.502   5.656  33.659  1.00  0.00     0.157 HD
ATOM      4  H12 UNL     1     -48.433   7.119  34.627  1.00  0.00     0.157 HD
ENDROOT
BRANCH   1   5
HETATM    5  C3  UNL     1     -45.854   7.330  34.797  1.00  0.00     0.117 C 
BRANCH   5   6
HETATM    6  C2  UNL     1     -45.902   8.517  33.912  1.00  0.00     0.042 C 
HETATM    7  C1  UNL     1     -44.621   9.025  33.372  1.00  0.00     0.009 C 
ENDBRANCH   5   6
BRANCH   5   8
HETATM    8  O1  UNL     1     -44.529   6.879  34.907  1.00  0.00    -0.382 OA
ATOM      9  H1  UNL     1     -44.524   5.973  35.196  1.00  0.00     0.211 HD
ENDBRANCH   5   8
BRANCH   5  10
HETATM   10  C15 UNL     1     -46.426   7.483  36.160  1.00  0.00     0.019 C 
HETATM   11  C16 UNL     1     -45.802   6.446  37.096  1.00  0.00     0.013 C 
HETATM   12  C17 UNL     1     -46.181   8.818  36.814  1.00  0.00     0.013 C 
ENDBRANCH   5  10
ENDBRANCH   1   5
BRANCH   1  13
HETATM   13  N2  UNL     1     -46.005   5.232  33.406  1.00  0.00    -0.368 N 
ATOM     14  H2  UNL     1     -45.669   4.439  33.954  1.00  0.00     0.161 HD
BRANCH  13  15
HETATM   15  C5  UNL     1     -45.765   5.221  31.980  1.00  0.00     0.032 C 
HETATM   16  C6  UNL     1     -44.392   5.774  31.704  1.00  0.00     0.031 C 
HETATM   17  C7  UNL     1     -43.698   5.084  30.560  1.00  0.00     0.007 C 
HETATM   18  C8  UNL     1     -44.458   5.077  29.289  1.00  0.00    -0.014 C 
HETATM   19  C9  UNL     1     -45.531   6.104  29.176  1.00  0.00     0.010 C 
HETATM   20  C13 UNL     1     -45.241   3.779  29.065  1.00  0.00     0.010 C 
HETATM   21  C10 UNL     1     -46.726   5.464  29.835  1.00  0.00    -0.008 C 
HETATM   22  C11 UNL     1     -46.818   6.018  31.241  1.00  0.00     0.036 C 
HETATM   23  C12 UNL     1     -46.421   4.001  29.987  1.00  0.00    -0.008 C 
HETATM   24  C14 UNL     1     -45.970   3.840  31.409  1.00  0.00     0.036 C 
ENDBRANCH  13  15
ENDBRANCH   1  13
TORSDOF 6
ENDMDL
MODEL 2
REMARK VINA RESULT: -6.666598315      0.607      1.573
REMARK  6 active torsions:
REMARK  status: ('A' for Active; 'I' for Inactive)
REMARK    1  A    between atoms: C2_2  and  C3_3 
REMARK    2  A    between atoms: C3_3  and  O1_4 
REMARK    3  A    between atoms: C3_3  and  C4_6 
REMARK    4  A    between atoms: C3_3  and  C15_22 
REMARK    5  A    between atoms: C4_6  and  N2_10 
REMARK    6  A    between atoms: N2_10  and  C5_12 
ROOT
HETATM    1  C4  UNL     1     -46.842   6.290  34.184  1.00  0.00     0.106 C 
HETATM    2  N1  UNL     1     -48.112   6.425  34.229  1.00  0.00    -0.387 N 
ATOM      3  H11 UNL     1     -48.686   5.743  33.734  1.00  0.00     0.157 HD
ATOM      4  H12 UNL     1     -48.573   7.181  34.737  1.00  0.00     0.157 HD
ENDROOT
BRANCH   1   5
HETATM    5  C3  UNL     1     -45.989   7.302  34.921  1.00  0.00     0.117 C 
BRANCH   5   6
HETATM    6  C2  UNL     1     -46.019   8.521  34.079  1.00  0.00     0.042 C 
HETATM    7  C1  UNL     1     -44.754   8.944  33.438  1.00  0.00     0.009 C 
ENDBRANCH   5   6
BRANCH   5   8
HETATM    8  O1  UNL     1     -44.674   6.817  35.001  1.00  0.00    -0.382 OA
ATOM      9  H1  UNL     1     -44.662   6.010  35.503  1.00  0.00     0.211 HD
ENDBRANCH   5   8
BRANCH   5  10
HETATM   10  C15 UNL     1     -46.544   7.419  36.295  1.00  0.00     0.019 C 
HETATM   11  C16 UNL     1     -45.919   6.349  37.192  1.00  0.00     0.013 C 
HETATM   12  C17 UNL     1     -46.278   8.732  36.986  1.00  0.00     0.013 C 
ENDBRANCH   5  10
ENDBRANCH   1   5
BRANCH   1  13
HETATM   13  N2  UNL     1     -46.203   5.243  33.481  1.00  0.00    -0.368 N 
ATOM     14  H2  UNL     1     -45.972   4.392  33.995  1.00  0.00     0.161 HD
BRANCH  13  15
HETATM   15  C5  UNL     1     -45.856   5.303  32.078  1.00  0.00     0.032 C 
HETATM   16  C6  UNL     1     -46.739   6.312  31.393  1.00  0.00     0.031 C 
HETATM   17  C7  UNL     1     -46.024   7.083  30.315  1.00  0.00     0.007 C 
HETATM   18  C8  UNL     1     -45.385   6.246  29.275  1.00  0.00    -0.014 C 
HETATM   19  C9  UNL     1     -45.901   4.853  29.164  1.00  0.00     0.010 C 
HETATM   20  C13 UNL     1     -43.892   6.008  29.530  1.00  0.00     0.010 C 
HETATM   21  C10 UNL     1     -45.114   4.084  30.195  1.00  0.00    -0.008 C 
HETATM   22  C11 UNL     1     -45.990   3.946  31.422  1.00  0.00     0.036 C 
HETATM   23  C12 UNL     1     -43.958   4.949  30.609  1.00  0.00    -0.008 C 
HETATM   24  C14 UNL     1     -44.386   5.586  31.897  1.00  0.00     0.036 C 
ENDBRANCH  13  15
ENDBRANCH   1  13
TORSDOF 6
ENDMDL
MODEL 3
REMARK VINA RESULT: -6.656959505      1.591      3.093
REMARK  6 active torsions:
REMARK  status: ('A' for Active; 'I' for Inactive)
REMARK    1  A    between atoms: C2_2  and  C3_3 
REMARK    2  A    between atoms: C3_3  and  O1_4 
REMARK    3  A    between atoms: C3_3  and  C4_6 
REMARK    4  A    between atoms: C3_3  and  C15_22 
REMARK    5  A    between atoms: C4_6  and  N2_10 
REMARK    6  A    between atoms: N2_10  and  C5_12 
ROOT
HETATM    1  C4  UNL     1     -46.336   8.133  33.586  1.00  0.00     0.106 C 
HETATM    2  N1  UNL     1     -47.048   7.353  34.307  1.00  0.00    -0.387 N 
ATOM      3  H11 UNL     1     -47.588   6.626  33.839  1.00  0.00     0.157 HD
ATOM      4  H12 UNL     1     -47.098   7.427  35.323  1.00  0.00     0.157 HD
ENDROOT
BRANCH   1   5
HETATM    5  C3  UNL     1     -45.532   9.212  34.281  1.00  0.00     0.117 C 
BRANCH   5   6
HETATM    6  C2  UNL     1     -45.313   8.708  35.657  1.00  0.00     0.042 C 
HETATM    7  C1  UNL     1     -45.531   9.651  36.777  1.00  0.00     0.009 C 
ENDBRANCH   5   6
BRANCH   5   8
HETATM    8  O1  UNL     1     -46.297  10.389  34.327  1.00  0.00    -0.382 OA
ATOM      9  H1  UNL     1     -47.148  10.232  33.935  1.00  0.00     0.211 HD
ENDBRANCH   5   8
BRANCH   5  10
HETATM   10  C15 UNL     1     -44.323   9.456  33.453  1.00  0.00     0.019 C 
HETATM   11  C16 UNL     1     -44.030  10.956  33.404  1.00  0.00     0.013 C 
HETATM   12  C17 UNL     1     -43.057   8.813  33.958  1.00  0.00     0.013 C 
ENDBRANCH   5  10
ENDBRANCH   1   5
BRANCH   1  13
HETATM   13  N2  UNL     1     -46.266   8.030  32.177  1.00  0.00    -0.368 N 
ATOM     14  H2  UNL     1     -46.502   8.855  31.625  1.00  0.00     0.161 HD
BRANCH  13  15
HETATM   15  C5  UNL     1     -45.882   6.828  31.471  1.00  0.00     0.032 C 
HETATM   16  C6  UNL     1     -47.061   5.896  31.402  1.00  0.00     0.031 C 
HETATM   17  C7  UNL     1     -47.132   5.132  30.106  1.00  0.00     0.007 C 
HETATM   18  C8  UNL     1     -45.913   4.360  29.775  1.00  0.00    -0.014 C 
HETATM   19  C9  UNL     1     -45.007   4.067  30.921  1.00  0.00     0.010 C 
HETATM   20  C13 UNL     1     -44.975   5.102  28.817  1.00  0.00     0.010 C 
HETATM   21  C10 UNL     1     -44.139   5.294  31.030  1.00  0.00    -0.008 C 
HETATM   22  C11 UNL     1     -44.706   6.151  32.142  1.00  0.00     0.036 C 
HETATM   23  C12 UNL     1     -44.323   6.084  29.766  1.00  0.00    -0.008 C 
HETATM   24  C14 UNL     1     -45.310   7.159  30.115  1.00  0.00     0.036 C 
ENDBRANCH  13  15
ENDBRANCH   1  13
TORSDOF 6
ENDMDL
MODEL 4
REMARK VINA RESULT: -6.624696963      1.122      2.400
REMARK  6 active torsions:
REMARK  status: ('A' for Active; 'I' for Inactive)
REMARK    1  A    between atoms: C2_2  and  C3_3 
REMARK    2  A    between atoms: C3_3  and  O1_4 
REMARK    3  A    between atoms: C3_3  and  C4_6 
REMARK    4  A    between atoms: C3_3  and  C15_22 
REMARK    5  A    between atoms: C4_6  and  N2_10 
REMARK    6  A    between atoms: N2_10  and  C5_12 
ROOT
HETATM    1  C4  UNL     1     -46.742   6.417  34.156  1.00  0.00     0.106 C 
HETATM    2  N1  UNL     1     -48.015   6.517  34.230  1.00  0.00    -0.387 N 
ATOM      3  H11 UNL     1     -48.580   5.792  33.789  1.00  0.00     0.157 HD
ATOM      4  H12 UNL     1     -48.484   7.286  34.708  1.00  0.00     0.157 HD
ENDROOT
BRANCH   1   5
HETATM    5  C3  UNL     1     -45.902   7.493  34.812  1.00  0.00     0.117 C 
BRANCH   5   6
HETATM    6  C2  UNL     1     -44.623   6.830  35.158  1.00  0.00     0.042 C 
HETATM    7  C1  UNL     1     -43.878   7.342  36.330  1.00  0.00     0.009 C 
ENDBRANCH   5   6
BRANCH   5   8
HETATM    8  O1  UNL     1     -46.543   7.919  35.985  1.00  0.00    -0.382 OA
ATOM      9  H1  UNL     1     -47.236   7.308  36.210  1.00  0.00     0.211 HD
ENDBRANCH   5   8
BRANCH   5  10
HETATM   10  C15 UNL     1     -45.833   8.631  33.860  1.00  0.00     0.019 C 
HETATM   11  C16 UNL     1     -46.008   9.947  34.622  1.00  0.00     0.013 C 
HETATM   12  C17 UNL     1     -44.532   8.767  33.111  1.00  0.00     0.013 C 
ENDBRANCH   5  10
ENDBRANCH   1   5
BRANCH   1  13
HETATM   13  N2  UNL     1     -46.090   5.351  33.493  1.00  0.00    -0.368 N 
ATOM     14  H2  UNL     1     -45.805   4.545  34.049  1.00  0.00     0.161 HD
BRANCH  13  15
HETATM   15  C5  UNL     1     -45.802   5.334  32.076  1.00  0.00     0.032 C 
HETATM   16  C6  UNL     1     -46.719   6.299  31.373  1.00  0.00     0.031 C 
HETATM   17  C7  UNL     1     -46.054   7.012  30.225  1.00  0.00     0.007 C 
HETATM   18  C8  UNL     1     -45.452   6.121  29.208  1.00  0.00    -0.014 C 
HETATM   19  C9  UNL     1     -45.963   4.721  29.196  1.00  0.00     0.010 C 
HETATM   20  C13 UNL     1     -43.949   5.903  29.414  1.00  0.00     0.010 C 
HETATM   21  C10 UNL     1     -45.130   4.015  30.235  1.00  0.00    -0.008 C 
HETATM   22  C11 UNL     1     -45.953   3.942  31.503  1.00  0.00     0.036 C 
HETATM   23  C12 UNL     1     -43.963   4.906  30.552  1.00  0.00    -0.008 C 
HETATM   24  C14 UNL     1     -44.342   5.613  31.819  1.00  0.00     0.036 C 
ENDBRANCH  13  15
ENDBRANCH   1  13
TORSDOF 6
ENDMDL
MODEL 5
REMARK VINA RESULT: -6.616499716      1.007      1.823
REMARK  6 active torsions:
REMARK  status: ('A' for Active; 'I' for Inactive)
REMARK    1  A    between atoms: C2_2  and  C3_3 
REMARK    2  A    between atoms: C3_3  and  O1_4 
REMARK    3  A    between atoms: C3_3  and  C4_6 
REMARK    4  A    between atoms: C3_3  and  C15_22 
REMARK    5  A    between atoms: C4_6  and  N2_10 
REMARK    6  A    between atoms: N2_10  and  C5_12 
ROOT
HETATM    1  C4  UNL     1     -46.592   6.389  34.153  1.00  0.00     0.106 C 
HETATM    2  N1  UNL     1     -47.868   6.420  34.229  1.00  0.00    -0.387 N 
ATOM      3  H11 UNL     1     -48.394   5.664  33.791  1.00  0.00     0.157 HD
ATOM      4  H12 UNL     1     -48.378   7.163  34.707  1.00  0.00     0.157 HD
ENDROOT
BRANCH   1   5
HETATM    5  C3  UNL     1     -45.810   7.511  34.804  1.00  0.00     0.117 C 
BRANCH   5   6
HETATM    6  C2  UNL     1     -44.494   6.921  35.144  1.00  0.00     0.042 C 
HETATM    7  C1  UNL     1     -43.772   7.476  36.311  1.00  0.00     0.009 C 
ENDBRANCH   5   6
BRANCH   5   8
HETATM    8  O1  UNL     1     -46.469   7.900  35.982  1.00  0.00    -0.382 OA
ATOM      9  H1  UNL     1     -47.337   8.224  35.769  1.00  0.00     0.211 HD
ENDBRANCH   5   8
BRANCH   5  10
HETATM   10  C15 UNL     1     -45.811   8.651  33.852  1.00  0.00     0.019 C 
HETATM   11  C16 UNL     1     -45.985   9.961  34.623  1.00  0.00     0.013 C 
HETATM   12  C17 UNL     1     -44.546   8.820  33.049  1.00  0.00     0.013 C 
ENDBRANCH   5  10
ENDBRANCH   1   5
BRANCH   1  13
HETATM   13  N2  UNL     1     -45.884   5.359  33.491  1.00  0.00    -0.368 N 
ATOM     14  H2  UNL     1     -45.476   4.618  34.060  1.00  0.00     0.161 HD
BRANCH  13  15
HETATM   15  C5  UNL     1     -45.704   5.293  32.057  1.00  0.00     0.032 C 
HETATM   16  C6  UNL     1     -44.316   5.763  31.711  1.00  0.00     0.031 C 
HETATM   17  C7  UNL     1     -43.707   5.002  30.563  1.00  0.00     0.007 C 
HETATM   18  C8  UNL     1     -44.517   4.999  29.323  1.00  0.00    -0.014 C 
HETATM   19  C9  UNL     1     -45.539   6.079  29.220  1.00  0.00     0.010 C 
HETATM   20  C13 UNL     1     -45.378   3.740  29.172  1.00  0.00     0.010 C 
HETATM   21  C10 UNL     1     -46.738   5.525  29.945  1.00  0.00    -0.008 C 
HETATM   22  C11 UNL     1     -46.743   6.124  31.336  1.00  0.00     0.036 C 
HETATM   23  C12 UNL     1     -46.505   4.053  30.132  1.00  0.00    -0.008 C 
HETATM   24  C14 UNL     1     -46.005   3.910  31.539  1.00  0.00     0.036 C 
ENDBRANCH  13  15
ENDBRANCH   1  13
TORSDOF 6
ENDMDL
