MODEL 1
REMARK VINA RESULT: -6.923173596      0.000      0.000
REMARK  6 active torsions:
REMARK  status: ('A' for Active; 'I' for Inactive)
REMARK    1  A    between atoms: C2_2  and  C3_3 
REMARK    2  A    between atoms: C3_3  and  C4_4 
REMARK    3  A    between atoms: C4_4  and  N1_7 
REMARK       I    between atoms: N1_7  and  C7_9 
REMARK       I    between atoms: C7_9  and  N2_11 
REMARK    4  A    between atoms: N2_11  and  C8_13 
REMARK    5  A    between atoms: C8_13  and  N3_15 
REMARK    6  A    between atoms: N3_15  and  C9_17 
ROOT
HETATM    1  N1  UNL     1     -44.535   4.606  30.716  1.00  0.00    -0.334 N 
ATOM      2  H1  UNL     1     -43.546   4.365  30.663  1.00  0.00     0.165 HD
HETATM    3  C7  UNL     1     -45.160   4.648  32.015  1.00  0.00     0.323 C 
HETATM    4  O1  UNL     1     -46.371   4.941  32.142  1.00  0.00    -0.247 OA
HETATM    5  N2  UNL     1     -44.404   4.358  33.161  1.00  0.00    -0.286 N 
ATOM      6  H2  UNL     1     -43.418   4.118  33.056  1.00  0.00     0.173 HD
ENDROOT
BRANCH   5   7
HETATM    7  C8  UNL     1     -44.965   4.388  34.446  1.00  0.00     0.175 C 
HETATM    8  S1  UNL     1     -44.809   5.717  35.371  1.00  0.00    -0.041 SA
BRANCH   7   9
HETATM    9  N3  UNL     1     -45.687   3.268  34.970  1.00  0.00    -0.362 N 
ATOM     10  H3  UNL     1     -46.458   3.452  35.611  1.00  0.00     0.162 HD
BRANCH   9  11
HETATM   11  C9  UNL     1     -45.390   1.898  34.647  1.00  0.00     0.083 C 
HETATM   12  C10 UNL     1     -43.994   1.526  35.112  1.00  0.00     0.025 C 
HETATM   13  C11 UNL     1     -43.814   0.029  35.175  1.00  0.00     0.002 C 
HETATM   14  C12 UNL     1     -44.544  -0.485  36.393  1.00  0.00     0.000 C 
HETATM   15  C13 UNL     1     -45.691   0.432  36.672  1.00  0.00     0.002 C 
HETATM   16  C14 UNL     1     -46.339   0.994  35.418  1.00  0.00     0.025 C 
ENDBRANCH   9  11
ENDBRANCH   7   9
ENDBRANCH   5   7
BRANCH   1  17
HETATM   17  C4  UNL     1     -45.231   4.886  29.498  1.00  0.00     0.030 C 
HETATM   18  C5  UNL     1     -45.877   6.240  29.431  1.00  0.00     0.038 C 
HETATM   19  C6  UNL     1     -46.372   3.862  29.408  1.00  0.00     0.038 C 
BRANCH  17  20
HETATM   20  C3  UNL     1     -44.331   4.772  28.287  1.00  0.00     0.056 C 
BRANCH  20  21
HETATM   21  C2  UNL     1     -45.031   4.424  27.049  1.00  0.00    -0.034 C 
HETATM   22  C1  UNL     1     -44.891   5.160  25.967  1.00  0.00     0.007 C 
ENDBRANCH  20  21
ENDBRANCH  17  20
ENDBRANCH   1  17
TORSDOF 6
ENDMDL
MODEL 2
REMARK VINA RESULT: -6.751252974      1.892      7.456
REMARK  6 active torsions:
REMARK  status: ('A' for Active; 'I' for Inactive)
REMARK    1  A    between atoms: C2_2  and  C3_3 
REMARK    2  A    between atoms: C3_3  and  C4_4 
REMARK    3  A    between atoms: C4_4  and  N1_7 
REMARK       I    between atoms: N1_7  and  C7_9 
REMARK       I    between atoms: C7_9  and  N2_11 
REMARK    4  A    between atoms: N2_11  and  C8_13 
REMARK    5  A    between atoms: C8_13  and  N3_15 
REMARK    6  A    between atoms: N3_15  and  C9_17 
ROOT
HETATM    1  N1  UNL     1     -45.761   2.363  33.637  1.00  0.00    -0.334 N 
ATOM      2  H1  UNL     1     -46.360   1.585  33.363  1.00  0.00     0.165 HD
HETATM    3  C7  UNL     1     -45.627   3.476  32.728  1.00  0.00     0.323 C 
HETATM    4  O1  UNL     1     -44.907   4.460  33.011  1.00  0.00    -0.247 OA
HETATM    5  N2  UNL     1     -46.312   3.460  31.504  1.00  0.00    -0.286 N 
ATOM      6  H2  UNL     1     -46.896   2.656  31.273  1.00  0.00     0.173 HD
ENDROOT
BRANCH   5   7
HETATM    7  C8  UNL     1     -46.217   4.518  30.588  1.00  0.00     0.175 C 
HETATM    8  S1  UNL     1     -47.225   5.790  30.706  1.00  0.00    -0.041 SA
BRANCH   7   9
HETATM    9  N3  UNL     1     -45.239   4.513  29.542  1.00  0.00    -0.362 N 
ATOM     10  H3  UNL     1     -44.566   5.278  29.510  1.00  0.00     0.162 HD
BRANCH   9  11
HETATM   11  C9  UNL     1     -45.149   3.491  28.532  1.00  0.00     0.083 C 
HETATM   12  C10 UNL     1     -46.529   3.009  28.131  1.00  0.00     0.025 C 
HETATM   13  C11 UNL     1     -46.495   2.272  26.813  1.00  0.00     0.002 C 
HETATM   14  C12 UNL     1     -46.340   3.288  25.707  1.00  0.00     0.000 C 
HETATM   15  C13 UNL     1     -45.599   4.465  26.255  1.00  0.00     0.002 C 
HETATM   16  C14 UNL     1     -44.538   4.095  27.277  1.00  0.00     0.025 C 
ENDBRANCH   9  11
ENDBRANCH   7   9
ENDBRANCH   5   7
BRANCH   1  17
HETATM   17  C4  UNL     1     -45.096   2.296  34.902  1.00  0.00     0.030 C 
HETATM   18  C5  UNL     1     -45.353   3.459  35.817  1.00  0.00     0.038 C 
HETATM   19  C6  UNL     1     -43.591   2.312  34.600  1.00  0.00     0.038 C 
BRANCH  17  20
HETATM   20  C3  UNL     1     -45.461   1.046  35.673  1.00  0.00     0.056 C 
BRANCH  20  21
HETATM   21  C2  UNL     1     -44.398   0.042  35.726  1.00  0.00    -0.034 C 
HETATM   22  C1  UNL     1     -44.260  -0.738  36.777  1.00  0.00     0.007 C 
ENDBRANCH  20  21
ENDBRANCH  17  20
ENDBRANCH   1  17
TORSDOF 6
ENDMDL
MODEL 3
REMARK VINA RESULT: -6.688870204      1.050      1.315
REMARK  6 active torsions:
REMARK  status: ('A' for Active; 'I' for Inactive)
REMARK    1  A    between atoms: C2_2  and  C3_3 
REMARK    2  A    between atoms: C3_3  and  C4_4 
REMARK    3  A    between atoms: C4_4  and  N1_7 
REMARK       I    between atoms: N1_7  and  C7_9 
REMARK       I    between atoms: C7_9  and  N2_11 
REMARK    4  A    between atoms: N2_11  and  C8_13 
REMARK    5  A    between atoms: C8_13  and  N3_15 
REMARK    6  A    between atoms: N3_15  and  C9_17 
ROOT
HETATM    1  N1  UNL     1     -45.694   4.288  30.731  1.00  0.00    -0.334 N 
ATOM      2  H1  UNL     1     -46.448   3.635  30.520  1.00  0.00     0.165 HD
HETATM    3  C7  UNL     1     -45.229   4.380  32.093  1.00  0.00     0.323 C 
HETATM    4  O1  UNL     1     -44.304   5.162  32.411  1.00  0.00    -0.247 OA
HETATM    5  N2  UNL     1     -45.819   3.582  33.085  1.00  0.00    -0.286 N 
ATOM      6  H2  UNL     1     -46.574   2.947  32.826  1.00  0.00     0.173 HD
ENDROOT
BRANCH   5   7
HETATM    7  C8  UNL     1     -45.401   3.633  34.423  1.00  0.00     0.175 C 
HETATM    8  S1  UNL     1     -45.906   4.841  35.388  1.00  0.00    -0.041 SA
BRANCH   7   9
HETATM    9  N3  UNL     1     -44.536   2.632  34.972  1.00  0.00    -0.362 N 
ATOM     10  H3  UNL     1     -43.682   2.939  35.436  1.00  0.00     0.162 HD
BRANCH   9  11
HETATM   11  C9  UNL     1     -44.800   1.219  34.906  1.00  0.00     0.083 C 
HETATM   12  C10 UNL     1     -43.707   0.436  35.609  1.00  0.00     0.025 C 
HETATM   13  C11 UNL     1     -44.154  -0.971  35.926  1.00  0.00     0.002 C 
HETATM   14  C12 UNL     1     -45.105  -0.915  37.096  1.00  0.00     0.000 C 
HETATM   15  C13 UNL     1     -45.797   0.411  37.072  1.00  0.00     0.002 C 
HETATM   16  C14 UNL     1     -46.081   0.923  35.670  1.00  0.00     0.025 C 
ENDBRANCH   9  11
ENDBRANCH   7   9
ENDBRANCH   5   7
BRANCH   1  17
HETATM   17  C4  UNL     1     -45.150   5.065  29.660  1.00  0.00     0.030 C 
HETATM   18  C5  UNL     1     -43.689   5.389  29.786  1.00  0.00     0.038 C 
HETATM   19  C6  UNL     1     -45.891   6.410  29.684  1.00  0.00     0.038 C 
BRANCH  17  20
HETATM   20  C3  UNL     1     -45.333   4.392  28.317  1.00  0.00     0.056 C 
BRANCH  20  21
HETATM   21  C2  UNL     1     -44.979   5.232  27.171  1.00  0.00    -0.034 C 
HETATM   22  C1  UNL     1     -44.930   4.729  25.957  1.00  0.00     0.007 C 
ENDBRANCH  20  21
ENDBRANCH  17  20
ENDBRANCH   1  17
TORSDOF 6
ENDMDL
MODEL 4
REMARK VINA RESULT: -6.631816300      2.207      7.962
REMARK  6 active torsions:
REMARK  status: ('A' for Active; 'I' for Inactive)
REMARK    1  A    between atoms: C2_2  and  C3_3 
REMARK    2  A    between atoms: C3_3  and  C4_4 
REMARK    3  A    between atoms: C4_4  and  N1_7 
REMARK       I    between atoms: N1_7  and  C7_9 
REMARK       I    between atoms: C7_9  and  N2_11 
REMARK    4  A    between atoms: N2_11  and  C8_13 
REMARK    5  A    between atoms: C8_13  and  N3_15 
REMARK    6  A    between atoms: N3_15  and  C9_17 
ROOT
HETATM    1  N1  UNL     1     -46.606   0.982  36.752  1.00  0.00    -0.334 N 
ATOM      2  H1  UNL     1     -47.451   1.393  37.147  1.00  0.00     0.165 HD
HETATM    3  C7  UNL     1     -45.841   1.762  35.809  1.00  0.00     0.323 C 
HETATM    4  O1  UNL     1     -44.793   1.309  35.294  1.00  0.00    -0.247 OA
HETATM    5  N2  UNL     1     -46.273   3.050  35.460  1.00  0.00    -0.286 N 
ATOM      6  H2  UNL     1     -47.128   3.416  35.879  1.00  0.00     0.173 HD
ENDROOT
BRANCH   5   7
HETATM    7  C8  UNL     1     -45.564   3.848  34.551  1.00  0.00     0.175 C 
HETATM    8  S1  UNL     1     -44.693   5.114  35.087  1.00  0.00    -0.041 SA
BRANCH   7   9
HETATM    9  N3  UNL     1     -45.579   3.572  33.146  1.00  0.00    -0.362 N 
ATOM     10  H3  UNL     1     -45.564   2.596  32.850  1.00  0.00     0.162 HD
BRANCH   9  11
HETATM   11  C9  UNL     1     -45.615   4.587  32.128  1.00  0.00     0.083 C 
HETATM   12  C10 UNL     1     -44.251   4.750  31.484  1.00  0.00     0.025 C 
HETATM   13  C11 UNL     1     -44.348   5.475  30.163  1.00  0.00     0.002 C 
HETATM   14  C12 UNL     1     -44.909   4.520  29.138  1.00  0.00     0.000 C 
HETATM   15  C13 UNL     1     -45.785   3.537  29.846  1.00  0.00     0.002 C 
HETATM   16  C14 UNL     1     -46.548   4.135  31.016  1.00  0.00     0.025 C 
ENDBRANCH   9  11
ENDBRANCH   7   9
ENDBRANCH   5   7
BRANCH   1  17
HETATM   17  C4  UNL     1     -46.239  -0.339  37.161  1.00  0.00     0.030 C 
HETATM   18  C5  UNL     1     -44.763  -0.619  37.160  1.00  0.00     0.038 C 
HETATM   19  C6  UNL     1     -46.857  -1.298  36.132  1.00  0.00     0.038 C 
BRANCH  17  20
HETATM   20  C3  UNL     1     -46.743  -0.668  38.549  1.00  0.00     0.056 C 
BRANCH  20  21
HETATM   21  C2  UNL     1     -47.556  -1.883  38.622  1.00  0.00    -0.034 C 
HETATM   22  C1  UNL     1     -48.655  -1.916  39.345  1.00  0.00     0.007 C 
ENDBRANCH  20  21
ENDBRANCH  17  20
ENDBRANCH   1  17
TORSDOF 6
ENDMDL
MODEL 5
REMARK VINA RESULT: -6.620980483      2.403      3.455
REMARK  6 active torsions:
REMARK  status: ('A' for Active; 'I' for Inactive)
REMARK    1  A    between atoms: C2_2  and  C3_3 
REMARK    2  A    between atoms: C3_3  and  C4_4 
REMARK    3  A    between atoms: C4_4  and  N1_7 
REMARK       I    between atoms: N1_7  and  C7_9 
REMARK       I    between atoms: C7_9  and  N2_11 
REMARK    4  A    between atoms: N2_11  and  C8_13 
REMARK    5  A    between atoms: C8_13  and  N3_15 
REMARK    6  A    between atoms: N3_15  and  C9_17 
ROOT
HETATM    1  N1  UNL     1     -46.118   4.023  32.621  1.00  0.00    -0.334 N 
ATOM      2  H1  UNL     1     -46.566   3.426  31.926  1.00  0.00     0.165 HD
HETATM    3  C7  UNL     1     -45.613   3.410  33.826  1.00  0.00     0.323 C 
HETATM    4  O1  UNL     1     -45.052   4.092  34.713  1.00  0.00    -0.247 OA
HETATM    5  N2  UNL     1     -45.750   2.026  34.012  1.00  0.00    -0.286 N 
ATOM      6  H2  UNL     1     -46.209   1.472  33.290  1.00  0.00     0.173 HD
ENDROOT
BRANCH   5   7
HETATM    7  C8  UNL     1     -45.273   1.383  35.164  1.00  0.00     0.175 C 
HETATM    8  S1  UNL     1     -43.803   0.687  35.158  1.00  0.00    -0.041 SA
BRANCH   7   9
HETATM    9  N3  UNL     1     -46.053   1.329  36.364  1.00  0.00    -0.362 N 
ATOM     10  H3  UNL     1     -45.812   1.968  37.121  1.00  0.00     0.162 HD
BRANCH   9  11
HETATM   11  C9  UNL     1     -47.156   0.428  36.565  1.00  0.00     0.083 C 
HETATM   12  C10 UNL     1     -46.718  -1.010  36.361  1.00  0.00     0.025 C 
HETATM   13  C11 UNL     1     -47.707  -1.979  36.964  1.00  0.00     0.002 C 
HETATM   14  C12 UNL     1     -47.535  -1.959  38.464  1.00  0.00     0.000 C 
HETATM   15  C13 UNL     1     -47.039  -0.604  38.859  1.00  0.00     0.002 C 
HETATM   16  C14 UNL     1     -47.609   0.522  38.014  1.00  0.00     0.025 C 
ENDBRANCH   9  11
ENDBRANCH   7   9
ENDBRANCH   5   7
BRANCH   1  17
HETATM   17  C4  UNL     1     -46.023   5.424  32.352  1.00  0.00     0.030 C 
HETATM   18  C5  UNL     1     -46.425   6.319  33.489  1.00  0.00     0.038 C 
HETATM   19  C6  UNL     1     -47.009   5.713  31.211  1.00  0.00     0.038 C 
BRANCH  17  20
HETATM   20  C3  UNL     1     -44.624   5.835  31.949  1.00  0.00     0.056 C 
BRANCH  20  21
HETATM   21  C2  UNL     1     -44.063   5.053  30.846  1.00  0.00    -0.034 C 
HETATM   22  C1  UNL     1     -43.899   5.589  29.655  1.00  0.00     0.007 C 
ENDBRANCH  20  21
ENDBRANCH  17  20
ENDBRANCH   1  17
TORSDOF 6
ENDMDL
