MODEL 1
REMARK VINA RESULT: -6.018811520      0.000      0.000
REMARK  6 active torsions:
REMARK  status: ('A' for Active; 'I' for Inactive)
REMARK    1  A    between atoms: C2_2  and  N1_3 
REMARK       I    between atoms: N1_3  and  C3_5 
REMARK       I    between atoms: C3_5  and  N2_7 
REMARK    2  A    between atoms: N2_7  and  C4_9 
REMARK    3  A    between atoms: C4_9  and  C5_10 
REMARK    4  A    between atoms: C5_10  and  N3_11 
REMARK    5  A    between atoms: C5_10  and  N4_16 
REMARK    6  A    between atoms: N3_11  and  C6_12 
ROOT
HETATM    1  C5  UNL     1      -4.876   5.742  12.969  1.00  0.00     0.166 C 
ENDROOT
BRANCH   1   2
HETATM    2  C4  UNL     1      -5.524   5.317  14.233  1.00  0.00     0.216 C 
BRANCH   2   3
HETATM    3  N2  UNL     1      -5.536   3.881  14.424  1.00  0.00    -0.335 N 
HETATM    4  C3  UNL     1      -6.211   3.333  15.529  1.00  0.00     0.316 C 
HETATM    5  N1  UNL     1      -6.236   1.942  15.735  1.00  0.00    -0.343 N 
HETATM    6  O1  UNL     1      -6.797   4.082  16.339  1.00  0.00    -0.247 OA
ATOM      7  H1  UNL     1      -5.755   1.339  15.067  1.00  0.00     0.164 HD
ATOM      8  H2  UNL     1      -5.059   3.271  13.761  1.00  0.00     0.164 HD
BRANCH   5   9
HETATM    9  C2  UNL     1      -6.918   1.330  16.856  1.00  0.00     0.120 C 
HETATM   10  C1  UNL     1      -5.912   0.389  17.521  1.00  0.00     0.026 C 
ENDBRANCH   5   9
ENDBRANCH   2   3
ENDBRANCH   1   2
BRANCH   1  11
HETATM   11  N3  UNL     1      -5.364   6.476  12.177  1.00  0.00    -0.423 NA
BRANCH  11  12
HETATM   12  C6  UNL     1      -5.913   7.302  11.288  1.00  0.00     0.084 C 
HETATM   13  C7  UNL     1      -7.298   7.854  11.550  1.00  0.00     0.053 C 
HETATM   14  C8  UNL     1      -4.946   8.456  10.954  1.00  0.00     0.053 C 
HETATM   15  C9  UNL     1      -6.058   6.569   9.933  1.00  0.00     0.053 C 
ENDBRANCH  11  12
ENDBRANCH   1  11
BRANCH   1  16
HETATM   16  N4  UNL     1      -3.553   5.198  12.729  1.00  0.00    -0.347 N 
HETATM   17  C10 UNL     1      -3.354   4.069  11.833  1.00  0.00     0.156 C 
HETATM   18  C11 UNL     1      -2.096   4.158  11.049  1.00  0.00     0.291 C 
HETATM   19  N5  UNL     1      -1.675   5.552  10.988  1.00  0.00     0.088 N 
HETATM   20  C12 UNL     1      -0.549   5.621  10.104  1.00  0.00     0.310 C 
HETATM   21  C13 UNL     1      -1.263   5.950  12.319  1.00  0.00     0.302 C 
HETATM   22  C14 UNL     1      -2.369   5.708  13.334  1.00  0.00     0.054 C 
HETATM   23  C15 UNL     1      -2.551   6.971  14.113  1.00  0.00     0.040 C 
HETATM   24  C16 UNL     1      -1.856   4.639  14.305  1.00  0.00     0.040 C 
ENDBRANCH   1  16
TORSDOF 6
ENDMDL
MODEL 2
REMARK VINA RESULT: -6.018784715      2.651      4.056
REMARK  6 active torsions:
REMARK  status: ('A' for Active; 'I' for Inactive)
REMARK    1  A    between atoms: C2_2  and  N1_3 
REMARK       I    between atoms: N1_3  and  C3_5 
REMARK       I    between atoms: C3_5  and  N2_7 
REMARK    2  A    between atoms: N2_7  and  C4_9 
REMARK    3  A    between atoms: C4_9  and  C5_10 
REMARK    4  A    between atoms: C5_10  and  N3_11 
REMARK    5  A    between atoms: C5_10  and  N4_16 
REMARK    6  A    between atoms: N3_11  and  C6_12 
ROOT
HETATM    1  C5  UNL     1      -4.641   5.208  11.650  1.00  0.00     0.166 C 
ENDROOT
BRANCH   1   2
HETATM    2  C4  UNL     1      -4.057   4.113  10.837  1.00  0.00     0.216 C 
BRANCH   2   3
HETATM    3  N2  UNL     1      -4.726   2.840  11.013  1.00  0.00    -0.335 N 
HETATM    4  C3  UNL     1      -4.028   1.762  11.585  1.00  0.00     0.316 C 
HETATM    5  N1  UNL     1      -4.657   0.517  11.766  1.00  0.00    -0.343 N 
HETATM    6  O1  UNL     1      -2.838   1.905  11.940  1.00  0.00    -0.247 OA
ATOM      7  H1  UNL     1      -5.628   0.412  11.474  1.00  0.00     0.164 HD
ATOM      8  H2  UNL     1      -5.697   2.727  10.725  1.00  0.00     0.164 HD
BRANCH   5   9
HETATM    9  C2  UNL     1      -3.980  -0.622  12.351  1.00  0.00     0.120 C 
HETATM   10  C1  UNL     1      -4.116  -1.772  11.353  1.00  0.00     0.026 C 
ENDBRANCH   5   9
ENDBRANCH   2   3
ENDBRANCH   1   2
BRANCH   1  11
HETATM   11  N3  UNL     1      -5.153   6.179  11.201  1.00  0.00    -0.423 NA
BRANCH  11  12
HETATM   12  C6  UNL     1      -5.729   7.268  10.696  1.00  0.00     0.084 C 
HETATM   13  C7  UNL     1      -4.939   8.557  10.630  1.00  0.00     0.053 C 
HETATM   14  C8  UNL     1      -6.344   6.962   9.316  1.00  0.00     0.053 C 
HETATM   15  C9  UNL     1      -6.964   7.634  11.553  1.00  0.00     0.053 C 
ENDBRANCH  11  12
ENDBRANCH   1  11
BRANCH   1  16
HETATM   16  N4  UNL     1      -4.557   5.035  13.087  1.00  0.00    -0.347 N 
HETATM   17  C10 UNL     1      -5.747   4.787  13.886  1.00  0.00     0.156 C 
HETATM   18  C11 UNL     1      -5.510   3.850  15.014  1.00  0.00     0.291 C 
HETATM   19  N5  UNL     1      -4.336   3.040  14.718  1.00  0.00     0.088 N 
HETATM   20  C12 UNL     1      -4.225   2.052  15.750  1.00  0.00     0.310 C 
HETATM   21  C13 UNL     1      -3.176   3.908  14.761  1.00  0.00     0.302 C 
HETATM   22  C14 UNL     1      -3.336   5.091  13.818  1.00  0.00     0.054 C 
HETATM   23  C15 UNL     1      -2.100   5.169  12.980  1.00  0.00     0.040 C 
HETATM   24  C16 UNL     1      -3.382   6.351  14.688  1.00  0.00     0.040 C 
ENDBRANCH   1  16
TORSDOF 6
ENDMDL
MODEL 3
REMARK VINA RESULT: -5.976280836      2.610      3.424
REMARK  6 active torsions:
REMARK  status: ('A' for Active; 'I' for Inactive)
REMARK    1  A    between atoms: C2_2  and  N1_3 
REMARK       I    between atoms: N1_3  and  C3_5 
REMARK       I    between atoms: C3_5  and  N2_7 
REMARK    2  A    between atoms: N2_7  and  C4_9 
REMARK    3  A    between atoms: C4_9  and  C5_10 
REMARK    4  A    between atoms: C5_10  and  N3_11 
REMARK    5  A    between atoms: C5_10  and  N4_16 
REMARK    6  A    between atoms: N3_11  and  C6_12 
ROOT
HETATM    1  C5  UNL     1      -4.367   5.521  11.275  1.00  0.00     0.166 C 
ENDROOT
BRANCH   1   2
HETATM    2  C4  UNL     1      -4.302   4.264  10.491  1.00  0.00     0.216 C 
BRANCH   2   3
HETATM    3  N2  UNL     1      -3.580   3.200  11.159  1.00  0.00    -0.335 N 
HETATM    4  C3  UNL     1      -4.273   2.057  11.594  1.00  0.00     0.316 C 
HETATM    5  N1  UNL     1      -3.594   1.013  12.246  1.00  0.00    -0.343 N 
HETATM    6  O1  UNL     1      -5.505   1.962  11.403  1.00  0.00    -0.247 OA
ATOM      7  H1  UNL     1      -2.589   1.101  12.397  1.00  0.00     0.164 HD
ATOM      8  H2  UNL     1      -2.576   3.280  11.313  1.00  0.00     0.164 HD
BRANCH   5   9
HETATM    9  C2  UNL     1      -4.264  -0.184  12.712  1.00  0.00     0.120 C 
HETATM   10  C1  UNL     1      -4.083  -1.241  11.622  1.00  0.00     0.026 C 
ENDBRANCH   5   9
ENDBRANCH   2   3
ENDBRANCH   1   2
BRANCH   1  11
HETATM   11  N3  UNL     1      -5.152   6.390  11.088  1.00  0.00    -0.423 NA
BRANCH  11  12
HETATM   12  C6  UNL     1      -6.034   7.365  10.878  1.00  0.00     0.084 C 
HETATM   13  C7  UNL     1      -7.215   7.508  11.815  1.00  0.00     0.053 C 
HETATM   14  C8  UNL     1      -5.315   8.721  10.734  1.00  0.00     0.053 C 
HETATM   15  C9  UNL     1      -6.686   7.169   9.488  1.00  0.00     0.053 C 
ENDBRANCH  11  12
ENDBRANCH   1  11
BRANCH   1  16
HETATM   16  N4  UNL     1      -3.383   5.652  12.333  1.00  0.00    -0.347 N 
HETATM   17  C10 UNL     1      -1.993   5.958  12.034  1.00  0.00     0.156 C 
HETATM   18  C11 UNL     1      -1.359   6.847  13.041  1.00  0.00     0.291 C 
HETATM   19  N5  UNL     1      -2.402   7.584  13.743  1.00  0.00     0.088 N 
HETATM   20  C12 UNL     1      -1.754   8.536  14.596  1.00  0.00     0.310 C 
HETATM   21  C13 UNL     1      -3.142   6.639  14.556  1.00  0.00     0.302 C 
HETATM   22  C14 UNL     1      -3.687   5.495  13.715  1.00  0.00     0.054 C 
HETATM   23  C15 UNL     1      -5.141   5.355  14.031  1.00  0.00     0.040 C 
HETATM   24  C16 UNL     1      -2.988   4.218  14.194  1.00  0.00     0.040 C 
ENDBRANCH   1  16
TORSDOF 6
ENDMDL
MODEL 4
REMARK VINA RESULT: -5.814060826      1.425      1.556
REMARK  6 active torsions:
REMARK  status: ('A' for Active; 'I' for Inactive)
REMARK    1  A    between atoms: C2_2  and  N1_3 
REMARK       I    between atoms: N1_3  and  C3_5 
REMARK       I    between atoms: C3_5  and  N2_7 
REMARK    2  A    between atoms: N2_7  and  C4_9 
REMARK    3  A    between atoms: C4_9  and  C5_10 
REMARK    4  A    between atoms: C5_10  and  N3_11 
REMARK    5  A    between atoms: C5_10  and  N4_16 
REMARK    6  A    between atoms: N3_11  and  C6_12 
ROOT
HETATM    1  C5  UNL     1      -4.634   5.904  12.509  1.00  0.00     0.166 C 
ENDROOT
BRANCH   1   2
HETATM    2  C4  UNL     1      -4.713   5.678  13.973  1.00  0.00     0.216 C 
BRANCH   2   3
HETATM    3  N2  UNL     1      -5.476   4.503  14.338  1.00  0.00    -0.335 N 
HETATM    4  C3  UNL     1      -4.811   3.370  14.838  1.00  0.00     0.316 C 
HETATM    5  N1  UNL     1      -5.531   2.217  15.199  1.00  0.00    -0.343 N 
HETATM    6  O1  UNL     1      -3.568   3.380  14.966  1.00  0.00    -0.247 OA
ATOM      7  H1  UNL     1      -6.545   2.220  15.091  1.00  0.00     0.164 HD
ATOM      8  H2  UNL     1      -6.490   4.497  14.234  1.00  0.00     0.164 HD
BRANCH   5   9
HETATM    9  C2  UNL     1      -4.891   1.027  15.718  1.00  0.00     0.120 C 
HETATM   10  C1  UNL     1      -5.688   0.602  16.952  1.00  0.00     0.026 C 
ENDBRANCH   5   9
ENDBRANCH   2   3
ENDBRANCH   1   2
BRANCH   1  11
HETATM   11  N3  UNL     1      -5.357   6.619  11.899  1.00  0.00    -0.423 NA
BRANCH  11  12
HETATM   12  C6  UNL     1      -6.168   7.422  11.213  1.00  0.00     0.084 C 
HETATM   13  C7  UNL     1      -7.543   7.731  11.768  1.00  0.00     0.053 C 
HETATM   14  C8  UNL     1      -5.446   8.734  10.848  1.00  0.00     0.053 C 
HETATM   15  C9  UNL     1      -6.460   6.790   9.832  1.00  0.00     0.053 C 
ENDBRANCH  11  12
ENDBRANCH   1  11
BRANCH   1  16
HETATM   16  N4  UNL     1      -3.585   5.179  11.819  1.00  0.00    -0.347 N 
HETATM   17  C10 UNL     1      -3.855   3.911  11.157  1.00  0.00     0.156 C 
HETATM   18  C11 UNL     1      -3.088   3.732   9.898  1.00  0.00     0.291 C 
HETATM   19  N5  UNL     1      -2.692   5.041   9.396  1.00  0.00     0.088 N 
HETATM   20  C12 UNL     1      -2.089   4.842   8.111  1.00  0.00     0.310 C 
HETATM   21  C13 UNL     1      -1.707   5.587  10.307  1.00  0.00     0.302 C 
HETATM   22  C14 UNL     1      -2.238   5.633  11.732  1.00  0.00     0.054 C 
HETATM   23  C15 UNL     1      -2.001   7.013  12.257  1.00  0.00     0.040 C 
HETATM   24  C16 UNL     1      -1.378   4.672  12.560  1.00  0.00     0.040 C 
ENDBRANCH   1  16
TORSDOF 6
ENDMDL
MODEL 5
REMARK VINA RESULT: -5.698720503      2.540      4.017
REMARK  6 active torsions:
REMARK  status: ('A' for Active; 'I' for Inactive)
REMARK    1  A    between atoms: C2_2  and  N1_3 
REMARK       I    between atoms: N1_3  and  C3_5 
REMARK       I    between atoms: C3_5  and  N2_7 
REMARK    2  A    between atoms: N2_7  and  C4_9 
REMARK    3  A    between atoms: C4_9  and  C5_10 
REMARK    4  A    between atoms: C5_10  and  N3_11 
REMARK    5  A    between atoms: C5_10  and  N4_16 
REMARK    6  A    between atoms: N3_11  and  C6_12 
ROOT
HETATM    1  C5  UNL     1      -4.052   5.743  11.395  1.00  0.00     0.166 C 
ENDROOT
BRANCH   1   2
HETATM    2  C4  UNL     1      -3.631   4.554  10.615  1.00  0.00     0.216 C 
BRANCH   2   3
HETATM    3  N2  UNL     1      -4.439   3.379  10.867  1.00  0.00    -0.335 N 
HETATM    4  C3  UNL     1      -3.860   2.258  11.486  1.00  0.00     0.316 C 
HETATM    5  N1  UNL     1      -4.625   1.105  11.740  1.00  0.00    -0.343 N 
HETATM    6  O1  UNL     1      -2.655   2.278  11.817  1.00  0.00    -0.247 OA
ATOM      7  H1  UNL     1      -5.608   1.099  11.467  1.00  0.00     0.164 HD
ATOM      8  H2  UNL     1      -5.422   3.365  10.597  1.00  0.00     0.164 HD
BRANCH   5   9
HETATM    9  C2  UNL     1      -4.074  -0.073  12.376  1.00  0.00     0.120 C 
HETATM   10  C1  UNL     1      -4.292  -1.236  11.407  1.00  0.00     0.026 C 
ENDBRANCH   5   9
ENDBRANCH   2   3
ENDBRANCH   1   2
BRANCH   1  11
HETATM   11  N3  UNL     1      -4.325   6.795  10.922  1.00  0.00    -0.423 NA
BRANCH  11  12
HETATM   12  C6  UNL     1      -4.634   7.977  10.391  1.00  0.00     0.084 C 
HETATM   13  C7  UNL     1      -4.589   8.145   8.887  1.00  0.00     0.053 C 
HETATM   14  C8  UNL     1      -5.990   8.474  10.932  1.00  0.00     0.053 C 
HETATM   15  C9  UNL     1      -3.642   9.044  10.913  1.00  0.00     0.053 C 
ENDBRANCH  11  12
ENDBRANCH   1  11
BRANCH   1  16
HETATM   16  N4  UNL     1      -4.121   5.557  12.832  1.00  0.00    -0.347 N 
HETATM   17  C10 UNL     1      -5.400   5.433  13.514  1.00  0.00     0.156 C 
HETATM   18  C11 UNL     1      -5.368   4.473  14.647  1.00  0.00     0.291 C 
HETATM   19  N5  UNL     1      -4.261   3.546  14.450  1.00  0.00     0.088 N 
HETATM   20  C12 UNL     1      -4.351   2.548  15.475  1.00  0.00     0.310 C 
HETATM   21  C13 UNL     1      -3.027   4.288  14.612  1.00  0.00     0.302 C 
HETATM   22  C14 UNL     1      -2.975   5.483  13.673  1.00  0.00     0.054 C 
HETATM   23  C15 UNL     1      -1.665   5.435  12.954  1.00  0.00     0.040 C 
HETATM   24  C16 UNL     1      -2.971   6.739  14.551  1.00  0.00     0.040 C 
ENDBRANCH   1  16
TORSDOF 6
ENDMDL
