MODEL 1
REMARK VINA RESULT: -5.836154009      0.000      0.000
REMARK  5 active torsions:
REMARK  status: ('A' for Active; 'I' for Inactive)
REMARK    1  A    between atoms: N1_2  and  C2_4 
REMARK    2  A    between atoms: C2_4  and  N2_6 
REMARK    3  A    between atoms: N3_9  and  C5_10 
REMARK    4  A    between atoms: C5_10  and  C6_11 
REMARK    5  A    between atoms: C6_11  and  N4_13 
ROOT
HETATM    1  C5  UNL     1      -3.020   5.568  11.482  1.00  0.00     0.307 C 
ENDROOT
BRANCH   1   2
HETATM    2  N3  UNL     1      -3.983   4.683  12.032  1.00  0.00     0.093 N 
HETATM    3  C4  UNL     1      -3.999   4.997  13.474  1.00  0.00     0.292 C 
HETATM    4  C3  UNL     1      -3.525   3.878  14.336  1.00  0.00     0.155 C 
HETATM    5  N2  UNL     1      -4.377   2.701  14.072  1.00  0.00    -0.355 N 
HETATM    6  C16 UNL     1      -4.413   2.320  12.701  1.00  0.00     0.155 C 
HETATM    7  C15 UNL     1      -3.673   3.319  11.808  1.00  0.00     0.292 C 
BRANCH   5   8
HETATM    8  C2  UNL     1      -5.049   2.076  15.128  1.00  0.00     0.169 C 
HETATM    9  S1  UNL     1      -4.506   0.557  15.604  1.00  0.00    -0.041 SA
BRANCH   8  10
HETATM   10  N1  UNL     1      -6.139   2.599  15.824  1.00  0.00    -0.371 N 
HETATM   11  C1  UNL     1      -6.862   2.040  16.919  1.00  0.00     0.148 C 
ATOM     12  H1  UNL     1      -6.466   3.511  15.505  1.00  0.00     0.161 HD
ENDBRANCH   8  10
ENDBRANCH   5   8
ENDBRANCH   1   2
BRANCH   1  13
HETATM   13  C6  UNL     1      -3.426   6.779  10.738  1.00  0.00     0.247 C 
HETATM   14  C7  UNL     1      -3.674   8.003  11.548  1.00  0.00     0.045 C 
BRANCH  13  15
HETATM   15  N4  UNL     1      -4.675   6.434  10.059  1.00  0.00     0.095 N 
HETATM   16  C8  UNL     1      -5.830   7.125  10.571  1.00  0.00     0.278 C 
HETATM   17  C9  UNL     1      -6.774   7.056   9.411  1.00  0.00     0.023 C 
HETATM   18  C10 UNL     1      -7.855   8.061   9.344  1.00  0.00     0.026 C 
HETATM   19  C13 UNL     1      -5.853   7.383   8.253  1.00  0.00     0.037 C 
HETATM   20  C11 UNL     1      -8.583   7.825   8.017  1.00  0.00     0.114 C 
HETATM   21  N5  UNL     1      -7.749   7.665   6.889  1.00  0.00    -0.421 N 
HETATM   22  C12 UNL     1      -6.581   6.828   7.060  1.00  0.00     0.120 C 
ATOM     23  H5  UNL     1      -7.959   8.117   5.999  1.00  0.00     0.153 HD
HETATM   24  C14 UNL     1      -4.592   6.728   8.640  1.00  0.00     0.279 C 
ENDBRANCH  13  15
ENDBRANCH   1  13
TORSDOF 5
ENDMDL
MODEL 2
REMARK VINA RESULT: -5.726016022      2.195      3.144
REMARK  5 active torsions:
REMARK  status: ('A' for Active; 'I' for Inactive)
REMARK    1  A    between atoms: N1_2  and  C2_4 
REMARK    2  A    between atoms: C2_4  and  N2_6 
REMARK    3  A    between atoms: N3_9  and  C5_10 
REMARK    4  A    between atoms: C5_10  and  C6_11 
REMARK    5  A    between atoms: C6_11  and  N4_13 
ROOT
HETATM    1  C5  UNL     1      -4.965   7.549  10.950  1.00  0.00     0.307 C 
ENDROOT
BRANCH   1   2
HETATM    2  N3  UNL     1      -5.163   6.151  11.086  1.00  0.00     0.093 N 
HETATM    3  C4  UNL     1      -5.043   5.896  12.535  1.00  0.00     0.292 C 
HETATM    4  C3  UNL     1      -3.876   5.045  12.899  1.00  0.00     0.155 C 
HETATM    5  N2  UNL     1      -3.996   3.764  12.175  1.00  0.00    -0.355 N 
HETATM    6  C16 UNL     1      -4.107   3.915  10.764  1.00  0.00     0.155 C 
HETATM    7  C15 UNL     1      -4.225   5.384  10.352  1.00  0.00     0.292 C 
BRANCH   5   8
HETATM    8  C2  UNL     1      -3.989   2.559  12.885  1.00  0.00     0.169 C 
HETATM    9  S1  UNL     1      -4.624   2.571  14.443  1.00  0.00    -0.041 SA
BRANCH   8  10
HETATM   10  N1  UNL     1      -3.498   1.340  12.418  1.00  0.00    -0.371 N 
HETATM   11  C1  UNL     1      -4.212   0.164  12.042  1.00  0.00     0.148 C 
ATOM     12  H1  UNL     1      -2.483   1.280  12.334  1.00  0.00     0.161 HD
ENDBRANCH   8  10
ENDBRANCH   5   8
ENDBRANCH   1   2
BRANCH   1  13
HETATM   13  C6  UNL     1      -6.109   8.483  10.880  1.00  0.00     0.247 C 
HETATM   14  C7  UNL     1      -7.343   8.076  11.608  1.00  0.00     0.045 C 
BRANCH  13  15
HETATM   15  N4  UNL     1      -6.447   8.602   9.462  1.00  0.00     0.095 N 
HETATM   16  C8  UNL     1      -7.720   8.027   9.113  1.00  0.00     0.278 C 
HETATM   17  C9  UNL     1      -8.057   8.759   7.851  1.00  0.00     0.023 C 
HETATM   18  C10 UNL     1      -9.479   8.828   7.457  1.00  0.00     0.026 C 
HETATM   19  C13 UNL     1      -7.675  10.179   8.216  1.00  0.00     0.037 C 
HETATM   20  C11 UNL     1      -9.538   9.719   6.210  1.00  0.00     0.114 C 
HETATM   21  N5  UNL     1      -8.809  10.924   6.294  1.00  0.00    -0.421 N 
HETATM   22  C12 UNL     1      -7.488  10.843   6.880  1.00  0.00     0.120 C 
ATOM     23  H5  UNL     1      -9.193  11.807   5.958  1.00  0.00     0.153 HD
HETATM   24  C14 UNL     1      -6.476   9.994   9.051  1.00  0.00     0.279 C 
ENDBRANCH  13  15
ENDBRANCH   1  13
TORSDOF 5
ENDMDL
MODEL 3
REMARK VINA RESULT: -5.685981749      4.321      7.845
REMARK  5 active torsions:
REMARK  status: ('A' for Active; 'I' for Inactive)
REMARK    1  A    between atoms: N1_2  and  C2_4 
REMARK    2  A    between atoms: C2_4  and  N2_6 
REMARK    3  A    between atoms: N3_9  and  C5_10 
REMARK    4  A    between atoms: C5_10  and  C6_11 
REMARK    5  A    between atoms: C6_11  and  N4_13 
ROOT
HETATM    1  C5  UNL     1      -2.984   3.850  12.815  1.00  0.00     0.307 C 
ENDROOT
BRANCH   1   2
HETATM    2  N3  UNL     1      -2.446   3.589  11.529  1.00  0.00     0.093 N 
HETATM    3  C4  UNL     1      -1.004   3.873  11.662  1.00  0.00     0.292 C 
HETATM    4  C3  UNL     1      -0.541   5.025  10.837  1.00  0.00     0.155 C 
HETATM    5  N2  UNL     1      -0.865   4.740   9.426  1.00  0.00    -0.355 N 
HETATM    6  C16 UNL     1      -2.244   4.462   9.202  1.00  0.00     0.155 C 
HETATM    7  C15 UNL     1      -3.032   4.381  10.511  1.00  0.00     0.292 C 
BRANCH   5   8
HETATM    8  C2  UNL     1       0.147   4.763   8.460  1.00  0.00     0.169 C 
HETATM    9  S1  UNL     1      -0.318   4.683   6.845  1.00  0.00    -0.041 SA
BRANCH   8  10
HETATM   10  N1  UNL     1       1.516   4.844   8.714  1.00  0.00    -0.371 N 
HETATM   11  C1  UNL     1       2.448   3.797   8.977  1.00  0.00     0.148 C 
ATOM     12  H1  UNL     1       1.906   5.786   8.713  1.00  0.00     0.161 HD
ENDBRANCH   8  10
ENDBRANCH   5   8
ENDBRANCH   1   2
BRANCH   1  13
HETATM   13  C6  UNL     1      -4.341   4.413  12.980  1.00  0.00     0.247 C 
HETATM   14  C7  UNL     1      -4.451   5.643  13.812  1.00  0.00     0.045 C 
BRANCH  13  15
HETATM   15  N4  UNL     1      -5.135   3.367  13.624  1.00  0.00     0.095 N 
HETATM   16  C8  UNL     1      -4.358   2.255  14.109  1.00  0.00     0.278 C 
HETATM   17  C9  UNL     1      -5.257   1.682  15.160  1.00  0.00     0.023 C 
HETATM   18  C10 UNL     1      -4.636   0.861  16.219  1.00  0.00     0.026 C 
HETATM   19  C13 UNL     1      -5.740   2.936  15.860  1.00  0.00     0.037 C 
HETATM   20  C11 UNL     1      -5.757   0.508  17.204  1.00  0.00     0.114 C 
HETATM   21  N5  UNL     1      -6.582   1.585  17.592  1.00  0.00    -0.421 N 
HETATM   22  C12 UNL     1      -7.003   2.490  16.543  1.00  0.00     0.120 C 
ATOM     23  H5  UNL     1      -6.867   1.719  18.562  1.00  0.00     0.153 HD
HETATM   24  C14 UNL     1      -5.875   3.900  14.754  1.00  0.00     0.279 C 
ENDBRANCH  13  15
ENDBRANCH   1  13
TORSDOF 5
ENDMDL
MODEL 4
REMARK VINA RESULT: -5.684364223      4.117      7.623
REMARK  5 active torsions:
REMARK  status: ('A' for Active; 'I' for Inactive)
REMARK    1  A    between atoms: N1_2  and  C2_4 
REMARK    2  A    between atoms: C2_4  and  N2_6 
REMARK    3  A    between atoms: N3_9  and  C5_10 
REMARK    4  A    between atoms: C5_10  and  C6_11 
REMARK    5  A    between atoms: C6_11  and  N4_13 
ROOT
HETATM    1  C5  UNL     1      -3.552   5.390  13.091  1.00  0.00     0.307 C 
ENDROOT
BRANCH   1   2
HETATM    2  N3  UNL     1      -2.597   4.681  12.318  1.00  0.00     0.093 N 
HETATM    3  C4  UNL     1      -1.300   4.988  12.951  1.00  0.00     0.292 C 
HETATM    4  C3  UNL     1      -0.375   5.762  12.077  1.00  0.00     0.155 C 
HETATM    5  N2  UNL     1      -0.155   4.989  10.839  1.00  0.00    -0.355 N 
HETATM    6  C16 UNL     1      -1.358   4.655  10.154  1.00  0.00     0.155 C 
HETATM    7  C15 UNL     1      -2.602   5.055  10.951  1.00  0.00     0.292 C 
BRANCH   5   8
HETATM    8  C2  UNL     1       1.146   4.659  10.445  1.00  0.00     0.169 C 
HETATM    9  S1  UNL     1       1.483   4.661   8.797  1.00  0.00    -0.041 SA
BRANCH   8  10
HETATM   10  N1  UNL     1       2.196   4.322  11.299  1.00  0.00    -0.371 N 
HETATM   11  C1  UNL     1       3.341   5.087  11.668  1.00  0.00     0.148 C 
ATOM     12  H1  UNL     1       2.136   3.394  11.721  1.00  0.00     0.161 HD
ENDBRANCH   8  10
ENDBRANCH   5   8
ENDBRANCH   1   2
BRANCH   1  13
HETATM   13  C6  UNL     1      -4.908   4.850  13.321  1.00  0.00     0.247 C 
HETATM   14  C7  UNL     1      -6.010   5.847  13.424  1.00  0.00     0.045 C 
BRANCH  13  15
HETATM   15  N4  UNL     1      -4.844   4.125  14.591  1.00  0.00     0.095 N 
HETATM   16  C8  UNL     1      -6.125   3.928  15.219  1.00  0.00     0.278 C 
HETATM   17  C9  UNL     1      -5.861   2.746  16.099  1.00  0.00     0.023 C 
HETATM   18  C10 UNL     1      -7.020   1.932  16.519  1.00  0.00     0.026 C 
HETATM   19  C13 UNL     1      -5.061   1.854  15.172  1.00  0.00     0.037 C 
HETATM   20  C11 UNL     1      -6.451   0.745  17.304  1.00  0.00     0.114 C 
HETATM   21  N5  UNL     1      -5.358   0.088  16.699  1.00  0.00    -0.421 N 
HETATM   22  C12 UNL     1      -4.337   0.932  16.115  1.00  0.00     0.120 C 
ATOM     23  H5  UNL     1      -5.290  -0.929  16.675  1.00  0.00     0.153 HD
HETATM   24  C14 UNL     1      -4.247   2.815  14.409  1.00  0.00     0.279 C 
ENDBRANCH  13  15
ENDBRANCH   1  13
TORSDOF 5
ENDMDL
MODEL 5
REMARK VINA RESULT: -5.637654844      3.979      7.873
REMARK  5 active torsions:
REMARK  status: ('A' for Active; 'I' for Inactive)
REMARK    1  A    between atoms: N1_2  and  C2_4 
REMARK    2  A    between atoms: C2_4  and  N2_6 
REMARK    3  A    between atoms: N3_9  and  C5_10 
REMARK    4  A    between atoms: C5_10  and  C6_11 
REMARK    5  A    between atoms: C6_11  and  N4_13 
ROOT
HETATM    1  C5  UNL     1      -3.134   4.287  13.047  1.00  0.00     0.307 C 
ENDROOT
BRANCH   1   2
HETATM    2  N3  UNL     1      -2.460   4.882  11.950  1.00  0.00     0.093 N 
HETATM    3  C4  UNL     1      -3.464   4.919  10.869  1.00  0.00     0.292 C 
HETATM    4  C3  UNL     1      -3.116   4.065   9.700  1.00  0.00     0.155 C 
HETATM    5  N2  UNL     1      -1.807   4.507   9.179  1.00  0.00    -0.355 N 
HETATM    6  C16 UNL     1      -0.772   4.494  10.157  1.00  0.00     0.155 C 
HETATM    7  C15 UNL     1      -1.305   4.164  11.553  1.00  0.00     0.292 C 
BRANCH   5   8
HETATM    8  C2  UNL     1      -1.681   4.883   7.838  1.00  0.00     0.169 C 
HETATM    9  S1  UNL     1      -3.095   5.184   6.979  1.00  0.00    -0.041 SA
BRANCH   8  10
HETATM   10  N1  UNL     1      -0.481   5.030   7.141  1.00  0.00    -0.371 N 
HETATM   11  C1  UNL     1       0.287   4.047   6.450  1.00  0.00     0.148 C 
ATOM     12  H1  UNL     1      -0.099   5.976   7.124  1.00  0.00     0.161 HD
ENDBRANCH   8  10
ENDBRANCH   5   8
ENDBRANCH   1   2
BRANCH   1  13
HETATM   13  C6  UNL     1      -4.486   4.728  13.449  1.00  0.00     0.247 C 
HETATM   14  C7  UNL     1      -4.557   5.746  14.533  1.00  0.00     0.045 C 
BRANCH  13  15
HETATM   15  N4  UNL     1      -5.179   3.527  13.919  1.00  0.00     0.095 N 
HETATM   16  C8  UNL     1      -4.299   2.501  14.417  1.00  0.00     0.278 C 
HETATM   17  C9  UNL     1      -5.210   1.718  15.310  1.00  0.00     0.023 C 
HETATM   18  C10 UNL     1      -4.592   0.906  16.378  1.00  0.00     0.026 C 
HETATM   19  C13 UNL     1      -5.951   2.826  16.030  1.00  0.00     0.037 C 
HETATM   20  C11 UNL     1      -5.746   0.314  17.194  1.00  0.00     0.114 C 
HETATM   21  N5  UNL     1      -6.763   1.225  17.552  1.00  0.00    -0.421 N 
HETATM   22  C12 UNL     1      -7.199   2.146  16.524  1.00  0.00     0.120 C 
ATOM     23  H5  UNL     1      -7.170   1.234  18.487  1.00  0.00     0.153 HD
HETATM   24  C14 UNL     1      -6.110   3.851  14.985  1.00  0.00     0.279 C 
ENDBRANCH  13  15
ENDBRANCH   1  13
TORSDOF 5
ENDMDL
