MODEL 1
REMARK VINA RESULT: -7.698084634      0.000      0.000
REMARK  5 active torsions:
REMARK  status: ('A' for Active; 'I' for Inactive)
REMARK    1  A    between atoms: C3_3  and  N1_4 
REMARK    2  A    between atoms: C6_9  and  N3_10 
REMARK    3  A    between atoms: N3_10  and  N4_12 
REMARK    4  A    between atoms: N4_12  and  C7_14 
REMARK    5  A    between atoms: C9_19  and  N7_20 
ROOT
HETATM    1  C1  UNL     1     -18.229 -30.735 -29.000  1.00  0.00     0.014 C 
HETATM    2  C2  UNL     1     -18.400 -29.759 -28.309  1.00  0.00    -0.096 C 
HETATM    3  C3  UNL     1     -18.632 -28.564 -27.479  1.00  0.00     0.241 C 
ENDROOT
BRANCH   3   4
HETATM    4  N1  UNL     1     -17.404 -28.065 -26.900  1.00  0.00    -0.289 N 
HETATM    5  C4  UNL     1     -16.158 -28.215 -27.381  1.00  0.00     0.143 A 
HETATM    6  C5  UNL     1     -15.292 -27.581 -26.512  1.00  0.00     0.098 A 
HETATM    7  N2  UNL     1     -13.960 -27.420 -26.505  1.00  0.00    -0.186 N 
HETATM    8  C10 UNL     1     -16.089 -27.047 -25.492  1.00  0.00     0.121 A 
HETATM    9  C6  UNL     1     -13.365 -26.746 -25.516  1.00  0.00     0.698 A 
ATOM     10  H2  UNL     1     -13.399 -27.816 -27.259  1.00  0.00     0.184 HD
HETATM   11  N6  UNL     1     -14.117 -26.218 -24.513  1.00  0.00    -0.173 N 
HETATM   12  C9  UNL     1     -15.450 -26.359 -24.491  1.00  0.00     0.145 A 
ATOM     13  H6  UNL     1     -13.656 -25.704 -23.762  1.00  0.00     0.186 HD
HETATM   14  N8  UNL     1     -17.357 -27.371 -25.779  1.00  0.00    -0.292 N 
ATOM     15  H8  UNL     1     -18.167 -27.118 -25.213  1.00  0.00     0.187 HD
BRANCH   9  16
HETATM   16  N3  UNL     1     -12.082 -26.603 -25.528  1.00  0.00    -0.135 N 
ATOM     17  H3  UNL     1     -11.694 -25.693 -25.778  1.00  0.00     0.205 HD
BRANCH  16  18
HETATM   18  N4  UNL     1     -11.213 -27.624 -25.217  1.00  0.00    -0.309 N 
ATOM     19  H4  UNL     1     -11.033 -27.823 -24.233  1.00  0.00     0.181 HD
BRANCH  18  20
HETATM   20  C7  UNL     1     -10.538 -28.436 -26.219  1.00  0.00     0.263 C 
HETATM   21  C8  UNL     1     -11.001 -28.107 -27.565  1.00  0.00     0.080 C 
HETATM   22  N5  UNL     1     -11.387 -27.836 -28.635  1.00  0.00    -0.196 NA
ENDBRANCH  18  20
ENDBRANCH  16  18
ENDBRANCH   9  16
BRANCH  12  23
HETATM   23  N7  UNL     1     -16.166 -25.862 -23.543  1.00  0.00    -0.383 N 
ATOM     24  H72 UNL     1     -16.506 -24.906 -23.649  1.00  0.00     0.157 HD
ATOM     25  H71 UNL     1     -16.395 -26.398 -22.707  1.00  0.00     0.157 HD
ENDBRANCH  12  23
ENDBRANCH   3   4
TORSDOF 5
ENDMDL
MODEL 2
REMARK VINA RESULT: -7.462226413      1.116      1.583
REMARK  5 active torsions:
REMARK  status: ('A' for Active; 'I' for Inactive)
REMARK    1  A    between atoms: C3_3  and  N1_4 
REMARK    2  A    between atoms: C6_9  and  N3_10 
REMARK    3  A    between atoms: N3_10  and  N4_12 
REMARK    4  A    between atoms: N4_12  and  C7_14 
REMARK    5  A    between atoms: C9_19  and  N7_20 
ROOT
HETATM    1  C1  UNL     1     -18.331 -30.774 -28.985  1.00  0.00     0.014 C 
HETATM    2  C2  UNL     1     -18.375 -29.780 -28.300  1.00  0.00    -0.096 C 
HETATM    3  C3  UNL     1     -18.452 -28.562 -27.474  1.00  0.00     0.241 C 
ENDROOT
BRANCH   3   4
HETATM    4  N1  UNL     1     -17.147 -28.144 -27.010  1.00  0.00    -0.289 N 
HETATM    5  C4  UNL     1     -15.973 -28.281 -27.650  1.00  0.00     0.143 A 
HETATM    6  C5  UNL     1     -14.989 -27.744 -26.844  1.00  0.00     0.098 A 
HETATM    7  N2  UNL     1     -13.662 -27.617 -26.985  1.00  0.00    -0.186 N 
HETATM    8  C10 UNL     1     -15.640 -27.282 -25.693  1.00  0.00     0.121 A 
HETATM    9  C6  UNL     1     -12.930 -27.044 -26.025  1.00  0.00     0.698 A 
ATOM     10  H2  UNL     1     -13.207 -27.960 -27.832  1.00  0.00     0.184 HD
HETATM   11  N6  UNL     1     -13.539 -26.587 -24.897  1.00  0.00    -0.173 N 
HETATM   12  C9  UNL     1     -14.863 -26.697 -24.724  1.00  0.00     0.145 A 
ATOM     13  H6  UNL     1     -12.975 -26.150 -24.168  1.00  0.00     0.186 HD
HETATM   14  N8  UNL     1     -16.943 -27.550 -25.849  1.00  0.00    -0.292 N 
ATOM     15  H8  UNL     1     -17.672 -27.328 -25.171  1.00  0.00     0.187 HD
BRANCH   9  16
HETATM   16  N3  UNL     1     -11.653 -26.931 -26.180  1.00  0.00    -0.135 N 
ATOM     17  H3  UNL     1     -11.299 -26.189 -26.785  1.00  0.00     0.205 HD
BRANCH  16  18
HETATM   18  N4  UNL     1     -10.748 -27.767 -25.567  1.00  0.00    -0.309 N 
ATOM     19  H4  UNL     1     -10.493 -27.575 -24.598  1.00  0.00     0.181 HD
BRANCH  18  20
HETATM   20  C7  UNL     1     -10.137 -28.911 -26.228  1.00  0.00     0.263 C 
HETATM   21  C8  UNL     1      -9.716 -29.919 -25.258  1.00  0.00     0.080 C 
HETATM   22  N5  UNL     1      -9.378 -30.712 -24.468  1.00  0.00    -0.196 NA
ENDBRANCH  18  20
ENDBRANCH  16  18
ENDBRANCH   9  16
BRANCH  12  23
HETATM   23  N7  UNL     1     -15.444 -26.267 -23.659  1.00  0.00    -0.383 N 
ATOM     24  H72 UNL     1     -15.425 -26.859 -22.829  1.00  0.00     0.157 HD
ATOM     25  H71 UNL     1     -15.913 -25.361 -23.633  1.00  0.00     0.157 HD
ENDBRANCH  12  23
ENDBRANCH   3   4
TORSDOF 5
ENDMDL
MODEL 3
REMARK VINA RESULT: -7.445701983      0.716      1.294
REMARK  5 active torsions:
REMARK  status: ('A' for Active; 'I' for Inactive)
REMARK    1  A    between atoms: C3_3  and  N1_4 
REMARK    2  A    between atoms: C6_9  and  N3_10 
REMARK    3  A    between atoms: N3_10  and  N4_12 
REMARK    4  A    between atoms: N4_12  and  C7_14 
REMARK    5  A    between atoms: C9_19  and  N7_20 
ROOT
HETATM    1  C1  UNL     1     -20.719 -27.785 -26.127  1.00  0.00     0.014 C 
HETATM    2  C2  UNL     1     -19.734 -28.136 -26.731  1.00  0.00    -0.096 C 
HETATM    3  C3  UNL     1     -18.546 -28.583 -27.479  1.00  0.00     0.241 C 
ENDROOT
BRANCH   3   4
HETATM    4  N1  UNL     1     -17.323 -28.071 -26.902  1.00  0.00    -0.289 N 
HETATM    5  C4  UNL     1     -16.073 -28.226 -27.372  1.00  0.00     0.143 A 
HETATM    6  C5  UNL     1     -15.214 -27.574 -26.510  1.00  0.00     0.098 A 
HETATM    7  N2  UNL     1     -13.883 -27.410 -26.496  1.00  0.00    -0.186 N 
HETATM    8  C10 UNL     1     -16.020 -27.023 -25.505  1.00  0.00     0.121 A 
HETATM    9  C6  UNL     1     -13.296 -26.715 -25.517  1.00  0.00     0.698 A 
ATOM     10  H2  UNL     1     -13.316 -27.818 -27.239  1.00  0.00     0.184 HD
HETATM   11  N6  UNL     1     -14.056 -26.171 -24.529  1.00  0.00    -0.173 N 
HETATM   12  C9  UNL     1     -15.389 -26.314 -24.513  1.00  0.00     0.145 A 
ATOM     13  H6  UNL     1     -13.602 -25.641 -23.785  1.00  0.00     0.186 HD
HETATM   14  N8  UNL     1     -17.285 -27.355 -25.794  1.00  0.00    -0.292 N 
ATOM     15  H8  UNL     1     -18.100 -27.094 -25.239  1.00  0.00     0.187 HD
BRANCH   9  16
HETATM   16  N3  UNL     1     -12.013 -26.569 -25.523  1.00  0.00    -0.135 N 
ATOM     17  H3  UNL     1     -11.627 -25.657 -25.767  1.00  0.00     0.205 HD
BRANCH  16  18
HETATM   18  N4  UNL     1     -11.144 -27.590 -25.214  1.00  0.00    -0.309 N 
ATOM     19  H4  UNL     1     -10.948 -27.778 -24.231  1.00  0.00     0.181 HD
BRANCH  18  20
HETATM   20  C7  UNL     1     -10.488 -28.417 -26.218  1.00  0.00     0.263 C 
HETATM   21  C8  UNL     1     -10.971 -28.101 -27.560  1.00  0.00     0.080 C 
HETATM   22  N5  UNL     1     -11.374 -27.841 -28.626  1.00  0.00    -0.196 NA
ENDBRANCH  18  20
ENDBRANCH  16  18
ENDBRANCH   9  16
BRANCH  12  23
HETATM   23  N7  UNL     1     -16.113 -25.801 -23.580  1.00  0.00    -0.383 N 
ATOM     24  H72 UNL     1     -16.602 -26.435 -22.949  1.00  0.00     0.157 HD
ATOM     25  H71 UNL     1     -16.201 -24.792 -23.464  1.00  0.00     0.157 HD
ENDBRANCH  12  23
ENDBRANCH   3   4
TORSDOF 5
ENDMDL
MODEL 4
REMARK VINA RESULT: -7.418265342      1.625      3.085
REMARK  5 active torsions:
REMARK  status: ('A' for Active; 'I' for Inactive)
REMARK    1  A    between atoms: C3_3  and  N1_4 
REMARK    2  A    between atoms: C6_9  and  N3_10 
REMARK    3  A    between atoms: N3_10  and  N4_12 
REMARK    4  A    between atoms: N4_12  and  C7_14 
REMARK    5  A    between atoms: C9_19  and  N7_20 
ROOT
HETATM    1  C1  UNL     1     -18.606 -31.261 -28.999  1.00  0.00     0.014 C 
HETATM    2  C2  UNL     1     -18.418 -30.145 -28.576  1.00  0.00    -0.096 C 
HETATM    3  C3  UNL     1     -18.212 -28.777 -28.069  1.00  0.00     0.241 C 
ENDROOT
BRANCH   3   4
HETATM    4  N1  UNL     1     -16.814 -28.502 -27.816  1.00  0.00    -0.289 N 
HETATM    5  C4  UNL     1     -16.290 -27.848 -26.766  1.00  0.00     0.143 A 
HETATM    6  C5  UNL     1     -14.919 -27.816 -26.930  1.00  0.00     0.098 A 
HETATM    7  N2  UNL     1     -13.923 -27.300 -26.195  1.00  0.00    -0.186 N 
HETATM    8  C10 UNL     1     -14.658 -28.486 -28.132  1.00  0.00     0.121 A 
HETATM    9  C6  UNL     1     -12.654 -27.415 -26.599  1.00  0.00     0.698 A 
ATOM     10  H2  UNL     1     -14.136 -26.817 -25.322  1.00  0.00     0.184 HD
HETATM   11  N6  UNL     1     -12.374 -28.060 -27.763  1.00  0.00    -0.173 N 
HETATM   12  C9  UNL     1     -13.346 -28.588 -28.521  1.00  0.00     0.145 A 
ATOM     13  H6  UNL     1     -11.404 -28.144 -28.066  1.00  0.00     0.186 HD
HETATM   14  N8  UNL     1     -15.841 -28.879 -28.624  1.00  0.00    -0.292 N 
ATOM     15  H8  UNL     1     -15.970 -29.394 -29.495  1.00  0.00     0.187 HD
BRANCH   9  16
HETATM   16  N3  UNL     1     -11.710 -26.911 -25.877  1.00  0.00    -0.135 N 
ATOM     17  H3  UNL     1     -11.619 -25.896 -25.832  1.00  0.00     0.205 HD
BRANCH  16  18
HETATM   18  N4  UNL     1     -10.820 -27.683 -25.166  1.00  0.00    -0.309 N 
ATOM     19  H4  UNL     1     -10.900 -27.700 -24.150  1.00  0.00     0.181 HD
BRANCH  18  20
HETATM   20  C7  UNL     1      -9.770 -28.477 -25.789  1.00  0.00     0.263 C 
HETATM   21  C8  UNL     1      -9.572 -29.739 -25.081  1.00  0.00     0.080 C 
HETATM   22  N5  UNL     1      -9.421 -30.742 -24.499  1.00  0.00    -0.196 NA
ENDBRANCH  18  20
ENDBRANCH  16  18
ENDBRANCH   9  16
BRANCH  12  23
HETATM   23  N7  UNL     1     -13.086 -29.200 -29.624  1.00  0.00    -0.383 N 
ATOM     24  H72 UNL     1     -12.233 -28.948 -30.123  1.00  0.00     0.157 HD
ATOM     25  H71 UNL     1     -13.706 -29.918 -29.998  1.00  0.00     0.157 HD
ENDBRANCH  12  23
ENDBRANCH   3   4
TORSDOF 5
ENDMDL
MODEL 5
REMARK VINA RESULT: -7.297764844      1.622      2.901
REMARK  5 active torsions:
REMARK  status: ('A' for Active; 'I' for Inactive)
REMARK    1  A    between atoms: C3_3  and  N1_4 
REMARK    2  A    between atoms: C6_9  and  N3_10 
REMARK    3  A    between atoms: N3_10  and  N4_12 
REMARK    4  A    between atoms: N4_12  and  C7_14 
REMARK    5  A    between atoms: C9_19  and  N7_20 
ROOT
HETATM    1  C1  UNL     1     -19.351 -30.709 -26.747  1.00  0.00     0.014 C 
HETATM    2  C2  UNL     1     -18.996 -29.554 -26.762  1.00  0.00    -0.096 C 
HETATM    3  C3  UNL     1     -18.587 -28.139 -26.788  1.00  0.00     0.241 C 
ENDROOT
BRANCH   3   4
HETATM    4  N1  UNL     1     -17.147 -27.996 -26.811  1.00  0.00    -0.289 N 
HETATM    5  C4  UNL     1     -16.379 -27.348 -25.918  1.00  0.00     0.143 A 
HETATM    6  C5  UNL     1     -15.066 -27.464 -26.329  1.00  0.00     0.098 A 
HETATM    7  N2  UNL     1     -13.908 -27.017 -25.822  1.00  0.00    -0.186 N 
HETATM    8  C10 UNL     1     -15.095 -28.215 -27.511  1.00  0.00     0.121 A 
HETATM    9  C6  UNL     1     -12.752 -27.280 -26.440  1.00  0.00     0.698 A 
ATOM     10  H2  UNL     1     -13.909 -26.473 -24.959  1.00  0.00     0.184 HD
HETATM   11  N6  UNL     1     -12.754 -28.007 -27.590  1.00  0.00    -0.173 N 
HETATM   12  C9  UNL     1     -13.893 -28.470 -28.123  1.00  0.00     0.145 A 
ATOM     13  H6  UNL     1     -11.868 -28.204 -28.056  1.00  0.00     0.186 HD
HETATM   14  N8  UNL     1     -16.380 -28.509 -27.754  1.00  0.00    -0.292 N 
ATOM     15  H8  UNL     1     -16.715 -29.050 -28.551  1.00  0.00     0.187 HD
BRANCH   9  16
HETATM   16  N3  UNL     1     -11.648 -26.841 -25.936  1.00  0.00    -0.135 N 
ATOM     17  H3  UNL     1     -11.406 -25.859 -26.071  1.00  0.00     0.205 HD
BRANCH  16  18
HETATM   18  N4  UNL     1     -10.781 -27.638 -25.224  1.00  0.00    -0.309 N 
ATOM     19  H4  UNL     1     -10.851 -27.639 -24.206  1.00  0.00     0.181 HD
BRANCH  18  20
HETATM   20  C7  UNL     1      -9.770 -28.481 -25.847  1.00  0.00     0.263 C 
HETATM   21  C8  UNL     1      -9.591 -29.727 -25.105  1.00  0.00     0.080 C 
HETATM   22  N5  UNL     1      -9.455 -30.716 -24.496  1.00  0.00    -0.196 NA
ENDBRANCH  18  20
ENDBRANCH  16  18
ENDBRANCH   9  16
BRANCH  12  23
HETATM   23  N7  UNL     1     -13.900 -29.158 -29.211  1.00  0.00    -0.383 N 
ATOM     24  H72 UNL     1     -13.073 -29.123 -29.806  1.00  0.00     0.157 HD
ATOM     25  H71 UNL     1     -14.703 -29.725 -29.481  1.00  0.00     0.157 HD
ENDBRANCH  12  23
ENDBRANCH   3   4
TORSDOF 5
ENDMDL
