MODEL 1
REMARK VINA RESULT: -7.371428168      0.000      0.000
REMARK  5 active torsions:
REMARK  status: ('A' for Active; 'I' for Inactive)
REMARK    1  A    between atoms: N1_1  and  C1_4 
REMARK    2  A    between atoms: C5_14  and  C6_15 
REMARK    3  A    between atoms: C6_15  and  N5_16 
REMARK       I    between atoms: N5_16  and  C7_18 
REMARK    4  A    between atoms: C7_18  and  C8_20 
REMARK    5  A    between atoms: C8_20  and  N6_21 
ROOT
HETATM    1  C1  UNL     1     -11.714 -27.473 -26.077  1.00  0.00     0.130 A 
HETATM    2  N2  UNL     1     -10.985 -27.841 -27.138  1.00  0.00    -0.337 N 
ATOM      3  H2  UNL     1      -9.967 -27.783 -27.088  1.00  0.00     0.168 HD
HETATM    4  C2  UNL     1     -11.563 -28.286 -28.274  1.00  0.00     0.183 A 
HETATM    5  N3  UNL     1     -12.894 -28.392 -28.416  1.00  0.00    -0.337 N 
ATOM      6  H3  UNL     1     -13.307 -28.732 -29.284  1.00  0.00     0.168 HD
HETATM    7  C3  UNL     1     -13.672 -28.028 -27.360  1.00  0.00     0.137 A 
HETATM    8  N4  UNL     1     -15.014 -28.129 -27.488  1.00  0.00    -0.348 N 
ATOM      9  H4  UNL     1     -15.449 -28.467 -28.347  1.00  0.00     0.167 HD
HETATM   10  C4  UNL     1     -15.751 -27.755 -26.407  1.00  0.00     0.116 A 
HETATM   11  C5  UNL     1     -15.173 -27.298 -25.245  1.00  0.00     0.043 A 
HETATM   12  N7  UNL     1     -13.827 -27.208 -25.145  1.00  0.00    -0.351 N 
ATOM     13  H7  UNL     1     -13.389 -26.871 -24.288  1.00  0.00     0.166 HD
HETATM   14  C9  UNL     1     -13.082 -27.572 -26.198  1.00  0.00     0.121 A 
ENDROOT
BRANCH  11  15
HETATM   15  C6  UNL     1     -15.981 -26.898 -24.069  1.00  0.00     0.181 C 
BRANCH  15  16
HETATM   16  N5  UNL     1     -15.289 -25.936 -23.241  1.00  0.00    -0.354 N 
HETATM   17  C7  UNL     1     -15.630 -25.859 -21.884  1.00  0.00     0.243 C 
HETATM   18  O1  UNL     1     -16.505 -26.598 -21.400  1.00  0.00    -0.272 OA
ATOM     19  H5  UNL     1     -14.570 -25.328 -23.635  1.00  0.00     0.162 HD
BRANCH  17  20
HETATM   20  C8  UNL     1     -14.938 -24.884 -21.018  1.00  0.00     0.332 C 
BRANCH  20  21
HETATM   21  N6  UNL     1     -13.954 -25.497 -20.155  1.00  0.00    -0.071 N 
ATOM     22  H63 UNL     1     -13.430 -24.790 -19.640  1.00  0.00     0.274 HD
ATOM     23  H62 UNL     1     -14.402 -25.974 -19.373  1.00  0.00     0.274 HD
ATOM     24  H61 UNL     1     -13.325 -26.126 -20.654  1.00  0.00     0.274 HD
ENDBRANCH  20  21
ENDBRANCH  17  20
ENDBRANCH  15  16
ENDBRANCH  11  15
BRANCH   1  25
HETATM   25  N1  UNL     1     -11.131 -27.052 -24.999  1.00  0.00    -0.383 N 
ATOM     26  H12 UNL     1     -10.738 -27.681 -24.299  1.00  0.00     0.157 HD
ATOM     27  H11 UNL     1     -11.045 -26.051 -24.819  1.00  0.00     0.157 HD
ENDBRANCH   1  25
TORSDOF 5
ENDMDL
MODEL 2
REMARK VINA RESULT: -7.306877528      1.339      1.510
REMARK  5 active torsions:
REMARK  status: ('A' for Active; 'I' for Inactive)
REMARK    1  A    between atoms: N1_1  and  C1_4 
REMARK    2  A    between atoms: C5_14  and  C6_15 
REMARK    3  A    between atoms: C6_15  and  N5_16 
REMARK       I    between atoms: N5_16  and  C7_18 
REMARK    4  A    between atoms: C7_18  and  C8_20 
REMARK    5  A    between atoms: C8_20  and  N6_21 
ROOT
HETATM    1  C1  UNL     1     -12.513 -27.203 -26.057  1.00  0.00     0.130 A 
HETATM    2  N2  UNL     1     -12.143 -27.904 -27.137  1.00  0.00    -0.337 N 
ATOM      3  H2  UNL     1     -11.150 -28.026 -27.335  1.00  0.00     0.168 HD
HETATM    4  C2  UNL     1     -13.053 -28.452 -27.970  1.00  0.00     0.183 A 
HETATM    5  N3  UNL     1     -14.377 -28.336 -27.776  1.00  0.00    -0.337 N 
ATOM      6  H3  UNL     1     -15.045 -28.760 -28.419  1.00  0.00     0.168 HD
HETATM    7  C3  UNL     1     -14.795 -27.631 -26.689  1.00  0.00     0.137 A 
HETATM    8  N4  UNL     1     -16.124 -27.506 -26.480  1.00  0.00    -0.348 N 
ATOM      9  H4  UNL     1     -16.810 -27.922 -27.109  1.00  0.00     0.167 HD
HETATM   10  C4  UNL     1     -16.495 -26.794 -25.381  1.00  0.00     0.116 A 
HETATM   11  C5  UNL     1     -15.578 -26.229 -24.525  1.00  0.00     0.043 A 
HETATM   12  N7  UNL     1     -14.253 -26.371 -24.760  1.00  0.00    -0.351 N 
ATOM     13  H7  UNL     1     -13.565 -25.956 -24.132  1.00  0.00     0.166 HD
HETATM   14  C9  UNL     1     -13.865 -27.069 -25.836  1.00  0.00     0.121 A 
ENDROOT
BRANCH  11  15
HETATM   15  C6  UNL     1     -15.989 -25.459 -23.327  1.00  0.00     0.181 C 
BRANCH  15  16
HETATM   16  N5  UNL     1     -15.273 -25.881 -22.144  1.00  0.00    -0.354 N 
HETATM   17  C7  UNL     1     -14.857 -24.900 -21.233  1.00  0.00     0.243 C 
HETATM   18  O1  UNL     1     -15.095 -23.697 -21.434  1.00  0.00    -0.272 OA
ATOM     19  H5  UNL     1     -15.076 -26.868 -21.976  1.00  0.00     0.162 HD
BRANCH  17  20
HETATM   20  C8  UNL     1     -14.124 -25.306 -20.018  1.00  0.00     0.332 C 
BRANCH  20  21
HETATM   21  N6  UNL     1     -13.221 -24.285 -19.538  1.00  0.00    -0.071 N 
ATOM     22  H63 UNL     1     -13.523 -23.360 -19.841  1.00  0.00     0.274 HD
ATOM     23  H62 UNL     1     -13.308 -24.166 -18.529  1.00  0.00     0.274 HD
ATOM     24  H61 UNL     1     -12.251 -24.458 -19.802  1.00  0.00     0.274 HD
ENDBRANCH  20  21
ENDBRANCH  17  20
ENDBRANCH  15  16
ENDBRANCH  11  15
BRANCH   1  25
HETATM   25  N1  UNL     1     -11.617 -26.690 -25.274  1.00  0.00    -0.383 N 
ATOM     26  H12 UNL     1     -10.620 -26.882 -25.372  1.00  0.00     0.157 HD
ATOM     27  H11 UNL     1     -11.894 -26.061 -24.520  1.00  0.00     0.157 HD
ENDBRANCH   1  25
TORSDOF 5
ENDMDL
MODEL 3
REMARK VINA RESULT: -7.098227874      3.333      6.083
REMARK  5 active torsions:
REMARK  status: ('A' for Active; 'I' for Inactive)
REMARK    1  A    between atoms: N1_1  and  C1_4 
REMARK    2  A    between atoms: C5_14  and  C6_15 
REMARK    3  A    between atoms: C6_15  and  N5_16 
REMARK       I    between atoms: N5_16  and  C7_18 
REMARK    4  A    between atoms: C7_18  and  C8_20 
REMARK    5  A    between atoms: C8_20  and  N6_21 
ROOT
HETATM    1  C1  UNL     1     -18.016 -28.544 -27.531  1.00  0.00     0.130 A 
HETATM    2  N2  UNL     1     -19.127 -28.178 -26.880  1.00  0.00    -0.337 N 
ATOM      3  H2  UNL     1     -20.034 -28.485 -27.231  1.00  0.00     0.168 HD
HETATM    4  C2  UNL     1     -19.077 -27.411 -25.770  1.00  0.00     0.183 A 
HETATM    5  N3  UNL     1     -17.921 -26.969 -25.247  1.00  0.00    -0.337 N 
ATOM      6  H3  UNL     1     -17.909 -26.392 -24.406  1.00  0.00     0.168 HD
HETATM    7  C3  UNL     1     -16.768 -27.319 -25.879  1.00  0.00     0.137 A 
HETATM    8  N4  UNL     1     -15.597 -26.882 -25.364  1.00  0.00    -0.348 N 
ATOM      9  H4  UNL     1     -15.561 -26.303 -24.524  1.00  0.00     0.167 HD
HETATM   10  C4  UNL     1     -14.471 -27.257 -26.028  1.00  0.00     0.116 A 
HETATM   11  C5  UNL     1     -14.510 -28.037 -27.162  1.00  0.00     0.043 A 
HETATM   12  N7  UNL     1     -15.696 -28.460 -27.654  1.00  0.00    -0.351 N 
ATOM     13  H7  UNL     1     -15.735 -29.038 -28.493  1.00  0.00     0.166 HD
HETATM   14  C9  UNL     1     -16.818 -28.103 -27.015  1.00  0.00     0.121 A 
ENDROOT
BRANCH  11  15
HETATM   15  C6  UNL     1     -13.278 -28.446 -27.877  1.00  0.00     0.181 C 
BRANCH  15  16
HETATM   16  N5  UNL     1     -12.285 -28.986 -26.976  1.00  0.00    -0.354 N 
HETATM   17  C7  UNL     1     -10.998 -28.430 -26.996  1.00  0.00     0.243 C 
HETATM   18  O1  UNL     1     -10.714 -27.498 -27.767  1.00  0.00    -0.272 OA
ATOM     19  H5  UNL     1     -12.515 -29.750 -26.341  1.00  0.00     0.162 HD
BRANCH  17  20
HETATM   20  C8  UNL     1      -9.966 -28.964 -26.085  1.00  0.00     0.332 C 
BRANCH  20  21
HETATM   21  N6  UNL     1      -9.693 -28.088 -24.969  1.00  0.00    -0.071 N 
ATOM     22  H63 UNL     1      -8.840 -27.551 -25.128  1.00  0.00     0.274 HD
ATOM     23  H62 UNL     1     -10.366 -27.323 -24.932  1.00  0.00     0.274 HD
ATOM     24  H61 UNL     1      -9.652 -28.581 -24.077  1.00  0.00     0.274 HD
ENDBRANCH  20  21
ENDBRANCH  17  20
ENDBRANCH  15  16
ENDBRANCH  11  15
BRANCH   1  25
HETATM   25  N1  UNL     1     -18.095 -29.283 -28.593  1.00  0.00    -0.383 N 
ATOM     26  H12 UNL     1     -17.523 -29.124 -29.422  1.00  0.00     0.157 HD
ATOM     27  H11 UNL     1     -18.748 -30.066 -28.627  1.00  0.00     0.157 HD
ENDBRANCH   1  25
TORSDOF 5
ENDMDL
MODEL 4
REMARK VINA RESULT: -7.001397359      2.800      5.528
REMARK  5 active torsions:
REMARK  status: ('A' for Active; 'I' for Inactive)
REMARK    1  A    between atoms: N1_1  and  C1_4 
REMARK    2  A    between atoms: C5_14  and  C6_15 
REMARK    3  A    between atoms: C6_15  and  N5_16 
REMARK       I    between atoms: N5_16  and  C7_18 
REMARK    4  A    between atoms: C7_18  and  C8_20 
REMARK    5  A    between atoms: C8_20  and  N6_21 
ROOT
HETATM    1  C1  UNL     1     -15.750 -26.278 -24.361  1.00  0.00     0.130 A 
HETATM    2  N2  UNL     1     -16.903 -25.969 -23.753  1.00  0.00    -0.337 N 
ATOM      3  H2  UNL     1     -16.881 -25.421 -22.893  1.00  0.00     0.168 HD
HETATM    4  C2  UNL     1     -18.093 -26.365 -24.251  1.00  0.00     0.183 A 
HETATM    5  N3  UNL     1     -18.203 -27.087 -25.378  1.00  0.00    -0.337 N 
ATOM      6  H3  UNL     1     -19.115 -27.374 -25.735  1.00  0.00     0.168 HD
HETATM    7  C3  UNL     1     -17.055 -27.422 -26.027  1.00  0.00     0.137 A 
HETATM    8  N4  UNL     1     -17.150 -28.149 -27.163  1.00  0.00    -0.348 N 
ATOM      9  H4  UNL     1     -18.050 -28.447 -27.538  1.00  0.00     0.167 HD
HETATM   10  C4  UNL     1     -15.976 -28.460 -27.777  1.00  0.00     0.116 A 
HETATM   11  C5  UNL     1     -14.756 -28.063 -27.279  1.00  0.00     0.043 A 
HETATM   12  N7  UNL     1     -14.692 -27.336 -26.140  1.00  0.00    -0.351 N 
ATOM     13  H7  UNL     1     -13.793 -27.037 -25.762  1.00  0.00     0.166 HD
HETATM   14  C9  UNL     1     -15.836 -27.018 -25.518  1.00  0.00     0.121 A 
ENDROOT
BRANCH  11  15
HETATM   15  C6  UNL     1     -13.482 -28.401 -27.956  1.00  0.00     0.181 C 
BRANCH  15  16
HETATM   16  N5  UNL     1     -12.519 -28.969 -27.039  1.00  0.00    -0.354 N 
HETATM   17  C7  UNL     1     -11.208 -28.471 -27.059  1.00  0.00     0.243 C 
HETATM   18  O1  UNL     1     -10.880 -27.564 -27.841  1.00  0.00    -0.272 OA
ATOM     19  H5  UNL     1     -12.786 -29.713 -26.395  1.00  0.00     0.162 HD
BRANCH  17  20
HETATM   20  C8  UNL     1     -10.207 -29.035 -26.132  1.00  0.00     0.332 C 
BRANCH  20  21
HETATM   21  N6  UNL     1      -9.787 -28.097 -25.117  1.00  0.00    -0.071 N 
ATOM     22  H63 UNL     1     -10.028 -28.435 -24.186  1.00  0.00     0.274 HD
ATOM     23  H62 UNL     1      -8.771 -28.083 -25.031  1.00  0.00     0.274 HD
ATOM     24  H61 UNL     1     -10.153 -27.157 -25.270  1.00  0.00     0.274 HD
ENDBRANCH  20  21
ENDBRANCH  17  20
ENDBRANCH  15  16
ENDBRANCH  11  15
BRANCH   1  25
HETATM   25  N1  UNL     1     -14.622 -25.881 -23.861  1.00  0.00    -0.383 N 
ATOM     26  H12 UNL     1     -14.527 -25.020 -23.324  1.00  0.00     0.157 HD
ATOM     27  H11 UNL     1     -13.778 -26.439 -23.993  1.00  0.00     0.157 HD
ENDBRANCH   1  25
TORSDOF 5
ENDMDL
MODEL 5
REMARK VINA RESULT: -6.928628206      2.816      5.368
REMARK  5 active torsions:
REMARK  status: ('A' for Active; 'I' for Inactive)
REMARK    1  A    between atoms: N1_1  and  C1_4 
REMARK    2  A    between atoms: C5_14  and  C6_15 
REMARK    3  A    between atoms: C6_15  and  N5_16 
REMARK       I    between atoms: N5_16  and  C7_18 
REMARK    4  A    between atoms: C7_18  and  C8_20 
REMARK    5  A    between atoms: C8_20  and  N6_21 
ROOT
HETATM    1  C1  UNL     1     -15.284 -26.767 -25.138  1.00  0.00     0.130 A 
HETATM    2  N2  UNL     1     -16.615 -26.818 -25.001  1.00  0.00    -0.337 N 
ATOM      3  H2  UNL     1     -17.049 -26.382 -24.187  1.00  0.00     0.168 HD
HETATM    4  C2  UNL     1     -17.398 -27.431 -25.914  1.00  0.00     0.183 A 
HETATM    5  N3  UNL     1     -16.901 -28.025 -27.012  1.00  0.00    -0.337 N 
ATOM      6  H3  UNL     1     -17.513 -28.481 -27.688  1.00  0.00     0.168 HD
HETATM    7  C3  UNL     1     -15.552 -27.997 -27.188  1.00  0.00     0.137 A 
HETATM    8  N4  UNL     1     -15.037 -28.590 -28.288  1.00  0.00    -0.348 N 
ATOM      9  H4  UNL     1     -15.630 -29.052 -28.978  1.00  0.00     0.167 HD
HETATM   10  C4  UNL     1     -13.685 -28.536 -28.423  1.00  0.00     0.116 A 
HETATM   11  C5  UNL     1     -12.876 -27.916 -27.498  1.00  0.00     0.043 A 
HETATM   12  N7  UNL     1     -13.420 -27.329 -26.407  1.00  0.00    -0.351 N 
ATOM     13  H7  UNL     1     -12.829 -26.867 -25.716  1.00  0.00     0.166 HD
HETATM   14  C9  UNL     1     -14.750 -27.370 -26.254  1.00  0.00     0.121 A 
ENDROOT
BRANCH  11  15
HETATM   15  C6  UNL     1     -11.404 -27.856 -27.655  1.00  0.00     0.181 C 
BRANCH  15  16
HETATM   16  N5  UNL     1     -10.766 -29.080 -27.224  1.00  0.00    -0.354 N 
HETATM   17  C7  UNL     1     -10.098 -29.083 -25.991  1.00  0.00     0.243 C 
HETATM   18  O1  UNL     1     -10.053 -28.063 -25.284  1.00  0.00    -0.272 OA
ATOM     19  H5  UNL     1     -10.802 -29.920 -27.802  1.00  0.00     0.162 HD
BRANCH  17  20
HETATM   20  C8  UNL     1      -9.439 -30.321 -25.531  1.00  0.00     0.332 C 
BRANCH  20  21
HETATM   21  N6  UNL     1      -9.495 -30.488 -24.096  1.00  0.00    -0.071 N 
ATOM     22  H63 UNL     1      -9.256 -29.619 -23.619  1.00  0.00     0.274 HD
ATOM     23  H62 UNL     1     -10.458 -30.592 -23.779  1.00  0.00     0.274 HD
ATOM     24  H61 UNL     1      -8.915 -31.259 -23.763  1.00  0.00     0.274 HD
ENDBRANCH  20  21
ENDBRANCH  17  20
ENDBRANCH  15  16
ENDBRANCH  11  15
BRANCH   1  25
HETATM   25  N1  UNL     1     -14.558 -26.170 -24.246  1.00  0.00    -0.383 N 
ATOM     26  H12 UNL     1     -14.638 -26.362 -23.247  1.00  0.00     0.157 HD
ATOM     27  H11 UNL     1     -13.867 -25.474 -24.527  1.00  0.00     0.157 HD
ENDBRANCH   1  25
TORSDOF 5
ENDMDL
