MODEL 1
REMARK VINA RESULT: -7.502937724      0.000      0.000
REMARK  4 active torsions:
REMARK  status: ('A' for Active; 'I' for Inactive)
REMARK    1  A    between atoms: C3_3  and  O1_4 
REMARK    2  A    between atoms: O1_4  and  C4_5 
REMARK    3  A    between atoms: C5_8  and  N2_9 
REMARK    4  A    between atoms: C7_15  and  C8_16 
ROOT
HETATM    1  C1  UNL     1     -18.705 -31.522 -28.803  1.00  0.00     0.014 C 
HETATM    2  C2  UNL     1     -18.331 -30.381 -28.698  1.00  0.00    -0.091 C 
HETATM    3  C3  UNL     1     -17.854 -29.002 -28.584  1.00  0.00     0.270 C 
ENDROOT
BRANCH   3   4
HETATM    4  O1  UNL     1     -16.666 -28.907 -27.826  1.00  0.00    -0.323 OA
BRANCH   4   5
HETATM    5  C4  UNL     1     -16.654 -28.081 -26.718  1.00  0.00     0.170 A 
HETATM    6  N1  UNL     1     -17.784 -27.895 -26.000  1.00  0.00    -0.170 N 
HETATM    7  C5  UNL     1     -17.820 -27.106 -24.927  1.00  0.00     0.677 A 
ATOM      8  H1  UNL     1     -18.637 -28.374 -26.290  1.00  0.00     0.186 HD
HETATM    9  N3  UNL     1     -16.708 -26.486 -24.555  1.00  0.00    -0.201 N 
HETATM   10  C6  UNL     1     -15.570 -26.628 -25.215  1.00  0.00     0.122 A 
ATOM     11  H3  UNL     1     -16.731 -25.882 -23.734  1.00  0.00     0.183 HD
HETATM   12  C7  UNL     1     -15.501 -27.447 -26.345  1.00  0.00     0.034 A 
BRANCH   7  13
HETATM   13  N2  UNL     1     -18.918 -26.944 -24.259  1.00  0.00    -0.234 N 
ATOM     14  H22 UNL     1     -19.596 -27.703 -24.186  1.00  0.00     0.174 HD
ATOM     15  H21 UNL     1     -19.122 -26.059 -23.795  1.00  0.00     0.174 HD
ENDBRANCH   7  13
BRANCH  12  16
HETATM   16  C8  UNL     1     -14.257 -27.606 -27.040  1.00  0.00     0.051 C 
HETATM   17  C9  UNL     1     -13.279 -28.391 -26.565  1.00  0.00     0.089 A 
HETATM   18  N4  UNL     1     -13.266 -29.162 -25.373  1.00  0.00    -0.281 N 
HETATM   19  C10 UNL     1     -11.987 -28.636 -27.190  1.00  0.00     0.157 A 
HETATM   20  N5  UNL     1     -12.010 -29.825 -25.313  1.00  0.00    -0.021 NA
ATOM     21  H4  UNL     1     -14.018 -29.226 -24.687  1.00  0.00     0.184 HD
HETATM   22  N6  UNL     1     -11.293 -29.457 -26.445  1.00  0.00    -0.270 N 
ATOM     23  H6  UNL     1     -10.352 -29.784 -26.665  1.00  0.00     0.185 HD
HETATM   24  N7  UNL     1     -11.584 -28.053 -28.425  1.00  0.00    -0.079 NA
ENDBRANCH  12  16
ENDBRANCH   4   5
ENDBRANCH   3   4
TORSDOF 4
ENDMDL
MODEL 2
REMARK VINA RESULT: -7.421514888      1.556      1.838
REMARK  4 active torsions:
REMARK  status: ('A' for Active; 'I' for Inactive)
REMARK    1  A    between atoms: C3_3  and  O1_4 
REMARK    2  A    between atoms: O1_4  and  C4_5 
REMARK    3  A    between atoms: C5_8  and  N2_9 
REMARK    4  A    between atoms: C7_15  and  C8_16 
ROOT
HETATM    1  C1  UNL     1     -17.918 -28.821 -28.602  1.00  0.00     0.014 C 
HETATM    2  C2  UNL     1     -17.938 -29.046 -27.417  1.00  0.00    -0.091 C 
HETATM    3  C3  UNL     1     -17.953 -29.293 -25.975  1.00  0.00     0.270 C 
ENDROOT
BRANCH   3   4
HETATM    4  O1  UNL     1     -16.662 -29.216 -25.405  1.00  0.00    -0.323 OA
BRANCH   4   5
HETATM    5  C4  UNL     1     -16.313 -28.072 -24.713  1.00  0.00     0.170 A 
HETATM    6  N1  UNL     1     -16.954 -27.754 -23.565  1.00  0.00    -0.170 N 
HETATM    7  C5  UNL     1     -16.653 -26.660 -22.866  1.00  0.00     0.677 A 
ATOM      8  H1  UNL     1     -17.691 -28.371 -23.224  1.00  0.00     0.186 HD
HETATM    9  N3  UNL     1     -15.693 -25.862 -23.313  1.00  0.00    -0.201 N 
HETATM   10  C6  UNL     1     -15.029 -26.119 -24.430  1.00  0.00     0.122 A 
ATOM     11  H3  UNL     1     -15.458 -25.025 -22.781  1.00  0.00     0.183 HD
HETATM   12  C7  UNL     1     -15.322 -27.256 -25.185  1.00  0.00     0.034 A 
BRANCH   7  13
HETATM   13  N2  UNL     1     -17.284 -26.379 -21.770  1.00  0.00    -0.234 N 
ATOM     14  H22 UNL     1     -17.717 -25.464 -21.644  1.00  0.00     0.174 HD
ATOM     15  H21 UNL     1     -17.358 -27.064 -21.019  1.00  0.00     0.174 HD
ENDBRANCH   7  13
BRANCH  12  16
HETATM   16  C8  UNL     1     -14.583 -27.532 -26.383  1.00  0.00     0.051 C 
HETATM   17  C9  UNL     1     -13.396 -28.156 -26.350  1.00  0.00     0.089 A 
HETATM   18  N4  UNL     1     -12.679 -28.631 -25.221  1.00  0.00    -0.281 N 
HETATM   19  C10 UNL     1     -12.568 -28.498 -27.497  1.00  0.00     0.157 A 
HETATM   20  N5  UNL     1     -11.479 -29.223 -25.702  1.00  0.00    -0.021 NA
ATOM     21  H4  UNL     1     -12.970 -28.559 -24.246  1.00  0.00     0.184 HD
HETATM   22  N6  UNL     1     -11.484 -29.103 -27.086  1.00  0.00    -0.270 N 
ATOM     23  H6  UNL     1     -10.742 -29.442 -27.698  1.00  0.00     0.185 HD
HETATM   24  N7  UNL     1     -12.924 -28.203 -28.845  1.00  0.00    -0.079 NA
ENDBRANCH  12  16
ENDBRANCH   4   5
ENDBRANCH   3   4
TORSDOF 4
ENDMDL
MODEL 3
REMARK VINA RESULT: -7.146753938      1.727      3.745
REMARK  4 active torsions:
REMARK  status: ('A' for Active; 'I' for Inactive)
REMARK    1  A    between atoms: C3_3  and  O1_4 
REMARK    2  A    between atoms: O1_4  and  C4_5 
REMARK    3  A    between atoms: C5_8  and  N2_9 
REMARK    4  A    between atoms: C7_15  and  C8_16 
ROOT
HETATM    1  C1  UNL     1     -15.359 -23.345 -24.084  1.00  0.00     0.014 C 
HETATM    2  C2  UNL     1     -15.611 -24.523 -24.045  1.00  0.00    -0.091 C 
HETATM    3  C3  UNL     1     -15.891 -25.959 -23.996  1.00  0.00     0.270 C 
ENDROOT
BRANCH   3   4
HETATM    4  O1  UNL     1     -15.306 -26.656 -25.076  1.00  0.00    -0.323 OA
BRANCH   4   5
HETATM    5  C4  UNL     1     -16.134 -27.327 -25.955  1.00  0.00     0.170 A 
HETATM    6  N1  UNL     1     -17.461 -27.403 -25.709  1.00  0.00    -0.170 N 
HETATM    7  C5  UNL     1     -18.298 -28.041 -26.528  1.00  0.00     0.677 A 
ATOM      8  H1  UNL     1     -17.835 -26.958 -24.871  1.00  0.00     0.186 HD
HETATM    9  N3  UNL     1     -17.807 -28.617 -27.617  1.00  0.00    -0.201 N 
HETATM   10  C6  UNL     1     -16.517 -28.577 -27.913  1.00  0.00     0.122 A 
ATOM     11  H3  UNL     1     -18.443 -29.106 -28.246  1.00  0.00     0.183 HD
HETATM   12  C7  UNL     1     -15.616 -27.918 -27.075  1.00  0.00     0.034 A 
BRANCH   7  13
HETATM   13  N2  UNL     1     -19.565 -28.101 -26.267  1.00  0.00    -0.234 N 
ATOM     14  H22 UNL     1     -19.902 -27.996 -25.310  1.00  0.00     0.174 HD
ATOM     15  H21 UNL     1     -20.245 -28.253 -27.011  1.00  0.00     0.174 HD
ENDBRANCH   7  13
BRANCH  12  16
HETATM   16  C8  UNL     1     -14.224 -27.866 -27.417  1.00  0.00     0.051 C 
HETATM   17  C9  UNL     1     -13.300 -28.536 -26.713  1.00  0.00     0.089 A 
HETATM   18  N4  UNL     1     -13.485 -29.362 -25.574  1.00  0.00    -0.281 N 
HETATM   19  C10 UNL     1     -11.868 -28.566 -26.976  1.00  0.00     0.157 A 
HETATM   20  N5  UNL     1     -12.205 -29.850 -25.195  1.00  0.00    -0.021 NA
ATOM     21  H4  UNL     1     -14.372 -29.567 -25.114  1.00  0.00     0.184 HD
HETATM   22  N6  UNL     1     -11.280 -29.325 -26.088  1.00  0.00    -0.270 N 
ATOM     23  H6  UNL     1     -10.277 -29.507 -26.056  1.00  0.00     0.185 HD
HETATM   24  N7  UNL     1     -11.247 -27.866 -28.050  1.00  0.00    -0.079 NA
ENDBRANCH  12  16
ENDBRANCH   4   5
ENDBRANCH   3   4
TORSDOF 4
ENDMDL
MODEL 4
REMARK VINA RESULT: -7.055911461      1.908      3.935
REMARK  4 active torsions:
REMARK  status: ('A' for Active; 'I' for Inactive)
REMARK    1  A    between atoms: C3_3  and  O1_4 
REMARK    2  A    between atoms: O1_4  and  C4_5 
REMARK    3  A    between atoms: C5_8  and  N2_9 
REMARK    4  A    between atoms: C7_15  and  C8_16 
ROOT
HETATM    1  C1  UNL     1     -15.110 -25.818 -20.989  1.00  0.00     0.014 C 
HETATM    2  C2  UNL     1     -15.332 -25.475 -22.123  1.00  0.00    -0.091 C 
HETATM    3  C3  UNL     1     -15.616 -25.082 -23.504  1.00  0.00     0.270 C 
ENDROOT
BRANCH   3   4
HETATM    4  O1  UNL     1     -15.081 -25.993 -24.441  1.00  0.00    -0.323 OA
BRANCH   4   5
HETATM    5  C4  UNL     1     -15.954 -26.712 -25.236  1.00  0.00     0.170 A 
HETATM    6  N1  UNL     1     -17.275 -26.727 -24.947  1.00  0.00    -0.170 N 
HETATM    7  C5  UNL     1     -18.153 -27.408 -25.683  1.00  0.00     0.677 A 
ATOM      8  H1  UNL     1     -17.610 -26.202 -24.140  1.00  0.00     0.186 HD
HETATM    9  N3  UNL     1     -17.711 -28.089 -26.732  1.00  0.00    -0.201 N 
HETATM   10  C6  UNL     1     -16.431 -28.113 -27.067  1.00  0.00     0.122 A 
ATOM     11  H3  UNL     1     -18.380 -28.610 -27.299  1.00  0.00     0.183 HD
HETATM   12  C7  UNL     1     -15.487 -27.411 -26.314  1.00  0.00     0.034 A 
BRANCH   7  13
HETATM   13  N2  UNL     1     -19.412 -27.408 -25.383  1.00  0.00    -0.234 N 
ATOM     14  H22 UNL     1     -19.714 -27.538 -24.417  1.00  0.00     0.174 HD
ATOM     15  H21 UNL     1     -20.122 -27.277 -26.104  1.00  0.00     0.174 HD
ENDBRANCH   7  13
BRANCH  12  16
HETATM   16  C8  UNL     1     -14.105 -27.430 -26.699  1.00  0.00     0.051 C 
HETATM   17  C9  UNL     1     -13.247 -28.332 -26.200  1.00  0.00     0.089 A 
HETATM   18  N4  UNL     1     -13.500 -29.366 -25.262  1.00  0.00    -0.281 N 
HETATM   19  C10 UNL     1     -11.833 -28.452 -26.527  1.00  0.00     0.157 A 
HETATM   20  N5  UNL     1     -12.274 -30.057 -25.056  1.00  0.00    -0.021 NA
ATOM     21  H4  UNL     1     -14.394 -29.575 -24.818  1.00  0.00     0.184 HD
HETATM   22  N6  UNL     1     -11.315 -29.446 -25.853  1.00  0.00    -0.270 N 
ATOM     23  H6  UNL     1     -10.338 -29.734 -25.906  1.00  0.00     0.185 HD
HETATM   24  N7  UNL     1     -11.160 -27.599 -27.448  1.00  0.00    -0.079 NA
ENDBRANCH  12  16
ENDBRANCH   4   5
ENDBRANCH   3   4
TORSDOF 4
ENDMDL
MODEL 5
REMARK VINA RESULT: -7.036202794      1.745      1.982
REMARK  4 active torsions:
REMARK  status: ('A' for Active; 'I' for Inactive)
REMARK    1  A    between atoms: C3_3  and  O1_4 
REMARK    2  A    between atoms: O1_4  and  C4_5 
REMARK    3  A    between atoms: C5_8  and  N2_9 
REMARK    4  A    between atoms: C7_15  and  C8_16 
ROOT
HETATM    1  C1  UNL     1     -14.644 -28.909 -29.371  1.00  0.00     0.014 C 
HETATM    2  C2  UNL     1     -15.444 -28.701 -28.494  1.00  0.00    -0.091 C 
HETATM    3  C3  UNL     1     -16.399 -28.428 -27.418  1.00  0.00     0.270 C 
ENDROOT
BRANCH   3   4
HETATM    4  O1  UNL     1     -15.852 -28.681 -26.140  1.00  0.00    -0.323 OA
BRANCH   4   5
HETATM    5  C4  UNL     1     -15.747 -27.631 -25.248  1.00  0.00     0.170 A 
HETATM    6  N1  UNL     1     -16.707 -27.436 -24.316  1.00  0.00    -0.170 N 
HETATM    7  C5  UNL     1     -16.649 -26.436 -23.437  1.00  0.00     0.677 A 
ATOM      8  H1  UNL     1     -17.502 -28.075 -24.285  1.00  0.00     0.186 HD
HETATM    9  N3  UNL     1     -15.613 -25.609 -23.481  1.00  0.00    -0.201 N 
HETATM   10  C6  UNL     1     -14.641 -25.747 -24.369  1.00  0.00     0.122 A 
ATOM     11  H3  UNL     1     -15.563 -24.843 -22.810  1.00  0.00     0.183 HD
HETATM   12  C7  UNL     1     -14.674 -26.784 -25.304  1.00  0.00     0.034 A 
BRANCH   7  13
HETATM   13  N2  UNL     1     -17.584 -26.271 -22.556  1.00  0.00    -0.234 N 
ATOM     14  H22 UNL     1     -17.655 -26.898 -21.754  1.00  0.00     0.174 HD
ATOM     15  H21 UNL     1     -18.261 -25.515 -22.648  1.00  0.00     0.174 HD
ENDBRANCH   7  13
BRANCH  12  16
HETATM   16  C8  UNL     1     -13.605 -26.934 -26.249  1.00  0.00     0.051 C 
HETATM   17  C9  UNL     1     -12.701 -27.918 -26.139  1.00  0.00     0.089 A 
HETATM   18  N4  UNL     1     -12.612 -28.930 -25.148  1.00  0.00    -0.281 N 
HETATM   19  C10 UNL     1     -11.587 -28.172 -27.042  1.00  0.00     0.157 A 
HETATM   20  N5  UNL     1     -11.487 -29.737 -25.469  1.00  0.00    -0.021 NA
ATOM     21  H4  UNL     1     -13.240 -29.054 -24.354  1.00  0.00     0.184 HD
HETATM   22  N6  UNL     1     -10.919 -29.215 -26.624  1.00  0.00    -0.270 N 
ATOM     23  H6  UNL     1     -10.092 -29.596 -27.085  1.00  0.00     0.185 HD
HETATM   24  N7  UNL     1     -11.308 -27.381 -28.193  1.00  0.00    -0.079 NA
ENDBRANCH  12  16
ENDBRANCH   4   5
ENDBRANCH   3   4
TORSDOF 4
ENDMDL
