MODEL 1
REMARK VINA RESULT: -7.406374993      0.000      0.000
REMARK  4 active torsions:
REMARK  status: ('A' for Active; 'I' for Inactive)
REMARK    1  A    between atoms: C3_3  and  O1_4 
REMARK    2  A    between atoms: O1_4  and  C4_5 
REMARK    3  A    between atoms: C4_5  and  N1_6 
REMARK    4  A    between atoms: C7_11  and  N3_12 
ROOT
HETATM    1  C1  UNL     1     -14.974 -25.550 -20.797  1.00  0.00     0.014 C 
HETATM    2  C2  UNL     1     -15.917 -25.906 -21.466  1.00  0.00    -0.091 C 
HETATM    3  C3  UNL     1     -17.063 -26.324 -22.273  1.00  0.00     0.262 C 
ENDROOT
BRANCH   3   4
HETATM    4  O1  UNL     1     -16.686 -27.129 -23.343  1.00  0.00    -0.360 OA
BRANCH   4   5
HETATM    5  C4  UNL     1     -16.914 -26.502 -24.570  1.00  0.00     0.302 C 
BRANCH   5   6
HETATM    6  N1  UNL     1     -15.948 -27.037 -25.509  1.00  0.00    -0.306 N 
HETATM    7  C5  UNL     1     -16.428 -27.756 -26.540  1.00  0.00     0.187 A 
HETATM    8  N2  UNL     1     -15.618 -28.285 -27.465  1.00  0.00    -0.347 N 
HETATM    9  C6  UNL     1     -14.308 -28.104 -27.374  1.00  0.00     0.109 A 
ATOM     10  H2  UNL     1     -16.007 -28.826 -28.236  1.00  0.00     0.167 HD
HETATM   11  C7  UNL     1     -13.475 -28.661 -28.345  1.00  0.00     0.144 A 
HETATM   12  C9  UNL     1     -13.744 -27.381 -26.349  1.00  0.00     0.123 A 
HETATM   13  N4  UNL     1     -12.157 -28.440 -28.196  1.00  0.00    -0.175 N 
HETATM   14  C8  UNL     1     -11.633 -27.730 -27.184  1.00  0.00     0.678 A 
ATOM     15  H4  UNL     1     -11.520 -28.833 -28.890  1.00  0.00     0.186 HD
HETATM   16  N5  UNL     1     -10.357 -27.571 -27.124  1.00  0.00    -0.234 N 
HETATM   17  N6  UNL     1     -12.438 -27.178 -26.225  1.00  0.00    -0.186 N 
ATOM     18  H52 UNL     1      -9.756 -27.983 -27.840  1.00  0.00     0.174 HD
ATOM     19  H51 UNL     1      -9.959 -27.032 -26.355  1.00  0.00     0.174 HD
ATOM     20  H6  UNL     1     -12.052 -26.635 -25.452  1.00  0.00     0.184 HD
HETATM   21  C10 UNL     1     -14.630 -26.844 -25.401  1.00  0.00     0.134 A 
HETATM   22  N7  UNL     1     -14.153 -26.171 -24.419  1.00  0.00    -0.383 N 
ATOM     23  H72 UNL     1     -14.797 -25.781 -23.730  1.00  0.00     0.157 HD
ATOM     24  H71 UNL     1     -13.147 -26.024 -24.337  1.00  0.00     0.157 HD
BRANCH  11  25
HETATM   25  N3  UNL     1     -13.934 -29.350 -29.334  1.00  0.00    -0.383 N 
ATOM     26  H32 UNL     1     -13.478 -29.340 -30.246  1.00  0.00     0.157 HD
ATOM     27  H31 UNL     1     -14.767 -29.933 -29.253  1.00  0.00     0.157 HD
ENDBRANCH  11  25
ENDBRANCH   5   6
ENDBRANCH   4   5
ENDBRANCH   3   4
TORSDOF 4
ENDMDL
MODEL 2
REMARK VINA RESULT: -7.368472350      0.757      2.440
REMARK  4 active torsions:
REMARK  status: ('A' for Active; 'I' for Inactive)
REMARK    1  A    between atoms: C3_3  and  O1_4 
REMARK    2  A    between atoms: O1_4  and  C4_5 
REMARK    3  A    between atoms: C4_5  and  N1_6 
REMARK    4  A    between atoms: C7_11  and  N3_12 
ROOT
HETATM    1  C1  UNL     1     -14.601 -25.550 -20.672  1.00  0.00     0.014 C 
HETATM    2  C2  UNL     1     -15.575 -25.895 -21.303  1.00  0.00    -0.091 C 
HETATM    3  C3  UNL     1     -16.757 -26.300 -22.063  1.00  0.00     0.262 C 
ENDROOT
BRANCH   3   4
HETATM    4  O1  UNL     1     -16.426 -27.034 -23.198  1.00  0.00    -0.360 OA
BRANCH   4   5
HETATM    5  C4  UNL     1     -16.447 -26.244 -24.350  1.00  0.00     0.302 C 
BRANCH   5   6
HETATM    6  N1  UNL     1     -15.349 -26.684 -25.189  1.00  0.00    -0.306 N 
HETATM    7  C5  UNL     1     -14.111 -26.306 -24.826  1.00  0.00     0.187 A 
HETATM    8  N2  UNL     1     -13.032 -26.667 -25.530  1.00  0.00    -0.347 N 
HETATM    9  C6  UNL     1     -13.173 -27.416 -26.613  1.00  0.00     0.109 A 
ATOM     10  H2  UNL     1     -12.103 -26.367 -25.233  1.00  0.00     0.167 HD
HETATM   11  C7  UNL     1     -12.039 -27.786 -27.338  1.00  0.00     0.144 A 
HETATM   12  C9  UNL     1     -14.407 -27.841 -27.047  1.00  0.00     0.123 A 
HETATM   13  N4  UNL     1     -12.251 -28.547 -28.427  1.00  0.00    -0.175 N 
HETATM   14  C8  UNL     1     -13.469 -28.947 -28.828  1.00  0.00     0.678 A 
ATOM     15  H4  UNL     1     -11.443 -28.836 -28.979  1.00  0.00     0.186 HD
HETATM   16  N5  UNL     1     -13.573 -29.675 -29.885  1.00  0.00    -0.234 N 
HETATM   17  N6  UNL     1     -14.589 -28.592 -28.127  1.00  0.00    -0.186 N 
ATOM     18  H52 UNL     1     -12.738 -29.940 -30.408  1.00  0.00     0.174 HD
ATOM     19  H51 UNL     1     -14.498 -29.979 -30.189  1.00  0.00     0.174 HD
ATOM     20  H6  UNL     1     -15.519 -28.891 -28.420  1.00  0.00     0.184 HD
HETATM   21  C10 UNL     1     -15.512 -27.439 -26.279  1.00  0.00     0.134 A 
HETATM   22  N7  UNL     1     -16.687 -27.800 -26.647  1.00  0.00    -0.383 N 
ATOM     23  H72 UNL     1     -17.489 -27.507 -26.090  1.00  0.00     0.157 HD
ATOM     24  H71 UNL     1     -16.810 -28.376 -27.480  1.00  0.00     0.157 HD
BRANCH  11  25
HETATM   25  N3  UNL     1     -10.851 -27.425 -26.992  1.00  0.00    -0.383 N 
ATOM     26  H32 UNL     1     -10.688 -26.863 -26.156  1.00  0.00     0.157 HD
ATOM     27  H31 UNL     1     -10.024 -27.681 -27.531  1.00  0.00     0.157 HD
ENDBRANCH  11  25
ENDBRANCH   5   6
ENDBRANCH   4   5
ENDBRANCH   3   4
TORSDOF 4
ENDMDL
MODEL 3
REMARK VINA RESULT: -7.340654655      1.724      1.964
REMARK  4 active torsions:
REMARK  status: ('A' for Active; 'I' for Inactive)
REMARK    1  A    between atoms: C3_3  and  O1_4 
REMARK    2  A    between atoms: O1_4  and  C4_5 
REMARK    3  A    between atoms: C4_5  and  N1_6 
REMARK    4  A    between atoms: C7_11  and  N3_12 
ROOT
HETATM    1  C1  UNL     1     -18.731 -22.261 -23.621  1.00  0.00     0.014 C 
HETATM    2  C2  UNL     1     -18.188 -23.331 -23.457  1.00  0.00    -0.091 C 
HETATM    3  C3  UNL     1     -17.541 -24.626 -23.251  1.00  0.00     0.262 C 
ENDROOT
BRANCH   3   4
HETATM    4  O1  UNL     1     -16.975 -25.123 -24.421  1.00  0.00    -0.360 OA
BRANCH   4   5
HETATM    5  C4  UNL     1     -17.228 -26.487 -24.582  1.00  0.00     0.302 C 
BRANCH   5   6
HETATM    6  N1  UNL     1     -16.104 -27.047 -25.306  1.00  0.00    -0.306 N 
HETATM    7  C5  UNL     1     -16.359 -27.587 -26.512  1.00  0.00     0.187 A 
HETATM    8  N2  UNL     1     -15.387 -28.122 -27.261  1.00  0.00    -0.347 N 
HETATM    9  C6  UNL     1     -14.139 -28.126 -26.816  1.00  0.00     0.109 A 
ATOM     10  H2  UNL     1     -15.606 -28.525 -28.171  1.00  0.00     0.167 HD
HETATM   11  C7  UNL     1     -13.136 -28.687 -27.607  1.00  0.00     0.144 A 
HETATM   12  C9  UNL     1     -13.802 -27.593 -25.593  1.00  0.00     0.123 A 
HETATM   13  N4  UNL     1     -11.891 -28.659 -27.098  1.00  0.00    -0.175 N 
HETATM   14  C8  UNL     1     -11.590 -28.132 -25.900  1.00  0.00     0.678 A 
ATOM     15  H4  UNL     1     -11.134 -29.060 -27.652  1.00  0.00     0.186 HD
HETATM   16  N5  UNL     1     -10.368 -28.151 -25.496  1.00  0.00    -0.234 N 
HETATM   17  N6  UNL     1     -12.564 -27.579 -25.114  1.00  0.00    -0.186 N 
ATOM     18  H52 UNL     1      -9.642 -28.563 -26.083  1.00  0.00     0.174 HD
ATOM     19  H51 UNL     1     -10.140 -27.750 -24.586  1.00  0.00     0.174 HD
ATOM     20  H6  UNL     1     -12.348 -27.174 -24.203  1.00  0.00     0.184 HD
HETATM   21  C10 UNL     1     -14.852 -27.043 -24.840  1.00  0.00     0.134 A 
HETATM   22  N7  UNL     1     -14.591 -26.543 -23.688  1.00  0.00    -0.383 N 
ATOM     23  H72 UNL     1     -15.354 -26.143 -23.141  1.00  0.00     0.157 HD
ATOM     24  H71 UNL     1     -13.635 -26.540 -23.333  1.00  0.00     0.157 HD
BRANCH  11  25
HETATM   25  N3  UNL     1     -13.378 -29.205 -28.763  1.00  0.00    -0.383 N 
ATOM     26  H32 UNL     1     -14.188 -29.805 -28.918  1.00  0.00     0.157 HD
ATOM     27  H31 UNL     1     -12.777 -29.041 -29.571  1.00  0.00     0.157 HD
ENDBRANCH  11  25
ENDBRANCH   5   6
ENDBRANCH   4   5
ENDBRANCH   3   4
TORSDOF 4
ENDMDL
MODEL 4
REMARK VINA RESULT: -7.245236950      2.764      4.241
REMARK  4 active torsions:
REMARK  status: ('A' for Active; 'I' for Inactive)
REMARK    1  A    between atoms: C3_3  and  O1_4 
REMARK    2  A    between atoms: O1_4  and  C4_5 
REMARK    3  A    between atoms: C4_5  and  N1_6 
REMARK    4  A    between atoms: C7_11  and  N3_12 
ROOT
HETATM    1  C1  UNL     1     -18.714 -32.072 -28.932  1.00  0.00     0.014 C 
HETATM    2  C2  UNL     1     -18.929 -31.225 -28.094  1.00  0.00    -0.091 C 
HETATM    3  C3  UNL     1     -19.199 -30.209 -27.078  1.00  0.00     0.262 C 
ENDROOT
BRANCH   3   4
HETATM    4  O1  UNL     1     -18.037 -29.573 -26.650  1.00  0.00    -0.360 OA
BRANCH   4   5
HETATM    5  C4  UNL     1     -17.708 -28.489 -27.467  1.00  0.00     0.302 C 
BRANCH   5   6
HETATM    6  N1  UNL     1     -16.262 -28.443 -27.554  1.00  0.00    -0.306 N 
HETATM    7  C5  UNL     1     -15.703 -28.873 -28.699  1.00  0.00     0.187 A 
HETATM    8  N2  UNL     1     -14.376 -28.863 -28.880  1.00  0.00    -0.347 N 
HETATM    9  C6  UNL     1     -13.584 -28.420 -27.915  1.00  0.00     0.109 A 
ATOM     10  H2  UNL     1     -13.977 -29.194 -29.758  1.00  0.00     0.167 HD
HETATM   11  C7  UNL     1     -12.203 -28.415 -28.117  1.00  0.00     0.144 A 
HETATM   12  C9  UNL     1     -14.082 -27.966 -26.716  1.00  0.00     0.123 A 
HETATM   13  N4  UNL     1     -11.454 -27.954 -27.099  1.00  0.00    -0.175 N 
HETATM   14  C8  UNL     1     -11.969 -27.516 -25.938  1.00  0.00     0.678 A 
ATOM     15  H4  UNL     1     -10.441 -27.936 -27.214  1.00  0.00     0.186 HD
HETATM   16  N5  UNL     1     -11.172 -27.092 -25.020  1.00  0.00    -0.234 N 
HETATM   17  N6  UNL     1     -13.321 -27.515 -25.727  1.00  0.00    -0.186 N 
ATOM     18  H52 UNL     1     -10.164 -27.092 -25.178  1.00  0.00     0.174 HD
ATOM     19  H51 UNL     1     -11.563 -26.759 -24.138  1.00  0.00     0.174 HD
ATOM     20  H6  UNL     1     -13.724 -27.184 -24.850  1.00  0.00     0.184 HD
HETATM   21  C10 UNL     1     -15.478 -27.995 -26.569  1.00  0.00     0.134 A 
HETATM   22  N7  UNL     1     -15.993 -27.591 -25.466  1.00  0.00    -0.383 N 
ATOM     23  H72 UNL     1     -17.008 -27.612 -25.359  1.00  0.00     0.157 HD
ATOM     24  H71 UNL     1     -15.395 -27.248 -24.714  1.00  0.00     0.157 HD
BRANCH  11  25
HETATM   25  N3  UNL     1     -11.665 -28.826 -29.214  1.00  0.00    -0.383 N 
ATOM     26  H32 UNL     1     -11.250 -29.755 -29.287  1.00  0.00     0.157 HD
ATOM     27  H31 UNL     1     -11.628 -28.248 -30.054  1.00  0.00     0.157 HD
ENDBRANCH  11  25
ENDBRANCH   5   6
ENDBRANCH   4   5
ENDBRANCH   3   4
TORSDOF 4
ENDMDL
MODEL 5
REMARK VINA RESULT: -7.205385882      1.720      3.023
REMARK  4 active torsions:
REMARK  status: ('A' for Active; 'I' for Inactive)
REMARK    1  A    between atoms: C3_3  and  O1_4 
REMARK    2  A    between atoms: O1_4  and  C4_5 
REMARK    3  A    between atoms: C4_5  and  N1_6 
REMARK    4  A    between atoms: C7_11  and  N3_12 
ROOT
HETATM    1  C1  UNL     1     -18.799 -22.367 -23.304  1.00  0.00     0.014 C 
HETATM    2  C2  UNL     1     -17.901 -23.173 -23.214  1.00  0.00    -0.091 C 
HETATM    3  C3  UNL     1     -16.819 -24.150 -23.093  1.00  0.00     0.262 C 
ENDROOT
BRANCH   3   4
HETATM    4  O1  UNL     1     -16.497 -24.730 -24.316  1.00  0.00    -0.360 OA
BRANCH   4   5
HETATM    5  C4  UNL     1     -16.474 -26.125 -24.238  1.00  0.00     0.302 C 
BRANCH   5   6
HETATM    6  N1  UNL     1     -15.393 -26.582 -25.090  1.00  0.00    -0.306 N 
HETATM    7  C5  UNL     1     -14.148 -26.197 -24.760  1.00  0.00     0.187 A 
HETATM    8  N2  UNL     1     -13.083 -26.573 -25.478  1.00  0.00    -0.347 N 
HETATM    9  C6  UNL     1     -13.246 -27.345 -26.543  1.00  0.00     0.109 A 
ATOM     10  H2  UNL     1     -12.149 -26.267 -25.207  1.00  0.00     0.167 HD
HETATM   11  C7  UNL     1     -12.127 -27.730 -27.283  1.00  0.00     0.144 A 
HETATM   12  C9  UNL     1     -14.489 -27.778 -26.942  1.00  0.00     0.123 A 
HETATM   13  N4  UNL     1     -12.361 -28.513 -28.351  1.00  0.00    -0.175 N 
HETATM   14  C8  UNL     1     -13.587 -28.922 -28.718  1.00  0.00     0.678 A 
ATOM     15  H4  UNL     1     -11.565 -28.814 -28.913  1.00  0.00     0.186 HD
HETATM   16  N5  UNL     1     -13.713 -29.671 -29.758  1.00  0.00    -0.234 N 
HETATM   17  N6  UNL     1     -14.692 -28.552 -28.002  1.00  0.00    -0.186 N 
ATOM     18  H52 UNL     1     -12.888 -29.947 -30.292  1.00  0.00     0.174 HD
ATOM     19  H51 UNL     1     -14.643 -29.981 -30.037  1.00  0.00     0.174 HD
ATOM     20  H6  UNL     1     -15.629 -28.856 -28.270  1.00  0.00     0.184 HD
HETATM   21  C10 UNL     1     -15.578 -27.359 -26.161  1.00  0.00     0.134 A 
HETATM   22  N7  UNL     1     -16.760 -27.728 -26.497  1.00  0.00    -0.383 N 
ATOM     23  H72 UNL     1     -17.551 -27.423 -25.930  1.00  0.00     0.157 HD
ATOM     24  H71 UNL     1     -16.900 -28.321 -27.315  1.00  0.00     0.157 HD
BRANCH  11  25
HETATM   25  N3  UNL     1     -10.932 -27.362 -26.968  1.00  0.00    -0.383 N 
ATOM     26  H32 UNL     1     -10.507 -26.530 -27.377  1.00  0.00     0.157 HD
ATOM     27  H31 UNL     1     -10.360 -27.880 -26.301  1.00  0.00     0.157 HD
ENDBRANCH  11  25
ENDBRANCH   5   6
ENDBRANCH   4   5
ENDBRANCH   3   4
TORSDOF 4
ENDMDL
