MODEL 1
REMARK VINA RESULT: -7.543826408      0.000      0.000
REMARK  3 active torsions:
REMARK  status: ('A' for Active; 'I' for Inactive)
REMARK       I    between atoms: C2_2  and  N1_4 
REMARK    1  A    between atoms: N1_4  and  C3_6 
REMARK    2  A    between atoms: C5_12  and  C6_13 
REMARK    3  A    between atoms: N4_14  and  C7_16 
ROOT
HETATM    1  C3  UNL     1     -11.938 -28.651 -26.689  1.00  0.00     0.137 A 
HETATM    2  N2  UNL     1     -10.731 -29.229 -26.630  1.00  0.00    -0.337 N 
ATOM      3  H2  UNL     1     -10.440 -30.027 -27.194  1.00  0.00     0.168 HD
HETATM    4  C4  UNL     1      -9.957 -28.608 -25.722  1.00  0.00     0.182 A 
HETATM    5  N3  UNL     1     -10.685 -27.613 -25.190  1.00  0.00    -0.348 N 
ATOM      6  H3  UNL     1     -10.370 -26.962 -24.471  1.00  0.00     0.167 HD
HETATM    7  C5  UNL     1     -11.920 -27.622 -25.778  1.00  0.00     0.093 A 
ENDROOT
BRANCH   7   8
HETATM    8  C6  UNL     1     -13.018 -26.712 -25.496  1.00  0.00     0.139 C 
HETATM    9  N4  UNL     1     -13.913 -27.075 -24.624  1.00  0.00    -0.198 N 
ATOM     10  H4  UNL     1     -13.809 -27.984 -24.172  1.00  0.00     0.183 HD
BRANCH   9  11
HETATM   11  C7  UNL     1     -15.019 -26.275 -24.273  1.00  0.00     0.700 A 
HETATM   12  N5  UNL     1     -16.161 -26.677 -23.712  1.00  0.00    -0.128 N 
HETATM   13  N6  UNL     1     -16.963 -25.634 -23.533  1.00  0.00    -0.237 N 
ATOM     14  H5  UNL     1     -16.385 -27.640 -23.460  1.00  0.00     0.205 HD
HETATM   15  C8  UNL     1     -16.292 -24.566 -23.998  1.00  0.00     0.353 A 
ATOM     16  H6  UNL     1     -17.897 -25.641 -23.125  1.00  0.00     0.192 HD
HETATM   17  O2  UNL     1     -16.781 -23.396 -23.976  1.00  0.00    -0.245 OA
HETATM   18  N7  UNL     1     -15.100 -24.955 -24.452  1.00  0.00    -0.139 N 
ATOM     19  H7  UNL     1     -14.384 -24.356 -24.862  1.00  0.00     0.189 HD
ENDBRANCH   9  11
ENDBRANCH   7   8
BRANCH   1  20
HETATM   20  N1  UNL     1     -13.061 -28.990 -27.514  1.00  0.00    -0.311 N 
HETATM   21  C2  UNL     1     -12.956 -29.040 -28.930  1.00  0.00     0.219 C 
HETATM   22  C1  UNL     1     -14.135 -29.394 -29.755  1.00  0.00     0.117 C 
HETATM   23  O1  UNL     1     -11.880 -28.791 -29.535  1.00  0.00    -0.274 OA
ATOM     24  H1  UNL     1     -13.957 -29.199 -27.074  1.00  0.00     0.170 HD
ENDBRANCH   1  20
TORSDOF 3
ENDMDL
MODEL 2
REMARK VINA RESULT: -7.491562858      2.455      6.884
REMARK  3 active torsions:
REMARK  status: ('A' for Active; 'I' for Inactive)
REMARK       I    between atoms: C2_2  and  N1_4 
REMARK    1  A    between atoms: N1_4  and  C3_6 
REMARK    2  A    between atoms: C5_12  and  C6_13 
REMARK    3  A    between atoms: N4_14  and  C7_16 
ROOT
HETATM    1  C3  UNL     1     -16.050 -26.093 -23.620  1.00  0.00     0.137 A 
HETATM    2  N2  UNL     1     -17.353 -25.794 -23.697  1.00  0.00    -0.337 N 
ATOM      3  H2  UNL     1     -17.852 -25.193 -23.041  1.00  0.00     0.168 HD
HETATM    4  C4  UNL     1     -17.911 -26.399 -24.761  1.00  0.00     0.182 A 
HETATM    5  N3  UNL     1     -16.944 -27.098 -25.376  1.00  0.00    -0.348 N 
ATOM      6  H3  UNL     1     -17.059 -27.663 -26.217  1.00  0.00     0.167 HD
HETATM    7  C5  UNL     1     -15.778 -26.921 -24.683  1.00  0.00     0.093 A 
ENDROOT
BRANCH   7   8
HETATM    8  C6  UNL     1     -14.484 -27.501 -25.004  1.00  0.00     0.139 C 
HETATM    9  N4  UNL     1     -13.609 -26.758 -25.616  1.00  0.00    -0.198 N 
ATOM     10  H4  UNL     1     -13.865 -25.797 -25.846  1.00  0.00     0.183 HD
BRANCH   9  11
HETATM   11  C7  UNL     1     -12.326 -27.214 -25.977  1.00  0.00     0.700 A 
HETATM   12  N5  UNL     1     -11.690 -27.007 -27.133  1.00  0.00    -0.128 N 
HETATM   13  N6  UNL     1     -10.500 -27.594 -27.099  1.00  0.00    -0.237 N 
ATOM     14  H5  UNL     1     -12.063 -26.479 -27.922  1.00  0.00     0.205 HD
HETATM   15  C8  UNL     1     -10.406 -28.176 -25.891  1.00  0.00     0.353 A 
ATOM     16  H6  UNL     1      -9.799 -27.602 -27.839  1.00  0.00     0.192 HD
HETATM   17  O2  UNL     1      -9.380 -28.829 -25.531  1.00  0.00    -0.245 OA
HETATM   18  N7  UNL     1     -11.524 -27.945 -25.201  1.00  0.00    -0.139 N 
ATOM     19  H7  UNL     1     -11.728 -28.267 -24.255  1.00  0.00     0.189 HD
ENDBRANCH   9  11
ENDBRANCH   7   8
BRANCH   1  20
HETATM   20  N1  UNL     1     -15.083 -25.666 -22.650  1.00  0.00    -0.311 N 
HETATM   21  C2  UNL     1     -15.253 -25.930 -21.265  1.00  0.00     0.219 C 
HETATM   22  C1  UNL     1     -14.235 -25.477 -20.288  1.00  0.00     0.117 C 
HETATM   23  O1  UNL     1     -16.254 -26.545 -20.814  1.00  0.00    -0.274 OA
ATOM     24  H1  UNL     1     -14.253 -25.162 -22.963  1.00  0.00     0.170 HD
ENDBRANCH   1  20
TORSDOF 3
ENDMDL
MODEL 3
REMARK VINA RESULT: -7.473999976      2.322      5.807
REMARK  3 active torsions:
REMARK  status: ('A' for Active; 'I' for Inactive)
REMARK       I    between atoms: C2_2  and  N1_4 
REMARK    1  A    between atoms: N1_4  and  C3_6 
REMARK    2  A    between atoms: C5_12  and  C6_13 
REMARK    3  A    between atoms: N4_14  and  C7_16 
ROOT
HETATM    1  C3  UNL     1     -16.577 -26.416 -23.932  1.00  0.00     0.137 A 
HETATM    2  N2  UNL     1     -17.084 -26.298 -22.698  1.00  0.00    -0.337 N 
ATOM      3  H2  UNL     1     -18.069 -26.413 -22.461  1.00  0.00     0.168 HD
HETATM    4  C4  UNL     1     -16.111 -26.006 -21.817  1.00  0.00     0.182 A 
HETATM    5  N3  UNL     1     -14.959 -25.937 -22.502  1.00  0.00    -0.348 N 
ATOM      6  H3  UNL     1     -14.041 -25.732 -22.107  1.00  0.00     0.167 HD
HETATM    7  C5  UNL     1     -15.225 -26.189 -23.820  1.00  0.00     0.093 A 
ENDROOT
BRANCH   7   8
HETATM    8  C6  UNL     1     -14.262 -26.213 -24.908  1.00  0.00     0.139 C 
HETATM    9  N4  UNL     1     -13.665 -27.336 -25.179  1.00  0.00    -0.198 N 
ATOM     10  H4  UNL     1     -13.896 -28.156 -24.618  1.00  0.00     0.183 HD
BRANCH   9  11
HETATM   11  C7  UNL     1     -12.714 -27.477 -26.210  1.00  0.00     0.700 A 
HETATM   12  N5  UNL     1     -11.477 -26.978 -26.242  1.00  0.00    -0.128 N 
HETATM   13  N6  UNL     1     -10.884 -27.322 -27.379  1.00  0.00    -0.237 N 
ATOM     14  H5  UNL     1     -11.051 -26.416 -25.504  1.00  0.00     0.205 HD
HETATM   15  C8  UNL     1     -11.785 -28.051 -28.061  1.00  0.00     0.353 A 
ATOM     16  H6  UNL     1      -9.938 -27.083 -27.675  1.00  0.00     0.192 HD
HETATM   17  O2  UNL     1     -11.535 -28.541 -29.204  1.00  0.00    -0.245 OA
HETATM   18  N7  UNL     1     -12.908 -28.148 -27.347  1.00  0.00    -0.139 N 
ATOM     19  H7  UNL     1     -13.757 -28.642 -27.620  1.00  0.00     0.189 HD
ENDBRANCH   9  11
ENDBRANCH   7   8
BRANCH   1  20
HETATM   20  N1  UNL     1     -17.253 -26.717 -25.161  1.00  0.00    -0.311 N 
HETATM   21  C2  UNL     1     -17.176 -28.004 -25.755  1.00  0.00     0.219 C 
HETATM   22  C1  UNL     1     -17.886 -28.284 -27.025  1.00  0.00     0.117 C 
HETATM   23  O1  UNL     1     -16.514 -28.945 -25.243  1.00  0.00    -0.274 OA
ATOM     24  H1  UNL     1     -17.802 -25.989 -25.618  1.00  0.00     0.170 HD
ENDBRANCH   1  20
TORSDOF 3
ENDMDL
MODEL 4
REMARK VINA RESULT: -7.461281742      0.818      1.056
REMARK  3 active torsions:
REMARK  status: ('A' for Active; 'I' for Inactive)
REMARK       I    between atoms: C2_2  and  N1_4 
REMARK    1  A    between atoms: N1_4  and  C3_6 
REMARK    2  A    between atoms: C5_12  and  C6_13 
REMARK    3  A    between atoms: N4_14  and  C7_16 
ROOT
HETATM    1  C3  UNL     1     -11.950 -28.661 -26.704  1.00  0.00     0.137 A 
HETATM    2  N2  UNL     1     -10.755 -29.257 -26.601  1.00  0.00    -0.337 N 
ATOM      3  H2  UNL     1     -10.467 -30.078 -27.134  1.00  0.00     0.168 HD
HETATM    4  C4  UNL     1      -9.989 -28.621 -25.696  1.00  0.00     0.182 A 
HETATM    5  N3  UNL     1     -10.710 -27.598 -25.212  1.00  0.00    -0.348 N 
ATOM      6  H3  UNL     1     -10.399 -26.929 -24.507  1.00  0.00     0.167 HD
HETATM    7  C5  UNL     1     -11.933 -27.604 -25.825  1.00  0.00     0.093 A 
ENDROOT
BRANCH   7   8
HETATM    8  C6  UNL     1     -13.020 -26.667 -25.595  1.00  0.00     0.139 C 
HETATM    9  N4  UNL     1     -13.988 -27.025 -24.804  1.00  0.00    -0.198 N 
ATOM     10  H4  UNL     1     -13.946 -27.950 -24.375  1.00  0.00     0.183 HD
BRANCH   9  11
HETATM   11  C7  UNL     1     -15.091 -26.200 -24.509  1.00  0.00     0.700 A 
HETATM   12  N5  UNL     1     -15.064 -24.936 -24.080  1.00  0.00    -0.128 N 
HETATM   13  N6  UNL     1     -16.304 -24.493 -23.913  1.00  0.00    -0.237 N 
ATOM     14  H5  UNL     1     -14.218 -24.393 -23.906  1.00  0.00     0.205 HD
HETATM   15  C8  UNL     1     -17.112 -25.514 -24.249  1.00  0.00     0.353 A 
ATOM     16  H6  UNL     1     -16.587 -23.567 -23.595  1.00  0.00     0.192 HD
HETATM   17  O2  UNL     1     -18.376 -25.423 -24.201  1.00  0.00    -0.245 OA
HETATM   18  N7  UNL     1     -16.371 -26.562 -24.615  1.00  0.00    -0.139 N 
ATOM     19  H7  UNL     1     -16.719 -27.471 -24.919  1.00  0.00     0.189 HD
ENDBRANCH   9  11
ENDBRANCH   7   8
BRANCH   1  20
HETATM   20  N1  UNL     1     -13.062 -29.007 -27.542  1.00  0.00    -0.311 N 
HETATM   21  C2  UNL     1     -12.939 -29.059 -28.956  1.00  0.00     0.219 C 
HETATM   22  C1  UNL     1     -14.106 -29.420 -29.794  1.00  0.00     0.117 C 
HETATM   23  O1  UNL     1     -11.858 -28.806 -29.548  1.00  0.00    -0.274 OA
ATOM     24  H1  UNL     1     -13.962 -29.219 -27.111  1.00  0.00     0.170 HD
ENDBRANCH   1  20
TORSDOF 3
ENDMDL
MODEL 5
REMARK VINA RESULT: -7.449850507      2.629      6.570
REMARK  3 active torsions:
REMARK  status: ('A' for Active; 'I' for Inactive)
REMARK       I    between atoms: C2_2  and  N1_4 
REMARK    1  A    between atoms: N1_4  and  C3_6 
REMARK    2  A    between atoms: C5_12  and  C6_13 
REMARK    3  A    between atoms: N4_14  and  C7_16 
ROOT
HETATM    1  C3  UNL     1     -16.644 -27.054 -25.484  1.00  0.00     0.137 A 
HETATM    2  N2  UNL     1     -17.865 -27.383 -25.924  1.00  0.00    -0.337 N 
ATOM      3  H2  UNL     1     -18.739 -27.103 -25.478  1.00  0.00     0.168 HD
HETATM    4  C4  UNL     1     -17.777 -28.133 -27.037  1.00  0.00     0.182 A 
HETATM    5  N3  UNL     1     -16.472 -28.286 -27.313  1.00  0.00    -0.348 N 
ATOM      6  H3  UNL     1     -16.086 -28.808 -28.100  1.00  0.00     0.167 HD
HETATM    7  C5  UNL     1     -15.749 -27.623 -26.360  1.00  0.00     0.093 A 
ENDROOT
BRANCH   7   8
HETATM    8  C6  UNL     1     -14.301 -27.532 -26.281  1.00  0.00     0.139 C 
HETATM    9  N4  UNL     1     -13.649 -28.510 -25.724  1.00  0.00    -0.198 N 
ATOM     10  H4  UNL     1     -14.180 -29.304 -25.365  1.00  0.00     0.183 HD
BRANCH   9  11
HETATM   11  C7  UNL     1     -12.247 -28.528 -25.593  1.00  0.00     0.700 A 
HETATM   12  N5  UNL     1     -11.443 -27.489 -25.355  1.00  0.00    -0.128 N 
HETATM   13  N6  UNL     1     -10.182 -27.902 -25.299  1.00  0.00    -0.237 N 
ATOM     14  H5  UNL     1     -11.751 -26.524 -25.236  1.00  0.00     0.205 HD
HETATM   15  C8  UNL     1     -10.216 -29.230 -25.508  1.00  0.00     0.353 A 
ATOM     16  H6  UNL     1      -9.356 -27.329 -25.130  1.00  0.00     0.192 HD
HETATM   17  O2  UNL     1      -9.167 -29.941 -25.519  1.00  0.00    -0.245 OA
HETATM   18  N7  UNL     1     -11.480 -29.617 -25.689  1.00  0.00    -0.139 N 
ATOM     19  H7  UNL     1     -11.801 -30.568 -25.868  1.00  0.00     0.189 HD
ENDBRANCH   9  11
ENDBRANCH   7   8
BRANCH   1  20
HETATM   20  N1  UNL     1     -16.277 -26.270 -24.340  1.00  0.00    -0.311 N 
HETATM   21  C2  UNL     1     -16.582 -26.695 -23.019  1.00  0.00     0.219 C 
HETATM   22  C1  UNL     1     -16.190 -25.864 -21.858  1.00  0.00     0.117 C 
HETATM   23  O1  UNL     1     -17.187 -27.773 -22.781  1.00  0.00    -0.274 OA
ATOM     24  H1  UNL     1     -15.787 -25.387 -24.478  1.00  0.00     0.170 HD
ENDBRANCH   1  20
TORSDOF 3
ENDMDL
