MODEL 1
REMARK VINA RESULT: -6.299951366      0.000      0.000
REMARK  4 active torsions:
REMARK  status: ('A' for Active; 'I' for Inactive)
REMARK    1  A    between atoms: N1_1  and  C1_5 
REMARK    2  A    between atoms: C1_5  and  C2_6 
REMARK    3  A    between atoms: C4_10  and  N3_11 
REMARK    4  A    between atoms: N3_11  and  C5_13 
ROOT
HETATM    1  C2  UNL     1     -15.082 -27.717 -25.773  1.00  0.00     0.127 C 
HETATM    2  C3  UNL     1     -14.734 -26.383 -25.158  1.00  0.00     0.149 C 
HETATM    3  N2  UNL     1     -13.348 -26.168 -25.502  1.00  0.00    -0.360 N 
ATOM      4  H2  UNL     1     -12.786 -25.394 -25.145  1.00  0.00     0.162 HD
HETATM    5  C4  UNL     1     -12.904 -27.063 -26.309  1.00  0.00     0.190 C 
HETATM    6  N8  UNL     1     -13.933 -27.978 -26.599  1.00  0.00    -0.354 N 
ATOM      7  H8  UNL     1     -13.874 -28.720 -27.297  1.00  0.00     0.163 HD
ENDROOT
BRANCH   5   8
HETATM    8  N3  UNL     1     -11.580 -27.161 -26.857  1.00  0.00    -0.159 N 
ATOM      9  H3  UNL     1     -11.286 -26.517 -27.591  1.00  0.00     0.187 HD
BRANCH   8  10
HETATM   10  C5  UNL     1     -10.753 -28.069 -26.421  1.00  0.00     0.710 A 
HETATM   11  N4  UNL     1     -10.020 -27.960 -25.302  1.00  0.00    -0.117 N 
HETATM   12  N5  UNL     1      -9.286 -29.070 -25.156  1.00  0.00     0.006 NA
ATOM     13  H4  UNL     1     -10.021 -27.161 -24.667  1.00  0.00     0.202 HD
HETATM   14  N6  UNL     1      -9.564 -29.859 -26.177  1.00  0.00     0.006 NA
HETATM   15  N7  UNL     1     -10.466 -29.248 -26.959  1.00  0.00    -0.117 N 
ATOM     16  H7  UNL     1     -10.863 -29.624 -27.819  1.00  0.00     0.202 HD
ENDBRANCH   8  10
ENDBRANCH   5   8
BRANCH   1  17
HETATM   17  C1  UNL     1     -16.342 -27.574 -26.635  1.00  0.00     0.256 C 
BRANCH  17  18
HETATM   18  N1  UNL     1     -17.522 -27.536 -25.821  1.00  0.00    -0.077 N 
ATOM     19  H13 UNL     1     -18.263 -28.123 -26.206  1.00  0.00     0.274 HD
ATOM     20  H12 UNL     1     -17.383 -28.023 -24.936  1.00  0.00     0.274 HD
ATOM     21  H11 UNL     1     -17.839 -26.578 -25.678  1.00  0.00     0.274 HD
ENDBRANCH  17  18
ENDBRANCH   1  17
TORSDOF 4
ENDMDL
MODEL 2
REMARK VINA RESULT: -6.184368736      1.868      2.375
REMARK  4 active torsions:
REMARK  status: ('A' for Active; 'I' for Inactive)
REMARK    1  A    between atoms: N1_1  and  C1_5 
REMARK    2  A    between atoms: C1_5  and  C2_6 
REMARK    3  A    between atoms: C4_10  and  N3_11 
REMARK    4  A    between atoms: N3_11  and  C5_13 
ROOT
HETATM    1  C2  UNL     1     -15.987 -27.752 -24.931  1.00  0.00     0.127 C 
HETATM    2  C3  UNL     1     -15.212 -26.599 -24.341  1.00  0.00     0.149 C 
HETATM    3  N2  UNL     1     -13.827 -26.902 -24.621  1.00  0.00    -0.360 N 
ATOM      4  H2  UNL     1     -13.041 -26.361 -24.261  1.00  0.00     0.162 HD
HETATM    5  C4  UNL     1     -13.701 -27.934 -25.377  1.00  0.00     0.190 C 
HETATM    6  N8  UNL     1     -14.976 -28.439 -25.691  1.00  0.00    -0.354 N 
ATOM      7  H8  UNL     1     -15.159 -29.186 -26.361  1.00  0.00     0.163 HD
ENDROOT
BRANCH   5   8
HETATM    8  N3  UNL     1     -12.479 -28.517 -25.855  1.00  0.00    -0.159 N 
ATOM      9  H3  UNL     1     -11.952 -29.153 -25.256  1.00  0.00     0.187 HD
BRANCH   8  10
HETATM   10  C5  UNL     1     -12.040 -28.238 -27.050  1.00  0.00     0.710 A 
HETATM   11  N4  UNL     1     -12.156 -29.048 -28.114  1.00  0.00    -0.117 N 
HETATM   12  N5  UNL     1     -11.600 -28.450 -29.175  1.00  0.00     0.006 NA
ATOM     13  H4  UNL     1     -12.595 -29.969 -28.115  1.00  0.00     0.202 HD
HETATM   14  N6  UNL     1     -11.144 -27.279 -28.770  1.00  0.00     0.006 NA
HETATM   15  N7  UNL     1     -11.412 -27.144 -27.462  1.00  0.00    -0.117 N 
ATOM     16  H7  UNL     1     -11.174 -26.339 -26.884  1.00  0.00     0.202 HD
ENDBRANCH   8  10
ENDBRANCH   5   8
BRANCH   1  17
HETATM   17  C1  UNL     1     -17.083 -27.214 -25.860  1.00  0.00     0.256 C 
BRANCH  17  18
HETATM   18  N1  UNL     1     -18.384 -27.619 -25.412  1.00  0.00    -0.077 N 
ATOM     19  H13 UNL     1     -18.643 -28.531 -25.789  1.00  0.00     0.274 HD
ATOM     20  H12 UNL     1     -18.382 -27.855 -24.420  1.00  0.00     0.274 HD
ATOM     21  H11 UNL     1     -19.084 -26.910 -25.629  1.00  0.00     0.274 HD
ENDBRANCH  17  18
ENDBRANCH   1  17
TORSDOF 4
ENDMDL
MODEL 3
REMARK VINA RESULT: -6.180315415      2.165      2.804
REMARK  4 active torsions:
REMARK  status: ('A' for Active; 'I' for Inactive)
REMARK    1  A    between atoms: N1_1  and  C1_5 
REMARK    2  A    between atoms: C1_5  and  C2_6 
REMARK    3  A    between atoms: C4_10  and  N3_11 
REMARK    4  A    between atoms: N3_11  and  C5_13 
ROOT
HETATM    1  C2  UNL     1     -16.353 -27.220 -25.040  1.00  0.00     0.127 C 
HETATM    2  C3  UNL     1     -16.551 -27.529 -26.504  1.00  0.00     0.149 C 
HETATM    3  N2  UNL     1     -15.243 -27.914 -26.981  1.00  0.00    -0.360 N 
ATOM      4  H2  UNL     1     -15.023 -28.088 -27.962  1.00  0.00     0.162 HD
HETATM    5  C4  UNL     1     -14.389 -28.013 -26.027  1.00  0.00     0.190 C 
HETATM    6  N8  UNL     1     -15.019 -27.707 -24.806  1.00  0.00    -0.354 N 
ATOM      7  H8  UNL     1     -14.592 -27.816 -23.886  1.00  0.00     0.163 HD
ENDROOT
BRANCH   5   8
HETATM    8  N3  UNL     1     -13.003 -28.374 -26.133  1.00  0.00    -0.159 N 
ATOM      9  H3  UNL     1     -12.530 -28.809 -25.342  1.00  0.00     0.187 HD
BRANCH   8  10
HETATM   10  C5  UNL     1     -12.348 -28.148 -27.237  1.00  0.00     0.710 A 
HETATM   11  N4  UNL     1     -12.251 -29.015 -28.258  1.00  0.00    -0.117 N 
HETATM   12  N5  UNL     1     -11.510 -28.461 -29.226  1.00  0.00     0.006 NA
ATOM     13  H4  UNL     1     -12.672 -29.944 -28.291  1.00  0.00     0.202 HD
HETATM   14  N6  UNL     1     -11.152 -27.262 -28.807  1.00  0.00     0.006 NA
HETATM   15  N7  UNL     1     -11.665 -27.065 -27.583  1.00  0.00    -0.117 N 
ATOM     16  H7  UNL     1     -11.550 -26.225 -27.016  1.00  0.00     0.202 HD
ENDBRANCH   8  10
ENDBRANCH   5   8
BRANCH   1  17
HETATM   17  C1  UNL     1     -17.368 -28.011 -24.205  1.00  0.00     0.256 C 
BRANCH  17  18
HETATM   18  N1  UNL     1     -18.054 -28.980 -25.009  1.00  0.00    -0.077 N 
ATOM     19  H13 UNL     1     -17.540 -29.860 -25.056  1.00  0.00     0.274 HD
ATOM     20  H12 UNL     1     -18.900 -29.317 -24.549  1.00  0.00     0.274 HD
ATOM     21  H11 UNL     1     -18.253 -28.611 -25.939  1.00  0.00     0.274 HD
ENDBRANCH  17  18
ENDBRANCH   1  17
TORSDOF 4
ENDMDL
MODEL 4
REMARK VINA RESULT: -6.146165084      1.293      5.409
REMARK  4 active torsions:
REMARK  status: ('A' for Active; 'I' for Inactive)
REMARK    1  A    between atoms: N1_1  and  C1_5 
REMARK    2  A    between atoms: C1_5  and  C2_6 
REMARK    3  A    between atoms: C4_10  and  N3_11 
REMARK    4  A    between atoms: N3_11  and  C5_13 
ROOT
HETATM    1  C2  UNL     1     -11.321 -28.971 -26.528  1.00  0.00     0.127 C 
HETATM    2  C3  UNL     1     -11.204 -27.910 -27.595  1.00  0.00     0.149 C 
HETATM    3  N2  UNL     1     -12.220 -26.938 -27.263  1.00  0.00    -0.360 N 
ATOM      4  H2  UNL     1     -12.464 -26.143 -27.855  1.00  0.00     0.162 HD
HETATM    5  C4  UNL     1     -12.783 -27.191 -26.136  1.00  0.00     0.190 C 
HETATM    6  N8  UNL     1     -12.213 -28.353 -25.584  1.00  0.00    -0.354 N 
ATOM      7  H8  UNL     1     -12.406 -28.708 -24.646  1.00  0.00     0.163 HD
ENDROOT
BRANCH   5   8
HETATM    8  N3  UNL     1     -13.828 -26.441 -25.498  1.00  0.00    -0.159 N 
ATOM      9  H3  UNL     1     -13.591 -25.666 -24.879  1.00  0.00     0.187 HD
BRANCH   8  10
HETATM   10  C5  UNL     1     -15.078 -26.746 -25.706  1.00  0.00     0.710 A 
HETATM   11  N4  UNL     1     -16.111 -26.255 -25.003  1.00  0.00    -0.117 N 
HETATM   12  N5  UNL     1     -17.247 -26.778 -25.483  1.00  0.00     0.006 NA
ATOM     13  H4  UNL     1     -16.042 -25.592 -24.231  1.00  0.00     0.202 HD
HETATM   14  N6  UNL     1     -16.918 -27.585 -26.474  1.00  0.00     0.006 NA
HETATM   15  N7  UNL     1     -15.584 -27.569 -26.615  1.00  0.00    -0.117 N 
ATOM     16  H7  UNL     1     -15.050 -28.100 -27.303  1.00  0.00     0.202 HD
ENDBRANCH   8  10
ENDBRANCH   5   8
BRANCH   1  17
HETATM   17  C1  UNL     1      -9.948 -29.214 -25.890  1.00  0.00     0.256 C 
BRANCH  17  18
HETATM   18  N1  UNL     1      -9.558 -28.107 -25.067  1.00  0.00    -0.077 N 
ATOM     19  H13 UNL     1      -9.751 -27.214 -25.522  1.00  0.00     0.274 HD
ATOM     20  H12 UNL     1     -10.173 -28.006 -24.259  1.00  0.00     0.274 HD
ATOM     21  H11 UNL     1      -8.580 -28.182 -24.789  1.00  0.00     0.274 HD
ENDBRANCH  17  18
ENDBRANCH   1  17
TORSDOF 4
ENDMDL
MODEL 5
REMARK VINA RESULT: -6.142019763      0.767      1.340
REMARK  4 active torsions:
REMARK  status: ('A' for Active; 'I' for Inactive)
REMARK    1  A    between atoms: N1_1  and  C1_5 
REMARK    2  A    between atoms: C1_5  and  C2_6 
REMARK    3  A    between atoms: C4_10  and  N3_11 
REMARK    4  A    between atoms: N3_11  and  C5_13 
ROOT
HETATM    1  C2  UNL     1     -15.088 -26.820 -25.839  1.00  0.00     0.127 C 
HETATM    2  C3  UNL     1     -15.142 -27.864 -26.927  1.00  0.00     0.149 C 
HETATM    3  N2  UNL     1     -13.786 -27.963 -27.414  1.00  0.00    -0.360 N 
ATOM      4  H2  UNL     1     -13.510 -28.516 -28.226  1.00  0.00     0.162 HD
HETATM    5  C4  UNL     1     -12.965 -27.272 -26.706  1.00  0.00     0.190 C 
HETATM    6  N8  UNL     1     -13.671 -26.635 -25.669  1.00  0.00    -0.354 N 
ATOM      7  H8  UNL     1     -13.239 -26.115 -24.904  1.00  0.00     0.163 HD
ENDROOT
BRANCH   5   8
HETATM    8  N3  UNL     1     -11.548 -27.139 -26.898  1.00  0.00    -0.159 N 
ATOM      9  H3  UNL     1     -11.178 -26.330 -27.395  1.00  0.00     0.187 HD
BRANCH   8  10
HETATM   10  C5  UNL     1     -10.735 -28.048 -26.440  1.00  0.00     0.710 A 
HETATM   11  N4  UNL     1     -10.021 -27.933 -25.309  1.00  0.00    -0.117 N 
HETATM   12  N5  UNL     1      -9.296 -29.046 -25.141  1.00  0.00     0.006 NA
ATOM     13  H4  UNL     1     -10.029 -27.130 -24.680  1.00  0.00     0.202 HD
HETATM   14  N6  UNL     1      -9.559 -29.843 -26.160  1.00  0.00     0.006 NA
HETATM   15  N7  UNL     1     -10.444 -29.233 -26.962  1.00  0.00    -0.117 N 
ATOM     16  H7  UNL     1     -10.828 -29.614 -27.827  1.00  0.00     0.202 HD
ENDBRANCH   8  10
ENDBRANCH   5   8
BRANCH   1  17
HETATM   17  C1  UNL     1     -15.715 -27.379 -24.557  1.00  0.00     0.256 C 
BRANCH  17  18
HETATM   18  N1  UNL     1     -16.711 -28.366 -24.857  1.00  0.00    -0.077 N 
ATOM     19  H13 UNL     1     -16.383 -29.027 -25.561  1.00  0.00     0.274 HD
ATOM     20  H12 UNL     1     -16.840 -29.016 -24.081  1.00  0.00     0.274 HD
ATOM     21  H11 UNL     1     -17.590 -27.929 -25.132  1.00  0.00     0.274 HD
ENDBRANCH  17  18
ENDBRANCH   1  17
TORSDOF 4
ENDMDL
