MODEL 1
REMARK VINA RESULT: -6.029725995      0.000      0.000
REMARK  3 active torsions:
REMARK  status: ('A' for Active; 'I' for Inactive)
REMARK    1  A    between atoms: C2_5  and  C3_6 
REMARK       I    between atoms: C3_6  and  N3_8 
REMARK    2  A    between atoms: N3_8  and  N4_10 
REMARK    3  A    between atoms: C5_17  and  N6_18 
ROOT
HETATM    1  C1  UNL     1     -16.153 -25.254 -24.396  1.00  0.00     0.197 C 
HETATM    2  N1  UNL     1     -15.588 -26.391 -25.069  1.00  0.00    -0.128 N 
HETATM    3  N2  UNL     1     -14.283 -26.392 -25.264  1.00  0.00    -0.275 N 
ATOM      4  H2  UNL     1     -13.736 -25.598 -24.933  1.00  0.00     0.188 HD
HETATM    5  C2  UNL     1     -13.654 -27.398 -25.878  1.00  0.00     0.187 A 
HETATM    6  C4  UNL     1     -14.411 -28.455 -26.315  1.00  0.00     0.293 A 
HETATM    7  O2  UNL     1     -13.830 -29.417 -26.899  1.00  0.00    -0.265 OA
HETATM    8  N5  UNL     1     -15.726 -28.449 -26.116  1.00  0.00    -0.153 N 
ATOM      9  H5  UNL     1     -16.283 -29.239 -26.443  1.00  0.00     0.187 HD
HETATM   10  C5  UNL     1     -16.339 -27.429 -25.496  1.00  0.00     0.695 A 
ENDROOT
BRANCH   5  11
HETATM   11  C3  UNL     1     -12.209 -27.373 -26.080  1.00  0.00     0.293 C 
HETATM   12  O1  UNL     1     -11.769 -26.812 -27.108  1.00  0.00    -0.264 OA
HETATM   13  N3  UNL     1     -11.339 -27.968 -25.133  1.00  0.00    -0.271 N 
ATOM     14  H3  UNL     1     -11.749 -28.412 -24.311  1.00  0.00     0.189 HD
BRANCH  13  15
HETATM   15  N4  UNL     1      -9.955 -27.978 -25.265  1.00  0.00    -0.342 N 
ATOM     16  H42 UNL     1      -9.449 -28.743 -24.820  1.00  0.00     0.176 HD
ATOM     17  H41 UNL     1      -9.435 -27.266 -25.780  1.00  0.00     0.176 HD
ENDBRANCH  13  15
ENDBRANCH   5  11
BRANCH  10  18
HETATM   18  N6  UNL     1     -17.599 -27.395 -25.292  1.00  0.00    -0.233 N 
ATOM     19  H62 UNL     1     -18.008 -27.303 -24.362  1.00  0.00     0.174 HD
ATOM     20  H61 UNL     1     -18.225 -27.464 -26.093  1.00  0.00     0.174 HD
ENDBRANCH  10  18
TORSDOF 3
ENDMDL
MODEL 2
REMARK VINA RESULT: -5.919879806      2.068      4.889
REMARK  3 active torsions:
REMARK  status: ('A' for Active; 'I' for Inactive)
REMARK    1  A    between atoms: C2_5  and  C3_6 
REMARK       I    between atoms: C3_6  and  N3_8 
REMARK    2  A    between atoms: N3_8  and  N4_10 
REMARK    3  A    between atoms: C5_17  and  N6_18 
ROOT
HETATM    1  C1  UNL     1     -10.957 -29.075 -27.352  1.00  0.00     0.197 C 
HETATM    2  N1  UNL     1     -11.849 -28.416 -26.436  1.00  0.00    -0.128 N 
HETATM    3  N2  UNL     1     -13.143 -28.550 -26.652  1.00  0.00    -0.275 N 
ATOM      4  H2  UNL     1     -13.454 -29.106 -27.448  1.00  0.00     0.188 HD
HETATM    5  C2  UNL     1     -14.060 -27.981 -25.865  1.00  0.00     0.187 A 
HETATM    6  C4  UNL     1     -13.618 -27.237 -24.801  1.00  0.00     0.293 A 
HETATM    7  O2  UNL     1     -14.474 -26.691 -24.044  1.00  0.00    -0.265 OA
HETATM    8  N5  UNL     1     -12.311 -27.106 -24.588  1.00  0.00    -0.153 N 
ATOM      9  H5  UNL     1     -11.990 -26.552 -23.794  1.00  0.00     0.187 HD
HETATM   10  C5  UNL     1     -11.406 -27.686 -25.391  1.00  0.00     0.695 A 
ENDROOT
BRANCH   5  11
HETATM   11  C3  UNL     1     -15.486 -28.145 -26.128  1.00  0.00     0.293 C 
HETATM   12  O1  UNL     1     -15.942 -27.688 -27.198  1.00  0.00    -0.264 OA
HETATM   13  N3  UNL     1     -16.320 -28.804 -25.191  1.00  0.00    -0.271 N 
ATOM     14  H3  UNL     1     -15.898 -29.159 -24.332  1.00  0.00     0.189 HD
BRANCH  13  15
HETATM   15  N4  UNL     1     -17.685 -28.993 -25.381  1.00  0.00    -0.342 N 
ATOM     16  H42 UNL     1     -18.012 -29.102 -26.340  1.00  0.00     0.176 HD
ATOM     17  H41 UNL     1     -18.359 -29.026 -24.615  1.00  0.00     0.176 HD
ENDBRANCH  13  15
ENDBRANCH   5  11
BRANCH  10  18
HETATM   18  N6  UNL     1     -10.147 -27.577 -25.211  1.00  0.00    -0.233 N 
ATOM     19  H62 UNL     1      -9.648 -26.692 -25.293  1.00  0.00     0.174 HD
ATOM     20  H61 UNL     1      -9.614 -28.414 -24.974  1.00  0.00     0.174 HD
ENDBRANCH  10  18
TORSDOF 3
ENDMDL
MODEL 3
REMARK VINA RESULT: -5.884477381      2.038      4.998
REMARK  3 active torsions:
REMARK  status: ('A' for Active; 'I' for Inactive)
REMARK    1  A    between atoms: C2_5  and  C3_6 
REMARK       I    between atoms: C3_6  and  N3_8 
REMARK    2  A    between atoms: N3_8  and  N4_10 
REMARK    3  A    between atoms: C5_17  and  N6_18 
ROOT
HETATM    1  C1  UNL     1     -11.898 -28.669 -29.087  1.00  0.00     0.197 C 
HETATM    2  N1  UNL     1     -12.333 -28.245 -27.784  1.00  0.00    -0.128 N 
HETATM    3  N2  UNL     1     -13.608 -28.410 -27.489  1.00  0.00    -0.275 N 
ATOM      4  H2  UNL     1     -14.225 -28.826 -28.186  1.00  0.00     0.188 HD
HETATM    5  C2  UNL     1     -14.119 -28.051 -26.308  1.00  0.00     0.187 A 
HETATM    6  C4  UNL     1     -13.271 -27.493 -25.386  1.00  0.00     0.293 A 
HETATM    7  O2  UNL     1     -13.739 -27.148 -24.261  1.00  0.00    -0.265 OA
HETATM    8  N5  UNL     1     -11.986 -27.329 -25.689  1.00  0.00    -0.153 N 
ATOM      9  H5  UNL     1     -11.361 -26.914 -24.998  1.00  0.00     0.187 HD
HETATM   10  C5  UNL     1     -11.492 -27.696 -26.881  1.00  0.00     0.695 A 
ENDROOT
BRANCH   5  11
HETATM   11  C3  UNL     1     -15.534 -28.246 -26.008  1.00  0.00     0.293 C 
HETATM   12  O1  UNL     1     -15.913 -29.392 -25.682  1.00  0.00    -0.264 OA
HETATM   13  N3  UNL     1     -16.443 -27.161 -26.087  1.00  0.00    -0.271 N 
ATOM     14  H3  UNL     1     -16.082 -26.246 -26.357  1.00  0.00     0.189 HD
BRANCH  13  15
HETATM   15  N4  UNL     1     -17.801 -27.280 -25.815  1.00  0.00    -0.342 N 
ATOM     16  H42 UNL     1     -18.165 -26.756 -25.019  1.00  0.00     0.176 HD
ATOM     17  H41 UNL     1     -18.435 -27.859 -26.366  1.00  0.00     0.176 HD
ENDBRANCH  13  15
ENDBRANCH   5  11
BRANCH  10  18
HETATM   18  N6  UNL     1     -10.264 -27.551 -27.200  1.00  0.00    -0.233 N 
ATOM     19  H62 UNL     1      -9.521 -28.145 -26.834  1.00  0.00     0.174 HD
ATOM     20  H61 UNL     1     -10.014 -26.806 -27.851  1.00  0.00     0.174 HD
ENDBRANCH  10  18
TORSDOF 3
ENDMDL
MODEL 4
REMARK VINA RESULT: -5.874094927      1.097      1.246
REMARK  3 active torsions:
REMARK  status: ('A' for Active; 'I' for Inactive)
REMARK    1  A    between atoms: C2_5  and  C3_6 
REMARK       I    between atoms: C3_6  and  N3_8 
REMARK    2  A    between atoms: N3_8  and  N4_10 
REMARK    3  A    between atoms: C5_17  and  N6_18 
ROOT
HETATM    1  C1  UNL     1     -15.154 -23.780 -24.155  1.00  0.00     0.197 C 
HETATM    2  N1  UNL     1     -14.967 -25.131 -24.610  1.00  0.00    -0.128 N 
HETATM    3  N2  UNL     1     -13.756 -25.472 -25.009  1.00  0.00    -0.275 N 
ATOM      4  H2  UNL     1     -13.013 -24.775 -24.978  1.00  0.00     0.188 HD
HETATM    5  C2  UNL     1     -13.470 -26.701 -25.450  1.00  0.00     0.187 A 
HETATM    6  C4  UNL     1     -14.485 -27.622 -25.483  1.00  0.00     0.293 A 
HETATM    7  O2  UNL     1     -14.231 -28.790 -25.899  1.00  0.00    -0.265 OA
HETATM    8  N5  UNL     1     -15.704 -27.272 -25.080  1.00  0.00    -0.153 N 
ATOM      9  H5  UNL     1     -16.454 -27.963 -25.106  1.00  0.00     0.187 HD
HETATM   10  C5  UNL     1     -15.971 -26.033 -24.639  1.00  0.00     0.695 A 
ENDROOT
BRANCH   5  11
HETATM   11  C3  UNL     1     -12.122 -27.050 -25.885  1.00  0.00     0.293 C 
HETATM   12  O1  UNL     1     -11.829 -26.875 -27.087  1.00  0.00    -0.264 OA
HETATM   13  N3  UNL     1     -11.181 -27.572 -24.963  1.00  0.00    -0.271 N 
ATOM     14  H3  UNL     1     -11.471 -27.696 -23.992  1.00  0.00     0.189 HD
BRANCH  13  15
HETATM   15  N4  UNL     1      -9.882 -27.925 -25.312  1.00  0.00    -0.342 N 
ATOM     16  H42 UNL     1      -9.663 -27.973 -26.307  1.00  0.00     0.176 HD
ATOM     17  H41 UNL     1      -9.153 -28.133 -24.629  1.00  0.00     0.176 HD
ENDBRANCH  13  15
ENDBRANCH   5  11
BRANCH  10  18
HETATM   18  N6  UNL     1     -17.130 -25.669 -24.247  1.00  0.00    -0.233 N 
ATOM     19  H62 UNL     1     -17.397 -24.691 -24.135  1.00  0.00     0.174 HD
ATOM     20  H61 UNL     1     -17.821 -26.389 -24.035  1.00  0.00     0.174 HD
ENDBRANCH  10  18
TORSDOF 3
ENDMDL
MODEL 5
REMARK VINA RESULT: -5.839941544      1.794      2.355
REMARK  3 active torsions:
REMARK  status: ('A' for Active; 'I' for Inactive)
REMARK    1  A    between atoms: C2_5  and  C3_6 
REMARK       I    between atoms: C3_6  and  N3_8 
REMARK    2  A    between atoms: N3_8  and  N4_10 
REMARK    3  A    between atoms: C5_17  and  N6_18 
ROOT
HETATM    1  C1  UNL     1     -16.998 -27.385 -26.087  1.00  0.00     0.197 C 
HETATM    2  N1  UNL     1     -15.628 -27.198 -25.693  1.00  0.00    -0.128 N 
HETATM    3  N2  UNL     1     -14.697 -27.513 -26.573  1.00  0.00    -0.275 N 
ATOM      4  H2  UNL     1     -14.983 -27.872 -27.484  1.00  0.00     0.188 HD
HETATM    5  C2  UNL     1     -13.394 -27.379 -26.312  1.00  0.00     0.187 A 
HETATM    6  C4  UNL     1     -13.034 -26.895 -25.080  1.00  0.00     0.293 A 
HETATM    7  O2  UNL     1     -11.802 -26.761 -24.817  1.00  0.00    -0.265 OA
HETATM    8  N5  UNL     1     -13.977 -26.578 -24.196  1.00  0.00    -0.153 N 
ATOM      9  H5  UNL     1     -13.702 -26.219 -23.283  1.00  0.00     0.187 HD
HETATM   10  C5  UNL     1     -15.281 -26.721 -24.478  1.00  0.00     0.695 A 
ENDROOT
BRANCH   5  11
HETATM   11  C3  UNL     1     -12.386 -27.735 -27.304  1.00  0.00     0.293 C 
HETATM   12  O1  UNL     1     -12.119 -26.902 -28.197  1.00  0.00    -0.264 OA
HETATM   13  N3  UNL     1     -11.733 -28.993 -27.249  1.00  0.00    -0.271 N 
ATOM     14  H3  UNL     1     -11.987 -29.637 -26.500  1.00  0.00     0.189 HD
BRANCH  13  15
HETATM   15  N4  UNL     1     -10.766 -29.393 -28.163  1.00  0.00    -0.342 N 
ATOM     16  H42 UNL     1      -9.830 -29.001 -28.055  1.00  0.00     0.176 HD
ATOM     17  H41 UNL     1     -10.948 -30.050 -28.923  1.00  0.00     0.176 HD
ENDBRANCH  13  15
ENDBRANCH   5  11
BRANCH  10  18
HETATM   18  N6  UNL     1     -16.207 -26.425 -23.650  1.00  0.00    -0.233 N 
ATOM     19  H62 UNL     1     -16.253 -26.811 -22.708  1.00  0.00     0.174 HD
ATOM     20  H61 UNL     1     -16.934 -25.774 -23.945  1.00  0.00     0.174 HD
ENDBRANCH  10  18
TORSDOF 3
ENDMDL
