MODEL 1
REMARK VINA RESULT: -7.515652134      0.000      0.000
REMARK  5 active torsions:
REMARK  status: ('A' for Active; 'I' for Inactive)
REMARK    1  A    between atoms: C5_9  and  N3_10 
REMARK    2  A    between atoms: N5_18  and  C8_19 
REMARK    3  A    between atoms: C8_19  and  C9_20 
REMARK    4  A    between atoms: C9_20  and  C10_21 
REMARK    5  A    between atoms: C10_21  and  C11_22 
ROOT
HETATM    1  C1  UNL     1      -5.109   3.710  31.963  1.00  0.00     0.106 C 
HETATM    2  C2  UNL     1      -4.553   2.832  32.604  1.00  0.00    -0.112 C 
HETATM    3  C3  UNL     1      -3.911   1.804  33.376  1.00  0.00     0.153 A 
HETATM    4  N1  UNL     1      -3.704   1.739  34.703  1.00  0.00    -0.319 N 
ATOM      5  H1  UNL     1      -3.988   2.448  35.379  1.00  0.00     0.169 HD
HETATM    6  C4  UNL     1      -3.062   0.590  34.999  1.00  0.00     0.155 A 
HETATM    7  N2  UNL     1      -2.620   0.030  36.145  1.00  0.00    -0.174 N 
ATOM      8  H2  UNL     1      -2.759   0.512  37.032  1.00  0.00     0.186 HD
HETATM    9  C5  UNL     1      -2.002  -1.155  36.120  1.00  0.00     0.680 A 
HETATM   10  N4  UNL     1      -1.795  -1.835  34.964  1.00  0.00    -0.154 N 
ATOM     11  H4  UNL     1      -1.319  -2.737  34.984  1.00  0.00     0.187 HD
HETATM   12  C6  UNL     1      -2.212  -1.328  33.797  1.00  0.00     0.290 A 
HETATM   13  O1  UNL     1      -2.050  -1.911  32.699  1.00  0.00    -0.265 OA
HETATM   14  C7  UNL     1      -2.851  -0.105  33.813  1.00  0.00     0.151 A 
HETATM   15  N5  UNL     1      -3.386   0.670  32.838  1.00  0.00    -0.319 N 
ENDROOT
BRANCH  15  16
HETATM   16  C8  UNL     1      -3.411   0.364  31.424  1.00  0.00     0.132 C 
BRANCH  16  17
HETATM   17  C9  UNL     1      -2.124   0.760  30.725  1.00  0.00     0.020 C 
BRANCH  17  18
HETATM   18  C10 UNL     1      -2.089   0.007  29.410  1.00  0.00     0.001 C 
BRANCH  18  19
HETATM   19  C11 UNL     1      -3.445  -0.067  28.759  1.00  0.00    -0.004 C 
HETATM   20  C12 UNL     1      -3.278  -0.478  27.315  1.00  0.00     0.005 C 
ENDBRANCH  18  19
ENDBRANCH  17  18
ENDBRANCH  16  17
ENDBRANCH  15  16
BRANCH   9  21
HETATM   21  N3  UNL     1      -1.586  -1.677  37.211  1.00  0.00    -0.234 N 
ATOM     22  H32 UNL     1      -1.976  -1.335  38.089  1.00  0.00     0.174 HD
ATOM     23  H31 UNL     1      -0.881  -2.415  37.183  1.00  0.00     0.174 HD
ENDBRANCH   9  21
TORSDOF 5
ENDMDL
MODEL 2
REMARK VINA RESULT: -7.408509055      1.035      1.123
REMARK  5 active torsions:
REMARK  status: ('A' for Active; 'I' for Inactive)
REMARK    1  A    between atoms: C5_9  and  N3_10 
REMARK    2  A    between atoms: N5_18  and  C8_19 
REMARK    3  A    between atoms: C8_19  and  C9_20 
REMARK    4  A    between atoms: C9_20  and  C10_21 
REMARK    5  A    between atoms: C10_21  and  C11_22 
ROOT
HETATM    1  C1  UNL     1      -4.964   3.892  32.029  1.00  0.00     0.106 C 
HETATM    2  C2  UNL     1      -4.602   2.866  32.587  1.00  0.00    -0.112 C 
HETATM    3  C3  UNL     1      -4.197   1.660  33.254  1.00  0.00     0.153 A 
HETATM    4  N1  UNL     1      -4.539   1.205  34.472  1.00  0.00    -0.319 N 
ATOM      5  H1  UNL     1      -5.164   1.677  35.124  1.00  0.00     0.169 HD
HETATM    6  C4  UNL     1      -3.923   0.024  34.696  1.00  0.00     0.155 A 
HETATM    7  N2  UNL     1      -3.913  -0.848  35.725  1.00  0.00    -0.174 N 
ATOM      8  H2  UNL     1      -4.462  -0.653  36.562  1.00  0.00     0.186 HD
HETATM    9  C5  UNL     1      -3.185  -1.967  35.653  1.00  0.00     0.680 A 
HETATM   10  N4  UNL     1      -2.439  -2.270  34.560  1.00  0.00    -0.154 N 
ATOM     11  H4  UNL     1      -1.896  -3.133  34.539  1.00  0.00     0.187 HD
HETATM   12  C6  UNL     1      -2.412  -1.442  33.508  1.00  0.00     0.290 A 
HETATM   13  O1  UNL     1      -1.742  -1.669  32.473  1.00  0.00    -0.265 OA
HETATM   14  C7  UNL     1      -3.160  -0.284  33.575  1.00  0.00     0.151 A 
HETATM   15  N5  UNL     1      -3.353   0.743  32.711  1.00  0.00    -0.319 N 
ENDROOT
BRANCH  15  16
HETATM   16  C8  UNL     1      -2.761   0.871  31.396  1.00  0.00     0.132 C 
BRANCH  16  17
HETATM   17  C9  UNL     1      -3.747   0.558  30.287  1.00  0.00     0.020 C 
BRANCH  17  18
HETATM   18  C10 UNL     1      -2.964  -0.127  29.184  1.00  0.00     0.001 C 
BRANCH  18  19
HETATM   19  C11 UNL     1      -3.657  -0.035  27.851  1.00  0.00    -0.004 C 
HETATM   20  C12 UNL     1      -4.943   0.740  28.016  1.00  0.00     0.005 C 
ENDBRANCH  18  19
ENDBRANCH  17  18
ENDBRANCH  16  17
ENDBRANCH  15  16
BRANCH   9  21
HETATM   21  N3  UNL     1      -3.180  -2.787  36.634  1.00  0.00    -0.234 N 
ATOM     22  H32 UNL     1      -2.668  -2.527  37.477  1.00  0.00     0.174 HD
ATOM     23  H31 UNL     1      -3.681  -3.672  36.557  1.00  0.00     0.174 HD
ENDBRANCH   9  21
TORSDOF 5
ENDMDL
MODEL 3
REMARK VINA RESULT: -7.357935742      1.772      3.090
REMARK  5 active torsions:
REMARK  status: ('A' for Active; 'I' for Inactive)
REMARK    1  A    between atoms: C5_9  and  N3_10 
REMARK    2  A    between atoms: N5_18  and  C8_19 
REMARK    3  A    between atoms: C8_19  and  C9_20 
REMARK    4  A    between atoms: C9_20  and  C10_21 
REMARK    5  A    between atoms: C10_21  and  C11_22 
ROOT
HETATM    1  C1  UNL     1      -1.036  -0.144  28.984  1.00  0.00     0.106 C 
HETATM    2  C2  UNL     1      -1.445  -0.228  30.133  1.00  0.00    -0.112 C 
HETATM    3  C3  UNL     1      -1.904  -0.334  31.490  1.00  0.00     0.153 A 
HETATM    4  N1  UNL     1      -1.495  -1.165  32.464  1.00  0.00    -0.319 N 
ATOM      5  H1  UNL     1      -0.766  -1.871  32.370  1.00  0.00     0.169 HD
HETATM    6  C4  UNL     1      -2.203  -0.918  33.588  1.00  0.00     0.155 A 
HETATM    7  N2  UNL     1      -2.203  -1.443  34.831  1.00  0.00    -0.174 N 
ATOM      8  H2  UNL     1      -1.559  -2.198  35.064  1.00  0.00     0.186 HD
HETATM    9  C5  UNL     1      -3.044  -0.976  35.758  1.00  0.00     0.680 A 
HETATM   10  N4  UNL     1      -3.919   0.029  35.496  1.00  0.00    -0.154 N 
ATOM     11  H4  UNL     1      -4.546   0.360  36.229  1.00  0.00     0.187 HD
HETATM   12  C6  UNL     1      -3.962   0.588  34.281  1.00  0.00     0.290 A 
HETATM   13  O1  UNL     1      -4.748   1.518  33.980  1.00  0.00    -0.265 OA
HETATM   14  C7  UNL     1      -3.098   0.111  33.317  1.00  0.00     0.151 A 
HETATM   15  N5  UNL     1      -2.886   0.444  32.019  1.00  0.00    -0.319 N 
ENDROOT
BRANCH  15  16
HETATM   16  C8  UNL     1      -3.584   1.473  31.280  1.00  0.00     0.132 C 
BRANCH  16  17
HETATM   17  C9  UNL     1      -4.862   0.960  30.643  1.00  0.00     0.020 C 
BRANCH  17  18
HETATM   18  C10 UNL     1      -4.964   1.610  29.278  1.00  0.00     0.001 C 
BRANCH  18  19
HETATM   19  C11 UNL     1      -5.466   0.654  28.228  1.00  0.00    -0.004 C 
HETATM   20  C12 UNL     1      -4.305   0.208  27.372  1.00  0.00     0.005 C 
ENDBRANCH  18  19
ENDBRANCH  17  18
ENDBRANCH  16  17
ENDBRANCH  15  16
BRANCH   9  21
HETATM   21  N3  UNL     1      -3.038  -1.479  36.934  1.00  0.00    -0.234 N 
ATOM     22  H32 UNL     1      -2.340  -1.144  37.598  1.00  0.00     0.174 HD
ATOM     23  H31 UNL     1      -3.720  -2.196  37.182  1.00  0.00     0.174 HD
ENDBRANCH   9  21
TORSDOF 5
ENDMDL
MODEL 4
REMARK VINA RESULT: -7.316142446      3.431      6.881
REMARK  5 active torsions:
REMARK  status: ('A' for Active; 'I' for Inactive)
REMARK    1  A    between atoms: C5_9  and  N3_10 
REMARK    2  A    between atoms: N5_18  and  C8_19 
REMARK    3  A    between atoms: C8_19  and  C9_20 
REMARK    4  A    between atoms: C9_20  and  C10_21 
REMARK    5  A    between atoms: C10_21  and  C11_22 
ROOT
HETATM    1  C1  UNL     1      -3.297  -5.622  36.134  1.00  0.00     0.106 C 
HETATM    2  C2  UNL     1      -3.270  -4.423  35.899  1.00  0.00    -0.112 C 
HETATM    3  C3  UNL     1      -3.260  -3.013  35.622  1.00  0.00     0.153 A 
HETATM    4  N1  UNL     1      -4.133  -2.280  34.910  1.00  0.00    -0.319 N 
ATOM      5  H1  UNL     1      -4.965  -2.641  34.445  1.00  0.00     0.169 HD
HETATM    6  C4  UNL     1      -3.736  -0.989  34.909  1.00  0.00     0.155 A 
HETATM    7  N2  UNL     1      -4.227   0.143  34.365  1.00  0.00    -0.174 N 
ATOM      8  H2  UNL     1      -5.087   0.113  33.817  1.00  0.00     0.186 HD
HETATM    9  C5  UNL     1      -3.592   1.306  34.543  1.00  0.00     0.680 A 
HETATM   10  N4  UNL     1      -2.447   1.398  35.266  1.00  0.00    -0.154 N 
ATOM     11  H4  UNL     1      -1.990   2.302  35.381  1.00  0.00     0.187 HD
HETATM   12  C6  UNL     1      -1.914   0.306  35.829  1.00  0.00     0.290 A 
HETATM   13  O1  UNL     1      -0.859   0.329  36.506  1.00  0.00    -0.265 OA
HETATM   14  C7  UNL     1      -2.562  -0.899  35.649  1.00  0.00     0.151 A 
HETATM   15  N5  UNL     1      -2.300  -2.161  36.071  1.00  0.00    -0.319 N 
ENDROOT
BRANCH  15  16
HETATM   16  C8  UNL     1      -1.175  -2.570  36.883  1.00  0.00     0.132 C 
BRANCH  16  17
HETATM   17  C9  UNL     1      -1.521  -2.639  38.358  1.00  0.00     0.020 C 
BRANCH  17  18
HETATM   18  C10 UNL     1      -1.214  -4.051  38.815  1.00  0.00     0.001 C 
BRANCH  18  19
HETATM   19  C11 UNL     1      -2.377  -4.684  39.533  1.00  0.00    -0.004 C 
HETATM   20  C12 UNL     1      -3.510  -3.688  39.608  1.00  0.00     0.005 C 
ENDBRANCH  18  19
ENDBRANCH  17  18
ENDBRANCH  16  17
ENDBRANCH  15  16
BRANCH   9  21
HETATM   21  N3  UNL     1      -4.065   2.375  34.024  1.00  0.00    -0.234 N 
ATOM     22  H32 UNL     1      -5.016   2.651  34.271  1.00  0.00     0.174 HD
ATOM     23  H31 UNL     1      -3.493   2.922  33.381  1.00  0.00     0.174 HD
ENDBRANCH   9  21
TORSDOF 5
ENDMDL
MODEL 5
REMARK VINA RESULT: -7.253170944      3.871      7.085
REMARK  5 active torsions:
REMARK  status: ('A' for Active; 'I' for Inactive)
REMARK    1  A    between atoms: C5_9  and  N3_10 
REMARK    2  A    between atoms: N5_18  and  C8_19 
REMARK    3  A    between atoms: C8_19  and  C9_20 
REMARK    4  A    between atoms: C9_20  and  C10_21 
REMARK    5  A    between atoms: C10_21  and  C11_22 
ROOT
HETATM    1  C1  UNL     1      -1.131  -0.976  32.163  1.00  0.00     0.106 C 
HETATM    2  C2  UNL     1      -1.661  -0.775  31.080  1.00  0.00    -0.112 C 
HETATM    3  C3  UNL     1      -2.273  -0.557  29.799  1.00  0.00     0.153 A 
HETATM    4  N1  UNL     1      -1.833  -0.899  28.576  1.00  0.00    -0.319 N 
ATOM      5  H1  UNL     1      -0.958  -1.384  28.378  1.00  0.00     0.169 HD
HETATM    6  C4  UNL     1      -2.730  -0.499  27.650  1.00  0.00     0.155 A 
HETATM    7  N2  UNL     1      -2.792  -0.584  26.305  1.00  0.00    -0.174 N 
ATOM      8  H2  UNL     1      -2.037  -1.034  25.789  1.00  0.00     0.186 HD
HETATM    9  C5  UNL     1      -3.841  -0.080  25.646  1.00  0.00     0.680 A 
HETATM   10  N4  UNL     1      -4.871   0.527  26.289  1.00  0.00    -0.154 N 
ATOM     11  H4  UNL     1      -5.655   0.900  25.753  1.00  0.00     0.187 HD
HETATM   12  C6  UNL     1      -4.863   0.639  27.623  1.00  0.00     0.290 A 
HETATM   13  O1  UNL     1      -5.785   1.189  28.270  1.00  0.00    -0.265 OA
HETATM   14  C7  UNL     1      -3.784   0.123  28.311  1.00  0.00     0.151 A 
HETATM   15  N5  UNL     1      -3.469   0.069  29.629  1.00  0.00    -0.319 N 
ENDROOT
BRANCH  15  16
HETATM   16  C8  UNL     1      -4.268   0.589  30.717  1.00  0.00     0.132 C 
BRANCH  16  17
HETATM   17  C9  UNL     1      -3.769   1.936  31.207  1.00  0.00     0.020 C 
BRANCH  17  18
HETATM   18  C10 UNL     1      -4.963   2.870  31.215  1.00  0.00     0.001 C 
BRANCH  18  19
HETATM   19  C11 UNL     1      -4.978   3.765  32.426  1.00  0.00    -0.004 C 
HETATM   20  C12 UNL     1      -4.635   2.946  33.649  1.00  0.00     0.005 C 
ENDBRANCH  18  19
ENDBRANCH  17  18
ENDBRANCH  16  17
ENDBRANCH  15  16
BRANCH   9  21
HETATM   21  N3  UNL     1      -3.890  -0.165  24.371  1.00  0.00    -0.234 N 
ATOM     22  H32 UNL     1      -4.557   0.427  23.874  1.00  0.00     0.174 HD
ATOM     23  H31 UNL     1      -3.272  -0.812  23.881  1.00  0.00     0.174 HD
ENDBRANCH   9  21
TORSDOF 5
ENDMDL
