MODEL 1
REMARK VINA RESULT: -7.542945013      0.000      0.000
REMARK  6 active torsions:
REMARK  status: ('A' for Active; 'I' for Inactive)
REMARK    1  A    between atoms: N1_1  and  C1_4 
REMARK    2  A    between atoms: C3_11  and  C4_12 
REMARK    3  A    between atoms: C7_15  and  O1_16 
REMARK    4  A    between atoms: O1_16  and  C8_17 
REMARK    5  A    between atoms: C8_17  and  C9_18 
REMARK    6  A    between atoms: C9_18  and  N4_19 
ROOT
HETATM    1  C4  UNL     1      -3.538   0.173  28.866  1.00  0.00    -0.005 A 
HETATM    2  C5  UNL     1      -4.765   0.653  28.418  1.00  0.00     0.016 A 
HETATM    3  C6  UNL     1      -5.170   0.528  27.107  1.00  0.00     0.037 A 
HETATM    4  C7  UNL     1      -4.375  -0.082  26.171  1.00  0.00     0.068 A 
HETATM    5  C10 UNL     1      -3.163  -0.560  26.595  1.00  0.00     0.037 A 
HETATM    6  C11 UNL     1      -2.756  -0.430  27.933  1.00  0.00     0.016 A 
ENDROOT
BRANCH   1   7
HETATM    7  C3  UNL     1      -3.191   0.352  30.282  1.00  0.00     0.088 A 
HETATM    8  C1  UNL     1      -1.938   0.138  30.958  1.00  0.00     0.129 A 
HETATM    9  N2  UNL     1      -2.134   0.465  32.372  1.00  0.00    -0.318 N 
HETATM   10  C2  UNL     1      -3.486   0.855  32.463  1.00  0.00     0.178 A 
ATOM     11  H2  UNL     1      -1.446   0.421  33.123  1.00  0.00     0.170 HD
HETATM   12  S1  UNL     1      -4.265   1.337  33.849  1.00  0.00    -0.040 SA
HETATM   13  N3  UNL     1      -4.037   0.760  31.192  1.00  0.00    -0.329 N 
ATOM     14  H3  UNL     1      -5.010   0.988  30.987  1.00  0.00     0.168 HD
BRANCH   8  15
HETATM   15  N1  UNL     1      -0.824  -0.244  30.567  1.00  0.00    -0.384 N 
ATOM     16  H12 UNL     1      -0.075   0.219  30.052  1.00  0.00     0.157 HD
ATOM     17  H11 UNL     1      -0.523  -1.199  30.760  1.00  0.00     0.157 HD
ENDBRANCH   8  15
ENDBRANCH   1   7
BRANCH   4  18
HETATM   18  O1  UNL     1      -4.814  -0.191  24.857  1.00  0.00    -0.350 OA
BRANCH  18  19
HETATM   19  C8  UNL     1      -6.033  -0.791  24.520  1.00  0.00     0.203 C 
BRANCH  19  20
HETATM   20  C9  UNL     1      -6.089  -0.913  22.994  1.00  0.00     0.256 C 
BRANCH  20  21
HETATM   21  N4  UNL     1      -7.414  -0.603  22.492  1.00  0.00    -0.077 N 
ATOM     22  H43 UNL     1      -7.966  -1.447  22.345  1.00  0.00     0.274 HD
ATOM     23  H42 UNL     1      -7.991  -0.160  23.206  1.00  0.00     0.274 HD
ATOM     24  H41 UNL     1      -7.364  -0.036  21.646  1.00  0.00     0.274 HD
ENDBRANCH  20  21
ENDBRANCH  19  20
ENDBRANCH  18  19
ENDBRANCH   4  18
TORSDOF 6
ENDMDL
MODEL 2
REMARK VINA RESULT: -7.368871471      0.169      1.145
REMARK  6 active torsions:
REMARK  status: ('A' for Active; 'I' for Inactive)
REMARK    1  A    between atoms: N1_1  and  C1_4 
REMARK    2  A    between atoms: C3_11  and  C4_12 
REMARK    3  A    between atoms: C7_15  and  O1_16 
REMARK    4  A    between atoms: O1_16  and  C8_17 
REMARK    5  A    between atoms: C8_17  and  C9_18 
REMARK    6  A    between atoms: C9_18  and  N4_19 
ROOT
HETATM    1  C4  UNL     1      -3.743   0.267  28.951  1.00  0.00    -0.005 A 
HETATM    2  C5  UNL     1      -2.916  -0.381  28.040  1.00  0.00     0.016 A 
HETATM    3  C6  UNL     1      -3.264  -0.545  26.716  1.00  0.00     0.037 A 
HETATM    4  C7  UNL     1      -4.454  -0.070  26.230  1.00  0.00     0.068 A 
HETATM    5  C10 UNL     1      -5.281   0.572  27.114  1.00  0.00     0.037 A 
HETATM    6  C11 UNL     1      -4.921   0.735  28.462  1.00  0.00     0.016 A 
ENDROOT
BRANCH   1   7
HETATM    7  C3  UNL     1      -3.288   0.394  30.342  1.00  0.00     0.088 A 
HETATM    8  C1  UNL     1      -1.971   0.230  30.900  1.00  0.00     0.129 A 
HETATM    9  N2  UNL     1      -2.065   0.468  32.341  1.00  0.00    -0.318 N 
HETATM   10  C2  UNL     1      -3.427   0.761  32.565  1.00  0.00     0.178 A 
ATOM     11  H2  UNL     1      -1.314   0.432  33.029  1.00  0.00     0.170 HD
HETATM   12  S1  UNL     1      -4.112   1.115  34.036  1.00  0.00    -0.040 SA
HETATM   13  N3  UNL     1      -4.077   0.696  31.341  1.00  0.00    -0.329 N 
ATOM     14  H3  UNL     1      -5.077   0.868  31.230  1.00  0.00     0.168 HD
BRANCH   8  15
HETATM   15  N1  UNL     1      -0.873  -0.055  30.396  1.00  0.00    -0.384 N 
ATOM     16  H12 UNL     1       0.003  -0.397  30.793  1.00  0.00     0.157 HD
ATOM     17  H11 UNL     1      -0.739   0.046  29.390  1.00  0.00     0.157 HD
ENDBRANCH   8  15
ENDBRANCH   1   7
BRANCH   4  18
HETATM   18  O1  UNL     1      -4.774  -0.251  24.889  1.00  0.00    -0.350 OA
BRANCH  18  19
HETATM   19  C8  UNL     1      -5.974  -0.841  24.476  1.00  0.00     0.203 C 
BRANCH  19  20
HETATM   20  C9  UNL     1      -5.994  -0.841  22.944  1.00  0.00     0.256 C 
BRANCH  20  21
HETATM   21  N4  UNL     1      -7.346  -0.703  22.437  1.00  0.00    -0.077 N 
ATOM     22  H43 UNL     1      -8.019  -1.189  23.029  1.00  0.00     0.274 HD
ATOM     23  H42 UNL     1      -7.694   0.249  22.554  1.00  0.00     0.274 HD
ATOM     24  H41 UNL     1      -7.408  -1.009  21.467  1.00  0.00     0.274 HD
ENDBRANCH  20  21
ENDBRANCH  19  20
ENDBRANCH  18  19
ENDBRANCH   4  18
TORSDOF 6
ENDMDL
MODEL 3
REMARK VINA RESULT: -7.089437627      1.574      2.583
REMARK  6 active torsions:
REMARK  status: ('A' for Active; 'I' for Inactive)
REMARK    1  A    between atoms: N1_1  and  C1_4 
REMARK    2  A    between atoms: C3_11  and  C4_12 
REMARK    3  A    between atoms: C7_15  and  O1_16 
REMARK    4  A    between atoms: O1_16  and  C8_17 
REMARK    5  A    between atoms: C8_17  and  C9_18 
REMARK    6  A    between atoms: C9_18  and  N4_19 
ROOT
HETATM    1  C4  UNL     1      -4.001   0.766  30.101  1.00  0.00    -0.005 A 
HETATM    2  C5  UNL     1      -2.875   0.069  29.675  1.00  0.00     0.016 A 
HETATM    3  C6  UNL     1      -2.742  -0.396  28.384  1.00  0.00     0.037 A 
HETATM    4  C7  UNL     1      -3.723  -0.191  27.449  1.00  0.00     0.068 A 
HETATM    5  C10 UNL     1      -4.839   0.495  27.852  1.00  0.00     0.037 A 
HETATM    6  C11 UNL     1      -4.968   0.966  29.169  1.00  0.00     0.016 A 
ENDROOT
BRANCH   1   7
HETATM    7  C3  UNL     1      -4.054   1.223  31.496  1.00  0.00     0.088 A 
HETATM    8  C1  UNL     1      -4.546   2.461  32.042  1.00  0.00     0.129 A 
HETATM    9  N2  UNL     1      -4.368   2.409  33.494  1.00  0.00    -0.318 N 
HETATM   10  C2  UNL     1      -3.780   1.150  33.736  1.00  0.00     0.178 A 
ATOM     11  H2  UNL     1      -4.613   3.125  34.179  1.00  0.00     0.170 HD
HETATM   12  S1  UNL     1      -3.352   0.549  35.224  1.00  0.00    -0.040 SA
HETATM   13  N3  UNL     1      -3.629   0.515  32.510  1.00  0.00    -0.329 N 
ATOM     14  H3  UNL     1      -3.225  -0.416  32.410  1.00  0.00     0.168 HD
BRANCH   8  15
HETATM   15  N1  UNL     1      -5.052   3.469  31.523  1.00  0.00    -0.384 N 
ATOM     16  H12 UNL     1      -5.081   3.813  30.563  1.00  0.00     0.157 HD
ATOM     17  H11 UNL     1      -5.558   4.135  32.107  1.00  0.00     0.157 HD
ENDBRANCH   8  15
ENDBRANCH   1   7
BRANCH   4  18
HETATM   18  O1  UNL     1      -3.557  -0.673  26.156  1.00  0.00    -0.350 OA
BRANCH  18  19
HETATM   19  C8  UNL     1      -4.085  -0.020  25.037  1.00  0.00     0.203 C 
BRANCH  19  20
HETATM   20  C9  UNL     1      -5.393  -0.722  24.658  1.00  0.00     0.256 C 
BRANCH  20  21
HETATM   21  N4  UNL     1      -5.564  -0.770  23.219  1.00  0.00    -0.077 N 
ATOM     22  H43 UNL     1      -5.531   0.162  22.806  1.00  0.00     0.274 HD
ATOM     23  H42 UNL     1      -4.749  -1.174  22.758  1.00  0.00     0.274 HD
ATOM     24  H41 UNL     1      -6.421  -1.262  22.966  1.00  0.00     0.274 HD
ENDBRANCH  20  21
ENDBRANCH  19  20
ENDBRANCH  18  19
ENDBRANCH   4  18
TORSDOF 6
ENDMDL
MODEL 4
REMARK VINA RESULT: -6.968954711      2.285      3.475
REMARK  6 active torsions:
REMARK  status: ('A' for Active; 'I' for Inactive)
REMARK    1  A    between atoms: N1_1  and  C1_4 
REMARK    2  A    between atoms: C3_11  and  C4_12 
REMARK    3  A    between atoms: C7_15  and  O1_16 
REMARK    4  A    between atoms: O1_16  and  C8_17 
REMARK    5  A    between atoms: C8_17  and  C9_18 
REMARK    6  A    between atoms: C9_18  and  N4_19 
ROOT
HETATM    1  C4  UNL     1      -3.572   0.715  31.524  1.00  0.00    -0.005 A 
HETATM    2  C5  UNL     1      -2.712   0.257  30.530  1.00  0.00     0.016 A 
HETATM    3  C6  UNL     1      -3.090   0.182  29.207  1.00  0.00     0.037 A 
HETATM    4  C7  UNL     1      -4.345   0.561  28.803  1.00  0.00     0.068 A 
HETATM    5  C10 UNL     1      -5.204   1.015  29.769  1.00  0.00     0.037 A 
HETATM    6  C11 UNL     1      -4.812   1.089  31.116  1.00  0.00     0.016 A 
ENDROOT
BRANCH   1   7
HETATM    7  C3  UNL     1      -3.081   0.760  32.908  1.00  0.00     0.088 A 
HETATM    8  C1  UNL     1      -3.477   1.610  34.000  1.00  0.00     0.129 A 
HETATM    9  N2  UNL     1      -2.673   1.242  35.166  1.00  0.00    -0.318 N 
HETATM   10  C2  UNL     1      -1.843   0.196  34.710  1.00  0.00     0.178 A 
ATOM     11  H2  UNL     1      -2.706   1.650  36.100  1.00  0.00     0.170 HD
HETATM   12  S1  UNL     1      -0.714  -0.612  35.621  1.00  0.00    -0.040 SA
HETATM   13  N3  UNL     1      -2.145  -0.026  33.373  1.00  0.00    -0.329 N 
ATOM     14  H3  UNL     1      -1.680  -0.736  32.807  1.00  0.00     0.168 HD
BRANCH   8  15
HETATM   15  N1  UNL     1      -4.316   2.521  34.097  1.00  0.00    -0.384 N 
ATOM     16  H12 UNL     1      -5.050   2.715  34.778  1.00  0.00     0.157 HD
ATOM     17  H11 UNL     1      -4.339   3.261  33.396  1.00  0.00     0.157 HD
ENDBRANCH   8  15
ENDBRANCH   1   7
BRANCH   4  18
HETATM   18  O1  UNL     1      -4.693   0.473  27.460  1.00  0.00    -0.350 OA
BRANCH  18  19
HETATM   19  C8  UNL     1      -4.344  -0.623  26.664  1.00  0.00     0.203 C 
BRANCH  19  20
HETATM   20  C9  UNL     1      -3.539  -0.097  25.470  1.00  0.00     0.256 C 
BRANCH  20  21
HETATM   21  N4  UNL     1      -4.284  -0.237  24.233  1.00  0.00    -0.077 N 
ATOM     22  H43 UNL     1      -4.464  -1.216  24.013  1.00  0.00     0.274 HD
ATOM     23  H42 UNL     1      -5.248   0.079  24.339  1.00  0.00     0.274 HD
ATOM     24  H41 UNL     1      -3.815   0.241  23.465  1.00  0.00     0.274 HD
ENDBRANCH  20  21
ENDBRANCH  19  20
ENDBRANCH  18  19
ENDBRANCH   4  18
TORSDOF 6
ENDMDL
MODEL 5
REMARK VINA RESULT: -6.831093975      1.297      1.927
REMARK  6 active torsions:
REMARK  status: ('A' for Active; 'I' for Inactive)
REMARK    1  A    between atoms: N1_1  and  C1_4 
REMARK    2  A    between atoms: C3_11  and  C4_12 
REMARK    3  A    between atoms: C7_15  and  O1_16 
REMARK    4  A    between atoms: O1_16  and  C8_17 
REMARK    5  A    between atoms: C8_17  and  C9_18 
REMARK    6  A    between atoms: C9_18  and  N4_19 
ROOT
HETATM    1  C4  UNL     1      -3.998   0.577  29.681  1.00  0.00    -0.005 A 
HETATM    2  C5  UNL     1      -5.157   0.886  28.976  1.00  0.00     0.016 A 
HETATM    3  C6  UNL     1      -5.325   0.547  27.651  1.00  0.00     0.037 A 
HETATM    4  C7  UNL     1      -4.347  -0.117  26.956  1.00  0.00     0.068 A 
HETATM    5  C10 UNL     1      -3.199  -0.430  27.635  1.00  0.00     0.037 A 
HETATM    6  C11 UNL     1      -3.034  -0.081  28.986  1.00  0.00     0.016 A 
ENDROOT
BRANCH   1   7
HETATM    7  C3  UNL     1      -3.909   0.978  31.091  1.00  0.00     0.088 A 
HETATM    8  C1  UNL     1      -4.442   2.139  31.755  1.00  0.00     0.129 A 
HETATM    9  N2  UNL     1      -4.067   2.056  33.167  1.00  0.00    -0.318 N 
HETATM   10  C2  UNL     1      -3.332   0.857  33.270  1.00  0.00     0.178 A 
ATOM     11  H2  UNL     1      -4.287   2.719  33.911  1.00  0.00     0.170 HD
HETATM   12  S1  UNL     1      -2.652   0.253  34.660  1.00  0.00    -0.040 SA
HETATM   13  N3  UNL     1      -3.285   0.284  32.007  1.00  0.00    -0.329 N 
ATOM     14  H3  UNL     1      -2.808  -0.597  31.811  1.00  0.00     0.168 HD
BRANCH   8  15
HETATM   15  N1  UNL     1      -5.110   3.106  31.354  1.00  0.00    -0.384 N 
ATOM     16  H12 UNL     1      -5.308   4.023  31.754  1.00  0.00     0.157 HD
ATOM     17  H11 UNL     1      -5.584   3.051  30.453  1.00  0.00     0.157 HD
ENDBRANCH   8  15
ENDBRANCH   1   7
BRANCH   4  18
HETATM   18  O1  UNL     1      -4.549  -0.444  25.620  1.00  0.00    -0.350 OA
BRANCH  18  19
HETATM   19  C8  UNL     1      -5.826  -0.605  25.071  1.00  0.00     0.203 C 
BRANCH  19  20
HETATM   20  C9  UNL     1      -5.665  -0.806  23.561  1.00  0.00     0.256 C 
BRANCH  20  21
HETATM   21  N4  UNL     1      -6.954  -0.834  22.895  1.00  0.00    -0.077 N 
ATOM     22  H43 UNL     1      -7.401   0.082  22.908  1.00  0.00     0.274 HD
ATOM     23  H42 UNL     1      -6.852  -0.944  21.886  1.00  0.00     0.274 HD
ATOM     24  H41 UNL     1      -7.558  -1.553  23.292  1.00  0.00     0.274 HD
ENDBRANCH  20  21
ENDBRANCH  19  20
ENDBRANCH  18  19
ENDBRANCH   4  18
TORSDOF 6
ENDMDL
