MODEL 1
REMARK VINA RESULT: -8.464182309      0.000      0.000
REMARK  6 active torsions:
REMARK  status: ('A' for Active; 'I' for Inactive)
REMARK    1  A    between atoms: C4_9  and  N4_10 
REMARK    2  A    between atoms: N4_10  and  C5_12 
REMARK    3  A    between atoms: C5_12  and  C6_13 
REMARK    4  A    between atoms: C6_13  and  C7_14 
REMARK    5  A    between atoms: C7_14  and  O1_15 
REMARK    6  A    between atoms: C7_14  and  C8_17 
ROOT
HETATM    1  N4  UNL     1      -3.192   0.641  32.679  1.00  0.00    -0.375 N 
ATOM      2  H4  UNL     1      -2.886   0.231  31.797  1.00  0.00     0.161 HD
ENDROOT
BRANCH   1   3
HETATM    3  C4  UNL     1      -2.438   0.317  33.611  1.00  0.00     0.128 A 
HETATM    4  C1  UNL     1      -1.855  -0.905  33.751  1.00  0.00     0.105 A 
HETATM    5  N1  UNL     1      -2.042  -1.980  32.830  1.00  0.00    -0.097 NA
HETATM    6  C2  UNL     1      -1.035  -1.114  34.850  1.00  0.00     0.119 A 
HETATM    7  N2  UNL     1      -0.787  -0.179  35.779  1.00  0.00    -0.360 N 
HETATM    8  C3  UNL     1      -1.378   1.017  35.612  1.00  0.00     0.181 A 
ATOM      9  H2  UNL     1      -0.178  -0.366  36.576  1.00  0.00     0.166 HD
HETATM   10  N3  UNL     1      -2.175   1.258  34.567  1.00  0.00    -0.337 N 
ATOM     11  H3  UNL     1      -2.602   2.180  34.478  1.00  0.00     0.168 HD
ENDBRANCH   1   3
BRANCH   1  12
HETATM   12  C5  UNL     1      -4.343   1.410  32.505  1.00  0.00     0.124 C 
BRANCH  12  13
HETATM   13  C6  UNL     1      -4.443   2.053  31.114  1.00  0.00     0.056 C 
BRANCH  13  14
HETATM   14  C7  UNL     1      -5.402   1.254  30.276  1.00  0.00     0.152 C 
BRANCH  14  15
HETATM   15  O1  UNL     1      -6.423   2.077  29.765  1.00  0.00    -0.391 OA
ATOM     16  H1  UNL     1      -7.041   2.309  30.448  1.00  0.00     0.210 HD
ENDBRANCH  14  15
BRANCH  14  17
HETATM   17  C8  UNL     1      -4.730   0.670  29.077  1.00  0.00    -0.030 A 
HETATM   18  C9  UNL     1      -5.368   0.651  27.842  1.00  0.00     0.010 A 
HETATM   19  C10 UNL     1      -4.786   0.124  26.711  1.00  0.00     0.001 A 
HETATM   20  C11 UNL     1      -3.519  -0.412  26.787  1.00  0.00     0.000 A 
HETATM   21  C12 UNL     1      -2.847  -0.417  27.989  1.00  0.00     0.001 A 
HETATM   22  C13 UNL     1      -3.465   0.123  29.110  1.00  0.00     0.010 A 
ENDBRANCH  14  17
ENDBRANCH  13  14
ENDBRANCH  12  13
ENDBRANCH   1  12
TORSDOF 6
ENDMDL
MODEL 2
REMARK VINA RESULT: -8.413540712      1.244      1.698
REMARK  6 active torsions:
REMARK  status: ('A' for Active; 'I' for Inactive)
REMARK    1  A    between atoms: C4_9  and  N4_10 
REMARK    2  A    between atoms: N4_10  and  C5_12 
REMARK    3  A    between atoms: C5_12  and  C6_13 
REMARK    4  A    between atoms: C6_13  and  C7_14 
REMARK    5  A    between atoms: C7_14  and  O1_15 
REMARK    6  A    between atoms: C7_14  and  C8_17 
ROOT
HETATM    1  N4  UNL     1      -3.741   0.477  33.399  1.00  0.00    -0.375 N 
ATOM      2  H4  UNL     1      -4.426  -0.270  33.514  1.00  0.00     0.161 HD
ENDROOT
BRANCH   1   3
HETATM    3  C4  UNL     1      -2.724   0.262  34.079  1.00  0.00     0.128 A 
HETATM    4  C1  UNL     1      -2.004  -0.894  34.058  1.00  0.00     0.105 A 
HETATM    5  N1  UNL     1      -2.337  -2.017  33.240  1.00  0.00    -0.097 NA
HETATM    6  C2  UNL     1      -0.889  -0.983  34.877  1.00  0.00     0.119 A 
HETATM    7  N2  UNL     1      -0.482   0.007  35.686  1.00  0.00    -0.360 N 
HETATM    8  C3  UNL     1      -1.214   1.135  35.683  1.00  0.00     0.181 A 
ATOM      9  H2  UNL     1       0.344  -0.091  36.276  1.00  0.00     0.166 HD
HETATM   10  N3  UNL     1      -2.295   1.260  34.909  1.00  0.00    -0.337 N 
ATOM     11  H3  UNL     1      -2.821   2.133  34.937  1.00  0.00     0.168 HD
ENDBRANCH   1   3
BRANCH   1  12
HETATM   12  C5  UNL     1      -4.205   1.458  32.522  1.00  0.00     0.124 C 
BRANCH  12  13
HETATM   13  C6  UNL     1      -4.661   0.898  31.166  1.00  0.00     0.056 C 
BRANCH  13  14
HETATM   14  C7  UNL     1      -3.452   0.668  30.303  1.00  0.00     0.152 C 
BRANCH  14  15
HETATM   15  O1  UNL     1      -2.716  -0.441  30.762  1.00  0.00    -0.391 OA
ATOM     16  H1  UNL     1      -1.797  -0.222  30.850  1.00  0.00     0.210 HD
ENDBRANCH  14  15
BRANCH  14  17
HETATM   17  C8  UNL     1      -3.834   0.333  28.899  1.00  0.00    -0.030 A 
HETATM   18  C9  UNL     1      -2.945  -0.326  28.058  1.00  0.00     0.010 A 
HETATM   19  C10 UNL     1      -3.255  -0.655  26.757  1.00  0.00     0.001 A 
HETATM   20  C11 UNL     1      -4.495  -0.326  26.251  1.00  0.00     0.000 A 
HETATM   21  C12 UNL     1      -5.408   0.328  27.047  1.00  0.00     0.001 A 
HETATM   22  C13 UNL     1      -5.061   0.645  28.354  1.00  0.00     0.010 A 
ENDBRANCH  14  17
ENDBRANCH  13  14
ENDBRANCH  12  13
ENDBRANCH   1  12
TORSDOF 6
ENDMDL
MODEL 3
REMARK VINA RESULT: -8.412471683      1.215      1.843
REMARK  6 active torsions:
REMARK  status: ('A' for Active; 'I' for Inactive)
REMARK    1  A    between atoms: C4_9  and  N4_10 
REMARK    2  A    between atoms: N4_10  and  C5_12 
REMARK    3  A    between atoms: C5_12  and  C6_13 
REMARK    4  A    between atoms: C6_13  and  C7_14 
REMARK    5  A    between atoms: C7_14  and  O1_15 
REMARK    6  A    between atoms: C7_14  and  C8_17 
ROOT
HETATM    1  N4  UNL     1      -4.444   1.209  32.536  1.00  0.00    -0.375 N 
ATOM      2  H4  UNL     1      -5.077   0.564  32.063  1.00  0.00     0.161 HD
ENDROOT
BRANCH   1   3
HETATM    3  C4  UNL     1      -3.750   0.620  33.381  1.00  0.00     0.128 A 
HETATM    4  C1  UNL     1      -3.977   0.637  34.723  1.00  0.00     0.105 A 
HETATM    5  N1  UNL     1      -5.058   1.346  35.332  1.00  0.00    -0.097 NA
HETATM    6  C2  UNL     1      -3.110  -0.073  35.540  1.00  0.00     0.119 A 
HETATM    7  N2  UNL     1      -2.063  -0.774  35.079  1.00  0.00    -0.360 N 
HETATM    8  C3  UNL     1      -1.867  -0.771  33.749  1.00  0.00     0.181 A 
ATOM      9  H2  UNL     1      -1.445  -1.286  35.709  1.00  0.00     0.166 HD
HETATM   10  N3  UNL     1      -2.679  -0.099  32.928  1.00  0.00    -0.337 N 
ATOM     11  H3  UNL     1      -2.493  -0.124  31.926  1.00  0.00     0.168 HD
ENDBRANCH   1   3
BRANCH   1  12
HETATM   12  C5  UNL     1      -4.596   2.510  32.054  1.00  0.00     0.124 C 
BRANCH  12  13
HETATM   13  C6  UNL     1      -4.986   2.569  30.569  1.00  0.00     0.056 C 
BRANCH  13  14
HETATM   14  C7  UNL     1      -5.557   1.240  30.163  1.00  0.00     0.152 C 
BRANCH  14  15
HETATM   15  O1  UNL     1      -6.881   1.385  29.707  1.00  0.00    -0.391 OA
ATOM     16  H1  UNL     1      -7.337   0.552  29.730  1.00  0.00     0.210 HD
ENDBRANCH  14  15
BRANCH  14  17
HETATM   17  C8  UNL     1      -4.808   0.647  29.015  1.00  0.00    -0.030 A 
HETATM   18  C9  UNL     1      -5.364   0.620  27.741  1.00  0.00     0.010 A 
HETATM   19  C10 UNL     1      -4.710   0.085  26.654  1.00  0.00     0.001 A 
HETATM   20  C11 UNL     1      -3.449  -0.450  26.817  1.00  0.00     0.000 A 
HETATM   21  C12 UNL     1      -2.858  -0.446  28.060  1.00  0.00     0.001 A 
HETATM   22  C13 UNL     1      -3.548   0.102  29.134  1.00  0.00     0.010 A 
ENDBRANCH  14  17
ENDBRANCH  13  14
ENDBRANCH  12  13
ENDBRANCH   1  12
TORSDOF 6
ENDMDL
MODEL 4
REMARK VINA RESULT: -8.407178744      1.246      1.419
REMARK  6 active torsions:
REMARK  status: ('A' for Active; 'I' for Inactive)
REMARK    1  A    between atoms: C4_9  and  N4_10 
REMARK    2  A    between atoms: N4_10  and  C5_12 
REMARK    3  A    between atoms: C5_12  and  C6_13 
REMARK    4  A    between atoms: C6_13  and  C7_14 
REMARK    5  A    between atoms: C7_14  and  O1_15 
REMARK    6  A    between atoms: C7_14  and  C8_17 
ROOT
HETATM    1  N4  UNL     1      -3.714   0.526  33.362  1.00  0.00    -0.375 N 
ATOM      2  H4  UNL     1      -4.430  -0.186  33.503  1.00  0.00     0.161 HD
ENDROOT
BRANCH   1   3
HETATM    3  C4  UNL     1      -2.707   0.295  34.050  1.00  0.00     0.128 A 
HETATM    4  C1  UNL     1      -1.994  -0.864  34.022  1.00  0.00     0.105 A 
HETATM    5  N1  UNL     1      -2.324  -1.973  33.184  1.00  0.00    -0.097 NA
HETATM    6  C2  UNL     1      -0.889  -0.971  34.853  1.00  0.00     0.119 A 
HETATM    7  N2  UNL     1      -0.487   0.004  35.681  1.00  0.00    -0.360 N 
HETATM    8  C3  UNL     1      -1.211   1.137  35.685  1.00  0.00     0.181 A 
ATOM      9  H2  UNL     1       0.332  -0.107  36.280  1.00  0.00     0.166 HD
HETATM   10  N3  UNL     1      -2.282   1.279  34.899  1.00  0.00    -0.337 N 
ATOM     11  H3  UNL     1      -2.803   2.156  34.934  1.00  0.00     0.168 HD
ENDBRANCH   1   3
BRANCH   1  12
HETATM   12  C5  UNL     1      -4.137   1.492  32.447  1.00  0.00     0.124 C 
BRANCH  12  13
HETATM   13  C6  UNL     1      -4.592   0.902  31.104  1.00  0.00     0.056 C 
BRANCH  13  14
HETATM   14  C7  UNL     1      -3.383   0.653  30.247  1.00  0.00     0.152 C 
BRANCH  14  15
HETATM   15  O1  UNL     1      -2.656  -0.455  30.721  1.00  0.00    -0.391 OA
ATOM     16  H1  UNL     1      -2.130  -0.214  31.474  1.00  0.00     0.210 HD
ENDBRANCH  14  15
BRANCH  14  17
HETATM   17  C8  UNL     1      -3.763   0.304  28.846  1.00  0.00    -0.030 A 
HETATM   18  C9  UNL     1      -5.013   0.645  28.341  1.00  0.00     0.010 A 
HETATM   19  C10 UNL     1      -5.405   0.344  27.056  1.00  0.00     0.001 A 
HETATM   20  C11 UNL     1      -4.535  -0.324  26.220  1.00  0.00     0.000 A 
HETATM   21  C12 UNL     1      -3.287  -0.683  26.676  1.00  0.00     0.001 A 
HETATM   22  C13 UNL     1      -2.924  -0.363  27.978  1.00  0.00     0.010 A 
ENDBRANCH  14  17
ENDBRANCH  13  14
ENDBRANCH  12  13
ENDBRANCH   1  12
TORSDOF 6
ENDMDL
MODEL 5
REMARK VINA RESULT: -8.207976954      1.934      2.360
REMARK  6 active torsions:
REMARK  status: ('A' for Active; 'I' for Inactive)
REMARK    1  A    between atoms: C4_9  and  N4_10 
REMARK    2  A    between atoms: N4_10  and  C5_12 
REMARK    3  A    between atoms: C5_12  and  C6_13 
REMARK    4  A    between atoms: C6_13  and  C7_14 
REMARK    5  A    between atoms: C7_14  and  O1_15 
REMARK    6  A    between atoms: C7_14  and  C8_17 
ROOT
HETATM    1  N4  UNL     1      -3.938   0.176  34.311  1.00  0.00    -0.375 N 
ATOM      2  H4  UNL     1      -4.841  -0.253  34.514  1.00  0.00     0.161 HD
ENDROOT
BRANCH   1   3
HETATM    3  C4  UNL     1      -3.020  -0.398  34.921  1.00  0.00     0.128 A 
HETATM    4  C1  UNL     1      -3.198  -1.281  35.942  1.00  0.00     0.105 A 
HETATM    5  N1  UNL     1      -4.481  -1.659  36.445  1.00  0.00    -0.097 NA
HETATM    6  C2  UNL     1      -2.070  -1.840  36.524  1.00  0.00     0.119 A 
HETATM    7  N2  UNL     1      -0.818  -1.559  36.135  1.00  0.00    -0.360 N 
HETATM    8  C3  UNL     1      -0.677  -0.684  35.124  1.00  0.00     0.181 A 
ATOM      9  H2  UNL     1      -0.010  -1.988  36.585  1.00  0.00     0.166 HD
HETATM   10  N3  UNL     1      -1.738  -0.123  34.537  1.00  0.00    -0.337 N 
ATOM     11  H3  UNL     1      -1.585   0.535  33.773  1.00  0.00     0.168 HD
ENDBRANCH   1   3
BRANCH   1  12
HETATM   12  C5  UNL     1      -4.074   1.245  33.425  1.00  0.00     0.124 C 
BRANCH  12  13
HETATM   13  C6  UNL     1      -4.536   0.821  32.023  1.00  0.00     0.056 C 
BRANCH  13  14
HETATM   14  C7  UNL     1      -3.341   0.767  31.113  1.00  0.00     0.152 C 
BRANCH  14  15
HETATM   15  O1  UNL     1      -2.487  -0.293  31.474  1.00  0.00    -0.391 OA
ATOM     16  H1  UNL     1      -2.708  -1.081  30.992  1.00  0.00     0.210 HD
ENDBRANCH  14  15
BRANCH  14  17
HETATM   17  C8  UNL     1      -3.737   0.490  29.700  1.00  0.00    -0.030 A 
HETATM   18  C9  UNL     1      -2.896  -0.223  28.852  1.00  0.00     0.010 A 
HETATM   19  C10 UNL     1      -3.222  -0.503  27.544  1.00  0.00     0.001 A 
HETATM   20  C11 UNL     1      -4.427  -0.066  27.036  1.00  0.00     0.000 A 
HETATM   21  C12 UNL     1      -5.291   0.644  27.838  1.00  0.00     0.001 A 
HETATM   22  C13 UNL     1      -4.931   0.908  29.153  1.00  0.00     0.010 A 
ENDBRANCH  14  17
ENDBRANCH  13  14
ENDBRANCH  12  13
ENDBRANCH   1  12
TORSDOF 6
ENDMDL
