MODEL 1
REMARK VINA RESULT: -8.218329599      0.000      0.000
REMARK  5 active torsions:
REMARK  status: ('A' for Active; 'I' for Inactive)
REMARK    1  A    between atoms: N1_1  and  C1_4 
REMARK    2  A    between atoms: C2_7  and  S1_8 
REMARK    3  A    between atoms: S1_8  and  C3_9 
REMARK    4  A    between atoms: C3_9  and  C4_10 
REMARK    5  A    between atoms: C4_10  and  C5_11 
ROOT
HETATM    1  C1  UNL     1      -1.554   0.158  35.166  1.00  0.00     0.681 A 
HETATM    2  N2  UNL     1      -2.167   0.945  34.233  1.00  0.00    -0.170 N 
ATOM      3  H2  UNL     1      -1.611   1.575  33.654  1.00  0.00     0.186 HD
HETATM    4  C2  UNL     1      -3.492   0.889  34.079  1.00  0.00     0.163 A 
HETATM    5  N3  UNL     1      -4.219   0.063  34.840  1.00  0.00    -0.288 N 
ATOM      6  H3  UNL     1      -5.231   0.033  34.711  1.00  0.00     0.172 HD
HETATM    7  C11 UNL     1      -3.653  -0.734  35.776  1.00  0.00     0.340 A 
HETATM    8  O1  UNL     1      -4.365  -1.492  36.467  1.00  0.00    -0.246 OA
HETATM    9  N4  UNL     1      -2.326  -0.670  35.921  1.00  0.00    -0.141 N 
ATOM     10  H4  UNL     1      -1.877  -1.262  36.620  1.00  0.00     0.189 HD
ENDROOT
BRANCH   4  11
HETATM   11  S1  UNL     1      -4.291   1.906  32.872  1.00  0.00    -0.093 SA
BRANCH  11  12
HETATM   12  C3  UNL     1      -3.726   1.362  31.239  1.00  0.00     0.087 C 
BRANCH  12  13
HETATM   13  C4  UNL     1      -4.865   1.228  30.262  1.00  0.00     0.049 C 
BRANCH  13  14
HETATM   14  C5  UNL     1      -4.475   0.617  28.987  1.00  0.00    -0.057 A 
HETATM   15  C6  UNL     1      -5.296   0.650  27.891  1.00  0.00     0.007 A 
HETATM   16  C7  UNL     1      -4.906   0.067  26.698  1.00  0.00     0.001 A 
HETATM   17  C8  UNL     1      -3.677  -0.550  26.632  1.00  0.00     0.000 A 
HETATM   18  C9  UNL     1      -2.829  -0.600  27.718  1.00  0.00     0.001 A 
HETATM   19  C10 UNL     1      -3.249  -0.008  28.894  1.00  0.00     0.007 A 
ENDBRANCH  13  14
ENDBRANCH  12  13
ENDBRANCH  11  12
ENDBRANCH   4  11
BRANCH   1  20
HETATM   20  N1  UNL     1      -0.276   0.205  35.320  1.00  0.00    -0.234 N 
ATOM     21  H12 UNL     1       0.353  -0.247  34.657  1.00  0.00     0.174 HD
ATOM     22  H11 UNL     1       0.130   0.700  36.114  1.00  0.00     0.174 HD
ENDBRANCH   1  20
TORSDOF 5
ENDMDL
MODEL 2
REMARK VINA RESULT: -8.192794501      0.053      1.160
REMARK  5 active torsions:
REMARK  status: ('A' for Active; 'I' for Inactive)
REMARK    1  A    between atoms: N1_1  and  C1_4 
REMARK    2  A    between atoms: C2_7  and  S1_8 
REMARK    3  A    between atoms: S1_8  and  C3_9 
REMARK    4  A    between atoms: C3_9  and  C4_10 
REMARK    5  A    between atoms: C4_10  and  C5_11 
ROOT
HETATM    1  C1  UNL     1      -1.555   0.158  35.164  1.00  0.00     0.681 A 
HETATM    2  N2  UNL     1      -2.165   0.939  34.225  1.00  0.00    -0.170 N 
ATOM      3  H2  UNL     1      -1.609   1.566  33.644  1.00  0.00     0.186 HD
HETATM    4  C2  UNL     1      -3.490   0.882  34.067  1.00  0.00     0.163 A 
HETATM    5  N3  UNL     1      -4.218   0.059  34.831  1.00  0.00    -0.288 N 
ATOM      6  H3  UNL     1      -5.230   0.028  34.699  1.00  0.00     0.172 HD
HETATM    7  C11 UNL     1      -3.655  -0.733  35.773  1.00  0.00     0.340 A 
HETATM    8  O1  UNL     1      -4.368  -1.487  36.465  1.00  0.00    -0.246 OA
HETATM    9  N4  UNL     1      -2.329  -0.667  35.922  1.00  0.00    -0.141 N 
ATOM     10  H4  UNL     1      -1.881  -1.254  36.625  1.00  0.00     0.189 HD
ENDROOT
BRANCH   4  11
HETATM   11  S1  UNL     1      -4.286   1.891  32.852  1.00  0.00    -0.093 SA
BRANCH  11  12
HETATM   12  C3  UNL     1      -3.706   1.346  31.224  1.00  0.00     0.087 C 
BRANCH  12  13
HETATM   13  C4  UNL     1      -4.834   1.236  30.231  1.00  0.00     0.049 C 
BRANCH  13  14
HETATM   14  C5  UNL     1      -4.443   0.596  28.970  1.00  0.00    -0.057 A 
HETATM   15  C6  UNL     1      -3.236  -0.035  28.826  1.00  0.00     0.007 A 
HETATM   16  C7  UNL     1      -2.889  -0.631  27.627  1.00  0.00     0.001 A 
HETATM   17  C8  UNL     1      -3.779  -0.579  26.578  1.00  0.00     0.000 A 
HETATM   18  C9  UNL     1      -5.002   0.049  26.692  1.00  0.00     0.001 A 
HETATM   19  C10 UNL     1      -5.317   0.635  27.904  1.00  0.00     0.007 A 
ENDBRANCH  13  14
ENDBRANCH  12  13
ENDBRANCH  11  12
ENDBRANCH   4  11
BRANCH   1  20
HETATM   20  N1  UNL     1      -0.278   0.207  35.321  1.00  0.00    -0.234 N 
ATOM     21  H12 UNL     1       0.270   0.989  34.964  1.00  0.00     0.174 HD
ATOM     22  H11 UNL     1       0.211  -0.544  35.811  1.00  0.00     0.174 HD
ENDBRANCH   1  20
TORSDOF 5
ENDMDL
MODEL 3
REMARK VINA RESULT: -8.090245208      1.514      2.043
REMARK  5 active torsions:
REMARK  status: ('A' for Active; 'I' for Inactive)
REMARK    1  A    between atoms: N1_1  and  C1_4 
REMARK    2  A    between atoms: C2_7  and  S1_8 
REMARK    3  A    between atoms: S1_8  and  C3_9 
REMARK    4  A    between atoms: C3_9  and  C4_10 
REMARK    5  A    between atoms: C4_10  and  C5_11 
ROOT
HETATM    1  C1  UNL     1      -2.853  -2.061  34.989  1.00  0.00     0.681 A 
HETATM    2  N2  UNL     1      -3.592  -1.165  34.272  1.00  0.00    -0.170 N 
ATOM      3  H2  UNL     1      -4.504  -1.435  33.904  1.00  0.00     0.186 HD
HETATM    4  C2  UNL     1      -3.121   0.065  34.053  1.00  0.00     0.163 A 
HETATM    5  N3  UNL     1      -1.924   0.418  34.535  1.00  0.00    -0.288 N 
ATOM      6  H3  UNL     1      -1.578   1.362  34.358  1.00  0.00     0.172 HD
HETATM    7  C11 UNL     1      -1.158  -0.438  35.251  1.00  0.00     0.340 A 
HETATM    8  O1  UNL     1      -0.047  -0.072  35.685  1.00  0.00    -0.246 OA
HETATM    9  N4  UNL     1      -1.640  -1.666  35.465  1.00  0.00    -0.141 N 
ATOM     10  H4  UNL     1      -1.081  -2.329  36.002  1.00  0.00     0.189 HD
ENDROOT
BRANCH   4  11
HETATM   11  S1  UNL     1      -4.075   1.231  33.124  1.00  0.00    -0.093 SA
BRANCH  11  12
HETATM   12  C3  UNL     1      -3.550   1.113  31.395  1.00  0.00     0.087 C 
BRANCH  12  13
HETATM   13  C4  UNL     1      -4.721   1.103  30.448  1.00  0.00     0.049 C 
BRANCH  13  14
HETATM   14  C5  UNL     1      -4.394   0.584  29.116  1.00  0.00    -0.057 A 
HETATM   15  C6  UNL     1      -5.240   0.747  28.051  1.00  0.00     0.007 A 
HETATM   16  C7  UNL     1      -4.910   0.248  26.803  1.00  0.00     0.001 A 
HETATM   17  C8  UNL     1      -3.713  -0.416  26.649  1.00  0.00     0.000 A 
HETATM   18  C9  UNL     1      -2.841  -0.595  27.702  1.00  0.00     0.001 A 
HETATM   19  C10 UNL     1      -3.202  -0.085  28.935  1.00  0.00     0.007 A 
ENDBRANCH  13  14
ENDBRANCH  12  13
ENDBRANCH  11  12
ENDBRANCH   4  11
BRANCH   1  20
HETATM   20  N1  UNL     1      -3.300  -3.249  35.206  1.00  0.00    -0.234 N 
ATOM     21  H12 UNL     1      -3.772  -3.779  34.473  1.00  0.00     0.174 HD
ATOM     22  H11 UNL     1      -3.189  -3.683  36.123  1.00  0.00     0.174 HD
ENDBRANCH   1  20
TORSDOF 5
ENDMDL
MODEL 4
REMARK VINA RESULT: -8.087198599      1.521      1.534
REMARK  5 active torsions:
REMARK  status: ('A' for Active; 'I' for Inactive)
REMARK    1  A    between atoms: N1_1  and  C1_4 
REMARK    2  A    between atoms: C2_7  and  S1_8 
REMARK    3  A    between atoms: S1_8  and  C3_9 
REMARK    4  A    between atoms: C3_9  and  C4_10 
REMARK    5  A    between atoms: C4_10  and  C5_11 
ROOT
HETATM    1  C1  UNL     1      -1.682   0.861  35.114  1.00  0.00     0.681 A 
HETATM    2  N2  UNL     1      -2.675   1.634  34.586  1.00  0.00    -0.170 N 
ATOM      3  H2  UNL     1      -2.878   2.548  34.991  1.00  0.00     0.186 HD
HETATM    4  C2  UNL     1      -3.379   1.195  33.540  1.00  0.00     0.163 A 
HETATM    5  N3  UNL     1      -3.110  -0.004  33.011  1.00  0.00    -0.288 N 
ATOM      6  H3  UNL     1      -3.658  -0.326  32.212  1.00  0.00     0.172 HD
HETATM    7  C11 UNL     1      -2.135  -0.804  33.502  1.00  0.00     0.340 A 
HETATM    8  O1  UNL     1      -1.914  -1.916  32.981  1.00  0.00    -0.246 OA
HETATM    9  N4  UNL     1      -1.437  -0.354  34.549  1.00  0.00    -0.141 N 
ATOM     10  H4  UNL     1      -0.696  -0.938  34.936  1.00  0.00     0.189 HD
ENDROOT
BRANCH   4  11
HETATM   11  S1  UNL     1      -4.666   2.194  32.852  1.00  0.00    -0.093 SA
BRANCH  11  12
HETATM   12  C3  UNL     1      -4.368   2.317  31.069  1.00  0.00     0.087 C 
BRANCH  12  13
HETATM   13  C4  UNL     1      -5.323   1.463  30.275  1.00  0.00     0.049 C 
BRANCH  13  14
HETATM   14  C5  UNL     1      -4.699   0.803  29.124  1.00  0.00    -0.057 A 
HETATM   15  C6  UNL     1      -5.320   0.740  27.905  1.00  0.00     0.007 A 
HETATM   16  C7  UNL     1      -4.712   0.111  26.833  1.00  0.00     0.001 A 
HETATM   17  C8  UNL     1      -3.469  -0.453  27.013  1.00  0.00     0.000 A 
HETATM   18  C9  UNL     1      -2.818  -0.407  28.228  1.00  0.00     0.001 A 
HETATM   19  C10 UNL     1      -3.454   0.229  29.278  1.00  0.00     0.007 A 
ENDBRANCH  13  14
ENDBRANCH  12  13
ENDBRANCH  11  12
ENDBRANCH   4  11
BRANCH   1  20
HETATM   20  N1  UNL     1      -0.997   1.277  36.122  1.00  0.00    -0.234 N 
ATOM     21  H12 UNL     1      -1.146   2.207  36.514  1.00  0.00     0.174 HD
ATOM     22  H11 UNL     1      -0.289   0.679  36.549  1.00  0.00     0.174 HD
ENDBRANCH   1  20
TORSDOF 5
ENDMDL
MODEL 5
REMARK VINA RESULT: -8.083770403      1.511      1.905
REMARK  5 active torsions:
REMARK  status: ('A' for Active; 'I' for Inactive)
REMARK    1  A    between atoms: N1_1  and  C1_4 
REMARK    2  A    between atoms: C2_7  and  S1_8 
REMARK    3  A    between atoms: S1_8  and  C3_9 
REMARK    4  A    between atoms: C3_9  and  C4_10 
REMARK    5  A    between atoms: C4_10  and  C5_11 
ROOT
HETATM    1  C1  UNL     1      -1.695   0.879  35.090  1.00  0.00     0.681 A 
HETATM    2  N2  UNL     1      -2.676   1.665  34.559  1.00  0.00    -0.170 N 
ATOM      3  H2  UNL     1      -2.859   2.588  34.952  1.00  0.00     0.186 HD
HETATM    4  C2  UNL     1      -3.397   1.225  33.524  1.00  0.00     0.163 A 
HETATM    5  N3  UNL     1      -3.156   0.013  33.010  1.00  0.00    -0.288 N 
ATOM      6  H3  UNL     1      -3.716  -0.309  32.220  1.00  0.00     0.172 HD
HETATM    7  C11 UNL     1      -2.193  -0.798  33.505  1.00  0.00     0.340 A 
HETATM    8  O1  UNL     1      -1.998  -1.922  32.998  1.00  0.00    -0.246 OA
HETATM    9  N4  UNL     1      -1.478  -0.347  34.540  1.00  0.00    -0.141 N 
ATOM     10  H4  UNL     1      -0.746  -0.941  34.930  1.00  0.00     0.189 HD
ENDROOT
BRANCH   4  11
HETATM   11  S1  UNL     1      -4.670   2.239  32.831  1.00  0.00    -0.093 SA
BRANCH  11  12
HETATM   12  C3  UNL     1      -4.372   2.348  31.048  1.00  0.00     0.087 C 
BRANCH  12  13
HETATM   13  C4  UNL     1      -5.297   1.454  30.264  1.00  0.00     0.049 C 
BRANCH  13  14
HETATM   14  C5  UNL     1      -4.641   0.768  29.145  1.00  0.00    -0.057 A 
HETATM   15  C6  UNL     1      -3.403   0.197  29.276  1.00  0.00     0.007 A 
HETATM   16  C7  UNL     1      -2.804  -0.444  28.206  1.00  0.00     0.001 A 
HETATM   17  C8  UNL     1      -3.475  -0.498  27.005  1.00  0.00     0.000 A 
HETATM   18  C9  UNL     1      -4.722   0.068  26.842  1.00  0.00     0.001 A 
HETATM   19  C10 UNL     1      -5.292   0.701  27.931  1.00  0.00     0.007 A 
ENDBRANCH  13  14
ENDBRANCH  12  13
ENDBRANCH  11  12
ENDBRANCH   4  11
BRANCH   1  20
HETATM   20  N1  UNL     1      -0.994   1.297  36.087  1.00  0.00    -0.234 N 
ATOM     21  H12 UNL     1      -0.040   0.969  36.237  1.00  0.00     0.174 HD
ATOM     22  H11 UNL     1      -1.386   1.968  36.748  1.00  0.00     0.174 HD
ENDBRANCH   1  20
TORSDOF 5
ENDMDL
