MODEL 1
REMARK VINA RESULT: -7.497334539      0.000      0.000
REMARK  6 active torsions:
REMARK  status: ('A' for Active; 'I' for Inactive)
REMARK    1  A    between atoms: N1_1  and  C1_4 
REMARK    2  A    between atoms: N3_11  and  C6_12 
REMARK    3  A    between atoms: C6_12  and  C7_13 
REMARK    4  A    between atoms: C7_13  and  C8_14 
REMARK    5  A    between atoms: C8_14  and  C9_15 
REMARK    6  A    between atoms: C9_15  and  N4_16 
ROOT
HETATM    1  C1  UNL     1      -2.125  -0.430  28.899  1.00  0.00     0.684 A 
HETATM    2  N2  UNL     1      -2.226  -0.058  30.189  1.00  0.00    -0.175 N 
ATOM      3  H2  UNL     1      -1.446  -0.241  30.820  1.00  0.00     0.186 HD
HETATM    4  C2  UNL     1      -3.324   0.546  30.670  1.00  0.00     0.135 A 
HETATM    5  C3  UNL     1      -4.354   0.771  29.777  1.00  0.00     0.038 A 
HETATM    6  C4  UNL     1      -5.340   1.394  30.523  1.00  0.00     0.035 A 
HETATM    7  C5  UNL     1      -4.929   1.543  31.817  1.00  0.00     0.093 A 
HETATM    8  N3  UNL     1      -3.689   1.019  31.896  1.00  0.00    -0.342 N 
HETATM    9  C10 UNL     1      -4.228   0.381  28.461  1.00  0.00     0.070 A 
HETATM   10  C11 UNL     1      -5.083   0.483  27.384  1.00  0.00     0.033 A 
HETATM   11  C12 UNL     1      -4.493  -0.061  26.261  1.00  0.00     0.020 A 
HETATM   12  C13 UNL     1      -3.254  -0.500  26.675  1.00  0.00     0.115 A 
HETATM   13  N5  UNL     1      -3.110  -0.225  28.004  1.00  0.00    -0.158 N 
ENDROOT
BRANCH   8  14
HETATM   14  C6  UNL     1      -2.853   0.956  33.097  1.00  0.00     0.130 C 
BRANCH  14  15
HETATM   15  C7  UNL     1      -2.938  -0.440  33.627  1.00  0.00     0.022 C 
BRANCH  15  16
HETATM   16  C8  UNL     1      -1.647  -1.184  33.603  1.00  0.00     0.029 C 
BRANCH  16  17
HETATM   17  C9  UNL     1      -1.116  -1.204  35.043  1.00  0.00     0.229 C 
BRANCH  17  18
HETATM   18  N4  UNL     1      -0.286  -0.058  35.305  1.00  0.00    -0.079 N 
ATOM     19  H43 UNL     1       0.662  -0.332  35.561  1.00  0.00     0.274 HD
ATOM     20  H42 UNL     1      -0.074   0.456  34.450  1.00  0.00     0.274 HD
ATOM     21  H41 UNL     1      -0.706   0.545  36.012  1.00  0.00     0.274 HD
ENDBRANCH  17  18
ENDBRANCH  16  17
ENDBRANCH  15  16
ENDBRANCH  14  15
ENDBRANCH   8  14
BRANCH   1  22
HETATM   22  N1  UNL     1      -1.055  -1.017  28.440  1.00  0.00    -0.234 N 
ATOM     23  H12 UNL     1      -0.539  -0.503  27.727  1.00  0.00     0.174 HD
ATOM     24  H11 UNL     1      -0.762  -1.934  28.780  1.00  0.00     0.174 HD
ENDBRANCH   1  22
TORSDOF 6
ENDMDL
MODEL 2
REMARK VINA RESULT: -7.433417591      1.229      1.234
REMARK  6 active torsions:
REMARK  status: ('A' for Active; 'I' for Inactive)
REMARK    1  A    between atoms: N1_1  and  C1_4 
REMARK    2  A    between atoms: N3_11  and  C6_12 
REMARK    3  A    between atoms: C6_12  and  C7_13 
REMARK    4  A    between atoms: C7_13  and  C8_14 
REMARK    5  A    between atoms: C8_14  and  C9_15 
REMARK    6  A    between atoms: C9_15  and  N4_16 
ROOT
HETATM    1  C1  UNL     1      -2.109  -0.436  28.905  1.00  0.00     0.684 A 
HETATM    2  N2  UNL     1      -2.216  -0.072  30.197  1.00  0.00    -0.175 N 
ATOM      3  H2  UNL     1      -1.440  -0.263  30.831  1.00  0.00     0.186 HD
HETATM    4  C2  UNL     1      -3.313   0.534  30.675  1.00  0.00     0.135 A 
HETATM    5  C3  UNL     1      -4.337   0.769  29.778  1.00  0.00     0.038 A 
HETATM    6  C4  UNL     1      -5.325   1.392  30.522  1.00  0.00     0.035 A 
HETATM    7  C5  UNL     1      -4.921   1.530  31.819  1.00  0.00     0.093 A 
HETATM    8  N3  UNL     1      -3.684   1.000  31.902  1.00  0.00    -0.342 N 
HETATM    9  C10 UNL     1      -4.205   0.387  28.460  1.00  0.00     0.070 A 
HETATM   10  C11 UNL     1      -5.053   0.501  27.378  1.00  0.00     0.033 A 
HETATM   11  C12 UNL     1      -4.459  -0.039  26.255  1.00  0.00     0.020 A 
HETATM   12  C13 UNL     1      -3.224  -0.486  26.674  1.00  0.00     0.115 A 
HETATM   13  N5  UNL     1      -3.087  -0.220  28.006  1.00  0.00    -0.158 N 
ENDROOT
BRANCH   8  14
HETATM   14  C6  UNL     1      -2.855   0.925  33.107  1.00  0.00     0.130 C 
BRANCH  14  15
HETATM   15  C7  UNL     1      -3.305  -0.270  33.885  1.00  0.00     0.022 C 
BRANCH  15  16
HETATM   16  C8  UNL     1      -2.357  -1.420  33.845  1.00  0.00     0.029 C 
BRANCH  16  17
HETATM   17  C9  UNL     1      -2.850  -2.441  34.880  1.00  0.00     0.229 C 
BRANCH  17  18
HETATM   18  N4  UNL     1      -4.287  -2.476  34.930  1.00  0.00    -0.079 N 
ATOM     19  H43 UNL     1      -4.682  -1.544  35.055  1.00  0.00     0.274 HD
ATOM     20  H42 UNL     1      -4.689  -2.695  34.019  1.00  0.00     0.274 HD
ATOM     21  H41 UNL     1      -4.614  -3.122  35.650  1.00  0.00     0.274 HD
ENDBRANCH  17  18
ENDBRANCH  16  17
ENDBRANCH  15  16
ENDBRANCH  14  15
ENDBRANCH   8  14
BRANCH   1  22
HETATM   22  N1  UNL     1      -1.038  -1.025  28.449  1.00  0.00    -0.234 N 
ATOM     23  H12 UNL     1      -0.232  -1.025  29.073  1.00  0.00     0.174 HD
ATOM     24  H11 UNL     1      -1.019  -1.454  27.524  1.00  0.00     0.174 HD
ENDBRANCH   1  22
TORSDOF 6
ENDMDL
MODEL 3
REMARK VINA RESULT: -7.358377035      1.458      1.707
REMARK  6 active torsions:
REMARK  status: ('A' for Active; 'I' for Inactive)
REMARK    1  A    between atoms: N1_1  and  C1_4 
REMARK    2  A    between atoms: N3_11  and  C6_12 
REMARK    3  A    between atoms: C6_12  and  C7_13 
REMARK    4  A    between atoms: C7_13  and  C8_14 
REMARK    5  A    between atoms: C8_14  and  C9_15 
REMARK    6  A    between atoms: C9_15  and  N4_16 
ROOT
HETATM    1  C1  UNL     1      -2.307  -0.424  28.672  1.00  0.00     0.684 A 
HETATM    2  N2  UNL     1      -2.562   0.003  29.923  1.00  0.00    -0.175 N 
ATOM      3  H2  UNL     1      -1.863  -0.146  30.650  1.00  0.00     0.186 HD
HETATM    4  C2  UNL     1      -3.711   0.621  30.241  1.00  0.00     0.135 A 
HETATM    5  C3  UNL     1      -4.627   0.799  29.222  1.00  0.00     0.038 A 
HETATM    6  C4  UNL     1      -5.696   1.447  29.816  1.00  0.00     0.035 A 
HETATM    7  C5  UNL     1      -5.444   1.655  31.142  1.00  0.00     0.093 A 
HETATM    8  N3  UNL     1      -4.221   1.144  31.392  1.00  0.00    -0.342 N 
HETATM    9  C10 UNL     1      -4.343   0.352  27.949  1.00  0.00     0.070 A 
HETATM   10  C11 UNL     1      -5.063   0.400  26.774  1.00  0.00     0.033 A 
HETATM   11  C12 UNL     1      -4.342  -0.189  25.755  1.00  0.00     0.020 A 
HETATM   12  C13 UNL     1      -3.160  -0.600  26.333  1.00  0.00     0.115 A 
HETATM   13  N5  UNL     1      -3.178  -0.266  27.657  1.00  0.00    -0.158 N 
ENDROOT
BRANCH   8  14
HETATM   14  C6  UNL     1      -3.535   1.140  32.686  1.00  0.00     0.130 C 
BRANCH  14  15
HETATM   15  C7  UNL     1      -4.341   1.984  33.621  1.00  0.00     0.022 C 
BRANCH  15  16
HETATM   16  C8  UNL     1      -4.452   1.435  35.002  1.00  0.00     0.029 C 
BRANCH  16  17
HETATM   17  C9  UNL     1      -3.475   0.254  35.093  1.00  0.00     0.229 C 
BRANCH  17  18
HETATM   18  N4  UNL     1      -4.099  -0.890  35.702  1.00  0.00    -0.079 N 
ATOM     19  H43 UNL     1      -3.728  -1.068  36.634  1.00  0.00     0.274 HD
ATOM     20  H42 UNL     1      -5.069  -0.698  35.955  1.00  0.00     0.274 HD
ATOM     21  H41 UNL     1      -4.023  -1.712  35.103  1.00  0.00     0.274 HD
ENDBRANCH  17  18
ENDBRANCH  16  17
ENDBRANCH  15  16
ENDBRANCH  14  15
ENDBRANCH   8  14
BRANCH   1  22
HETATM   22  N1  UNL     1      -1.188  -1.023  28.371  1.00  0.00    -0.234 N 
ATOM     23  H12 UNL     1      -1.168  -2.030  28.530  1.00  0.00     0.174 HD
ATOM     24  H11 UNL     1      -0.389  -0.507  28.001  1.00  0.00     0.174 HD
ENDBRANCH   1  22
TORSDOF 6
ENDMDL
MODEL 4
REMARK VINA RESULT: -7.117384222      1.484      2.647
REMARK  6 active torsions:
REMARK  status: ('A' for Active; 'I' for Inactive)
REMARK    1  A    between atoms: N1_1  and  C1_4 
REMARK    2  A    between atoms: N3_11  and  C6_12 
REMARK    3  A    between atoms: C6_12  and  C7_13 
REMARK    4  A    between atoms: C7_13  and  C8_14 
REMARK    5  A    between atoms: C8_14  and  C9_15 
REMARK    6  A    between atoms: C9_15  and  N4_16 
ROOT
HETATM    1  C1  UNL     1      -5.182   0.704  29.050  1.00  0.00     0.684 A 
HETATM    2  N2  UNL     1      -4.431   0.647  30.166  1.00  0.00    -0.175 N 
ATOM      3  H2  UNL     1      -4.838   0.946  31.052  1.00  0.00     0.186 HD
HETATM    4  C2  UNL     1      -3.162   0.210  30.146  1.00  0.00     0.135 A 
HETATM    5  C3  UNL     1      -2.656  -0.182  28.922  1.00  0.00     0.038 A 
HETATM    6  C4  UNL     1      -1.356  -0.578  29.186  1.00  0.00     0.035 A 
HETATM    7  C5  UNL     1      -1.081  -0.435  30.516  1.00  0.00     0.093 A 
HETATM    8  N3  UNL     1      -2.197   0.050  31.096  1.00  0.00    -0.342 N 
HETATM    9  C10 UNL     1      -3.444  -0.114  27.793  1.00  0.00     0.070 A 
HETATM   10  C11 UNL     1      -3.195  -0.436  26.475  1.00  0.00     0.033 A 
HETATM   11  C12 UNL     1      -4.317  -0.190  25.709  1.00  0.00     0.020 A 
HETATM   12  C13 UNL     1      -5.262   0.290  26.590  1.00  0.00     0.115 A 
HETATM   13  N5  UNL     1      -4.719   0.329  27.842  1.00  0.00    -0.158 N 
ENDROOT
BRANCH   8  14
HETATM   14  C6  UNL     1      -2.366   0.363  32.517  1.00  0.00     0.130 C 
BRANCH  14  15
HETATM   15  C7  UNL     1      -2.069  -0.884  33.287  1.00  0.00     0.022 C 
BRANCH  15  16
HETATM   16  C8  UNL     1      -1.487  -0.647  34.638  1.00  0.00     0.029 C 
BRANCH  16  17
HETATM   17  C9  UNL     1      -2.111   0.650  35.172  1.00  0.00     0.229 C 
BRANCH  17  18
HETATM   18  N4  UNL     1      -1.107   1.523  35.718  1.00  0.00    -0.079 N 
ATOM     19  H43 UNL     1      -0.621   1.091  36.504  1.00  0.00     0.274 HD
ATOM     20  H42 UNL     1      -0.315   1.627  35.084  1.00  0.00     0.274 HD
ATOM     21  H41 UNL     1      -1.505   2.426  35.974  1.00  0.00     0.274 HD
ENDBRANCH  17  18
ENDBRANCH  16  17
ENDBRANCH  15  16
ENDBRANCH  14  15
ENDBRANCH   8  14
BRANCH   1  22
HETATM   22  N1  UNL     1      -6.414   1.130  29.078  1.00  0.00    -0.234 N 
ATOM     23  H12 UNL     1      -6.540   2.104  29.352  1.00  0.00     0.174 HD
ATOM     24  H11 UNL     1      -7.196   0.519  28.839  1.00  0.00     0.174 HD
ENDBRANCH   1  22
TORSDOF 6
ENDMDL
MODEL 5
REMARK VINA RESULT: -7.087458961      1.696      2.248
REMARK  6 active torsions:
REMARK  status: ('A' for Active; 'I' for Inactive)
REMARK    1  A    between atoms: N1_1  and  C1_4 
REMARK    2  A    between atoms: N3_11  and  C6_12 
REMARK    3  A    between atoms: C6_12  and  C7_13 
REMARK    4  A    between atoms: C7_13  and  C8_14 
REMARK    5  A    between atoms: C8_14  and  C9_15 
REMARK    6  A    between atoms: C9_15  and  N4_16 
ROOT
HETATM    1  C1  UNL     1      -2.125  -0.327  30.458  1.00  0.00     0.684 A 
HETATM    2  N2  UNL     1      -1.943  -0.093  31.771  1.00  0.00    -0.175 N 
ATOM      3  H2  UNL     1      -1.115  -0.473  32.231  1.00  0.00     0.186 HD
HETATM    4  C2  UNL     1      -2.817   0.625  32.492  1.00  0.00     0.135 A 
HETATM    5  C3  UNL     1      -3.922   1.117  31.824  1.00  0.00     0.038 A 
HETATM    6  C4  UNL     1      -4.641   1.804  32.787  1.00  0.00     0.035 A 
HETATM    7  C5  UNL     1      -4.002   1.735  33.991  1.00  0.00     0.093 A 
HETATM    8  N3  UNL     1      -2.883   1.009  33.799  1.00  0.00    -0.342 N 
HETATM    9  C10 UNL     1      -4.088   0.863  30.479  1.00  0.00     0.070 A 
HETATM   10  C11 UNL     1      -5.077   1.227  29.588  1.00  0.00     0.033 A 
HETATM   11  C12 UNL     1      -4.790   0.724  28.335  1.00  0.00     0.020 A 
HETATM   12  C13 UNL     1      -3.599   0.043  28.478  1.00  0.00     0.115 A 
HETATM   13  N5  UNL     1      -3.191   0.138  29.777  1.00  0.00    -0.158 N 
ENDROOT
BRANCH   8  14
HETATM   14  C6  UNL     1      -1.885   0.673  34.818  1.00  0.00     0.130 C 
BRANCH  14  15
HETATM   15  C7  UNL     1      -2.465  -0.411  35.669  1.00  0.00     0.022 C 
BRANCH  15  16
HETATM   16  C8  UNL     1      -1.907  -1.766  35.401  1.00  0.00     0.029 C 
BRANCH  16  17
HETATM   17  C9  UNL     1      -3.093  -2.740  35.370  1.00  0.00     0.229 C 
BRANCH  17  18
HETATM   18  N4  UNL     1      -4.175  -2.213  34.581  1.00  0.00    -0.079 N 
ATOM     19  H43 UNL     1      -3.902  -1.361  34.091  1.00  0.00     0.274 HD
ATOM     20  H42 UNL     1      -4.370  -2.802  33.771  1.00  0.00     0.274 HD
ATOM     21  H41 UNL     1      -5.009  -2.069  35.150  1.00  0.00     0.274 HD
ENDBRANCH  17  18
ENDBRANCH  16  17
ENDBRANCH  15  16
ENDBRANCH  14  15
ENDBRANCH   8  14
BRANCH   1  22
HETATM   22  N1  UNL     1      -1.271  -1.026  29.764  1.00  0.00    -0.234 N 
ATOM     23  H12 UNL     1      -0.497  -0.502  29.356  1.00  0.00     0.174 HD
ATOM     24  H11 UNL     1      -1.379  -2.034  29.642  1.00  0.00     0.174 HD
ENDBRANCH   1  22
TORSDOF 6
ENDMDL
