MODEL 1
REMARK VINA RESULT: -7.665626484      0.000      0.000
REMARK  6 active torsions:
REMARK  status: ('A' for Active; 'I' for Inactive)
REMARK    1  A    between atoms: N1_1  and  C1_4 
REMARK    2  A    between atoms: C2_7  and  C3_8 
REMARK    3  A    between atoms: C3_8  and  C4_9 
REMARK    4  A    between atoms: C4_9  and  N3_11 
REMARK    5  A    between atoms: N3_11  and  C5_13 
REMARK    6  A    between atoms: C5_13  and  C6_14 
ROOT
HETATM    1  C3  UNL     1      -4.155   1.751  33.768  1.00  0.00     0.147 C 
ENDROOT
BRANCH   1   2
HETATM    2  C2  UNL     1      -3.424   0.479  33.914  1.00  0.00     0.111 A 
HETATM    3  N2  UNL     1      -3.987  -0.684  34.286  1.00  0.00    -0.309 N 
HETATM    4  C1  UNL     1      -3.034  -1.634  34.315  1.00  0.00     0.242 A 
ATOM      5  H2  UNL     1      -4.972  -0.823  34.509  1.00  0.00     0.170 HD
HETATM    6  O1  UNL     1      -1.926  -1.035  33.965  1.00  0.00    -0.200 OA
HETATM    7  N4  UNL     1      -2.123   0.209  33.721  1.00  0.00    -0.245 N 
ATOM      8  H4  UNL     1      -1.411   0.880  33.431  1.00  0.00     0.196 HD
BRANCH   4   9
HETATM    9  N1  UNL     1      -3.231  -2.866  34.632  1.00  0.00    -0.364 N 
ATOM     10  H12 UNL     1      -2.832  -3.711  34.223  1.00  0.00     0.159 HD
ATOM     11  H11 UNL     1      -3.849  -3.185  35.379  1.00  0.00     0.159 HD
ENDBRANCH   4   9
ENDBRANCH   1   2
BRANCH   1  12
HETATM   12  C4  UNL     1      -4.444   2.103  32.372  1.00  0.00     0.080 C 
HETATM   13  S1  UNL     1      -4.851   3.619  31.969  1.00  0.00    -0.065 SA
BRANCH  12  14
HETATM   14  N3  UNL     1      -4.374   1.132  31.358  1.00  0.00    -0.380 N 
ATOM     15  H3  UNL     1      -3.710   0.361  31.421  1.00  0.00     0.160 HD
BRANCH  14  16
HETATM   16  C5  UNL     1      -5.262   1.248  30.225  1.00  0.00     0.158 C 
BRANCH  16  17
HETATM   17  C6  UNL     1      -4.642   0.655  29.036  1.00  0.00    -0.041 A 
HETATM   18  C7  UNL     1      -3.385   0.089  29.143  1.00  0.00     0.009 A 
HETATM   19  C8  UNL     1      -2.775  -0.472  28.063  1.00  0.00     0.001 A 
HETATM   20  C9  UNL     1      -3.443  -0.463  26.853  1.00  0.00     0.000 A 
HETATM   21  C10 UNL     1      -4.703   0.093  26.704  1.00  0.00     0.001 A 
HETATM   22  C11 UNL     1      -5.300   0.655  27.811  1.00  0.00     0.009 A 
ENDBRANCH  16  17
ENDBRANCH  14  16
ENDBRANCH  12  14
ENDBRANCH   1  12
TORSDOF 6
ENDMDL
MODEL 2
REMARK VINA RESULT: -7.659752335      1.987      2.649
REMARK  6 active torsions:
REMARK  status: ('A' for Active; 'I' for Inactive)
REMARK    1  A    between atoms: N1_1  and  C1_4 
REMARK    2  A    between atoms: C2_7  and  C3_8 
REMARK    3  A    between atoms: C3_8  and  C4_9 
REMARK    4  A    between atoms: C4_9  and  N3_11 
REMARK    5  A    between atoms: N3_11  and  C5_13 
REMARK    6  A    between atoms: C5_13  and  C6_14 
ROOT
HETATM    1  C3  UNL     1      -1.720  -1.205  32.881  1.00  0.00     0.147 C 
ENDROOT
BRANCH   1   2
HETATM    2  C2  UNL     1      -1.357  -1.107  34.306  1.00  0.00     0.111 A 
HETATM    3  N2  UNL     1      -1.812  -1.932  35.266  1.00  0.00    -0.309 N 
HETATM    4  C1  UNL     1      -1.281  -1.556  36.444  1.00  0.00     0.242 A 
ATOM      5  H2  UNL     1      -2.454  -2.712  35.125  1.00  0.00     0.170 HD
HETATM    6  O1  UNL     1      -0.523  -0.525  36.179  1.00  0.00    -0.200 OA
HETATM    7  N4  UNL     1      -0.547  -0.236  34.928  1.00  0.00    -0.245 N 
ATOM      8  H4  UNL     1      -0.037   0.527  34.483  1.00  0.00     0.196 HD
BRANCH   4   9
HETATM    9  N1  UNL     1      -1.508  -2.134  37.573  1.00  0.00    -0.364 N 
ATOM     10  H12 UNL     1      -2.250  -1.959  38.251  1.00  0.00     0.159 HD
ATOM     11  H11 UNL     1      -0.946  -2.889  37.966  1.00  0.00     0.159 HD
ENDBRANCH   4   9
ENDBRANCH   1   2
BRANCH   1  12
HETATM   12  C4  UNL     1      -2.484  -0.050  32.391  1.00  0.00     0.080 C 
HETATM   13  S1  UNL     1      -3.732   0.536  33.242  1.00  0.00    -0.065 SA
BRANCH  12  14
HETATM   14  N3  UNL     1      -2.148   0.570  31.175  1.00  0.00    -0.380 N 
ATOM     15  H3  UNL     1      -2.068   1.584  31.113  1.00  0.00     0.160 HD
BRANCH  14  16
HETATM   16  C5  UNL     1      -1.920  -0.259  30.014  1.00  0.00     0.158 C 
BRANCH  16  17
HETATM   17  C6  UNL     1      -2.991  -0.058  29.033  1.00  0.00    -0.041 A 
HETATM   18  C7  UNL     1      -2.831  -0.549  27.752  1.00  0.00     0.009 A 
HETATM   19  C8  UNL     1      -3.802  -0.384  26.811  1.00  0.00     0.001 A 
HETATM   20  C9  UNL     1      -4.956   0.289  27.170  1.00  0.00     0.000 A 
HETATM   21  C10 UNL     1      -5.155   0.796  28.443  1.00  0.00     0.001 A 
HETATM   22  C11 UNL     1      -4.157   0.616  29.378  1.00  0.00     0.009 A 
ENDBRANCH  16  17
ENDBRANCH  14  16
ENDBRANCH  12  14
ENDBRANCH   1  12
TORSDOF 6
ENDMDL
MODEL 3
REMARK VINA RESULT: -7.649414827      2.004      2.709
REMARK  6 active torsions:
REMARK  status: ('A' for Active; 'I' for Inactive)
REMARK    1  A    between atoms: N1_1  and  C1_4 
REMARK    2  A    between atoms: C2_7  and  C3_8 
REMARK    3  A    between atoms: C3_8  and  C4_9 
REMARK    4  A    between atoms: C4_9  and  N3_11 
REMARK    5  A    between atoms: N3_11  and  C5_13 
REMARK    6  A    between atoms: C5_13  and  C6_14 
ROOT
HETATM    1  C3  UNL     1      -1.713  -1.223  32.895  1.00  0.00     0.147 C 
ENDROOT
BRANCH   1   2
HETATM    2  C2  UNL     1      -1.347  -1.117  34.319  1.00  0.00     0.111 A 
HETATM    3  N2  UNL     1      -1.802  -1.934  35.286  1.00  0.00    -0.309 N 
HETATM    4  C1  UNL     1      -1.267  -1.552  36.460  1.00  0.00     0.242 A 
ATOM      5  H2  UNL     1      -2.446  -2.713  35.151  1.00  0.00     0.170 HD
HETATM    6  O1  UNL     1      -0.507  -0.524  36.186  1.00  0.00    -0.200 OA
HETATM    7  N4  UNL     1      -0.533  -0.244  34.934  1.00  0.00    -0.245 N 
ATOM      8  H4  UNL     1      -0.021   0.514  34.482  1.00  0.00     0.196 HD
BRANCH   4   9
HETATM    9  N1  UNL     1      -1.493  -2.121  37.593  1.00  0.00    -0.364 N 
ATOM     10  H12 UNL     1      -0.850  -2.627  38.203  1.00  0.00     0.159 HD
ATOM     11  H11 UNL     1      -2.398  -2.145  38.064  1.00  0.00     0.159 HD
ENDBRANCH   4   9
ENDBRANCH   1   2
BRANCH   1  12
HETATM   12  C4  UNL     1      -2.479  -0.072  32.401  1.00  0.00     0.080 C 
HETATM   13  S1  UNL     1      -3.735   0.509  33.244  1.00  0.00    -0.065 SA
BRANCH  12  14
HETATM   14  N3  UNL     1      -2.138   0.549  31.187  1.00  0.00    -0.380 N 
ATOM     15  H3  UNL     1      -2.058   1.564  31.126  1.00  0.00     0.160 HD
BRANCH  14  16
HETATM   16  C5  UNL     1      -1.903  -0.279  30.026  1.00  0.00     0.158 C 
BRANCH  16  17
HETATM   17  C6  UNL     1      -2.967  -0.073  29.038  1.00  0.00    -0.041 A 
HETATM   18  C7  UNL     1      -4.115   0.598  29.414  1.00  0.00     0.009 A 
HETATM   19  C8  UNL     1      -5.125   0.809  28.526  1.00  0.00     0.001 A 
HETATM   20  C9  UNL     1      -4.975   0.336  27.235  1.00  0.00     0.000 A 
HETATM   21  C10 UNL     1      -3.841  -0.340  26.819  1.00  0.00     0.001 A 
HETATM   22  C11 UNL     1      -2.831  -0.542  27.736  1.00  0.00     0.009 A 
ENDBRANCH  16  17
ENDBRANCH  14  16
ENDBRANCH  12  14
ENDBRANCH   1  12
TORSDOF 6
ENDMDL
MODEL 4
REMARK VINA RESULT: -7.637359244      1.246      2.040
REMARK  6 active torsions:
REMARK  status: ('A' for Active; 'I' for Inactive)
REMARK    1  A    between atoms: N1_1  and  C1_4 
REMARK    2  A    between atoms: C2_7  and  C3_8 
REMARK    3  A    between atoms: C3_8  and  C4_9 
REMARK    4  A    between atoms: C4_9  and  N3_11 
REMARK    5  A    between atoms: N3_11  and  C5_13 
REMARK    6  A    between atoms: C5_13  and  C6_14 
ROOT
HETATM    1  C3  UNL     1      -4.470   2.136  34.189  1.00  0.00     0.147 C 
ENDROOT
BRANCH   1   2
HETATM    2  C2  UNL     1      -3.516   1.134  34.697  1.00  0.00     0.111 A 
HETATM    3  N2  UNL     1      -2.180   1.287  34.700  1.00  0.00    -0.309 N 
HETATM    4  C1  UNL     1      -1.621   0.185  35.233  1.00  0.00     0.242 A 
ATOM      5  H2  UNL     1      -1.674   2.103  34.356  1.00  0.00     0.170 HD
HETATM    6  O1  UNL     1      -2.616  -0.605  35.539  1.00  0.00    -0.200 OA
HETATM    7  N4  UNL     1      -3.745  -0.075  35.236  1.00  0.00    -0.245 N 
ATOM      8  H4  UNL     1      -4.661  -0.499  35.380  1.00  0.00     0.196 HD
BRANCH   4   9
HETATM    9  N1  UNL     1      -0.355   0.001  35.385  1.00  0.00    -0.364 N 
ATOM     10  H12 UNL     1       0.179  -0.141  36.243  1.00  0.00     0.159 HD
ATOM     11  H11 UNL     1       0.326  -0.031  34.626  1.00  0.00     0.159 HD
ENDBRANCH   4   9
ENDBRANCH   1   2
BRANCH   1  12
HETATM   12  C4  UNL     1      -4.530   2.195  32.723  1.00  0.00     0.080 C 
HETATM   13  S1  UNL     1      -4.794   3.602  31.963  1.00  0.00    -0.065 SA
BRANCH  12  14
HETATM   14  N3  UNL     1      -4.362   1.033  31.950  1.00  0.00    -0.380 N 
ATOM     15  H3  UNL     1      -5.039   0.272  32.001  1.00  0.00     0.160 HD
BRANCH  14  16
HETATM   16  C5  UNL     1      -3.212   0.938  31.081  1.00  0.00     0.158 C 
BRANCH  16  17
HETATM   17  C6  UNL     1      -3.633   0.572  29.725  1.00  0.00    -0.041 A 
HETATM   18  C7  UNL     1      -4.871   0.986  29.270  1.00  0.00     0.009 A 
HETATM   19  C8  UNL     1      -5.299   0.667  28.018  1.00  0.00     0.001 A 
HETATM   20  C9  UNL     1      -4.464  -0.082  27.208  1.00  0.00     0.000 A 
HETATM   21  C10 UNL     1      -3.218  -0.516  27.627  1.00  0.00     0.001 A 
HETATM   22  C11 UNL     1      -2.806  -0.180  28.899  1.00  0.00     0.009 A 
ENDBRANCH  16  17
ENDBRANCH  14  16
ENDBRANCH  12  14
ENDBRANCH   1  12
TORSDOF 6
ENDMDL
MODEL 5
REMARK VINA RESULT: -7.630639729      1.255      1.785
REMARK  6 active torsions:
REMARK  status: ('A' for Active; 'I' for Inactive)
REMARK    1  A    between atoms: N1_1  and  C1_4 
REMARK    2  A    between atoms: C2_7  and  C3_8 
REMARK    3  A    between atoms: C3_8  and  C4_9 
REMARK    4  A    between atoms: C4_9  and  N3_11 
REMARK    5  A    between atoms: N3_11  and  C5_13 
REMARK    6  A    between atoms: C5_13  and  C6_14 
ROOT
HETATM    1  C3  UNL     1      -4.475   2.125  34.195  1.00  0.00     0.147 C 
ENDROOT
BRANCH   1   2
HETATM    2  C2  UNL     1      -3.504   1.139  34.702  1.00  0.00     0.111 A 
HETATM    3  N2  UNL     1      -2.169   1.303  34.678  1.00  0.00    -0.309 N 
HETATM    4  C1  UNL     1      -1.591   0.215  35.218  1.00  0.00     0.242 A 
ATOM      5  H2  UNL     1      -1.677   2.118  34.311  1.00  0.00     0.170 HD
HETATM    6  O1  UNL     1      -2.574  -0.578  35.555  1.00  0.00    -0.200 OA
HETATM    7  N4  UNL     1      -3.713  -0.062  35.265  1.00  0.00    -0.245 N 
ATOM      8  H4  UNL     1      -4.623  -0.492  35.432  1.00  0.00     0.196 HD
BRANCH   4   9
HETATM    9  N1  UNL     1      -0.322   0.043  35.351  1.00  0.00    -0.364 N 
ATOM     10  H12 UNL     1       0.389   0.700  35.673  1.00  0.00     0.159 HD
ATOM     11  H11 UNL     1       0.176  -0.823  35.140  1.00  0.00     0.159 HD
ENDBRANCH   4   9
ENDBRANCH   1   2
BRANCH   1  12
HETATM   12  C4  UNL     1      -4.528   2.194  32.729  1.00  0.00     0.080 C 
HETATM   13  S1  UNL     1      -4.778   3.607  31.977  1.00  0.00    -0.065 SA
BRANCH  12  14
HETATM   14  N3  UNL     1      -4.364   1.035  31.950  1.00  0.00    -0.380 N 
ATOM     15  H3  UNL     1      -5.037   0.271  32.007  1.00  0.00     0.160 HD
BRANCH  14  16
HETATM   16  C5  UNL     1      -3.225   0.949  31.067  1.00  0.00     0.158 C 
BRANCH  16  17
HETATM   17  C6  UNL     1      -3.661   0.585  29.715  1.00  0.00    -0.041 A 
HETATM   18  C7  UNL     1      -2.825  -0.174  28.919  1.00  0.00     0.009 A 
HETATM   19  C8  UNL     1      -3.194  -0.533  27.658  1.00  0.00     0.001 A 
HETATM   20  C9  UNL     1      -4.428  -0.119  27.191  1.00  0.00     0.000 A 
HETATM   21  C10 UNL     1      -5.294   0.642  27.957  1.00  0.00     0.001 A 
HETATM   22  C11 UNL     1      -4.899   0.993  29.231  1.00  0.00     0.009 A 
ENDBRANCH  16  17
ENDBRANCH  14  16
ENDBRANCH  12  14
ENDBRANCH   1  12
TORSDOF 6
ENDMDL
