MODEL 1
REMARK VINA RESULT: -8.609621457      0.000      0.000
REMARK  14 active torsions:
REMARK  status: ('A' for Active; 'I' for Inactive)
REMARK    1  A    between atoms: C2_2  and  N1_3 
REMARK    2  A    between atoms: N1_3  and  C3_4 
REMARK    3  A    between atoms: N1_3  and  S3_41 
REMARK    4  A    between atoms: C6_7  and  C7_8 
REMARK       I    between atoms: C7_8  and  N2_10 
REMARK    5  A    between atoms: N2_10  and  C8_12 
REMARK    6  A    between atoms: C9_17  and  C10_18 
REMARK    7  A    between atoms: C10_18  and  C11_19 
REMARK    8  A    between atoms: C11_19  and  C12_20 
REMARK    9  A    between atoms: C12_20  and  C13_21 
REMARK   10  A    between atoms: C13_21  and  C14_22 
REMARK   11  A    between atoms: C16_26  and  N6_27 
REMARK       I    between atoms: N6_27  and  C17_29 
REMARK   12  A    between atoms: C17_29  and  C18_31 
REMARK   13  A    between atoms: C18_31  and  C19_32 
REMARK   14  A    between atoms: C19_32  and  C20_33 
ROOT
HETATM    1  C8  UNL     1     -10.894 -18.836  17.899  1.00  0.00     0.168 A 
HETATM    2  N3  UNL     1      -9.698 -18.869  17.300  1.00  0.00    -0.279 N 
ATOM      3  H3  UNL     1      -8.939 -19.432  17.685  1.00  0.00     0.189 HD
HETATM    4  N4  UNL     1      -9.525 -18.188  16.248  1.00  0.00    -0.296 N 
ATOM      5  H4  UNL     1      -8.617 -18.206  15.783  1.00  0.00     0.187 HD
HETATM    6  C9  UNL     1     -10.501 -17.455  15.739  1.00  0.00     0.069 A 
HETATM    7  S2  UNL     1     -11.765 -17.780  16.880  1.00  0.00    -0.038 SA
ENDROOT
BRANCH   6   8
HETATM    8  C10 UNL     1     -10.532 -16.586  14.532  1.00  0.00     0.066 C 
BRANCH   8   9
HETATM    9  C11 UNL     1      -9.137 -16.266  14.089  1.00  0.00     0.007 C 
BRANCH   9  10
HETATM   10  C12 UNL     1      -8.762 -14.884  14.551  1.00  0.00     0.006 C 
BRANCH  10  11
HETATM   11  C13 UNL     1      -7.294 -14.706  14.648  1.00  0.00     0.048 C 
BRANCH  11  12
HETATM   12  C14 UNL     1      -6.716 -15.434  15.816  1.00  0.00     0.001 A 
HETATM   13  C15 UNL     1      -5.609 -16.221  15.942  1.00  0.00     0.104 A 
HETATM   14  N5  UNL     1      -5.346 -16.756  17.097  1.00  0.00    -0.345 N 
HETATM   15  C16 UNL     1      -6.166 -16.516  18.117  1.00  0.00     0.151 A 
ATOM     16  H5  UNL     1      -4.525 -17.349  17.220  1.00  0.00     0.167 HD
HETATM   17  S1  UNL     1      -7.350 -15.502  17.432  1.00  0.00    -0.057 SA
BRANCH  15  18
HETATM   18  N6  UNL     1      -6.067 -16.963  19.351  1.00  0.00    -0.307 N 
HETATM   19  C17 UNL     1      -6.897 -16.436  20.349  1.00  0.00     0.224 C 
HETATM   20  O2  UNL     1      -6.418 -15.488  21.049  1.00  0.00    -0.273 OA
ATOM     21  H6  UNL     1      -5.389 -17.690  19.580  1.00  0.00     0.171 HD
BRANCH  19  22
HETATM   22  C18 UNL     1      -8.266 -16.909  20.630  1.00  0.00     0.112 C 
BRANCH  22  23
HETATM   23  C19 UNL     1      -8.332 -18.006  21.631  1.00  0.00     0.109 C 
BRANCH  23  24
HETATM   24  C20 UNL     1      -8.368 -19.366  21.078  1.00  0.00     0.231 C 
HETATM   25  N7  UNL     1      -8.739 -20.513  21.796  1.00  0.00    -0.062 NA
HETATM   26  O3  UNL     1      -8.042 -19.529  19.865  1.00  0.00    -0.277 OA
ENDBRANCH  23  24
ENDBRANCH  22  23
ENDBRANCH  19  22
ENDBRANCH  15  18
ENDBRANCH  11  12
ENDBRANCH  10  11
ENDBRANCH   9  10
ENDBRANCH   8   9
ENDBRANCH   6   8
BRANCH   1  27
HETATM   27  N2  UNL     1     -11.255 -19.473  18.991  1.00  0.00    -0.302 N 
HETATM   28  C7  UNL     1     -11.322 -20.887  18.888  1.00  0.00     0.257 C 
HETATM   29  O1  UNL     1     -10.267 -21.550  18.838  1.00  0.00    -0.267 OA
ATOM     30  H2  UNL     1     -11.475 -18.982  19.858  1.00  0.00     0.171 HD
BRANCH  28  31
HETATM   31  C6  UNL     1     -12.617 -21.544  18.842  1.00  0.00     0.033 A 
HETATM   32  C5  UNL     1     -13.747 -20.839  19.157  1.00  0.00     0.019 A 
HETATM   33  C4  UNL     1     -14.964 -21.469  19.110  1.00  0.00     0.032 A 
HETATM   34  C3  UNL     1     -15.100 -22.796  18.756  1.00  0.00     0.050 A 
HETATM   35  C22 UNL     1     -13.975 -23.513  18.438  1.00  0.00    -0.034 A 
HETATM   36  C21 UNL     1     -12.733 -22.881  18.482  1.00  0.00     0.026 A 
HETATM   37  C23 UNL     1     -14.075 -24.946  18.062  1.00  0.00     0.050 C 
BRANCH  34  38
HETATM   38  N1  UNL     1     -16.402 -23.349  18.728  1.00  0.00    -0.276 N 
BRANCH  38  39
HETATM   39  C2  UNL     1     -16.942 -23.801  20.000  1.00  0.00     0.137 C 
HETATM   40  C1  UNL     1     -16.590 -25.216  20.320  1.00  0.00     0.028 C 
ENDBRANCH  38  39
BRANCH  38  41
HETATM   41  S3  UNL     1     -17.244 -23.454  17.257  1.00  0.00     0.229 S 
HETATM   42  C24 UNL     1     -16.554 -22.534  15.933  1.00  0.00     0.186 C 
HETATM   43  O4  UNL     1     -18.652 -22.928  17.500  1.00  0.00    -0.206 OA
HETATM   44  O5  UNL     1     -17.393 -24.901  16.875  1.00  0.00    -0.206 OA
ENDBRANCH  38  41
ENDBRANCH  34  38
ENDBRANCH  28  31
ENDBRANCH   1  27
TORSDOF 14
ENDMDL
MODEL 2
REMARK VINA RESULT: -8.517941932      2.889     10.980
REMARK  14 active torsions:
REMARK  status: ('A' for Active; 'I' for Inactive)
REMARK    1  A    between atoms: C2_2  and  N1_3 
REMARK    2  A    between atoms: N1_3  and  C3_4 
REMARK    3  A    between atoms: N1_3  and  S3_41 
REMARK    4  A    between atoms: C6_7  and  C7_8 
REMARK       I    between atoms: C7_8  and  N2_10 
REMARK    5  A    between atoms: N2_10  and  C8_12 
REMARK    6  A    between atoms: C9_17  and  C10_18 
REMARK    7  A    between atoms: C10_18  and  C11_19 
REMARK    8  A    between atoms: C11_19  and  C12_20 
REMARK    9  A    between atoms: C12_20  and  C13_21 
REMARK   10  A    between atoms: C13_21  and  C14_22 
REMARK   11  A    between atoms: C16_26  and  N6_27 
REMARK       I    between atoms: N6_27  and  C17_29 
REMARK   12  A    between atoms: C17_29  and  C18_31 
REMARK   13  A    between atoms: C18_31  and  C19_32 
REMARK   14  A    between atoms: C19_32  and  C20_33 
ROOT
HETATM    1  C8  UNL     1     -13.767 -19.818  18.273  1.00  0.00     0.168 A 
HETATM    2  N3  UNL     1     -14.963 -20.181  17.792  1.00  0.00    -0.279 N 
ATOM      3  H3  UNL     1     -15.543 -19.512  17.285  1.00  0.00     0.189 HD
HETATM    4  N4  UNL     1     -15.360 -21.367  17.978  1.00  0.00    -0.296 N 
ATOM      5  H4  UNL     1     -16.270 -21.654  17.615  1.00  0.00     0.187 HD
HETATM    6  C9  UNL     1     -14.617 -22.243  18.634  1.00  0.00     0.069 A 
HETATM    7  S2  UNL     1     -13.236 -21.264  19.008  1.00  0.00    -0.038 SA
ENDROOT
BRANCH   6   8
HETATM    8  C10 UNL     1     -14.870 -23.670  18.970  1.00  0.00     0.066 C 
BRANCH   8   9
HETATM    9  C11 UNL     1     -15.517 -23.777  20.317  1.00  0.00     0.007 C 
BRANCH   9  10
HETATM   10  C12 UNL     1     -16.483 -24.930  20.326  1.00  0.00     0.006 C 
BRANCH  10  11
HETATM   11  C13 UNL     1     -17.774 -24.583  19.687  1.00  0.00     0.048 C 
BRANCH  11  12
HETATM   12  C14 UNL     1     -17.807 -24.967  18.245  1.00  0.00     0.001 A 
HETATM   13  C15 UNL     1     -17.642 -26.167  17.617  1.00  0.00     0.104 A 
HETATM   14  N5  UNL     1     -17.705 -26.211  16.319  1.00  0.00    -0.345 N 
HETATM   15  C16 UNL     1     -17.929 -25.084  15.648  1.00  0.00     0.151 A 
ATOM     16  H5  UNL     1     -17.585 -27.095  15.823  1.00  0.00     0.167 HD
HETATM   17  S1  UNL     1     -18.057 -23.918  16.883  1.00  0.00    -0.057 SA
BRANCH  15  18
HETATM   18  N6  UNL     1     -18.025 -24.929  14.345  1.00  0.00    -0.307 N 
HETATM   19  C17 UNL     1     -17.721 -23.690  13.768  1.00  0.00     0.224 C 
HETATM   20  O2  UNL     1     -18.697 -22.901  13.561  1.00  0.00    -0.273 OA
ATOM     21  H6  UNL     1     -18.320 -25.709  13.757  1.00  0.00     0.171 HD
BRANCH  19  22
HETATM   22  C18 UNL     1     -16.361 -23.255  13.395  1.00  0.00     0.112 C 
BRANCH  22  23
HETATM   23  C19 UNL     1     -15.808 -22.188  14.270  1.00  0.00     0.109 C 
BRANCH  23  24
HETATM   24  C20 UNL     1     -14.359 -21.977  14.171  1.00  0.00     0.231 C 
HETATM   25  N7  UNL     1     -13.502 -21.779  15.265  1.00  0.00    -0.062 NA
HETATM   26  O3  UNL     1     -13.829 -21.972  13.021  1.00  0.00    -0.277 OA
ENDBRANCH  23  24
ENDBRANCH  22  23
ENDBRANCH  19  22
ENDBRANCH  15  18
ENDBRANCH  11  12
ENDBRANCH  10  11
ENDBRANCH   9  10
ENDBRANCH   8   9
ENDBRANCH   6   8
BRANCH   1  27
HETATM   27  N2  UNL     1     -13.194 -18.639  18.177  1.00  0.00    -0.302 N 
HETATM   28  C7  UNL     1     -11.950 -18.611  17.496  1.00  0.00     0.257 C 
HETATM   29  O1  UNL     1     -11.924 -18.735  16.256  1.00  0.00    -0.267 OA
ATOM     30  H2  UNL     1     -13.618 -17.797  18.568  1.00  0.00     0.171 HD
BRANCH  28  31
HETATM   31  C6  UNL     1     -10.721 -18.437  18.253  1.00  0.00     0.033 A 
HETATM   32  C5  UNL     1      -9.608 -17.937  17.634  1.00  0.00     0.019 A 
HETATM   33  C4  UNL     1      -8.454 -17.777  18.356  1.00  0.00     0.032 A 
HETATM   34  C3  UNL     1      -8.366 -18.102  19.695  1.00  0.00     0.050 A 
HETATM   35  C22 UNL     1      -9.475 -18.605  20.328  1.00  0.00    -0.034 A 
HETATM   36  C21 UNL     1     -10.652 -18.770  19.600  1.00  0.00     0.026 A 
HETATM   37  C23 UNL     1      -9.420 -18.978  21.764  1.00  0.00     0.050 C 
BRANCH  34  38
HETATM   38  N1  UNL     1      -7.132 -17.889  20.354  1.00  0.00    -0.276 N 
BRANCH  38  39
HETATM   39  C2  UNL     1      -6.270 -19.050  20.507  1.00  0.00     0.137 C 
HETATM   40  C1  UNL     1      -4.949 -18.897  19.828  1.00  0.00     0.028 C 
ENDBRANCH  38  39
BRANCH  38  41
HETATM   41  S3  UNL     1      -6.730 -16.338  20.915  1.00  0.00     0.229 S 
HETATM   42  C24 UNL     1      -8.090 -15.262  21.178  1.00  0.00     0.186 C 
HETATM   43  O4  UNL     1      -5.829 -15.695  19.870  1.00  0.00    -0.206 OA
HETATM   44  O5  UNL     1      -5.906 -16.463  22.166  1.00  0.00    -0.206 OA
ENDBRANCH  38  41
ENDBRANCH  34  38
ENDBRANCH  28  31
ENDBRANCH   1  27
TORSDOF 14
ENDMDL
MODEL 3
REMARK VINA RESULT: -8.483654437      1.093      1.183
REMARK  14 active torsions:
REMARK  status: ('A' for Active; 'I' for Inactive)
REMARK    1  A    between atoms: C2_2  and  N1_3 
REMARK    2  A    between atoms: N1_3  and  C3_4 
REMARK    3  A    between atoms: N1_3  and  S3_41 
REMARK    4  A    between atoms: C6_7  and  C7_8 
REMARK       I    between atoms: C7_8  and  N2_10 
REMARK    5  A    between atoms: N2_10  and  C8_12 
REMARK    6  A    between atoms: C9_17  and  C10_18 
REMARK    7  A    between atoms: C10_18  and  C11_19 
REMARK    8  A    between atoms: C11_19  and  C12_20 
REMARK    9  A    between atoms: C12_20  and  C13_21 
REMARK   10  A    between atoms: C13_21  and  C14_22 
REMARK   11  A    between atoms: C16_26  and  N6_27 
REMARK       I    between atoms: N6_27  and  C17_29 
REMARK   12  A    between atoms: C17_29  and  C18_31 
REMARK   13  A    between atoms: C18_31  and  C19_32 
REMARK   14  A    between atoms: C19_32  and  C20_33 
ROOT
HETATM    1  C8  UNL     1     -11.014 -18.861  17.840  1.00  0.00     0.168 A 
HETATM    2  N3  UNL     1      -9.854 -19.020  17.191  1.00  0.00    -0.279 N 
ATOM      3  H3  UNL     1      -9.142 -19.657  17.549  1.00  0.00     0.189 HD
HETATM    4  N4  UNL     1      -9.657 -18.367  16.126  1.00  0.00    -0.296 N 
ATOM      5  H4  UNL     1      -8.776 -18.481  15.624  1.00  0.00     0.187 HD
HETATM    6  C9  UNL     1     -10.572 -17.538  15.653  1.00  0.00     0.069 A 
HETATM    7  S2  UNL     1     -11.813 -17.725  16.849  1.00  0.00    -0.038 SA
ENDROOT
BRANCH   6   8
HETATM    8  C10 UNL     1     -10.565 -16.677  14.439  1.00  0.00     0.066 C 
BRANCH   8   9
HETATM    9  C11 UNL     1      -9.158 -16.429  13.989  1.00  0.00     0.007 C 
BRANCH   9  10
HETATM   10  C12 UNL     1      -8.737 -15.039  14.378  1.00  0.00     0.006 C 
BRANCH  10  11
HETATM   11  C13 UNL     1      -7.263 -14.889  14.415  1.00  0.00     0.048 C 
BRANCH  11  12
HETATM   12  C14 UNL     1      -6.693 -15.284  15.737  1.00  0.00     0.001 A 
HETATM   13  C15 UNL     1      -7.151 -15.125  17.012  1.00  0.00     0.104 A 
HETATM   14  N5  UNL     1      -6.426 -15.558  18.000  1.00  0.00    -0.345 N 
HETATM   15  C16 UNL     1      -5.261 -16.143  17.732  1.00  0.00     0.151 A 
ATOM     16  H5  UNL     1      -6.744 -15.452  18.964  1.00  0.00     0.167 HD
HETATM   17  S1  UNL     1      -5.179 -16.084  16.032  1.00  0.00    -0.057 SA
BRANCH  15  18
HETATM   18  N6  UNL     1      -4.396 -16.642  18.589  1.00  0.00    -0.307 N 
HETATM   19  C17 UNL     1      -4.841 -17.117  19.830  1.00  0.00     0.224 C 
HETATM   20  O2  UNL     1      -4.781 -16.305  20.807  1.00  0.00    -0.273 OA
ATOM     21  H6  UNL     1      -3.404 -16.682  18.352  1.00  0.00     0.171 HD
BRANCH  19  22
HETATM   22  C18 UNL     1      -5.366 -18.476  20.062  1.00  0.00     0.112 C 
BRANCH  22  23
HETATM   23  C19 UNL     1      -6.585 -18.514  20.912  1.00  0.00     0.109 C 
BRANCH  23  24
HETATM   24  C20 UNL     1      -7.857 -18.331  20.202  1.00  0.00     0.231 C 
HETATM   25  N7  UNL     1      -9.120 -18.310  20.815  1.00  0.00    -0.062 NA
HETATM   26  O3  UNL     1      -7.828 -18.180  18.945  1.00  0.00    -0.277 OA
ENDBRANCH  23  24
ENDBRANCH  22  23
ENDBRANCH  19  22
ENDBRANCH  15  18
ENDBRANCH  11  12
ENDBRANCH  10  11
ENDBRANCH   9  10
ENDBRANCH   8   9
ENDBRANCH   6   8
BRANCH   1  27
HETATM   27  N2  UNL     1     -11.392 -19.451  18.952  1.00  0.00    -0.302 N 
HETATM   28  C7  UNL     1     -11.426 -20.869  18.917  1.00  0.00     0.257 C 
HETATM   29  O1  UNL     1     -10.357 -21.511  18.928  1.00  0.00    -0.267 OA
ATOM     30  H2  UNL     1     -11.644 -18.923  19.788  1.00  0.00     0.171 HD
BRANCH  28  31
HETATM   31  C6  UNL     1     -12.707 -21.556  18.870  1.00  0.00     0.033 A 
HETATM   32  C5  UNL     1     -13.852 -20.877  19.184  1.00  0.00     0.019 A 
HETATM   33  C4  UNL     1     -15.055 -21.534  19.136  1.00  0.00     0.032 A 
HETATM   34  C3  UNL     1     -15.161 -22.863  18.780  1.00  0.00     0.050 A 
HETATM   35  C22 UNL     1     -14.019 -23.555  18.463  1.00  0.00    -0.034 A 
HETATM   36  C21 UNL     1     -12.792 -22.895  18.509  1.00  0.00     0.026 A 
HETATM   37  C23 UNL     1     -14.087 -24.990  18.086  1.00  0.00     0.050 C 
BRANCH  34  38
HETATM   38  N1  UNL     1     -16.450 -23.446  18.750  1.00  0.00    -0.276 N 
BRANCH  38  39
HETATM   39  C2  UNL     1     -16.990 -23.889  20.025  1.00  0.00     0.137 C 
HETATM   40  C1  UNL     1     -16.604 -25.288  20.375  1.00  0.00     0.028 C 
ENDBRANCH  38  39
BRANCH  38  41
HETATM   41  S3  UNL     1     -17.277 -23.594  17.275  1.00  0.00     0.229 S 
HETATM   42  C24 UNL     1     -16.536 -22.768  15.916  1.00  0.00     0.186 C 
HETATM   43  O4  UNL     1     -18.667 -23.004  17.471  1.00  0.00    -0.206 OA
HETATM   44  O5  UNL     1     -17.475 -25.051  16.964  1.00  0.00    -0.206 OA
ENDBRANCH  38  41
ENDBRANCH  34  38
ENDBRANCH  28  31
ENDBRANCH   1  27
TORSDOF 14
ENDMDL
MODEL 4
REMARK VINA RESULT: -8.386822862      1.872      2.569
REMARK  14 active torsions:
REMARK  status: ('A' for Active; 'I' for Inactive)
REMARK    1  A    between atoms: C2_2  and  N1_3 
REMARK    2  A    between atoms: N1_3  and  C3_4 
REMARK    3  A    between atoms: N1_3  and  S3_41 
REMARK    4  A    between atoms: C6_7  and  C7_8 
REMARK       I    between atoms: C7_8  and  N2_10 
REMARK    5  A    between atoms: N2_10  and  C8_12 
REMARK    6  A    between atoms: C9_17  and  C10_18 
REMARK    7  A    between atoms: C10_18  and  C11_19 
REMARK    8  A    between atoms: C11_19  and  C12_20 
REMARK    9  A    between atoms: C12_20  and  C13_21 
REMARK   10  A    between atoms: C13_21  and  C14_22 
REMARK   11  A    between atoms: C16_26  and  N6_27 
REMARK       I    between atoms: N6_27  and  C17_29 
REMARK   12  A    between atoms: C17_29  and  C18_31 
REMARK   13  A    between atoms: C18_31  and  C19_32 
REMARK   14  A    between atoms: C19_32  and  C20_33 
ROOT
HETATM    1  C8  UNL     1     -11.292 -17.959  16.296  1.00  0.00     0.168 A 
HETATM    2  N3  UNL     1     -10.292 -18.715  16.764  1.00  0.00    -0.279 N 
ATOM      3  H3  UNL     1     -10.431 -19.313  17.580  1.00  0.00     0.189 HD
HETATM    4  N4  UNL     1      -9.172 -18.676  16.178  1.00  0.00    -0.296 N 
ATOM      5  H4  UNL     1      -8.403 -19.249  16.526  1.00  0.00     0.187 HD
HETATM    6  C9  UNL     1      -8.980 -17.905  15.120  1.00  0.00     0.069 A 
HETATM    7  S2  UNL     1     -10.549 -17.183  14.970  1.00  0.00    -0.038 SA
ENDROOT
BRANCH   6   8
HETATM    8  C10 UNL     1      -7.770 -17.697  14.280  1.00  0.00     0.066 C 
BRANCH   8   9
HETATM    9  C11 UNL     1      -6.785 -16.826  14.998  1.00  0.00     0.007 C 
BRANCH   9  10
HETATM   10  C12 UNL     1      -7.242 -15.394  14.949  1.00  0.00     0.006 C 
BRANCH  10  11
HETATM   11  C13 UNL     1      -6.872 -14.645  16.172  1.00  0.00     0.048 C 
BRANCH  11  12
HETATM   12  C14 UNL     1      -7.165 -15.420  17.415  1.00  0.00     0.001 A 
HETATM   13  C15 UNL     1      -8.338 -15.762  18.020  1.00  0.00     0.104 A 
HETATM   14  N5  UNL     1      -8.299 -16.441  19.128  1.00  0.00    -0.345 N 
HETATM   15  C16 UNL     1      -7.115 -16.780  19.632  1.00  0.00     0.151 A 
ATOM     16  H5  UNL     1      -9.161 -16.710  19.603  1.00  0.00     0.167 HD
HETATM   17  S1  UNL     1      -6.015 -16.122  18.511  1.00  0.00    -0.057 SA
BRANCH  15  18
HETATM   18  N6  UNL     1      -6.874 -17.460  20.733  1.00  0.00    -0.307 N 
HETATM   19  C17 UNL     1      -7.839 -17.503  21.748  1.00  0.00     0.224 C 
HETATM   20  O2  UNL     1      -7.717 -16.654  22.688  1.00  0.00    -0.273 OA
ATOM     21  H6  UNL     1      -5.989 -17.954  20.847  1.00  0.00     0.171 HD
BRANCH  19  22
HETATM   22  C18 UNL     1      -8.964 -18.456  21.788  1.00  0.00     0.112 C 
BRANCH  22  23
HETATM   23  C19 UNL     1      -8.587 -19.850  21.434  1.00  0.00     0.109 C 
BRANCH  23  24
HETATM   24  C20 UNL     1      -9.051 -20.316  20.122  1.00  0.00     0.231 C 
HETATM   25  N7  UNL     1      -9.610 -21.579  19.872  1.00  0.00    -0.062 NA
HETATM   26  O3  UNL     1      -8.945 -19.532  19.133  1.00  0.00    -0.277 OA
ENDBRANCH  23  24
ENDBRANCH  22  23
ENDBRANCH  19  22
ENDBRANCH  15  18
ENDBRANCH  11  12
ENDBRANCH  10  11
ENDBRANCH   9  10
ENDBRANCH   8   9
ENDBRANCH   6   8
BRANCH   1  27
HETATM   27  N2  UNL     1     -12.514 -17.870  16.772  1.00  0.00    -0.302 N 
HETATM   28  C7  UNL     1     -12.805 -18.703  17.883  1.00  0.00     0.257 C 
HETATM   29  O1  UNL     1     -12.337 -18.419  19.004  1.00  0.00    -0.267 OA
ATOM     30  H2  UNL     1     -13.209 -17.243  16.367  1.00  0.00     0.171 HD
BRANCH  28  31
HETATM   31  C6  UNL     1     -13.644 -19.876  17.702  1.00  0.00     0.033 A 
HETATM   32  C5  UNL     1     -14.388 -20.346  18.750  1.00  0.00     0.019 A 
HETATM   33  C4  UNL     1     -15.177 -21.453  18.568  1.00  0.00     0.032 A 
HETATM   34  C3  UNL     1     -15.252 -22.121  17.363  1.00  0.00     0.050 A 
HETATM   35  C22 UNL     1     -14.510 -21.660  16.304  1.00  0.00    -0.034 A 
HETATM   36  C21 UNL     1     -13.706 -20.534  16.480  1.00  0.00     0.026 A 
HETATM   37  C23 UNL     1     -14.553 -22.355  14.993  1.00  0.00     0.050 C 
BRANCH  34  38
HETATM   38  N1  UNL     1     -16.104 -23.247  17.275  1.00  0.00    -0.276 N 
BRANCH  38  39
HETATM   39  C2  UNL     1     -17.220 -23.145  16.348  1.00  0.00     0.137 C 
HETATM   40  C1  UNL     1     -18.546 -23.067  17.029  1.00  0.00     0.028 C 
ENDBRANCH  38  39
BRANCH  38  41
HETATM   41  S3  UNL     1     -15.793 -24.618  18.227  1.00  0.00     0.229 S 
HETATM   42  C24 UNL     1     -16.206 -24.461  19.924  1.00  0.00     0.186 C 
HETATM   43  O4  UNL     1     -14.299 -24.903  18.140  1.00  0.00    -0.206 OA
HETATM   44  O5  UNL     1     -16.486 -25.807  17.622  1.00  0.00    -0.206 OA
ENDBRANCH  38  41
ENDBRANCH  34  38
ENDBRANCH  28  31
ENDBRANCH   1  27
TORSDOF 14
ENDMDL
MODEL 5
REMARK VINA RESULT: -8.365725762      2.642      4.844
REMARK  14 active torsions:
REMARK  status: ('A' for Active; 'I' for Inactive)
REMARK    1  A    between atoms: C2_2  and  N1_3 
REMARK    2  A    between atoms: N1_3  and  C3_4 
REMARK    3  A    between atoms: N1_3  and  S3_41 
REMARK    4  A    between atoms: C6_7  and  C7_8 
REMARK       I    between atoms: C7_8  and  N2_10 
REMARK    5  A    between atoms: N2_10  and  C8_12 
REMARK    6  A    between atoms: C9_17  and  C10_18 
REMARK    7  A    between atoms: C10_18  and  C11_19 
REMARK    8  A    between atoms: C11_19  and  C12_20 
REMARK    9  A    between atoms: C12_20  and  C13_21 
REMARK   10  A    between atoms: C13_21  and  C14_22 
REMARK   11  A    between atoms: C16_26  and  N6_27 
REMARK       I    between atoms: N6_27  and  C17_29 
REMARK   12  A    between atoms: C17_29  and  C18_31 
REMARK   13  A    between atoms: C18_31  and  C19_32 
REMARK   14  A    between atoms: C19_32  and  C20_33 
ROOT
HETATM    1  C8  UNL     1     -10.796 -19.899  17.433  1.00  0.00     0.168 A 
HETATM    2  N3  UNL     1     -10.695 -18.582  17.644  1.00  0.00    -0.279 N 
ATOM      3  H3  UNL     1     -10.827 -17.921  16.877  1.00  0.00     0.189 HD
HETATM    4  N4  UNL     1     -10.432 -18.169  18.811  1.00  0.00    -0.296 N 
ATOM      5  H4  UNL     1     -10.353 -17.167  18.982  1.00  0.00     0.187 HD
HETATM    6  C9  UNL     1     -10.259 -19.015  19.812  1.00  0.00     0.069 A 
HETATM    7  S2  UNL     1     -10.495 -20.524  18.993  1.00  0.00    -0.038 SA
ENDROOT
BRANCH   6   8
HETATM    8  C10 UNL     1      -9.946 -18.769  21.246  1.00  0.00     0.066 C 
BRANCH   8   9
HETATM    9  C11 UNL     1      -8.858 -19.690  21.705  1.00  0.00     0.007 C 
BRANCH   9  10
HETATM   10  C12 UNL     1      -7.534 -19.221  21.166  1.00  0.00     0.006 C 
BRANCH  10  11
HETATM   11  C13 UNL     1      -7.232 -17.825  21.559  1.00  0.00     0.048 C 
BRANCH  11  12
HETATM   12  C14 UNL     1      -6.812 -16.993  20.393  1.00  0.00     0.001 A 
HETATM   13  C15 UNL     1      -7.478 -16.064  19.649  1.00  0.00     0.104 A 
HETATM   14  N5  UNL     1      -6.861 -15.492  18.657  1.00  0.00    -0.345 N 
HETATM   15  C16 UNL     1      -5.600 -15.834  18.404  1.00  0.00     0.151 A 
ATOM     16  H5  UNL     1      -7.335 -14.794  18.084  1.00  0.00     0.167 HD
HETATM   17  S1  UNL     1      -5.266 -16.999  19.600  1.00  0.00    -0.057 SA
BRANCH  15  18
HETATM   18  N6  UNL     1      -4.817 -15.370  17.453  1.00  0.00    -0.307 N 
HETATM   19  C17 UNL     1      -5.072 -15.707  16.117  1.00  0.00     0.224 C 
HETATM   20  O2  UNL     1      -4.432 -16.702  15.647  1.00  0.00    -0.273 OA
ATOM     21  H6  UNL     1      -4.028 -14.768  17.687  1.00  0.00     0.171 HD
BRANCH  19  22
HETATM   22  C18 UNL     1      -6.019 -14.991  15.242  1.00  0.00     0.112 C 
BRANCH  22  23
HETATM   23  C19 UNL     1      -7.212 -15.793  14.860  1.00  0.00     0.109 C 
BRANCH  23  24
HETATM   24  C20 UNL     1      -8.463 -15.426  15.536  1.00  0.00     0.231 C 
HETATM   25  N7  UNL     1      -9.149 -16.242  16.449  1.00  0.00    -0.062 NA
HETATM   26  O3  UNL     1      -8.972 -14.294  15.285  1.00  0.00    -0.277 OA
ENDBRANCH  23  24
ENDBRANCH  22  23
ENDBRANCH  19  22
ENDBRANCH  15  18
ENDBRANCH  11  12
ENDBRANCH  10  11
ENDBRANCH   9  10
ENDBRANCH   8   9
ENDBRANCH   6   8
BRANCH   1  27
HETATM   27  N2  UNL     1     -11.061 -20.506  16.298  1.00  0.00    -0.302 N 
HETATM   28  C7  UNL     1     -12.124 -19.956  15.537  1.00  0.00     0.257 C 
HETATM   29  O1  UNL     1     -11.955 -18.878  14.933  1.00  0.00    -0.267 OA
ATOM     30  H2  UNL     1     -10.535 -21.322  15.984  1.00  0.00     0.171 HD
BRANCH  28  31
HETATM   31  C6  UNL     1     -13.397 -20.654  15.471  1.00  0.00     0.033 A 
HETATM   32  C5  UNL     1     -14.351 -20.416  16.422  1.00  0.00     0.019 A 
HETATM   33  C4  UNL     1     -15.549 -21.080  16.350  1.00  0.00     0.032 A 
HETATM   34  C3  UNL     1     -15.836 -21.987  15.350  1.00  0.00     0.050 A 
HETATM   35  C22 UNL     1     -14.887 -22.234  14.390  1.00  0.00    -0.034 A 
HETATM   36  C21 UNL     1     -13.667 -21.563  14.455  1.00  0.00     0.026 A 
HETATM   37  C23 UNL     1     -15.151 -23.211  13.303  1.00  0.00     0.050 C 
BRANCH  34  38
HETATM   38  N1  UNL     1     -17.105 -22.611  15.359  1.00  0.00    -0.276 N 
BRANCH  38  39
HETATM   39  C2  UNL     1     -17.991 -22.295  14.249  1.00  0.00     0.137 C 
HETATM   40  C1  UNL     1     -18.793 -21.056  14.471  1.00  0.00     0.028 C 
ENDBRANCH  38  39
BRANCH  38  41
HETATM   41  S3  UNL     1     -17.521 -23.665  16.623  1.00  0.00     0.229 S 
HETATM   42  C24 UNL     1     -16.166 -24.401  17.459  1.00  0.00     0.186 C 
HETATM   43  O4  UNL     1     -18.357 -24.788  16.024  1.00  0.00    -0.206 OA
HETATM   44  O5  UNL     1     -18.413 -22.944  17.595  1.00  0.00    -0.206 OA
ENDBRANCH  38  41
ENDBRANCH  34  38
ENDBRANCH  28  31
ENDBRANCH   1  27
TORSDOF 14
ENDMDL
