MODEL 1
REMARK VINA RESULT: -9.333508175      0.000      0.000
REMARK  16 active torsions:
REMARK  status: ('A' for Active; 'I' for Inactive)
REMARK    1  A    between atoms: C2_2  and  C3_3 
REMARK    2  A    between atoms: C3_3  and  C4_4 
REMARK    3  A    between atoms: C3_3  and  C5_7 
REMARK    4  A    between atoms: C5_7  and  O3_8 
REMARK    5  A    between atoms: C5_7  and  C11_17 
REMARK    6  A    between atoms: O3_8  and  C6_9 
REMARK       I    between atoms: C6_9  and  N1_11 
REMARK    7  A    between atoms: C11_17  and  O6_18 
REMARK    8  A    between atoms: C11_17  and  C12_20 
REMARK    9  A    between atoms: C12_20  and  C13_21 
REMARK   10  A    between atoms: C12_20  and  C20_28 
REMARK   11  A    between atoms: C13_21  and  C14_22 
REMARK   12  A    between atoms: C20_28  and  O7_29 
REMARK   13  A    between atoms: C20_28  and  C21_31 
REMARK   14  A    between atoms: C21_31  and  C22_32 
REMARK   15  A    between atoms: C21_31  and  N2_35 
REMARK       I    between atoms: N3_38  and  C26_39 
REMARK   16  A    between atoms: C26_39  and  C27_41 
ROOT
HETATM    1  C12 UNL     1     -10.144 -18.324  18.776  1.00  0.00     0.049 C 
ENDROOT
BRANCH   1   2
HETATM    2  C11 UNL     1      -8.945 -18.367  19.599  1.00  0.00     0.155 C 
BRANCH   2   3
HETATM    3  C5  UNL     1      -8.214 -17.176  20.086  1.00  0.00     0.177 C 
BRANCH   3   4
HETATM    4  C3  UNL     1      -7.420 -17.237  21.315  1.00  0.00     0.118 C 
BRANCH   4   5
HETATM    5  C2  UNL     1      -7.365 -15.821  21.921  1.00  0.00     0.013 C 
HETATM    6  C1  UNL     1      -7.510 -15.815  23.401  1.00  0.00     0.006 C 
ENDBRANCH   4   5
BRANCH   4   7
HETATM    7  C4  UNL     1      -5.952 -17.489  21.024  1.00  0.00     0.179 C 
HETATM    8  O1  UNL     1      -5.527 -18.620  20.754  1.00  0.00    -0.648 OA
HETATM    9  O2  UNL     1      -5.082 -16.425  21.063  1.00  0.00    -0.648 OA
ENDBRANCH   4   7
ENDBRANCH   3   4
BRANCH   3  10
HETATM   10  O3  UNL     1      -7.225 -16.859  19.047  1.00  0.00    -0.295 OA
BRANCH  10  11
HETATM   11  C6  UNL     1      -7.365 -15.845  18.153  1.00  0.00     0.363 C 
HETATM   12  O4  UNL     1      -8.360 -15.065  18.271  1.00  0.00    -0.238 OA
HETATM   13  N1  UNL     1      -6.418 -15.656  17.107  1.00  0.00    -0.324 N 
HETATM   14  C7  UNL     1      -5.299 -16.539  16.998  1.00  0.00     0.154 C 
HETATM   15  C10 UNL     1      -6.598 -14.590  16.161  1.00  0.00     0.154 C 
HETATM   16  C8  UNL     1      -4.067 -15.690  16.667  1.00  0.00     0.187 C 
HETATM   17  O5  UNL     1      -4.348 -14.907  15.568  1.00  0.00    -0.388 OA
HETATM   18  C9  UNL     1      -5.263 -13.920  15.932  1.00  0.00     0.187 C 
ENDBRANCH  10  11
ENDBRANCH   3  10
ENDBRANCH   2   3
BRANCH   2  19
HETATM   19  O6  UNL     1      -7.975 -19.119  18.841  1.00  0.00    -0.392 OA
ATOM     20  H6  UNL     1      -8.488 -19.668  18.260  1.00  0.00     0.210 HD
ENDBRANCH   2  19
ENDBRANCH   1   2
BRANCH   1  21
HETATM   21  C13 UNL     1     -10.135 -18.637  17.334  1.00  0.00     0.014 C 
BRANCH  21  22
HETATM   22  C14 UNL     1      -9.925 -17.591  16.310  1.00  0.00    -0.014 C 
HETATM   23  C15 UNL     1     -11.034 -17.634  15.284  1.00  0.00     0.005 C 
HETATM   24  C16 UNL     1     -10.868 -16.542  14.242  1.00  0.00     0.000 C 
HETATM   25  C17 UNL     1      -9.454 -16.019  14.229  1.00  0.00     0.000 C 
HETATM   26  C18 UNL     1      -8.516 -17.195  14.281  1.00  0.00     0.000 C 
HETATM   27  C19 UNL     1      -8.665 -18.024  15.527  1.00  0.00     0.005 C 
ENDBRANCH  21  22
ENDBRANCH   1  21
BRANCH   1  28
HETATM   28  C20 UNL     1     -11.430 -18.830  19.398  1.00  0.00     0.165 C 
BRANCH  28  29
HETATM   29  O7  UNL     1     -11.645 -18.017  20.562  1.00  0.00    -0.392 OA
ATOM     30  H7  UNL     1     -12.513 -18.243  20.877  1.00  0.00     0.210 HD
ENDBRANCH  28  29
BRANCH  28  31
HETATM   31  C21 UNL     1     -11.725 -20.218  19.620  1.00  0.00     0.320 C 
BRANCH  31  32
HETATM   32  C22 UNL     1     -10.738 -21.281  19.629  1.00  0.00     0.159 C 
HETATM   33  C23 UNL     1      -9.857 -21.744  20.724  1.00  0.00     0.093 C 
HETATM   34  O8  UNL     1     -10.561 -21.934  18.584  1.00  0.00    -0.296 OA
ENDBRANCH  31  32
BRANCH  31  35
HETATM   35  N2  UNL     1     -12.798 -20.643  18.693  1.00  0.00     0.106 N 
HETATM   36  C24 UNL     1     -13.657 -21.659  19.135  1.00  0.00     0.293 C 
HETATM   37  C25 UNL     1     -14.980 -21.580  18.358  1.00  0.00     0.156 C 
HETATM   38  N3  UNL     1     -14.796 -21.082  17.027  1.00  0.00    -0.348 N 
HETATM   39  C26 UNL     1     -15.109 -21.827  15.881  1.00  0.00     0.223 C 
HETATM   40  C30 UNL     1     -14.252 -19.748  16.900  1.00  0.00     0.156 C 
HETATM   41  O9  UNL     1     -15.572 -22.982  16.044  1.00  0.00    -0.273 OA
HETATM   42  C31 UNL     1     -13.513 -19.473  18.202  1.00  0.00     0.293 C 
BRANCH  39  43
HETATM   43  C27 UNL     1     -14.923 -21.321  14.504  1.00  0.00     0.070 C 
HETATM   44  C28 UNL     1     -13.451 -21.096  14.271  1.00  0.00     0.019 C 
HETATM   45  C29 UNL     1     -15.492 -22.252  13.454  1.00  0.00     0.019 C 
ENDBRANCH  39  43
ENDBRANCH  31  35
ENDBRANCH  28  31
ENDBRANCH   1  28
TORSDOF 16
ENDMDL
MODEL 2
REMARK VINA RESULT: -9.244328852      0.787      1.173
REMARK  16 active torsions:
REMARK  status: ('A' for Active; 'I' for Inactive)
REMARK    1  A    between atoms: C2_2  and  C3_3 
REMARK    2  A    between atoms: C3_3  and  C4_4 
REMARK    3  A    between atoms: C3_3  and  C5_7 
REMARK    4  A    between atoms: C5_7  and  O3_8 
REMARK    5  A    between atoms: C5_7  and  C11_17 
REMARK    6  A    between atoms: O3_8  and  C6_9 
REMARK       I    between atoms: C6_9  and  N1_11 
REMARK    7  A    between atoms: C11_17  and  O6_18 
REMARK    8  A    between atoms: C11_17  and  C12_20 
REMARK    9  A    between atoms: C12_20  and  C13_21 
REMARK   10  A    between atoms: C12_20  and  C20_28 
REMARK   11  A    between atoms: C13_21  and  C14_22 
REMARK   12  A    between atoms: C20_28  and  O7_29 
REMARK   13  A    between atoms: C20_28  and  C21_31 
REMARK   14  A    between atoms: C21_31  and  C22_32 
REMARK   15  A    between atoms: C21_31  and  N2_35 
REMARK       I    between atoms: N3_38  and  C26_39 
REMARK   16  A    between atoms: C26_39  and  C27_41 
ROOT
HETATM    1  C12 UNL     1     -10.326 -18.254  18.534  1.00  0.00     0.049 C 
ENDROOT
BRANCH   1   2
HETATM    2  C11 UNL     1      -9.073 -18.318  19.272  1.00  0.00     0.155 C 
BRANCH   2   3
HETATM    3  C5  UNL     1      -8.288 -17.140  19.705  1.00  0.00     0.177 C 
BRANCH   3   4
HETATM    4  C3  UNL     1      -7.471 -17.191  20.919  1.00  0.00     0.118 C 
BRANCH   4   5
HETATM    5  C2  UNL     1      -8.147 -18.159  21.911  1.00  0.00     0.013 C 
HETATM    6  C1  UNL     1      -7.623 -19.547  21.817  1.00  0.00     0.006 C 
ENDBRANCH   4   5
BRANCH   4   7
HETATM    7  C4  UNL     1      -7.533 -15.887  21.693  1.00  0.00     0.179 C 
HETATM    8  O1  UNL     1      -8.161 -14.907  21.268  1.00  0.00    -0.648 OA
HETATM    9  O2  UNL     1      -6.873 -15.804  22.896  1.00  0.00    -0.648 OA
ENDBRANCH   4   7
ENDBRANCH   3   4
BRANCH   3  10
HETATM   10  O3  UNL     1      -7.311 -16.893  18.636  1.00  0.00    -0.295 OA
BRANCH  10  11
HETATM   11  C6  UNL     1      -7.355 -15.819  17.804  1.00  0.00     0.363 C 
HETATM   12  O4  UNL     1      -8.307 -14.989  17.934  1.00  0.00    -0.238 OA
HETATM   13  N1  UNL     1      -6.356 -15.625  16.808  1.00  0.00    -0.324 N 
HETATM   14  C7  UNL     1      -5.287 -16.566  16.685  1.00  0.00     0.154 C 
HETATM   15  C10 UNL     1      -6.434 -14.494  15.926  1.00  0.00     0.154 C 
HETATM   16  C8  UNL     1      -3.994 -15.775  16.455  1.00  0.00     0.187 C 
HETATM   17  O5  UNL     1      -4.184 -14.911  15.398  1.00  0.00    -0.388 OA
HETATM   18  C9  UNL     1      -5.055 -13.894  15.789  1.00  0.00     0.187 C 
ENDBRANCH  10  11
ENDBRANCH   3  10
ENDBRANCH   2   3
BRANCH   2  19
HETATM   19  O6  UNL     1      -8.171 -19.086  18.449  1.00  0.00    -0.392 OA
ATOM     20  H6  UNL     1      -8.726 -19.504  17.800  1.00  0.00     0.210 HD
ENDBRANCH   2  19
ENDBRANCH   1   2
BRANCH   1  21
HETATM   21  C13 UNL     1     -10.410 -18.491  17.081  1.00  0.00     0.014 C 
BRANCH  21  22
HETATM   22  C14 UNL     1     -10.093 -17.431  16.098  1.00  0.00    -0.014 C 
HETATM   23  C15 UNL     1     -11.154 -17.382  15.023  1.00  0.00     0.005 C 
HETATM   24  C16 UNL     1     -10.878 -16.274  14.022  1.00  0.00     0.000 C 
HETATM   25  C17 UNL     1      -9.436 -15.835  14.087  1.00  0.00     0.000 C 
HETATM   26  C18 UNL     1      -8.572 -17.066  14.146  1.00  0.00     0.000 C 
HETATM   27  C19 UNL     1      -8.825 -17.917  15.359  1.00  0.00     0.005 C 
ENDBRANCH  21  22
ENDBRANCH   1  21
BRANCH   1  28
HETATM   28  C20 UNL     1     -11.559 -18.814  19.214  1.00  0.00     0.165 C 
BRANCH  28  29
HETATM   29  O7  UNL     1     -11.742 -18.027  20.400  1.00  0.00    -0.392 OA
ATOM     30  H7  UNL     1     -11.787 -18.648  21.117  1.00  0.00     0.210 HD
ENDBRANCH  28  29
BRANCH  28  31
HETATM   31  C21 UNL     1     -11.792 -20.216  19.428  1.00  0.00     0.320 C 
BRANCH  31  32
HETATM   32  C22 UNL     1     -10.768 -21.241  19.375  1.00  0.00     0.159 C 
HETATM   33  C23 UNL     1      -9.870 -21.738  20.442  1.00  0.00     0.093 C 
HETATM   34  O8  UNL     1     -10.568 -21.824  18.292  1.00  0.00    -0.296 OA
ENDBRANCH  31  32
BRANCH  31  35
HETATM   35  N2  UNL     1     -12.891 -20.667  18.545  1.00  0.00     0.106 N 
HETATM   36  C24 UNL     1     -13.727 -21.681  19.035  1.00  0.00     0.293 C 
HETATM   37  C25 UNL     1     -15.075 -21.628  18.301  1.00  0.00     0.156 C 
HETATM   38  N3  UNL     1     -14.939 -21.155  16.955  1.00  0.00    -0.348 N 
HETATM   39  C26 UNL     1     -15.283 -21.926  15.835  1.00  0.00     0.223 C 
HETATM   40  C30 UNL     1     -14.411 -19.821  16.783  1.00  0.00     0.156 C 
HETATM   41  O9  UNL     1     -15.731 -23.081  16.036  1.00  0.00    -0.273 OA
HETATM   42  C31 UNL     1     -13.632 -19.513  18.054  1.00  0.00     0.293 C 
BRANCH  39  43
HETATM   43  C27 UNL     1     -15.147 -21.446  14.442  1.00  0.00     0.070 C 
HETATM   44  C28 UNL     1     -13.682 -21.251  14.144  1.00  0.00     0.019 C 
HETATM   45  C29 UNL     1     -15.774 -22.384  13.434  1.00  0.00     0.019 C 
ENDBRANCH  39  43
ENDBRANCH  31  35
ENDBRANCH  28  31
ENDBRANCH   1  28
TORSDOF 16
ENDMDL
MODEL 3
REMARK VINA RESULT: -9.122423505      1.898      8.353
REMARK  16 active torsions:
REMARK  status: ('A' for Active; 'I' for Inactive)
REMARK    1  A    between atoms: C2_2  and  C3_3 
REMARK    2  A    between atoms: C3_3  and  C4_4 
REMARK    3  A    between atoms: C3_3  and  C5_7 
REMARK    4  A    between atoms: C5_7  and  O3_8 
REMARK    5  A    between atoms: C5_7  and  C11_17 
REMARK    6  A    between atoms: O3_8  and  C6_9 
REMARK       I    between atoms: C6_9  and  N1_11 
REMARK    7  A    between atoms: C11_17  and  O6_18 
REMARK    8  A    between atoms: C11_17  and  C12_20 
REMARK    9  A    between atoms: C12_20  and  C13_21 
REMARK   10  A    between atoms: C12_20  and  C20_28 
REMARK   11  A    between atoms: C13_21  and  C14_22 
REMARK   12  A    between atoms: C20_28  and  O7_29 
REMARK   13  A    between atoms: C20_28  and  C21_31 
REMARK   14  A    between atoms: C21_31  and  C22_32 
REMARK   15  A    between atoms: C21_31  and  N2_35 
REMARK       I    between atoms: N3_38  and  C26_39 
REMARK   16  A    between atoms: C26_39  and  C27_41 
ROOT
HETATM    1  C12 UNL     1     -10.974 -18.359  16.921  1.00  0.00     0.049 C 
ENDROOT
BRANCH   1   2
HETATM    2  C11 UNL     1     -10.951 -18.541  18.365  1.00  0.00     0.155 C 
BRANCH   2   3
HETATM    3  C5  UNL     1     -10.729 -19.835  19.047  1.00  0.00     0.177 C 
BRANCH   3   4
HETATM    4  C3  UNL     1     -10.370 -19.881  20.465  1.00  0.00     0.118 C 
BRANCH   4   5
HETATM    5  C2  UNL     1      -9.146 -18.969  20.680  1.00  0.00     0.013 C 
HETATM    6  C1  UNL     1      -9.030 -18.468  22.075  1.00  0.00     0.006 C 
ENDBRANCH   4   5
BRANCH   4   7
HETATM    7  C4  UNL     1      -9.801 -21.232  20.858  1.00  0.00     0.179 C 
HETATM    8  O1  UNL     1      -9.067 -21.875  20.095  1.00  0.00    -0.648 OA
HETATM    9  O2  UNL     1     -10.114 -21.744  22.095  1.00  0.00    -0.648 OA
ENDBRANCH   4   7
ENDBRANCH   3   4
BRANCH   3  10
HETATM   10  O3  UNL     1     -12.014 -20.545  18.989  1.00  0.00    -0.295 OA
BRANCH  10  11
HETATM   11  C6  UNL     1     -12.223 -21.674  18.261  1.00  0.00     0.363 C 
HETATM   12  O4  UNL     1     -11.263 -22.139  17.573  1.00  0.00    -0.238 OA
HETATM   13  N1  UNL     1     -13.490 -22.324  18.268  1.00  0.00    -0.324 N 
HETATM   14  C7  UNL     1     -14.555 -21.790  19.058  1.00  0.00     0.154 C 
HETATM   15  C10 UNL     1     -13.694 -23.504  17.475  1.00  0.00     0.154 C 
HETATM   16  C8  UNL     1     -15.269 -22.966  19.734  1.00  0.00     0.187 C 
HETATM   17  O5  UNL     1     -15.614 -23.890  18.770  1.00  0.00    -0.388 OA
HETATM   18  C9  UNL     1     -14.458 -24.513  18.300  1.00  0.00     0.187 C 
ENDBRANCH  10  11
ENDBRANCH   3  10
ENDBRANCH   2   3
BRANCH   2  19
HETATM   19  O6  UNL     1     -12.233 -18.081  18.839  1.00  0.00    -0.392 OA
ATOM     20  H6  UNL     1     -12.079 -17.195  19.147  1.00  0.00     0.210 HD
ENDBRANCH   2  19
ENDBRANCH   1   2
BRANCH   1  21
HETATM   21  C13 UNL     1     -12.142 -17.812  16.204  1.00  0.00     0.014 C 
BRANCH  21  22
HETATM   22  C14 UNL     1     -13.099 -18.687  15.490  1.00  0.00    -0.014 C 
HETATM   23  C15 UNL     1     -14.137 -19.218  16.451  1.00  0.00     0.005 C 
HETATM   24  C16 UNL     1     -15.160 -20.086  15.739  1.00  0.00     0.000 C 
HETATM   25  C17 UNL     1     -14.634 -20.555  14.405  1.00  0.00     0.000 C 
HETATM   26  C18 UNL     1     -13.215 -21.020  14.596  1.00  0.00     0.000 C 
HETATM   27  C19 UNL     1     -12.290 -19.936  15.075  1.00  0.00     0.005 C 
ENDBRANCH  21  22
ENDBRANCH   1  21
BRANCH   1  28
HETATM   28  C20 UNL     1      -9.699 -17.870  16.263  1.00  0.00     0.165 C 
BRANCH  28  29
HETATM   29  O7  UNL     1      -8.697 -18.846  16.585  1.00  0.00    -0.392 OA
ATOM     30  H7  UNL     1      -7.899 -18.354  16.739  1.00  0.00     0.210 HD
ENDBRANCH  28  29
BRANCH  28  31
HETATM   31  C21 UNL     1      -9.217 -16.520  16.348  1.00  0.00     0.320 C 
BRANCH  31  32
HETATM   32  C22 UNL     1      -8.899 -15.684  15.206  1.00  0.00     0.159 C 
HETATM   33  C23 UNL     1      -8.382 -16.062  13.872  1.00  0.00     0.093 C 
HETATM   34  O8  UNL     1      -9.065 -14.454  15.307  1.00  0.00    -0.296 OA
ENDBRANCH  31  32
BRANCH  31  35
HETATM   35  N2  UNL     1      -8.040 -16.478  17.246  1.00  0.00     0.106 N 
HETATM   36  C24 UNL     1      -6.789 -16.279  16.647  1.00  0.00     0.293 C 
HETATM   37  C25 UNL     1      -5.812 -15.709  17.687  1.00  0.00     0.156 C 
HETATM   38  N3  UNL     1      -6.105 -16.170  19.012  1.00  0.00    -0.348 N 
HETATM   39  C26 UNL     1      -5.203 -16.925  19.777  1.00  0.00     0.223 C 
HETATM   40  C30 UNL     1      -7.403 -15.827  19.548  1.00  0.00     0.156 C 
HETATM   41  O9  UNL     1      -4.092 -17.201  19.264  1.00  0.00    -0.273 OA
HETATM   42  C31 UNL     1      -8.294 -15.556  18.344  1.00  0.00     0.293 C 
BRANCH  39  43
HETATM   43  C27 UNL     1      -5.497 -17.403  21.145  1.00  0.00     0.070 C 
HETATM   44  C28 UNL     1      -5.454 -18.910  21.146  1.00  0.00     0.019 C 
HETATM   45  C29 UNL     1      -4.545 -16.843  22.180  1.00  0.00     0.019 C 
ENDBRANCH  39  43
ENDBRANCH  31  35
ENDBRANCH  28  31
ENDBRANCH   1  28
TORSDOF 16
ENDMDL
MODEL 4
REMARK VINA RESULT: -9.101057558      2.159      8.901
REMARK  16 active torsions:
REMARK  status: ('A' for Active; 'I' for Inactive)
REMARK    1  A    between atoms: C2_2  and  C3_3 
REMARK    2  A    between atoms: C3_3  and  C4_4 
REMARK    3  A    between atoms: C3_3  and  C5_7 
REMARK    4  A    between atoms: C5_7  and  O3_8 
REMARK    5  A    between atoms: C5_7  and  C11_17 
REMARK    6  A    between atoms: O3_8  and  C6_9 
REMARK       I    between atoms: C6_9  and  N1_11 
REMARK    7  A    between atoms: C11_17  and  O6_18 
REMARK    8  A    between atoms: C11_17  and  C12_20 
REMARK    9  A    between atoms: C12_20  and  C13_21 
REMARK   10  A    between atoms: C12_20  and  C20_28 
REMARK   11  A    between atoms: C13_21  and  C14_22 
REMARK   12  A    between atoms: C20_28  and  O7_29 
REMARK   13  A    between atoms: C20_28  and  C21_31 
REMARK   14  A    between atoms: C21_31  and  C22_32 
REMARK   15  A    between atoms: C21_31  and  N2_35 
REMARK       I    between atoms: N3_38  and  C26_39 
REMARK   16  A    between atoms: C26_39  and  C27_41 
ROOT
HETATM    1  C12 UNL     1     -11.182 -20.193  17.580  1.00  0.00     0.049 C 
ENDROOT
BRANCH   1   2
HETATM    2  C11 UNL     1     -11.854 -21.114  16.675  1.00  0.00     0.155 C 
BRANCH   2   3
HETATM    3  C5  UNL     1     -13.307 -21.392  16.682  1.00  0.00     0.177 C 
BRANCH   3   4
HETATM    4  C3  UNL     1     -14.009 -21.733  15.443  1.00  0.00     0.118 C 
BRANCH   4   5
HETATM    5  C2  UNL     1     -13.427 -20.866  14.308  1.00  0.00     0.013 C 
HETATM    6  C1  UNL     1     -13.784 -21.366  12.953  1.00  0.00     0.006 C 
ENDBRANCH   4   5
BRANCH   4   7
HETATM    7  C4  UNL     1     -15.450 -21.258  15.464  1.00  0.00     0.179 C 
HETATM    8  O1  UNL     1     -16.396 -22.052  15.563  1.00  0.00    -0.648 OA
HETATM    9  O2  UNL     1     -15.700 -19.909  15.372  1.00  0.00    -0.648 OA
ENDBRANCH   4   7
ENDBRANCH   3   4
BRANCH   3  10
HETATM   10  O3  UNL     1     -13.484 -22.585  17.522  1.00  0.00    -0.295 OA
BRANCH  10  11
HETATM   11  C6  UNL     1     -14.269 -22.619  18.631  1.00  0.00     0.363 C 
HETATM   12  O4  UNL     1     -14.265 -21.616  19.409  1.00  0.00    -0.238 OA
HETATM   13  N1  UNL     1     -15.081 -23.753  18.917  1.00  0.00    -0.324 N 
HETATM   14  C7  UNL     1     -15.079 -24.868  18.023  1.00  0.00     0.154 C 
HETATM   15  C10 UNL     1     -15.887 -23.776  20.106  1.00  0.00     0.154 C 
HETATM   16  C8  UNL     1     -16.527 -25.346  17.870  1.00  0.00     0.187 C 
HETATM   17  O5  UNL     1     -17.060 -25.557  19.124  1.00  0.00    -0.388 OA
HETATM   18  C9  UNL     1     -17.249 -24.327  19.754  1.00  0.00     0.187 C 
ENDBRANCH  10  11
ENDBRANCH   3  10
ENDBRANCH   2   3
BRANCH   2  19
HETATM   19  O6  UNL     1     -11.226 -22.395  16.882  1.00  0.00    -0.392 OA
ATOM     20  H6  UNL     1     -10.891 -22.647  16.028  1.00  0.00     0.210 HD
ENDBRANCH   2  19
ENDBRANCH   1   2
BRANCH   1  21
HETATM   21  C13 UNL     1     -11.358 -18.730  17.507  1.00  0.00     0.014 C 
BRANCH  21  22
HETATM   22  C14 UNL     1     -10.595 -17.899  16.549  1.00  0.00    -0.014 C 
HETATM   23  C15 UNL     1     -11.370 -17.742  15.262  1.00  0.00     0.005 C 
HETATM   24  C16 UNL     1     -10.630 -16.857  14.274  1.00  0.00     0.000 C 
HETATM   25  C17 UNL     1      -9.168 -16.752  14.633  1.00  0.00     0.000 C 
HETATM   26  C18 UNL     1      -8.668 -18.130  14.972  1.00  0.00     0.000 C 
HETATM   27  C19 UNL     1      -9.365 -18.747  16.153  1.00  0.00     0.005 C 
ENDBRANCH  21  22
ENDBRANCH   1  21
BRANCH   1  28
HETATM   28  C20 UNL     1     -11.051 -20.618  19.029  1.00  0.00     0.165 C 
BRANCH  28  29
HETATM   29  O7  UNL     1     -12.086 -19.919  19.735  1.00  0.00    -0.392 OA
ATOM     30  H7  UNL     1     -12.027 -20.213  20.637  1.00  0.00     0.210 HD
ENDBRANCH  28  29
BRANCH  28  31
HETATM   31  C21 UNL     1      -9.806 -20.655  19.746  1.00  0.00     0.320 C 
BRANCH  31  32
HETATM   32  C22 UNL     1      -9.667 -21.048  21.136  1.00  0.00     0.159 C 
HETATM   33  C23 UNL     1      -8.686 -20.603  22.151  1.00  0.00     0.093 C 
HETATM   34  O8  UNL     1     -10.465 -21.885  21.598  1.00  0.00    -0.296 OA
ENDBRANCH  31  32
BRANCH  31  35
HETATM   35  N2  UNL     1      -9.122 -19.350  19.603  1.00  0.00     0.106 N 
HETATM   36  C24 UNL     1      -9.581 -18.298  20.408  1.00  0.00     0.293 C 
HETATM   37  C25 UNL     1      -8.467 -17.251  20.561  1.00  0.00     0.156 C 
HETATM   38  N3  UNL     1      -7.623 -17.189  19.404  1.00  0.00    -0.348 N 
HETATM   39  C26 UNL     1      -7.482 -16.033  18.621  1.00  0.00     0.223 C 
HETATM   40  C30 UNL     1      -6.905 -18.394  19.056  1.00  0.00     0.156 C 
HETATM   41  O9  UNL     1      -8.131 -15.015  18.961  1.00  0.00    -0.273 OA
HETATM   42  C31 UNL     1      -7.681 -19.540  19.690  1.00  0.00     0.293 C 
BRANCH  39  43
HETATM   43  C27 UNL     1      -6.613 -15.960  17.427  1.00  0.00     0.070 C 
HETATM   44  C28 UNL     1      -7.086 -14.822  16.559  1.00  0.00     0.019 C 
HETATM   45  C29 UNL     1      -5.150 -15.790  17.776  1.00  0.00     0.019 C 
ENDBRANCH  39  43
ENDBRANCH  31  35
ENDBRANCH  28  31
ENDBRANCH   1  28
TORSDOF 16
ENDMDL
MODEL 5
REMARK VINA RESULT: -8.962121470      2.123      8.932
REMARK  16 active torsions:
REMARK  status: ('A' for Active; 'I' for Inactive)
REMARK    1  A    between atoms: C2_2  and  C3_3 
REMARK    2  A    between atoms: C3_3  and  C4_4 
REMARK    3  A    between atoms: C3_3  and  C5_7 
REMARK    4  A    between atoms: C5_7  and  O3_8 
REMARK    5  A    between atoms: C5_7  and  C11_17 
REMARK    6  A    between atoms: O3_8  and  C6_9 
REMARK       I    between atoms: C6_9  and  N1_11 
REMARK    7  A    between atoms: C11_17  and  O6_18 
REMARK    8  A    between atoms: C11_17  and  C12_20 
REMARK    9  A    between atoms: C12_20  and  C13_21 
REMARK   10  A    between atoms: C12_20  and  C20_28 
REMARK   11  A    between atoms: C13_21  and  C14_22 
REMARK   12  A    between atoms: C20_28  and  O7_29 
REMARK   13  A    between atoms: C20_28  and  C21_31 
REMARK   14  A    between atoms: C21_31  and  C22_32 
REMARK   15  A    between atoms: C21_31  and  N2_35 
REMARK       I    between atoms: N3_38  and  C26_39 
REMARK   16  A    between atoms: C26_39  and  C27_41 
ROOT
HETATM    1  C12 UNL     1      -9.831 -18.169  18.123  1.00  0.00     0.049 C 
ENDROOT
BRANCH   1   2
HETATM    2  C11 UNL     1     -11.213 -18.598  18.281  1.00  0.00     0.155 C 
BRANCH   2   3
HETATM    3  C5  UNL     1     -11.786 -19.827  17.689  1.00  0.00     0.177 C 
BRANCH   3   4
HETATM    4  C3  UNL     1     -12.516 -20.787  18.520  1.00  0.00     0.118 C 
BRANCH   4   5
HETATM    5  C2  UNL     1     -11.817 -20.862  19.892  1.00  0.00     0.013 C 
HETATM    6  C1  UNL     1     -10.501 -21.552  19.837  1.00  0.00     0.006 C 
ENDBRANCH   4   5
BRANCH   4   7
HETATM    7  C4  UNL     1     -12.338 -22.210  18.023  1.00  0.00     0.179 C 
HETATM    8  O1  UNL     1     -13.052 -23.136  18.433  1.00  0.00    -0.648 OA
HETATM    9  O2  UNL     1     -11.358 -22.465  17.093  1.00  0.00    -0.648 OA
ENDBRANCH   4   7
ENDBRANCH   3   4
BRANCH   3  10
HETATM   10  O3  UNL     1     -12.789 -19.374  16.715  1.00  0.00    -0.295 OA
BRANCH  10  11
HETATM   11  C6  UNL     1     -12.861 -19.828  15.436  1.00  0.00     0.363 C 
HETATM   12  O4  UNL     1     -11.895 -19.582  14.649  1.00  0.00    -0.238 OA
HETATM   13  N1  UNL     1     -13.992 -20.565  14.984  1.00  0.00    -0.324 N 
HETATM   14  C7  UNL     1     -15.064 -20.841  15.889  1.00  0.00     0.154 C 
HETATM   15  C10 UNL     1     -14.056 -21.017  13.622  1.00  0.00     0.154 C 
HETATM   16  C8  UNL     1     -15.508 -22.290  15.658  1.00  0.00     0.187 C 
HETATM   17  O5  UNL     1     -15.767 -22.468  14.316  1.00  0.00    -0.388 OA
HETATM   18  C9  UNL     1     -14.565 -22.440  13.610  1.00  0.00     0.187 C 
ENDBRANCH  10  11
ENDBRANCH   3  10
ENDBRANCH   2   3
BRANCH   2  19
HETATM   19  O6  UNL     1     -12.020 -17.521  17.763  1.00  0.00    -0.392 OA
ATOM     20  H6  UNL     1     -12.411 -17.115  18.529  1.00  0.00     0.210 HD
ENDBRANCH   2  19
ENDBRANCH   1   2
BRANCH   1  21
HETATM   21  C13 UNL     1      -8.699 -18.870  18.757  1.00  0.00     0.014 C 
BRANCH  21  22
HETATM   22  C14 UNL     1      -7.757 -18.173  19.662  1.00  0.00    -0.014 C 
HETATM   23  C15 UNL     1      -6.773 -19.158  20.248  1.00  0.00     0.005 C 
HETATM   24  C16 UNL     1      -5.766 -18.465  21.149  1.00  0.00     0.000 C 
HETATM   25  C17 UNL     1      -6.269 -17.110  21.579  1.00  0.00     0.000 C 
HETATM   26  C18 UNL     1      -7.711 -17.251  21.986  1.00  0.00     0.000 C 
HETATM   27  C19 UNL     1      -8.605 -17.716  20.870  1.00  0.00     0.005 C 
ENDBRANCH  21  22
ENDBRANCH   1  21
BRANCH   1  28
HETATM   28  C20 UNL     1      -9.415 -17.662  16.756  1.00  0.00     0.165 C 
BRANCH  28  29
HETATM   29  O7  UNL     1      -8.648 -18.721  16.165  1.00  0.00    -0.392 OA
ATOM     30  H7  UNL     1      -8.143 -19.101  16.874  1.00  0.00     0.210 HD
ENDBRANCH  28  29
BRANCH  28  31
HETATM   31  C21 UNL     1      -8.855 -16.361  16.516  1.00  0.00     0.320 C 
BRANCH  31  32
HETATM   32  C22 UNL     1      -9.173 -15.523  15.376  1.00  0.00     0.159 C 
HETATM   33  C23 UNL     1      -9.858 -15.868  14.110  1.00  0.00     0.093 C 
HETATM   34  O8  UNL     1      -8.841 -14.323  15.411  1.00  0.00    -0.296 OA
ENDBRANCH  31  32
BRANCH  31  35
HETATM   35  N2  UNL     1      -7.379 -16.446  16.583  1.00  0.00     0.106 N 
HETATM   36  C24 UNL     1      -6.679 -16.346  15.373  1.00  0.00     0.293 C 
HETATM   37  C25 UNL     1      -5.239 -15.891  15.653  1.00  0.00     0.156 C 
HETATM   38  N3  UNL     1      -4.764 -16.355  16.923  1.00  0.00    -0.348 N 
HETATM   39  C26 UNL     1      -3.657 -17.206  17.063  1.00  0.00     0.223 C 
HETATM   40  C30 UNL     1      -5.490 -15.910  18.092  1.00  0.00     0.156 C 
HETATM   41  O9  UNL     1      -3.065 -17.569  16.019  1.00  0.00    -0.273 OA
HETATM   42  C31 UNL     1      -6.880 -15.531  17.600  1.00  0.00     0.293 C 
BRANCH  39  43
HETATM   43  C27 UNL     1      -3.160 -17.687  18.370  1.00  0.00     0.070 C 
HETATM   44  C28 UNL     1      -2.863 -19.161  18.256  1.00  0.00     0.019 C 
HETATM   45  C29 UNL     1      -1.938 -16.934  18.847  1.00  0.00     0.019 C 
ENDBRANCH  39  43
ENDBRANCH  31  35
ENDBRANCH  28  31
ENDBRANCH   1  28
TORSDOF 16
ENDMDL
