MODEL 1
REMARK VINA RESULT: -8.074506237      0.000      0.000
REMARK  17 active torsions:
REMARK  status: ('A' for Active; 'I' for Inactive)
REMARK    1  A    between atoms: C2_2  and  C3_3 
REMARK    2  A    between atoms: N1_5  and  C5_6 
REMARK    3  A    between atoms: C5_6  and  C6_7 
REMARK    4  A    between atoms: C6_7  and  C7_9 
REMARK    5  A    between atoms: C12_14  and  O2_15 
REMARK    6  A    between atoms: C13_17  and  C15_19 
REMARK    7  A    between atoms: C15_19  and  C16_21 
REMARK    8  A    between atoms: C16_21  and  N2_23 
REMARK       I    between atoms: N2_23  and  C18_25 
REMARK    9  A    between atoms: C18_25  and  C19_27 
REMARK   10  A    between atoms: C19_27  and  N3_28 
REMARK   11  A    between atoms: C19_27  and  C22_34 
REMARK   12  A    between atoms: C19_27  and  C30_45 
REMARK       I    between atoms: N3_28  and  C20_30 
REMARK   13  A    between atoms: C20_30  and  O6_32 
REMARK   14  A    between atoms: C22_34  and  O7_35 
REMARK   15  A    between atoms: C22_34  and  N4_37 
REMARK   16  A    between atoms: N4_37  and  C24_39 
REMARK   17  A    between atoms: C24_39  and  C27_42 
ROOT
HETATM    1  N2  UNL     1      -9.712 -19.480  19.080  1.00  0.00    -0.347 N 
ATOM      2  H2  UNL     1      -9.153 -19.762  18.274  1.00  0.00     0.163 HD
HETATM    3  C18 UNL     1      -9.285 -18.352  19.847  1.00  0.00     0.255 C 
HETATM    4  O4  UNL     1     -10.020 -17.921  20.749  1.00  0.00    -0.270 OA
ENDROOT
BRANCH   1   5
HETATM    5  C16 UNL     1     -10.903 -20.243  19.396  1.00  0.00     0.151 C 
HETATM    6  C17 UNL     1     -10.547 -20.853  20.770  1.00  0.00     0.040 C 
BRANCH   5   7
HETATM    7  C15 UNL     1     -11.478 -21.192  18.478  1.00  0.00     0.162 C 
HETATM    8  O3  UNL     1     -10.986 -22.293  18.376  1.00  0.00    -0.295 OA
BRANCH   7   9
HETATM    9  C13 UNL     1     -12.672 -20.861  17.640  1.00  0.00     0.085 C 
HETATM   10  C3  UNL     1     -13.835 -21.698  17.498  1.00  0.00     0.190 C 
HETATM   11  C4  UNL     1     -15.059 -21.096  18.316  1.00  0.00     0.055 C 
HETATM   12  N1  UNL     1     -14.349 -21.365  16.142  1.00  0.00     0.112 N 
HETATM   13  C11 UNL     1     -13.177 -21.192  15.306  1.00  0.00     0.307 C 
HETATM   14  C12 UNL     1     -12.214 -20.493  16.230  1.00  0.00     0.165 C 
HETATM   15  C14 UNL     1     -13.093 -19.471  18.251  1.00  0.00     0.029 C 
BRANCH  10  16
HETATM   16  C2  UNL     1     -13.862 -23.120  17.771  1.00  0.00     0.005 C 
HETATM   17  C1  UNL     1     -14.403 -23.804  18.739  1.00  0.00     0.009 C 
ENDBRANCH  10  16
BRANCH  12  18
HETATM   18  C5  UNL     1     -15.233 -22.356  15.602  1.00  0.00     0.352 C 
BRANCH  18  19
HETATM   19  C6  UNL     1     -16.442 -21.614  15.094  1.00  0.00     0.162 C 
HETATM   20  O1  UNL     1     -16.267 -20.399  14.879  1.00  0.00    -0.295 OA
BRANCH  19  21
HETATM   21  C7  UNL     1     -17.754 -22.177  14.827  1.00  0.00     0.011 C 
HETATM   22  C8  UNL     1     -17.611 -23.263  13.761  1.00  0.00     0.022 C 
HETATM   23  C9  UNL     1     -18.258 -22.954  16.056  1.00  0.00     0.022 C 
HETATM   24  C10 UNL     1     -18.758 -21.148  14.455  1.00  0.00     0.022 C 
ENDBRANCH  19  21
ENDBRANCH  18  19
ENDBRANCH  12  18
BRANCH  14  25
HETATM   25  O2  UNL     1     -12.360 -19.125  15.983  1.00  0.00    -0.393 OA
ATOM     26  H2  UNL     1     -11.481 -18.780  15.875  1.00  0.00     0.210 HD
ENDBRANCH  14  25
ENDBRANCH   7   9
ENDBRANCH   5   7
ENDBRANCH   1   5
BRANCH   3  27
HETATM   27  C19 UNL     1      -7.881 -17.728  19.593  1.00  0.00     0.183 C 
BRANCH  27  28
HETATM   28  N3  UNL     1      -8.088 -16.815  20.818  1.00  0.00    -0.311 N 
HETATM   29  C20 UNL     1      -7.447 -15.802  21.422  1.00  0.00     0.361 C 
HETATM   30  O5  UNL     1      -6.365 -15.320  21.011  1.00  0.00    -0.238 OA
ATOM     31  H3  UNL     1      -8.953 -17.046  21.306  1.00  0.00     0.166 HD
BRANCH  29  32
HETATM   32  O6  UNL     1      -7.983 -15.223  22.593  1.00  0.00    -0.309 OA
HETATM   33  C21 UNL     1      -7.659 -15.609  23.868  1.00  0.00     0.215 C 
ENDBRANCH  29  32
ENDBRANCH  27  28
BRANCH  27  34
HETATM   34  C22 UNL     1      -8.039 -16.763  18.530  1.00  0.00     0.153 C 
BRANCH  34  35
HETATM   35  O7  UNL     1      -8.749 -15.713  18.991  1.00  0.00    -0.347 OA
ATOM     36  H7  UNL     1      -9.070 -15.209  18.254  1.00  0.00     0.219 HD
ENDBRANCH  34  35
BRANCH  34  37
HETATM   37  N4  UNL     1      -7.729 -16.524  17.208  1.00  0.00    -0.355 N 
HETATM   38  C23 UNL     1      -6.701 -15.388  17.046  1.00  0.00     0.152 C 
BRANCH  37  39
HETATM   39  C24 UNL     1      -8.105 -17.016  15.950  1.00  0.00     0.044 C 
HETATM   40  C25 UNL     1      -8.792 -18.374  15.937  1.00  0.00     0.043 C 
HETATM   41  C26 UNL     1      -7.087 -17.039  14.861  1.00  0.00     0.043 C 
BRANCH  39  42
HETATM   42  C27 UNL     1      -9.207 -16.117  15.326  1.00  0.00    -0.001 C 
HETATM   43  C28 UNL     1     -10.035 -16.671  14.474  1.00  0.00    -0.033 C 
HETATM   44  C29 UNL     1     -11.139 -15.922  13.794  1.00  0.00     0.036 C 
ENDBRANCH  39  42
ENDBRANCH  37  39
ENDBRANCH  34  37
ENDBRANCH  27  34
BRANCH  27  45
HETATM   45  C30 UNL     1      -6.864 -18.663  19.857  1.00  0.00     0.024 C 
HETATM   46  C31 UNL     1      -5.460 -18.253  19.494  1.00  0.00     0.013 C 
HETATM   47  C32 UNL     1      -6.848 -19.309  21.243  1.00  0.00     0.013 C 
ENDBRANCH  27  45
ENDBRANCH   3  27
TORSDOF 17
ENDMDL
MODEL 2
REMARK VINA RESULT: -8.057202019      2.182      4.631
REMARK  17 active torsions:
REMARK  status: ('A' for Active; 'I' for Inactive)
REMARK    1  A    between atoms: C2_2  and  C3_3 
REMARK    2  A    between atoms: N1_5  and  C5_6 
REMARK    3  A    between atoms: C5_6  and  C6_7 
REMARK    4  A    between atoms: C6_7  and  C7_9 
REMARK    5  A    between atoms: C12_14  and  O2_15 
REMARK    6  A    between atoms: C13_17  and  C15_19 
REMARK    7  A    between atoms: C15_19  and  C16_21 
REMARK    8  A    between atoms: C16_21  and  N2_23 
REMARK       I    between atoms: N2_23  and  C18_25 
REMARK    9  A    between atoms: C18_25  and  C19_27 
REMARK   10  A    between atoms: C19_27  and  N3_28 
REMARK   11  A    between atoms: C19_27  and  C22_34 
REMARK   12  A    between atoms: C19_27  and  C30_45 
REMARK       I    between atoms: N3_28  and  C20_30 
REMARK   13  A    between atoms: C20_30  and  O6_32 
REMARK   14  A    between atoms: C22_34  and  O7_35 
REMARK   15  A    between atoms: C22_34  and  N4_37 
REMARK   16  A    between atoms: N4_37  and  C24_39 
REMARK   17  A    between atoms: C24_39  and  C27_42 
ROOT
HETATM    1  N2  UNL     1      -9.943 -17.295  17.165  1.00  0.00    -0.347 N 
ATOM      2  H2  UNL     1     -10.249 -16.735  17.961  1.00  0.00     0.163 HD
HETATM    3  C18 UNL     1      -8.635 -17.070  16.633  1.00  0.00     0.255 C 
HETATM    4  O4  UNL     1      -8.203 -17.828  15.751  1.00  0.00    -0.270 OA
ENDROOT
BRANCH   1   5
HETATM    5  C16 UNL     1     -10.855 -18.282  16.622  1.00  0.00     0.151 C 
HETATM    6  C17 UNL     1     -11.369 -17.587  15.342  1.00  0.00     0.040 C 
BRANCH   5   7
HETATM    7  C15 UNL     1     -11.902 -18.881  17.410  1.00  0.00     0.162 C 
HETATM    8  O3  UNL     1     -12.486 -18.209  18.231  1.00  0.00    -0.295 OA
BRANCH   7   9
HETATM    9  C13 UNL     1     -12.297 -20.314  17.247  1.00  0.00     0.085 C 
HETATM   10  C3  UNL     1     -13.478 -20.770  16.562  1.00  0.00     0.190 C 
HETATM   11  C4  UNL     1     -13.098 -21.395  15.149  1.00  0.00     0.055 C 
HETATM   12  N1  UNL     1     -13.808 -22.054  17.238  1.00  0.00     0.112 N 
HETATM   13  C11 UNL     1     -13.530 -21.842  18.645  1.00  0.00     0.307 C 
HETATM   14  C12 UNL     1     -12.281 -21.001  18.612  1.00  0.00     0.165 C 
HETATM   15  C14 UNL     1     -11.016 -20.900  16.540  1.00  0.00     0.029 C 
BRANCH  10  16
HETATM   16  C2  UNL     1     -14.648 -19.955  16.311  1.00  0.00     0.005 C 
HETATM   17  C1  UNL     1     -15.157 -19.492  15.205  1.00  0.00     0.009 C 
ENDBRANCH  10  16
BRANCH  12  18
HETATM   18  C5  UNL     1     -15.161 -22.481  17.032  1.00  0.00     0.352 C 
BRANCH  18  19
HETATM   19  C6  UNL     1     -15.310 -23.786  17.771  1.00  0.00     0.162 C 
HETATM   20  O1  UNL     1     -14.300 -24.517  17.765  1.00  0.00    -0.295 OA
BRANCH  19  21
HETATM   21  C7  UNL     1     -16.489 -24.249  18.482  1.00  0.00     0.011 C 
HETATM   22  C8  UNL     1     -17.698 -23.453  17.992  1.00  0.00     0.022 C 
HETATM   23  C9  UNL     1     -16.826 -25.691  18.068  1.00  0.00     0.022 C 
HETATM   24  C10 UNL     1     -16.332 -24.188  19.958  1.00  0.00     0.022 C 
ENDBRANCH  19  21
ENDBRANCH  18  19
ENDBRANCH  12  18
BRANCH  14  25
HETATM   25  O2  UNL     1     -11.209 -21.890  18.728  1.00  0.00    -0.393 OA
ATOM     26  H2  UNL     1     -10.517 -21.415  19.171  1.00  0.00     0.210 HD
ENDBRANCH  14  25
ENDBRANCH   7   9
ENDBRANCH   5   7
ENDBRANCH   1   5
BRANCH   3  27
HETATM   27  C19 UNL     1      -7.804 -15.843  17.111  1.00  0.00     0.183 C 
BRANCH  27  28
HETATM   28  N3  UNL     1      -6.513 -16.655  16.883  1.00  0.00    -0.311 N 
HETATM   29  C20 UNL     1      -5.206 -16.541  17.163  1.00  0.00     0.361 C 
HETATM   30  O5  UNL     1      -4.710 -15.575  17.790  1.00  0.00    -0.238 OA
ATOM     31  H3  UNL     1      -6.707 -17.519  16.377  1.00  0.00     0.166 HD
BRANCH  29  32
HETATM   32  O6  UNL     1      -4.302 -17.540  16.740  1.00  0.00    -0.309 OA
HETATM   33  C21 UNL     1      -3.025 -17.682  17.218  1.00  0.00     0.215 C 
ENDBRANCH  29  32
ENDBRANCH  27  28
BRANCH  27  34
HETATM   34  C22 UNL     1      -7.850 -15.844  18.554  1.00  0.00     0.153 C 
BRANCH  34  35
HETATM   35  O7  UNL     1      -8.620 -14.818  18.971  1.00  0.00    -0.347 OA
ATOM     36  H7  UNL     1      -9.522 -14.990  18.730  1.00  0.00     0.219 HD
ENDBRANCH  34  35
BRANCH  34  37
HETATM   37  N4  UNL     1      -7.389 -16.515  19.668  1.00  0.00    -0.355 N 
HETATM   38  C23 UNL     1      -6.657 -15.581  20.650  1.00  0.00     0.152 C 
BRANCH  37  39
HETATM   39  C24 UNL     1      -7.381 -17.829  20.156  1.00  0.00     0.044 C 
HETATM   40  C25 UNL     1      -6.265 -18.178  21.130  1.00  0.00     0.043 C 
HETATM   41  C26 UNL     1      -7.467 -18.953  19.181  1.00  0.00     0.043 C 
BRANCH  39  42
HETATM   42  C27 UNL     1      -8.636 -18.085  21.036  1.00  0.00    -0.001 C 
HETATM   43  C28 UNL     1      -9.659 -18.685  20.477  1.00  0.00    -0.033 C 
HETATM   44  C29 UNL     1     -10.932 -18.989  21.204  1.00  0.00     0.036 C 
ENDBRANCH  39  42
ENDBRANCH  37  39
ENDBRANCH  34  37
ENDBRANCH  27  34
BRANCH  27  45
HETATM   45  C30 UNL     1      -7.883 -14.794  16.178  1.00  0.00     0.024 C 
HETATM   46  C31 UNL     1      -6.600 -14.409  15.486  1.00  0.00     0.013 C 
HETATM   47  C32 UNL     1      -9.004 -14.860  15.140  1.00  0.00     0.013 C 
ENDBRANCH  27  45
ENDBRANCH   3  27
TORSDOF 17
ENDMDL
MODEL 3
REMARK VINA RESULT: -8.009022824      0.756      1.701
REMARK  17 active torsions:
REMARK  status: ('A' for Active; 'I' for Inactive)
REMARK    1  A    between atoms: C2_2  and  C3_3 
REMARK    2  A    between atoms: N1_5  and  C5_6 
REMARK    3  A    between atoms: C5_6  and  C6_7 
REMARK    4  A    between atoms: C6_7  and  C7_9 
REMARK    5  A    between atoms: C12_14  and  O2_15 
REMARK    6  A    between atoms: C13_17  and  C15_19 
REMARK    7  A    between atoms: C15_19  and  C16_21 
REMARK    8  A    between atoms: C16_21  and  N2_23 
REMARK       I    between atoms: N2_23  and  C18_25 
REMARK    9  A    between atoms: C18_25  and  C19_27 
REMARK   10  A    between atoms: C19_27  and  N3_28 
REMARK   11  A    between atoms: C19_27  and  C22_34 
REMARK   12  A    between atoms: C19_27  and  C30_45 
REMARK       I    between atoms: N3_28  and  C20_30 
REMARK   13  A    between atoms: C20_30  and  O6_32 
REMARK   14  A    between atoms: C22_34  and  O7_35 
REMARK   15  A    between atoms: C22_34  and  N4_37 
REMARK   16  A    between atoms: N4_37  and  C24_39 
REMARK   17  A    between atoms: C24_39  and  C27_42 
ROOT
HETATM    1  N2  UNL     1      -9.803 -19.329  18.941  1.00  0.00    -0.347 N 
ATOM      2  H2  UNL     1      -9.335 -19.491  18.049  1.00  0.00     0.163 HD
HETATM    3  C18 UNL     1      -9.347 -18.253  19.766  1.00  0.00     0.255 C 
HETATM    4  O4  UNL     1      -9.986 -17.964  20.789  1.00  0.00    -0.270 OA
ENDROOT
BRANCH   1   5
HETATM    5  C16 UNL     1     -10.899 -20.199  19.316  1.00  0.00     0.151 C 
HETATM    6  C17 UNL     1     -10.380 -20.838  20.623  1.00  0.00     0.040 C 
BRANCH   5   7
HETATM    7  C15 UNL     1     -11.477 -21.151  18.401  1.00  0.00     0.162 C 
HETATM    8  O3  UNL     1     -10.970 -22.244  18.282  1.00  0.00    -0.295 OA
BRANCH   7   9
HETATM    9  C13 UNL     1     -12.691 -20.832  17.587  1.00  0.00     0.085 C 
HETATM   10  C3  UNL     1     -13.847 -21.680  17.468  1.00  0.00     0.190 C 
HETATM   11  C4  UNL     1     -15.061 -21.090  18.310  1.00  0.00     0.055 C 
HETATM   12  N1  UNL     1     -14.392 -21.353  16.123  1.00  0.00     0.112 N 
HETATM   13  C11 UNL     1     -13.238 -21.169  15.264  1.00  0.00     0.307 C 
HETATM   14  C12 UNL     1     -12.264 -20.461  16.167  1.00  0.00     0.165 C 
HETATM   15  C14 UNL     1     -13.113 -19.446  18.206  1.00  0.00     0.029 C 
BRANCH  10  16
HETATM   16  C2  UNL     1     -13.856 -23.102  17.742  1.00  0.00     0.005 C 
HETATM   17  C1  UNL     1     -14.266 -23.781  18.776  1.00  0.00     0.009 C 
ENDBRANCH  10  16
BRANCH  12  18
HETATM   18  C5  UNL     1     -15.276 -22.354  15.601  1.00  0.00     0.352 C 
BRANCH  18  19
HETATM   19  C6  UNL     1     -16.484 -21.620  15.076  1.00  0.00     0.162 C 
HETATM   20  O1  UNL     1     -16.316 -20.402  14.869  1.00  0.00    -0.295 OA
BRANCH  19  21
HETATM   21  C7  UNL     1     -17.785 -22.193  14.784  1.00  0.00     0.011 C 
HETATM   22  C8  UNL     1     -17.601 -23.344  13.796  1.00  0.00     0.022 C 
HETATM   23  C9  UNL     1     -18.351 -22.889  16.034  1.00  0.00     0.022 C 
HETATM   24  C10 UNL     1     -18.764 -21.185  14.301  1.00  0.00     0.022 C 
ENDBRANCH  19  21
ENDBRANCH  18  19
ENDBRANCH  12  18
BRANCH  14  25
HETATM   25  O2  UNL     1     -12.428 -19.094  15.923  1.00  0.00    -0.393 OA
ATOM     26  H2  UNL     1     -11.805 -18.648  16.483  1.00  0.00     0.210 HD
ENDBRANCH  14  25
ENDBRANCH   7   9
ENDBRANCH   5   7
ENDBRANCH   1   5
BRANCH   3  27
HETATM   27  C19 UNL     1      -8.025 -17.512  19.412  1.00  0.00     0.183 C 
BRANCH  27  28
HETATM   28  N3  UNL     1      -8.204 -16.636  20.669  1.00  0.00    -0.311 N 
HETATM   29  C20 UNL     1      -7.510 -15.701  21.336  1.00  0.00     0.361 C 
HETATM   30  O5  UNL     1      -6.380 -15.288  20.980  1.00  0.00    -0.238 OA
ATOM     31  H3  UNL     1      -9.101 -16.819  21.119  1.00  0.00     0.166 HD
BRANCH  29  32
HETATM   32  O6  UNL     1      -8.041 -15.131  22.513  1.00  0.00    -0.309 OA
HETATM   33  C21 UNL     1      -7.763 -15.572  23.782  1.00  0.00     0.215 C 
ENDBRANCH  29  32
ENDBRANCH  27  28
BRANCH  27  34
HETATM   34  C22 UNL     1      -8.347 -16.548  18.386  1.00  0.00     0.153 C 
BRANCH  34  35
HETATM   35  O7  UNL     1      -8.624 -15.363  18.967  1.00  0.00    -0.347 OA
ATOM     36  H7  UNL     1      -8.920 -14.754  18.301  1.00  0.00     0.219 HD
ENDBRANCH  34  35
BRANCH  34  37
HETATM   37  N4  UNL     1      -8.478 -16.399  17.022  1.00  0.00    -0.355 N 
HETATM   38  C23 UNL     1      -9.899 -16.735  16.531  1.00  0.00     0.152 C 
BRANCH  37  39
HETATM   39  C24 UNL     1      -7.666 -16.042  15.935  1.00  0.00     0.044 C 
HETATM   40  C25 UNL     1      -8.007 -14.730  15.243  1.00  0.00     0.043 C 
HETATM   41  C26 UNL     1      -7.434 -17.047  14.859  1.00  0.00     0.043 C 
BRANCH  39  42
HETATM   42  C27 UNL     1      -6.216 -15.760  16.416  1.00  0.00    -0.001 C 
HETATM   43  C28 UNL     1      -5.236 -16.332  15.760  1.00  0.00    -0.033 C 
HETATM   44  C29 UNL     1      -3.793 -16.153  16.117  1.00  0.00     0.036 C 
ENDBRANCH  39  42
ENDBRANCH  37  39
ENDBRANCH  34  37
ENDBRANCH  27  34
BRANCH  27  45
HETATM   45  C30 UNL     1      -6.917 -18.363  19.574  1.00  0.00     0.024 C 
HETATM   46  C31 UNL     1      -5.569 -17.792  19.216  1.00  0.00     0.013 C 
HETATM   47  C32 UNL     1      -6.799 -19.116  20.900  1.00  0.00     0.013 C 
ENDBRANCH  27  45
ENDBRANCH   3  27
TORSDOF 17
ENDMDL
MODEL 4
REMARK VINA RESULT: -7.963832886      2.388      5.002
REMARK  17 active torsions:
REMARK  status: ('A' for Active; 'I' for Inactive)
REMARK    1  A    between atoms: C2_2  and  C3_3 
REMARK    2  A    between atoms: N1_5  and  C5_6 
REMARK    3  A    between atoms: C5_6  and  C6_7 
REMARK    4  A    between atoms: C6_7  and  C7_9 
REMARK    5  A    between atoms: C12_14  and  O2_15 
REMARK    6  A    between atoms: C13_17  and  C15_19 
REMARK    7  A    between atoms: C15_19  and  C16_21 
REMARK    8  A    between atoms: C16_21  and  N2_23 
REMARK       I    between atoms: N2_23  and  C18_25 
REMARK    9  A    between atoms: C18_25  and  C19_27 
REMARK   10  A    between atoms: C19_27  and  N3_28 
REMARK   11  A    between atoms: C19_27  and  C22_34 
REMARK   12  A    between atoms: C19_27  and  C30_45 
REMARK       I    between atoms: N3_28  and  C20_30 
REMARK   13  A    between atoms: C20_30  and  O6_32 
REMARK   14  A    between atoms: C22_34  and  O7_35 
REMARK   15  A    between atoms: C22_34  and  N4_37 
REMARK   16  A    between atoms: N4_37  and  C24_39 
REMARK   17  A    between atoms: C24_39  and  C27_42 
ROOT
HETATM    1  N2  UNL     1      -8.316 -18.204  17.671  1.00  0.00    -0.347 N 
ATOM      2  H2  UNL     1      -7.780 -17.647  17.005  1.00  0.00     0.163 HD
HETATM    3  C18 UNL     1      -7.989 -18.111  19.060  1.00  0.00     0.255 C 
HETATM    4  O4  UNL     1      -8.713 -18.682  19.890  1.00  0.00    -0.270 OA
ENDROOT
BRANCH   1   5
HETATM    5  C16 UNL     1      -9.375 -19.056  17.166  1.00  0.00     0.151 C 
HETATM    6  C17 UNL     1      -9.272 -18.838  15.640  1.00  0.00     0.040 C 
BRANCH   5   7
HETATM    7  C15 UNL     1     -10.724 -18.988  17.667  1.00  0.00     0.162 C 
HETATM    8  O3  UNL     1     -11.273 -17.913  17.752  1.00  0.00    -0.295 OA
BRANCH   7   9
HETATM    9  C13 UNL     1     -11.476 -20.211  18.087  1.00  0.00     0.085 C 
HETATM   10  C3  UNL     1     -12.106 -21.140  17.186  1.00  0.00     0.190 C 
HETATM   11  C4  UNL     1     -11.264 -22.488  17.095  1.00  0.00     0.055 C 
HETATM   12  N1  UNL     1     -13.237 -21.694  17.979  1.00  0.00     0.112 N 
HETATM   13  C11 UNL     1     -13.766 -20.580  18.741  1.00  0.00     0.307 C 
HETATM   14  C12 UNL     1     -12.522 -19.827  19.132  1.00  0.00     0.165 C 
HETATM   15  C14 UNL     1     -10.381 -20.960  18.938  1.00  0.00     0.029 C 
BRANCH  10  16
HETATM   16  C2  UNL     1     -12.478 -20.836  15.820  1.00  0.00     0.005 C 
HETATM   17  C1  UNL     1     -12.898 -19.735  15.264  1.00  0.00     0.009 C 
ENDBRANCH  10  16
BRANCH  12  18
HETATM   18  C5  UNL     1     -14.254 -22.308  17.177  1.00  0.00     0.352 C 
BRANCH  18  19
HETATM   19  C6  UNL     1     -14.678 -23.554  17.912  1.00  0.00     0.162 C 
HETATM   20  O1  UNL     1     -13.770 -24.383  18.117  1.00  0.00    -0.295 OA
BRANCH  19  21
HETATM   21  C7  UNL     1     -16.010 -23.859  18.403  1.00  0.00     0.011 C 
HETATM   22  C8  UNL     1     -17.007 -22.921  17.723  1.00  0.00     0.022 C 
HETATM   23  C9  UNL     1     -16.449 -25.250  17.918  1.00  0.00     0.022 C 
HETATM   24  C10 UNL     1     -16.104 -23.805  19.885  1.00  0.00     0.022 C 
ENDBRANCH  19  21
ENDBRANCH  18  19
ENDBRANCH  12  18
BRANCH  14  25
HETATM   25  O2  UNL     1     -12.171 -20.287  20.404  1.00  0.00    -0.393 OA
ATOM     26  H2  UNL     1     -12.306 -19.557  20.997  1.00  0.00     0.210 HD
ENDBRANCH  14  25
ENDBRANCH   7   9
ENDBRANCH   5   7
ENDBRANCH   1   5
BRANCH   3  27
HETATM   27  C19 UNL     1      -6.698 -17.363  19.503  1.00  0.00     0.183 C 
BRANCH  27  28
HETATM   28  N3  UNL     1      -6.412 -17.023  18.027  1.00  0.00    -0.311 N 
HETATM   29  C20 UNL     1      -5.547 -16.270  17.330  1.00  0.00     0.361 C 
HETATM   30  O5  UNL     1      -4.638 -15.586  17.857  1.00  0.00    -0.238 OA
ATOM     31  H3  UNL     1      -7.062 -17.506  17.406  1.00  0.00     0.166 HD
BRANCH  29  32
HETATM   32  O6  UNL     1      -5.636 -16.209  15.922  1.00  0.00    -0.309 OA
HETATM   33  C21 UNL     1      -6.786 -15.929  15.229  1.00  0.00     0.215 C 
ENDBRANCH  29  32
ENDBRANCH  27  28
BRANCH  27  34
HETATM   34  C22 UNL     1      -5.688 -18.370  19.730  1.00  0.00     0.153 C 
BRANCH  34  35
HETATM   35  O7  UNL     1      -6.206 -19.583  19.448  1.00  0.00    -0.347 OA
ATOM     36  H7  UNL     1      -5.572 -20.251  19.678  1.00  0.00     0.219 HD
ENDBRANCH  34  35
BRANCH  34  37
HETATM   37  N4  UNL     1      -4.381 -18.544  20.134  1.00  0.00    -0.355 N 
HETATM   38  C23 UNL     1      -4.208 -18.347  21.652  1.00  0.00     0.152 C 
BRANCH  37  39
HETATM   39  C24 UNL     1      -3.144 -18.835  19.542  1.00  0.00     0.044 C 
HETATM   40  C25 UNL     1      -1.929 -18.147  20.150  1.00  0.00     0.043 C 
HETATM   41  C26 UNL     1      -3.013 -18.706  18.063  1.00  0.00     0.043 C 
BRANCH  39  42
HETATM   42  C27 UNL     1      -2.780 -20.330  19.757  1.00  0.00    -0.001 C 
HETATM   43  C28 UNL     1      -3.181 -21.190  18.853  1.00  0.00    -0.033 C 
HETATM   44  C29 UNL     1      -2.907 -22.659  18.936  1.00  0.00     0.036 C 
ENDBRANCH  39  42
ENDBRANCH  37  39
ENDBRANCH  34  37
ENDBRANCH  27  34
BRANCH  27  45
HETATM   45  C30 UNL     1      -7.019 -16.191  20.212  1.00  0.00     0.024 C 
HETATM   46  C31 UNL     1      -8.126 -15.340  19.642  1.00  0.00     0.013 C 
HETATM   47  C32 UNL     1      -7.219 -16.317  21.722  1.00  0.00     0.013 C 
ENDBRANCH  27  45
ENDBRANCH   3  27
TORSDOF 17
ENDMDL
MODEL 5
REMARK VINA RESULT: -7.951879024      2.568      5.067
REMARK  17 active torsions:
REMARK  status: ('A' for Active; 'I' for Inactive)
REMARK    1  A    between atoms: C2_2  and  C3_3 
REMARK    2  A    between atoms: N1_5  and  C5_6 
REMARK    3  A    between atoms: C5_6  and  C6_7 
REMARK    4  A    between atoms: C6_7  and  C7_9 
REMARK    5  A    between atoms: C12_14  and  O2_15 
REMARK    6  A    between atoms: C13_17  and  C15_19 
REMARK    7  A    between atoms: C15_19  and  C16_21 
REMARK    8  A    between atoms: C16_21  and  N2_23 
REMARK       I    between atoms: N2_23  and  C18_25 
REMARK    9  A    between atoms: C18_25  and  C19_27 
REMARK   10  A    between atoms: C19_27  and  N3_28 
REMARK   11  A    between atoms: C19_27  and  C22_34 
REMARK   12  A    between atoms: C19_27  and  C30_45 
REMARK       I    between atoms: N3_28  and  C20_30 
REMARK   13  A    between atoms: C20_30  and  O6_32 
REMARK   14  A    between atoms: C22_34  and  O7_35 
REMARK   15  A    between atoms: C22_34  and  N4_37 
REMARK   16  A    between atoms: N4_37  and  C24_39 
REMARK   17  A    between atoms: C24_39  and  C27_42 
ROOT
HETATM    1  N2  UNL     1      -8.230 -17.940  17.774  1.00  0.00    -0.347 N 
ATOM      2  H2  UNL     1      -7.719 -17.304  17.163  1.00  0.00     0.163 HD
HETATM    3  C18 UNL     1      -7.814 -18.060  19.137  1.00  0.00     0.255 C 
HETATM    4  O4  UNL     1      -8.503 -18.730  19.922  1.00  0.00    -0.270 OA
ENDROOT
BRANCH   1   5
HETATM    5  C16 UNL     1      -9.346 -18.683  17.223  1.00  0.00     0.151 C 
HETATM    6  C17 UNL     1      -8.841 -19.028  15.804  1.00  0.00     0.040 C 
BRANCH   5   7
HETATM    7  C15 UNL     1     -10.695 -18.179  17.246  1.00  0.00     0.162 C 
HETATM    8  O3  UNL     1     -10.950 -17.138  16.683  1.00  0.00    -0.295 OA
BRANCH   7   9
HETATM    9  C13 UNL     1     -11.801 -18.903  17.946  1.00  0.00     0.085 C 
HETATM   10  C3  UNL     1     -12.068 -20.312  17.824  1.00  0.00     0.190 C 
HETATM   11  C4  UNL     1     -11.613 -21.082  19.140  1.00  0.00     0.055 C 
HETATM   12  N1  UNL     1     -13.534 -20.417  18.058  1.00  0.00     0.112 N 
HETATM   13  C11 UNL     1     -14.122 -19.264  17.405  1.00  0.00     0.307 C 
HETATM   14  C12 UNL     1     -13.121 -18.176  17.693  1.00  0.00     0.165 C 
HETATM   15  C14 UNL     1     -11.484 -18.553  19.450  1.00  0.00     0.029 C 
BRANCH  10  16
HETATM   16  C2  UNL     1     -11.618 -21.142  16.727  1.00  0.00     0.005 C 
HETATM   17  C1  UNL     1     -10.815 -22.167  16.692  1.00  0.00     0.009 C 
ENDBRANCH  10  16
BRANCH  12  18
HETATM   18  C5  UNL     1     -14.107 -21.638  17.574  1.00  0.00     0.352 C 
BRANCH  18  19
HETATM   19  C6  UNL     1     -14.822 -22.264  18.745  1.00  0.00     0.162 C 
HETATM   20  O1  UNL     1     -14.979 -21.518  19.730  1.00  0.00    -0.295 OA
BRANCH  19  21
HETATM   21  C7  UNL     1     -15.342 -23.618  18.818  1.00  0.00     0.011 C 
HETATM   22  C8  UNL     1     -15.637 -23.948  20.281  1.00  0.00     0.022 C 
HETATM   23  C9  UNL     1     -16.727 -23.691  18.154  1.00  0.00     0.022 C 
HETATM   24  C10 UNL     1     -14.442 -24.616  18.184  1.00  0.00     0.022 C 
ENDBRANCH  19  21
ENDBRANCH  18  19
ENDBRANCH  12  18
BRANCH  14  25
HETATM   25  O2  UNL     1     -13.575 -17.522  18.842  1.00  0.00    -0.393 OA
ATOM     26  H2  UNL     1     -13.455 -16.593  18.683  1.00  0.00     0.210 HD
ENDBRANCH  14  25
ENDBRANCH   7   9
ENDBRANCH   5   7
ENDBRANCH   1   5
BRANCH   3  27
HETATM   27  C19 UNL     1      -6.474 -17.416  19.598  1.00  0.00     0.183 C 
BRANCH  27  28
HETATM   28  N3  UNL     1      -6.200 -16.993  18.142  1.00  0.00    -0.311 N 
HETATM   29  C20 UNL     1      -5.318 -16.230  17.477  1.00  0.00     0.361 C 
HETATM   30  O5  UNL     1      -4.372 -15.619  18.030  1.00  0.00    -0.238 OA
ATOM     31  H3  UNL     1      -6.880 -17.407  17.504  1.00  0.00     0.166 HD
BRANCH  29  32
HETATM   32  O6  UNL     1      -5.428 -16.074  16.079  1.00  0.00    -0.309 OA
HETATM   33  C21 UNL     1      -6.616 -16.033  15.395  1.00  0.00     0.215 C 
ENDBRANCH  29  32
ENDBRANCH  27  28
BRANCH  27  34
HETATM   34  C22 UNL     1      -5.519 -18.491  19.732  1.00  0.00     0.153 C 
BRANCH  34  35
HETATM   35  O7  UNL     1      -6.108 -19.651  19.378  1.00  0.00    -0.347 OA
ATOM     36  H7  UNL     1      -6.230 -20.185  20.154  1.00  0.00     0.219 HD
ENDBRANCH  34  35
BRANCH  34  37
HETATM   37  N4  UNL     1      -4.216 -18.764  20.094  1.00  0.00    -0.355 N 
HETATM   38  C23 UNL     1      -4.021 -18.757  21.622  1.00  0.00     0.152 C 
BRANCH  37  39
HETATM   39  C24 UNL     1      -2.997 -19.030  19.454  1.00  0.00     0.044 C 
HETATM   40  C25 UNL     1      -1.770 -18.335  20.027  1.00  0.00     0.043 C 
HETATM   41  C26 UNL     1      -2.922 -18.882  17.973  1.00  0.00     0.043 C 
BRANCH  39  42
HETATM   42  C27 UNL     1      -2.607 -20.523  19.637  1.00  0.00    -0.001 C 
HETATM   43  C28 UNL     1      -3.181 -21.403  18.852  1.00  0.00    -0.033 C 
HETATM   44  C29 UNL     1      -2.903 -22.872  18.922  1.00  0.00     0.036 C 
ENDBRANCH  39  42
ENDBRANCH  37  39
ENDBRANCH  34  37
ENDBRANCH  27  34
BRANCH  27  45
HETATM   45  C30 UNL     1      -6.714 -16.280  20.392  1.00  0.00     0.024 C 
HETATM   46  C31 UNL     1      -7.869 -15.402  19.981  1.00  0.00     0.013 C 
HETATM   47  C32 UNL     1      -6.758 -16.478  21.907  1.00  0.00     0.013 C 
ENDBRANCH  27  45
ENDBRANCH   3  27
TORSDOF 17
ENDMDL
