MODEL 1
REMARK VINA RESULT: -6.645206037      0.000      0.000
REMARK  14 active torsions:
REMARK  status: ('A' for Active; 'I' for Inactive)
REMARK    1  A    between atoms: C2_2  and  C3_3 
REMARK    2  A    between atoms: C3_3  and  C5_5 
REMARK    3  A    between atoms: C5_5  and  N1_6 
REMARK    4  A    between atoms: C5_5  and  C27_37 
REMARK       I    between atoms: N1_6  and  C6_8 
REMARK    5  A    between atoms: C6_8  and  C7_10 
REMARK       I    between atoms: N2_14  and  C11_15 
REMARK    6  A    between atoms: C11_15  and  C12_17 
REMARK    7  A    between atoms: C12_17  and  N3_18 
REMARK    8  A    between atoms: C12_17  and  C15_23 
REMARK       I    between atoms: N3_18  and  C13_20 
REMARK    9  A    between atoms: C19_27  and  C20_28 
REMARK   10  A    between atoms: C21_31  and  C22_32 
REMARK   11  A    between atoms: C22_32  and  C23_33 
REMARK   12  A    between atoms: C27_37  and  O6_38 
REMARK   13  A    between atoms: C27_37  and  N4_42 
REMARK   14  A    between atoms: O6_38  and  C28_39 
ROOT
HETATM    1  N4  UNL     1       3.893  15.815  17.271  1.00  0.00    -0.294 N 
HETATM    2  C30 UNL     1       3.436  17.037  16.713  1.00  0.00     0.165 C 
HETATM    3  C31 UNL     1       3.113  15.043  18.092  1.00  0.00     0.181 C 
HETATM    4  N5  UNL     1       2.432  14.389  18.773  1.00  0.00    -0.172 NA
ENDROOT
BRANCH   1   5
HETATM    5  C27 UNL     1       5.254  15.296  16.846  1.00  0.00     0.264 C 
BRANCH   5   6
HETATM    6  C5  UNL     1       6.289  16.332  16.961  1.00  0.00     0.138 C 
BRANCH   6   7
HETATM    7  C3  UNL     1       7.425  16.265  16.023  1.00  0.00     0.008 C 
HETATM    8  C4  UNL     1       7.620  14.801  15.532  1.00  0.00     0.012 C 
BRANCH   7   9
HETATM    9  C2  UNL     1       7.437  17.079  14.793  1.00  0.00     0.002 C 
HETATM   10  C1  UNL     1       8.766  17.109  14.054  1.00  0.00     0.005 C 
ENDBRANCH   7   9
ENDBRANCH   6   7
BRANCH   6  11
HETATM   11  N1  UNL     1       6.778  16.604  18.306  1.00  0.00    -0.350 N 
HETATM   12  C6  UNL     1       7.585  15.990  19.218  1.00  0.00     0.241 C 
HETATM   13  O1  UNL     1       8.169  14.915  19.044  1.00  0.00    -0.271 OA
ATOM     14  H1  UNL     1       6.422  17.491  18.660  1.00  0.00     0.163 HD
BRANCH  12  15
HETATM   15  C7  UNL     1       7.830  16.623  20.568  1.00  0.00     0.184 C 
HETATM   16  C8  UNL     1       9.064  17.378  20.660  1.00  0.00     0.029 C 
HETATM   17  C9  UNL     1       8.731  18.475  21.700  1.00  0.00     0.025 C 
HETATM   18  C21 UNL     1       9.297  18.548  19.660  1.00  0.00     0.008 C 
HETATM   19  C10 UNL     1       7.285  18.720  21.401  1.00  0.00     0.133 C 
HETATM   20  C19 UNL     1       9.730  19.318  20.877  1.00  0.00     0.097 C 
HETATM   21  N2  UNL     1       6.754  17.438  20.982  1.00  0.00    -0.336 N 
HETATM   22  C11 UNL     1       5.352  17.104  21.041  1.00  0.00     0.244 C 
HETATM   23  O2  UNL     1       5.035  15.949  20.701  1.00  0.00    -0.271 OA
BRANCH  22  24
HETATM   24  C12 UNL     1       4.330  18.060  21.483  1.00  0.00     0.184 C 
BRANCH  24  25
HETATM   25  N3  UNL     1       3.418  17.345  22.409  1.00  0.00    -0.347 N 
HETATM   26  C13 UNL     1       3.600  17.398  23.790  1.00  0.00     0.214 C 
HETATM   27  C14 UNL     1       2.738  16.715  24.778  1.00  0.00     0.117 C 
HETATM   28  O3  UNL     1       4.566  18.071  24.251  1.00  0.00    -0.274 OA
ATOM     29  H3  UNL     1       2.641  16.804  22.028  1.00  0.00     0.163 HD
ENDBRANCH  24  25
BRANCH  24  30
HETATM   30  C15 UNL     1       3.407  18.555  20.392  1.00  0.00    -0.022 C 
HETATM   31  C16 UNL     1       4.083  19.037  19.160  1.00  0.00     0.017 C 
HETATM   32  C17 UNL     1       2.700  19.780  21.006  1.00  0.00     0.017 C 
HETATM   33  C18 UNL     1       2.297  17.585  20.066  1.00  0.00     0.017 C 
ENDBRANCH  24  30
ENDBRANCH  22  24
BRANCH  20  34
HETATM   34  C20 UNL     1       9.443  20.725  21.011  1.00  0.00     0.177 C 
HETATM   35  O4  UNL     1       9.394  21.193  22.220  1.00  0.00    -0.648 OA
HETATM   36  O5  UNL     1       9.206  21.679  20.057  1.00  0.00    -0.648 OA
ENDBRANCH  20  34
BRANCH  18  37
HETATM   37  C22 UNL     1      10.265  18.115  18.647  1.00  0.00     0.014 C 
BRANCH  37  38
HETATM   38  C23 UNL     1      10.583  19.008  17.506  1.00  0.00    -0.051 C 
HETATM   39  C24 UNL     1      11.525  20.136  17.840  1.00  0.00     0.014 C 
HETATM   40  C25 UNL     1      11.332  18.154  16.467  1.00  0.00     0.014 C 
HETATM   41  C26 UNL     1       9.345  19.504  16.782  1.00  0.00     0.014 C 
ENDBRANCH  37  38
ENDBRANCH  18  37
ENDBRANCH  12  15
ENDBRANCH   6  11
ENDBRANCH   5   6
BRANCH   5  42
HETATM   42  O6  UNL     1       4.921  15.019  15.473  1.00  0.00    -0.293 OA
BRANCH  42  43
HETATM   43  C28 UNL     1       4.030  13.976  15.186  1.00  0.00     0.256 C 
HETATM   44  C29 UNL     1       4.237  12.613  15.720  1.00  0.00     0.126 C 
HETATM   45  O7  UNL     1       3.048  14.242  14.460  1.00  0.00    -0.266 OA
ENDBRANCH  42  43
ENDBRANCH   5  42
ENDBRANCH   1   5
TORSDOF 14
ENDMDL
MODEL 2
REMARK VINA RESULT: -6.616908724      2.439      6.113
REMARK  14 active torsions:
REMARK  status: ('A' for Active; 'I' for Inactive)
REMARK    1  A    between atoms: C2_2  and  C3_3 
REMARK    2  A    between atoms: C3_3  and  C5_5 
REMARK    3  A    between atoms: C5_5  and  N1_6 
REMARK    4  A    between atoms: C5_5  and  C27_37 
REMARK       I    between atoms: N1_6  and  C6_8 
REMARK    5  A    between atoms: C6_8  and  C7_10 
REMARK       I    between atoms: N2_14  and  C11_15 
REMARK    6  A    between atoms: C11_15  and  C12_17 
REMARK    7  A    between atoms: C12_17  and  N3_18 
REMARK    8  A    between atoms: C12_17  and  C15_23 
REMARK       I    between atoms: N3_18  and  C13_20 
REMARK    9  A    between atoms: C19_27  and  C20_28 
REMARK   10  A    between atoms: C21_31  and  C22_32 
REMARK   11  A    between atoms: C22_32  and  C23_33 
REMARK   12  A    between atoms: C27_37  and  O6_38 
REMARK   13  A    between atoms: C27_37  and  N4_42 
REMARK   14  A    between atoms: O6_38  and  C28_39 
ROOT
HETATM    1  N4  UNL     1      12.492  19.025  17.141  1.00  0.00    -0.294 N 
HETATM    2  C30 UNL     1      13.363  18.545  18.153  1.00  0.00     0.165 C 
HETATM    3  C31 UNL     1      12.951  19.506  15.941  1.00  0.00     0.181 C 
HETATM    4  N5  UNL     1      13.355  19.895  14.922  1.00  0.00    -0.172 NA
ENDROOT
BRANCH   1   5
HETATM    5  C27 UNL     1      10.997  18.891  17.357  1.00  0.00     0.264 C 
BRANCH   5   6
HETATM    6  C5  UNL     1      10.477  17.642  16.788  1.00  0.00     0.138 C 
BRANCH   6   7
HETATM    7  C3  UNL     1       9.934  17.692  15.417  1.00  0.00     0.008 C 
HETATM    8  C4  UNL     1      10.725  16.714  14.500  1.00  0.00     0.012 C 
BRANCH   7   9
HETATM    9  C2  UNL     1       8.515  17.389  15.155  1.00  0.00     0.002 C 
HETATM   10  C1  UNL     1       7.752  18.474  14.409  1.00  0.00     0.005 C 
ENDBRANCH   7   9
ENDBRANCH   6   7
BRANCH   6  11
HETATM   11  N1  UNL     1       9.583  16.871  17.641  1.00  0.00    -0.350 N 
HETATM   12  C6  UNL     1       8.360  17.043  18.219  1.00  0.00     0.241 C 
HETATM   13  O1  UNL     1       7.647  18.043  18.095  1.00  0.00    -0.271 OA
ATOM     14  H1  UNL     1       9.979  15.959  17.867  1.00  0.00     0.163 HD
BRANCH  12  15
HETATM   15  C7  UNL     1       7.770  15.959  19.091  1.00  0.00     0.184 C 
HETATM   16  C8  UNL     1       8.181  16.017  20.480  1.00  0.00     0.029 C 
HETATM   17  C9  UNL     1       6.966  15.424  21.235  1.00  0.00     0.025 C 
HETATM   18  C21 UNL     1       7.908  17.321  21.283  1.00  0.00     0.008 C 
HETATM   19  C10 UNL     1       5.837  15.906  20.377  1.00  0.00     0.133 C 
HETATM   20  C19 UNL     1       7.408  16.391  22.355  1.00  0.00     0.097 C 
HETATM   21  N2  UNL     1       6.359  15.925  19.025  1.00  0.00    -0.336 N 
HETATM   22  C11 UNL     1       5.521  15.877  17.852  1.00  0.00     0.244 C 
HETATM   23  O2  UNL     1       6.100  15.846  16.750  1.00  0.00    -0.271 OA
BRANCH  22  24
HETATM   24  C12 UNL     1       4.055  15.860  17.928  1.00  0.00     0.184 C 
BRANCH  24  25
HETATM   25  N3  UNL     1       3.558  15.038  16.798  1.00  0.00    -0.347 N 
HETATM   26  C13 UNL     1       2.833  13.867  17.017  1.00  0.00     0.214 C 
HETATM   27  C14 UNL     1       2.304  12.994  15.947  1.00  0.00     0.117 C 
HETATM   28  O3  UNL     1       2.602  13.508  18.207  1.00  0.00    -0.274 OA
ATOM     29  H3  UNL     1       3.750  15.335  15.841  1.00  0.00     0.163 HD
ENDBRANCH  24  25
BRANCH  24  30
HETATM   30  C15 UNL     1       3.391  17.199  17.708  1.00  0.00    -0.022 C 
HETATM   31  C16 UNL     1       4.062  18.355  18.358  1.00  0.00     0.017 C 
HETATM   32  C17 UNL     1       2.011  17.065  18.384  1.00  0.00     0.017 C 
HETATM   33  C18 UNL     1       3.089  17.483  16.257  1.00  0.00     0.017 C 
ENDBRANCH  24  30
ENDBRANCH  22  24
BRANCH  20  34
HETATM   34  C20 UNL     1       6.288  16.750  23.191  1.00  0.00     0.177 C 
HETATM   35  O4  UNL     1       5.972  15.908  24.126  1.00  0.00    -0.648 OA
HETATM   36  O5  UNL     1       5.479  17.855  23.167  1.00  0.00    -0.648 OA
ENDBRANCH  20  34
BRANCH  18  37
HETATM   37  C22 UNL     1       9.170  18.052  21.437  1.00  0.00     0.014 C 
BRANCH  37  38
HETATM   38  C23 UNL     1       9.191  19.525  21.263  1.00  0.00    -0.051 C 
HETATM   39  C24 UNL     1       8.833  20.304  22.502  1.00  0.00     0.014 C 
HETATM   40  C25 UNL     1      10.647  19.915  20.950  1.00  0.00     0.014 C 
HETATM   41  C26 UNL     1       8.395  19.989  20.057  1.00  0.00     0.014 C 
ENDBRANCH  37  38
ENDBRANCH  18  37
ENDBRANCH  12  15
ENDBRANCH   6  11
ENDBRANCH   5   6
BRANCH   5  42
HETATM   42  O6  UNL     1      10.600  20.040  16.585  1.00  0.00    -0.293 OA
BRANCH  42  43
HETATM   43  C28 UNL     1      10.816  21.322  17.110  1.00  0.00     0.256 C 
HETATM   44  C29 UNL     1      11.214  21.522  18.520  1.00  0.00     0.126 C 
HETATM   45  O7  UNL     1      10.661  22.293  16.340  1.00  0.00    -0.266 OA
ENDBRANCH  42  43
ENDBRANCH   5  42
ENDBRANCH   1   5
TORSDOF 14
ENDMDL
MODEL 3
REMARK VINA RESULT: -6.500031265      2.548      6.183
REMARK  14 active torsions:
REMARK  status: ('A' for Active; 'I' for Inactive)
REMARK    1  A    between atoms: C2_2  and  C3_3 
REMARK    2  A    between atoms: C3_3  and  C5_5 
REMARK    3  A    between atoms: C5_5  and  N1_6 
REMARK    4  A    between atoms: C5_5  and  C27_37 
REMARK       I    between atoms: N1_6  and  C6_8 
REMARK    5  A    between atoms: C6_8  and  C7_10 
REMARK       I    between atoms: N2_14  and  C11_15 
REMARK    6  A    between atoms: C11_15  and  C12_17 
REMARK    7  A    between atoms: C12_17  and  N3_18 
REMARK    8  A    between atoms: C12_17  and  C15_23 
REMARK       I    between atoms: N3_18  and  C13_20 
REMARK    9  A    between atoms: C19_27  and  C20_28 
REMARK   10  A    between atoms: C21_31  and  C22_32 
REMARK   11  A    between atoms: C22_32  and  C23_33 
REMARK   12  A    between atoms: C27_37  and  O6_38 
REMARK   13  A    between atoms: C27_37  and  N4_42 
REMARK   14  A    between atoms: O6_38  and  C28_39 
ROOT
HETATM    1  N4  UNL     1      12.771  19.027  17.104  1.00  0.00    -0.294 N 
HETATM    2  C30 UNL     1      13.556  18.500  18.163  1.00  0.00     0.165 C 
HETATM    3  C31 UNL     1      13.328  19.539  15.960  1.00  0.00     0.181 C 
HETATM    4  N5  UNL     1      13.814  19.954  14.988  1.00  0.00    -0.172 NA
ENDROOT
BRANCH   1   5
HETATM    5  C27 UNL     1      11.262  18.912  17.201  1.00  0.00     0.264 C 
BRANCH   5   6
HETATM    6  C5  UNL     1      10.771  17.679  16.573  1.00  0.00     0.138 C 
BRANCH   6   7
HETATM    7  C3  UNL     1      10.415  17.740  15.143  1.00  0.00     0.008 C 
HETATM    8  C4  UNL     1      11.336  16.786  14.328  1.00  0.00     0.012 C 
BRANCH   7   9
HETATM    9  C2  UNL     1       9.048  17.420  14.691  1.00  0.00     0.002 C 
HETATM   10  C1  UNL     1       8.159  18.626  14.424  1.00  0.00     0.005 C 
ENDBRANCH   7   9
ENDBRANCH   6   7
BRANCH   6  11
HETATM   11  N1  UNL     1       9.744  16.951  17.304  1.00  0.00    -0.350 N 
HETATM   12  C6  UNL     1       8.541  17.232  17.883  1.00  0.00     0.241 C 
HETATM   13  O1  UNL     1       7.991  18.337  17.881  1.00  0.00    -0.271 OA
ATOM     14  H1  UNL     1       9.990  15.968  17.413  1.00  0.00     0.163 HD
BRANCH  12  15
HETATM   15  C7  UNL     1       7.766  16.148  18.596  1.00  0.00     0.184 C 
HETATM   16  C8  UNL     1       7.990  16.094  20.026  1.00  0.00     0.029 C 
HETATM   17  C9  UNL     1       6.647  15.554  20.576  1.00  0.00     0.025 C 
HETATM   18  C21 UNL     1       7.703  17.366  20.874  1.00  0.00     0.008 C 
HETATM   19  C10 UNL     1       5.680  16.170  19.614  1.00  0.00     0.133 C 
HETATM   20  C19 UNL     1       7.001  16.417  21.806  1.00  0.00     0.097 C 
HETATM   21  N2  UNL     1       6.378  16.227  18.345  1.00  0.00    -0.336 N 
HETATM   22  C11 UNL     1       5.703  16.313  17.073  1.00  0.00     0.244 C 
HETATM   23  O2  UNL     1       6.421  16.301  16.056  1.00  0.00    -0.271 OA
BRANCH  22  24
HETATM   24  C12 UNL     1       4.243  16.404  16.958  1.00  0.00     0.184 C 
BRANCH  24  25
HETATM   25  N3  UNL     1       3.722  16.906  18.253  1.00  0.00    -0.347 N 
HETATM   26  C13 UNL     1       3.012  18.103  18.334  1.00  0.00     0.214 C 
HETATM   27  C14 UNL     1       2.462  18.670  19.584  1.00  0.00     0.117 C 
HETATM   28  O3  UNL     1       2.815  18.766  17.276  1.00  0.00    -0.274 OA
ATOM     29  H3  UNL     1       3.887  16.364  19.102  1.00  0.00     0.163 HD
ENDBRANCH  24  25
BRANCH  24  30
HETATM   30  C15 UNL     1       3.534  15.081  16.782  1.00  0.00    -0.022 C 
HETATM   31  C16 UNL     1       4.356  13.996  16.186  1.00  0.00     0.017 C 
HETATM   32  C17 UNL     1       2.407  15.374  15.772  1.00  0.00     0.017 C 
HETATM   33  C18 UNL     1       2.828  14.613  18.031  1.00  0.00     0.017 C 
ENDBRANCH  24  30
ENDBRANCH  22  24
BRANCH  20  34
HETATM   34  C20 UNL     1       5.807  16.812  22.513  1.00  0.00     0.177 C 
HETATM   35  O4  UNL     1       5.521  16.141  23.586  1.00  0.00    -0.648 OA
HETATM   36  O5  UNL     1       4.897  17.799  22.238  1.00  0.00    -0.648 OA
ENDBRANCH  20  34
BRANCH  18  37
HETATM   37  C22 UNL     1       8.980  17.987  21.239  1.00  0.00     0.014 C 
BRANCH  37  38
HETATM   38  C23 UNL     1       9.130  19.460  21.159  1.00  0.00    -0.051 C 
HETATM   39  C24 UNL     1       8.796  20.192  22.433  1.00  0.00     0.014 C 
HETATM   40  C25 UNL     1      10.623  19.744  20.912  1.00  0.00     0.014 C 
HETATM   41  C26 UNL     1       8.417  20.063  19.962  1.00  0.00     0.014 C 
ENDBRANCH  37  38
ENDBRANCH  18  37
ENDBRANCH  12  15
ENDBRANCH   6  11
ENDBRANCH   5   6
BRANCH   5  42
HETATM   42  O6  UNL     1      10.941  20.078  16.420  1.00  0.00    -0.293 OA
BRANCH  42  43
HETATM   43  C28 UNL     1      10.967  21.338  17.036  1.00  0.00     0.256 C 
HETATM   44  C29 UNL     1      11.400  21.504  18.440  1.00  0.00     0.126 C 
HETATM   45  O7  UNL     1      10.612  22.321  16.350  1.00  0.00    -0.266 OA
ENDBRANCH  42  43
ENDBRANCH   5  42
ENDBRANCH   1   5
TORSDOF 14
ENDMDL
MODEL 4
REMARK VINA RESULT: -6.430285346      2.164      7.516
REMARK  14 active torsions:
REMARK  status: ('A' for Active; 'I' for Inactive)
REMARK    1  A    between atoms: C2_2  and  C3_3 
REMARK    2  A    between atoms: C3_3  and  C5_5 
REMARK    3  A    between atoms: C5_5  and  N1_6 
REMARK    4  A    between atoms: C5_5  and  C27_37 
REMARK       I    between atoms: N1_6  and  C6_8 
REMARK    5  A    between atoms: C6_8  and  C7_10 
REMARK       I    between atoms: N2_14  and  C11_15 
REMARK    6  A    between atoms: C11_15  and  C12_17 
REMARK    7  A    between atoms: C12_17  and  N3_18 
REMARK    8  A    between atoms: C12_17  and  C15_23 
REMARK       I    between atoms: N3_18  and  C13_20 
REMARK    9  A    between atoms: C19_27  and  C20_28 
REMARK   10  A    between atoms: C21_31  and  C22_32 
REMARK   11  A    between atoms: C22_32  and  C23_33 
REMARK   12  A    between atoms: C27_37  and  O6_38 
REMARK   13  A    between atoms: C27_37  and  N4_42 
REMARK   14  A    between atoms: O6_38  and  C28_39 
ROOT
HETATM    1  N4  UNL     1       2.793  17.542  24.366  1.00  0.00    -0.294 N 
HETATM    2  C30 UNL     1       2.139  18.782  24.583  1.00  0.00     0.165 C 
HETATM    3  C31 UNL     1       2.182  16.337  24.598  1.00  0.00     0.181 C 
HETATM    4  N5  UNL     1       1.645  15.321  24.783  1.00  0.00    -0.172 NA
ENDROOT
BRANCH   1   5
HETATM    5  C27 UNL     1       4.178  17.559  23.747  1.00  0.00     0.264 C 
BRANCH   5   6
HETATM    6  C5  UNL     1       4.125  17.840  22.307  1.00  0.00     0.138 C 
BRANCH   6   7
HETATM    7  C3  UNL     1       2.858  17.558  21.605  1.00  0.00     0.008 C 
HETATM    8  C4  UNL     1       2.502  18.744  20.661  1.00  0.00     0.012 C 
BRANCH   7   9
HETATM    9  C2  UNL     1       2.710  16.353  20.768  1.00  0.00     0.002 C 
HETATM   10  C1  UNL     1       1.406  15.594  20.957  1.00  0.00     0.005 C 
ENDBRANCH   7   9
ENDBRANCH   6   7
BRANCH   6  11
HETATM   11  N1  UNL     1       5.244  17.349  21.515  1.00  0.00    -0.350 N 
HETATM   12  C6  UNL     1       5.858  17.678  20.343  1.00  0.00     0.241 C 
HETATM   13  O1  UNL     1       5.543  18.624  19.615  1.00  0.00    -0.271 OA
ATOM     14  H1  UNL     1       5.687  16.543  21.956  1.00  0.00     0.163 HD
BRANCH  12  15
HETATM   15  C7  UNL     1       7.027  16.863  19.839  1.00  0.00     0.184 C 
HETATM   16  C8  UNL     1       6.660  15.767  18.966  1.00  0.00     0.029 C 
HETATM   17  C9  UNL     1       7.889  15.628  18.034  1.00  0.00     0.025 C 
HETATM   18  C21 UNL     1       5.850  16.082  17.674  1.00  0.00     0.008 C 
HETATM   19  C10 UNL     1       8.320  17.058  17.921  1.00  0.00     0.133 C 
HETATM   20  C19 UNL     1       6.837  15.169  17.000  1.00  0.00     0.097 C 
HETATM   21  N2  UNL     1       8.002  17.661  19.200  1.00  0.00    -0.336 N 
HETATM   22  C11 UNL     1       8.640  18.856  19.692  1.00  0.00     0.244 C 
HETATM   23  O2  UNL     1       8.313  19.239  20.831  1.00  0.00    -0.271 OA
BRANCH  22  24
HETATM   24  C12 UNL     1       9.635  19.600  18.910  1.00  0.00     0.184 C 
BRANCH  24  25
HETATM   25  N3  UNL     1      10.696  18.643  18.509  1.00  0.00    -0.347 N 
HETATM   26  C13 UNL     1      11.065  18.488  17.175  1.00  0.00     0.214 C 
HETATM   27  C14 UNL     1      12.110  17.559  16.694  1.00  0.00     0.117 C 
HETATM   28  O3  UNL     1      10.477  19.182  16.296  1.00  0.00    -0.274 OA
ATOM     29  H3  UNL     1      11.165  18.088  19.225  1.00  0.00     0.163 HD
ENDBRANCH  24  25
BRANCH  24  30
HETATM   30  C15 UNL     1      10.389  20.659  19.682  1.00  0.00    -0.022 C 
HETATM   31  C16 UNL     1       9.545  21.579  20.487  1.00  0.00     0.017 C 
HETATM   32  C17 UNL     1      11.062  21.525  18.598  1.00  0.00     0.017 C 
HETATM   33  C18 UNL     1      11.528  20.101  20.500  1.00  0.00     0.017 C 
ENDBRANCH  24  30
ENDBRANCH  22  24
BRANCH  20  34
HETATM   34  C20 UNL     1       7.296  15.428  15.657  1.00  0.00     0.177 C 
HETATM   35  O4  UNL     1       8.002  14.494  15.097  1.00  0.00    -0.648 OA
HETATM   36  O5  UNL     1       7.109  16.518  14.849  1.00  0.00    -0.648 OA
ENDBRANCH  20  34
BRANCH  18  37
HETATM   37  C22 UNL     1       4.457  15.676  17.882  1.00  0.00     0.014 C 
BRANCH  37  38
HETATM   38  C23 UNL     1       3.399  16.196  16.982  1.00  0.00    -0.051 C 
HETATM   39  C24 UNL     1       3.640  15.932  15.518  1.00  0.00     0.014 C 
HETATM   40  C25 UNL     1       2.108  15.428  17.321  1.00  0.00     0.014 C 
HETATM   41  C26 UNL     1       3.064  17.653  17.243  1.00  0.00     0.014 C 
ENDBRANCH  37  38
ENDBRANCH  18  37
ENDBRANCH  12  15
ENDBRANCH   6  11
ENDBRANCH   5   6
BRANCH   5  42
HETATM   42  O6  UNL     1       4.512  16.184  24.015  1.00  0.00    -0.293 OA
BRANCH  42  43
HETATM   43  C28 UNL     1       5.746  15.888  24.611  1.00  0.00     0.256 C 
HETATM   44  C29 UNL     1       5.839  15.458  26.023  1.00  0.00     0.126 C 
HETATM   45  O7  UNL     1       6.769  15.998  23.902  1.00  0.00    -0.266 OA
ENDBRANCH  42  43
ENDBRANCH   5  42
ENDBRANCH   1   5
TORSDOF 14
ENDMDL
MODEL 5
REMARK VINA RESULT: -6.299873411      1.454      2.193
REMARK  14 active torsions:
REMARK  status: ('A' for Active; 'I' for Inactive)
REMARK    1  A    between atoms: C2_2  and  C3_3 
REMARK    2  A    between atoms: C3_3  and  C5_5 
REMARK    3  A    between atoms: C5_5  and  N1_6 
REMARK    4  A    between atoms: C5_5  and  C27_37 
REMARK       I    between atoms: N1_6  and  C6_8 
REMARK    5  A    between atoms: C6_8  and  C7_10 
REMARK       I    between atoms: N2_14  and  C11_15 
REMARK    6  A    between atoms: C11_15  and  C12_17 
REMARK    7  A    between atoms: C12_17  and  N3_18 
REMARK    8  A    between atoms: C12_17  and  C15_23 
REMARK       I    between atoms: N3_18  and  C13_20 
REMARK    9  A    between atoms: C19_27  and  C20_28 
REMARK   10  A    between atoms: C21_31  and  C22_32 
REMARK   11  A    between atoms: C22_32  and  C23_33 
REMARK   12  A    between atoms: C27_37  and  O6_38 
REMARK   13  A    between atoms: C27_37  and  N4_42 
REMARK   14  A    between atoms: O6_38  and  C28_39 
ROOT
HETATM    1  N4  UNL     1       6.116  14.852  15.193  1.00  0.00    -0.294 N 
HETATM    2  C30 UNL     1       5.630  13.704  15.872  1.00  0.00     0.165 C 
HETATM    3  C31 UNL     1       6.994  14.769  14.143  1.00  0.00     0.181 C 
HETATM    4  N5  UNL     1       7.726  14.681  13.243  1.00  0.00    -0.172 NA
ENDROOT
BRANCH   1   5
HETATM    5  C27 UNL     1       5.550  16.206  15.575  1.00  0.00     0.264 C 
BRANCH   5   6
HETATM    6  C5  UNL     1       6.608  17.142  15.977  1.00  0.00     0.138 C 
BRANCH   6   7
HETATM    7  C3  UNL     1       7.813  17.212  15.130  1.00  0.00     0.008 C 
HETATM    8  C4  UNL     1       7.870  18.589  14.406  1.00  0.00     0.012 C 
BRANCH   7   9
HETATM    9  C2  UNL     1       9.157  17.037  15.712  1.00  0.00     0.002 C 
HETATM   10  C1  UNL     1      10.250  16.686  14.714  1.00  0.00     0.005 C 
ENDBRANCH   7   9
ENDBRANCH   6   7
BRANCH   6  11
HETATM   11  N1  UNL     1       6.995  17.107  17.381  1.00  0.00    -0.350 N 
HETATM   12  C6  UNL     1       7.597  16.225  18.229  1.00  0.00     0.241 C 
HETATM   13  O1  UNL     1       8.017  15.107  17.914  1.00  0.00    -0.271 OA
ATOM     14  H1  UNL     1       6.751  17.975  17.856  1.00  0.00     0.163 HD
BRANCH  12  15
HETATM   15  C7  UNL     1       7.802  16.583  19.682  1.00  0.00     0.184 C 
HETATM   16  C8  UNL     1       9.037  17.291  19.956  1.00  0.00     0.029 C 
HETATM   17  C9  UNL     1       8.677  18.171  21.179  1.00  0.00     0.025 C 
HETATM   18  C21 UNL     1       9.309  18.628  19.209  1.00  0.00     0.008 C 
HETATM   19  C10 UNL     1       7.243  18.486  20.888  1.00  0.00     0.133 C 
HETATM   20  C19 UNL     1       9.708  19.144  20.565  1.00  0.00     0.097 C 
HETATM   21  N2  UNL     1       6.718  17.316  20.214  1.00  0.00    -0.336 N 
HETATM   22  C11 UNL     1       5.313  16.994  20.164  1.00  0.00     0.244 C 
HETATM   23  O2  UNL     1       5.001  15.930  19.597  1.00  0.00    -0.271 OA
BRANCH  22  24
HETATM   24  C12 UNL     1       4.283  17.860  20.750  1.00  0.00     0.184 C 
BRANCH  24  25
HETATM   25  N3  UNL     1       3.623  17.097  21.838  1.00  0.00    -0.347 N 
HETATM   26  C13 UNL     1       3.977  17.285  23.173  1.00  0.00     0.214 C 
HETATM   27  C14 UNL     1       3.369  16.566  24.313  1.00  0.00     0.117 C 
HETATM   28  O3  UNL     1       4.881  18.125  23.450  1.00  0.00    -0.274 OA
ATOM     29  H3  UNL     1       2.895  16.421  21.605  1.00  0.00     0.163 HD
ENDBRANCH  24  25
BRANCH  24  30
HETATM   30  C15 UNL     1       3.141  18.208  19.822  1.00  0.00    -0.022 C 
HETATM   31  C16 UNL     1       3.541  18.632  18.456  1.00  0.00     0.017 C 
HETATM   32  C17 UNL     1       2.469  19.433  20.476  1.00  0.00     0.017 C 
HETATM   33  C18 UNL     1       2.066  17.150  19.777  1.00  0.00     0.017 C 
ENDBRANCH  24  30
ENDBRANCH  22  24
BRANCH  20  34
HETATM   34  C20 UNL     1       9.425  20.502  20.959  1.00  0.00     0.177 C 
HETATM   35  O4  UNL     1       9.227  21.354  20.000  1.00  0.00    -0.648 OA
HETATM   36  O5  UNL     1       9.326  21.064  22.205  1.00  0.00    -0.648 OA
ENDBRANCH  20  34
BRANCH  18  37
HETATM   37  C22 UNL     1      10.307  18.387  18.162  1.00  0.00     0.014 C 
BRANCH  37  38
HETATM   38  C23 UNL     1      11.093  19.523  17.621  1.00  0.00    -0.051 C 
HETATM   39  C24 UNL     1      11.998  20.190  18.625  1.00  0.00     0.014 C 
HETATM   40  C25 UNL     1      12.037  18.943  16.553  1.00  0.00     0.014 C 
HETATM   41  C26 UNL     1      10.238  20.533  16.878  1.00  0.00     0.014 C 
ENDBRANCH  37  38
ENDBRANCH  18  37
ENDBRANCH  12  15
ENDBRANCH   6  11
ENDBRANCH   5   6
BRANCH   5  42
HETATM   42  O6  UNL     1       4.767  15.764  16.699  1.00  0.00    -0.293 OA
BRANCH  42  43
HETATM   43  C28 UNL     1       3.373  15.687  16.569  1.00  0.00     0.256 C 
HETATM   44  C29 UNL     1       2.643  16.501  15.574  1.00  0.00     0.126 C 
HETATM   45  O7  UNL     1       2.767  14.899  17.327  1.00  0.00    -0.266 OA
ENDBRANCH  42  43
ENDBRANCH   5  42
ENDBRANCH   1   5
TORSDOF 14
ENDMDL
