MODEL 1
REMARK VINA RESULT: -9.236213622      0.000      0.000
REMARK  14 active torsions:
REMARK  status: ('A' for Active; 'I' for Inactive)
REMARK    1  A    between atoms: C2_2  and  C3_3 
REMARK    2  A    between atoms: C3_3  and  C4_4 
REMARK    3  A    between atoms: C4_4  and  N1_5 
REMARK    4  A    between atoms: C4_4  and  C13_18 
REMARK       I    between atoms: N1_5  and  C5_7 
REMARK    5  A    between atoms: C5_7  and  C6_9 
REMARK    6  A    between atoms: C6_9  and  N2_12 
REMARK       I    between atoms: C13_18  and  N3_20 
REMARK    7  A    between atoms: N3_20  and  C14_22 
REMARK    8  A    between atoms: C16_24  and  C17_25 
REMARK       I    between atoms: C17_25  and  N4_27 
REMARK    9  A    between atoms: N4_27  and  C18_29 
REMARK   10  A    between atoms: C18_29  and  C19_30 
REMARK   11  A    between atoms: C18_29  and  C22_33 
REMARK   12  A    between atoms: C22_33  and  C25_36 
REMARK   13  A    between atoms: C25_36  and  O5_37 
REMARK   14  A    between atoms: C25_36  and  N5_39 
ROOT
HETATM    1  C14 UNL     1       8.915  18.676  17.117  1.00  0.00     0.052 A 
HETATM    2  C15 UNL     1       9.767  19.503  16.376  1.00  0.00     0.066 A 
HETATM    3  C16 UNL     1      10.448  20.351  17.210  1.00  0.00     0.104 A 
HETATM    4  N6  UNL     1      10.054  20.089  18.457  1.00  0.00    -0.354 N 
HETATM    5  C30 UNL     1      10.454  20.725  19.726  1.00  0.00     0.156 C 
HETATM    6  C31 UNL     1       9.129  19.080  18.410  1.00  0.00     0.120 A 
ENDROOT
BRANCH   1   7
HETATM    7  N3  UNL     1       8.097  17.650  16.577  1.00  0.00    -0.324 N 
HETATM    8  C13 UNL     1       8.119  16.347  17.091  1.00  0.00     0.245 C 
HETATM    9  O3  UNL     1       8.882  16.096  18.076  1.00  0.00    -0.271 OA
ATOM     10  H3  UNL     1       7.477  17.867  15.797  1.00  0.00     0.169 HD
BRANCH   8  11
HETATM   11  C4  UNL     1       7.274  15.228  16.528  1.00  0.00     0.177 C 
BRANCH  11  12
HETATM   12  C3  UNL     1       7.488  15.000  15.102  1.00  0.00     0.034 C 
BRANCH  12  13
HETATM   13  C2  UNL     1       8.917  14.812  14.704  1.00  0.00    -0.002 C 
HETATM   14  C1  UNL     1       9.600  15.942  14.044  1.00  0.00     0.005 C 
ENDBRANCH  12  13
ENDBRANCH  11  12
BRANCH  11  15
HETATM   15  N1  UNL     1       5.937  15.337  17.003  1.00  0.00    -0.346 N 
HETATM   16  C5  UNL     1       4.938  16.195  16.499  1.00  0.00     0.245 C 
HETATM   17  O1  UNL     1       5.244  16.952  15.553  1.00  0.00    -0.271 OA
ATOM     18  H1  UNL     1       5.676  14.735  17.783  1.00  0.00     0.163 HD
BRANCH  16  19
HETATM   19  C6  UNL     1       3.587  16.198  17.056  1.00  0.00     0.102 C 
HETATM   20  C7  UNL     1       2.641  16.471  15.871  1.00  0.00     0.048 C 
HETATM   21  C8  UNL     1       3.221  14.810  17.523  1.00  0.00     0.048 C 
BRANCH  19  22
HETATM   22  N2  UNL     1       3.308  17.184  18.043  1.00  0.00    -0.392 N 
HETATM   23  C9  UNL     1       4.144  17.247  19.179  1.00  0.00     0.144 C 
HETATM   24  C10 UNL     1       4.289  18.704  19.620  1.00  0.00     0.187 C 
HETATM   25  O2  UNL     1       3.081  19.328  19.812  1.00  0.00    -0.388 OA
HETATM   26  C11 UNL     1       2.119  19.052  18.849  1.00  0.00     0.187 C 
HETATM   27  C12 UNL     1       2.802  18.434  17.616  1.00  0.00     0.144 C 
ENDBRANCH  19  22
ENDBRANCH  16  19
ENDBRANCH  11  15
ENDBRANCH   8  11
ENDBRANCH   1   7
BRANCH   3  28
HETATM   28  C17 UNL     1      11.388  21.394  16.744  1.00  0.00     0.268 C 
HETATM   29  O4  UNL     1      10.786  22.517  16.633  1.00  0.00    -0.266 OA
HETATM   30  N4  UNL     1      12.702  21.094  16.492  1.00  0.00    -0.350 N 
ATOM     31  H4  UNL     1      12.931  20.109  16.623  1.00  0.00     0.163 HD
BRANCH  30  32
HETATM   32  C18 UNL     1      13.831  21.908  16.073  1.00  0.00     0.103 C 
BRANCH  32  33
HETATM   33  C19 UNL     1      14.376  21.451  14.775  1.00  0.00     0.001 C 
HETATM   34  C20 UNL     1      14.587  22.523  13.719  1.00  0.00     0.011 C 
HETATM   35  C21 UNL     1      13.218  20.623  14.112  1.00  0.00     0.011 C 
ENDBRANCH  32  33
BRANCH  32  36
HETATM   36  C22 UNL     1      14.702  22.225  17.206  1.00  0.00     0.038 C 
HETATM   37  C23 UNL     1      16.190  22.216  16.849  1.00  0.00     0.026 C 
HETATM   38  C24 UNL     1      14.584  21.020  18.178  1.00  0.00     0.026 C 
BRANCH  36  39
HETATM   39  C25 UNL     1      14.449  23.387  18.043  1.00  0.00     0.123 C 
BRANCH  39  40
HETATM   40  O5  UNL     1      13.181  23.724  18.102  1.00  0.00    -0.349 OA
ATOM     41  H5  UNL     1      12.942  24.409  17.490  1.00  0.00     0.219 HD
ENDBRANCH  39  40
BRANCH  39  42
HETATM   42  N5  UNL     1      15.267  24.211  18.790  1.00  0.00    -0.361 N 
HETATM   43  C26 UNL     1      15.229  24.150  20.235  1.00  0.00     0.151 C 
HETATM   44  C27 UNL     1      16.601  24.127  20.872  1.00  0.00     0.187 C 
HETATM   45  O6  UNL     1      17.544  24.831  20.118  1.00  0.00    -0.388 OA
HETATM   46  C28 UNL     1      16.864  25.846  19.451  1.00  0.00     0.187 C 
HETATM   47  C29 UNL     1      16.186  25.158  18.234  1.00  0.00     0.151 C 
ENDBRANCH  39  42
ENDBRANCH  36  39
ENDBRANCH  32  36
ENDBRANCH  30  32
ENDBRANCH   3  28
TORSDOF 14
ENDMDL
MODEL 2
REMARK VINA RESULT: -9.067859146      1.902      9.743
REMARK  14 active torsions:
REMARK  status: ('A' for Active; 'I' for Inactive)
REMARK    1  A    between atoms: C2_2  and  C3_3 
REMARK    2  A    between atoms: C3_3  and  C4_4 
REMARK    3  A    between atoms: C4_4  and  N1_5 
REMARK    4  A    between atoms: C4_4  and  C13_18 
REMARK       I    between atoms: N1_5  and  C5_7 
REMARK    5  A    between atoms: C5_7  and  C6_9 
REMARK    6  A    between atoms: C6_9  and  N2_12 
REMARK       I    between atoms: C13_18  and  N3_20 
REMARK    7  A    between atoms: N3_20  and  C14_22 
REMARK    8  A    between atoms: C16_24  and  C17_25 
REMARK       I    between atoms: C17_25  and  N4_27 
REMARK    9  A    between atoms: N4_27  and  C18_29 
REMARK   10  A    between atoms: C18_29  and  C19_30 
REMARK   11  A    between atoms: C18_29  and  C22_33 
REMARK   12  A    between atoms: C22_33  and  C25_36 
REMARK   13  A    between atoms: C25_36  and  O5_37 
REMARK   14  A    between atoms: C25_36  and  N5_39 
ROOT
HETATM    1  C14 UNL     1      10.340  17.389  15.329  1.00  0.00     0.052 A 
HETATM    2  C15 UNL     1       9.696  17.150  16.547  1.00  0.00     0.066 A 
HETATM    3  C16 UNL     1       8.691  16.232  16.379  1.00  0.00     0.104 A 
HETATM    4  N6  UNL     1       8.676  15.884  15.092  1.00  0.00    -0.354 N 
HETATM    5  C30 UNL     1       7.784  14.954  14.376  1.00  0.00     0.156 C 
HETATM    6  C31 UNL     1       9.668  16.578  14.451  1.00  0.00     0.120 A 
ENDROOT
BRANCH   1   7
HETATM    7  N3  UNL     1      11.455  18.248  15.147  1.00  0.00    -0.324 N 
HETATM    8  C13 UNL     1      11.378  19.619  15.425  1.00  0.00     0.245 C 
HETATM    9  O3  UNL     1      10.283  20.088  15.868  1.00  0.00    -0.271 OA
ATOM     10  H3  UNL     1      12.334  17.858  14.806  1.00  0.00     0.169 HD
BRANCH   8  11
HETATM   11  C4  UNL     1      12.541  20.564  15.226  1.00  0.00     0.177 C 
BRANCH  11  12
HETATM   12  C3  UNL     1      13.358  20.239  14.061  1.00  0.00     0.034 C 
BRANCH  12  13
HETATM   13  C2  UNL     1      13.640  21.391  13.151  1.00  0.00    -0.002 C 
HETATM   14  C1  UNL     1      14.684  22.352  13.562  1.00  0.00     0.005 C 
ENDBRANCH  12  13
ENDBRANCH  11  12
BRANCH  11  15
HETATM   15  N1  UNL     1      13.195  20.805  16.466  1.00  0.00    -0.346 N 
HETATM   16  C5  UNL     1      12.906  21.843  17.376  1.00  0.00     0.245 C 
HETATM   17  O1  UNL     1      11.998  22.646  17.072  1.00  0.00    -0.271 OA
ATOM     18  H1  UNL     1      13.946  20.165  16.722  1.00  0.00     0.163 HD
BRANCH  16  19
HETATM   19  C6  UNL     1      13.633  21.973  18.636  1.00  0.00     0.102 C 
HETATM   20  C7  UNL     1      12.603  21.709  19.750  1.00  0.00     0.048 C 
HETATM   21  C8  UNL     1      14.634  20.851  18.770  1.00  0.00     0.048 C 
BRANCH  19  22
HETATM   22  N2  UNL     1      14.217  23.243  18.906  1.00  0.00    -0.392 N 
HETATM   23  C9  UNL     1      14.942  23.402  20.107  1.00  0.00     0.144 C 
HETATM   24  C10 UNL     1      16.111  24.359  19.869  1.00  0.00     0.187 C 
HETATM   25  O2  UNL     1      15.721  25.554  19.318  1.00  0.00    -0.388 OA
HETATM   26  C11 UNL     1      14.771  25.454  18.310  1.00  0.00     0.187 C 
HETATM   27  C12 UNL     1      14.712  23.997  17.817  1.00  0.00     0.144 C 
ENDBRANCH  19  22
ENDBRANCH  16  19
ENDBRANCH  11  15
ENDBRANCH   8  11
ENDBRANCH   1   7
BRANCH   3  28
HETATM   28  C17 UNL     1       7.776  15.798  17.459  1.00  0.00     0.268 C 
HETATM   29  O4  UNL     1       8.350  14.932  18.205  1.00  0.00    -0.266 OA
HETATM   30  N4  UNL     1       6.510  16.313  17.555  1.00  0.00    -0.350 N 
ATOM     31  H4  UNL     1       6.275  16.969  16.811  1.00  0.00     0.163 HD
BRANCH  30  32
HETATM   32  C18 UNL     1       5.436  16.104  18.513  1.00  0.00     0.103 C 
BRANCH  32  33
HETATM   33  C19 UNL     1       4.109  16.182  17.864  1.00  0.00     0.001 C 
HETATM   34  C20 UNL     1       3.381  14.864  17.658  1.00  0.00     0.011 C 
HETATM   35  C21 UNL     1       4.402  16.581  16.373  1.00  0.00     0.011 C 
ENDBRANCH  32  33
BRANCH  32  36
HETATM   36  C22 UNL     1       5.717  16.786  19.777  1.00  0.00     0.038 C 
HETATM   37  C23 UNL     1       6.489  15.919  20.775  1.00  0.00     0.026 C 
HETATM   38  C24 UNL     1       4.343  16.959  20.478  1.00  0.00     0.026 C 
BRANCH  36  39
HETATM   39  C25 UNL     1       6.300  18.118  19.797  1.00  0.00     0.123 C 
BRANCH  39  40
HETATM   40  O5  UNL     1       5.502  19.046  19.318  1.00  0.00    -0.349 OA
ATOM     41  H5  UNL     1       5.103  18.811  18.489  1.00  0.00     0.219 HD
ENDBRANCH  39  40
BRANCH  39  42
HETATM   42  N5  UNL     1       7.519  18.611  20.214  1.00  0.00    -0.361 N 
HETATM   43  C26 UNL     1       8.496  19.047  19.239  1.00  0.00     0.151 C 
HETATM   44  C27 UNL     1       9.137  20.374  19.581  1.00  0.00     0.187 C 
HETATM   45  O6  UNL     1       9.230  20.574  20.961  1.00  0.00    -0.388 OA
HETATM   46  C28 UNL     1       9.355  19.320  21.552  1.00  0.00     0.187 C 
HETATM   47  C29 UNL     1       7.917  18.733  21.584  1.00  0.00     0.151 C 
ENDBRANCH  39  42
ENDBRANCH  36  39
ENDBRANCH  32  36
ENDBRANCH  30  32
ENDBRANCH   3  28
TORSDOF 14
ENDMDL
MODEL 3
REMARK VINA RESULT: -9.056551488      2.481     10.850
REMARK  14 active torsions:
REMARK  status: ('A' for Active; 'I' for Inactive)
REMARK    1  A    between atoms: C2_2  and  C3_3 
REMARK    2  A    between atoms: C3_3  and  C4_4 
REMARK    3  A    between atoms: C4_4  and  N1_5 
REMARK    4  A    between atoms: C4_4  and  C13_18 
REMARK       I    between atoms: N1_5  and  C5_7 
REMARK    5  A    between atoms: C5_7  and  C6_9 
REMARK    6  A    between atoms: C6_9  and  N2_12 
REMARK       I    between atoms: C13_18  and  N3_20 
REMARK    7  A    between atoms: N3_20  and  C14_22 
REMARK    8  A    between atoms: C16_24  and  C17_25 
REMARK       I    between atoms: C17_25  and  N4_27 
REMARK    9  A    between atoms: N4_27  and  C18_29 
REMARK   10  A    between atoms: C18_29  and  C19_30 
REMARK   11  A    between atoms: C18_29  and  C22_33 
REMARK   12  A    between atoms: C22_33  and  C25_36 
REMARK   13  A    between atoms: C25_36  and  O5_37 
REMARK   14  A    between atoms: C25_36  and  N5_39 
ROOT
HETATM    1  C14 UNL     1      10.301  18.210  16.653  1.00  0.00     0.052 A 
HETATM    2  C15 UNL     1       9.258  17.808  17.495  1.00  0.00     0.066 A 
HETATM    3  C16 UNL     1       8.635  16.699  16.982  1.00  0.00     0.104 A 
HETATM    4  N6  UNL     1       9.248  16.388  15.840  1.00  0.00    -0.354 N 
HETATM    5  C30 UNL     1       8.964  15.304  14.881  1.00  0.00     0.156 C 
HETATM    6  C31 UNL     1      10.254  17.294  15.634  1.00  0.00     0.120 A 
ENDROOT
BRANCH   1   7
HETATM    7  N3  UNL     1      11.183  19.293  16.902  1.00  0.00    -0.324 N 
HETATM    8  C13 UNL     1      12.253  19.177  17.798  1.00  0.00     0.245 C 
HETATM    9  O3  UNL     1      12.439  18.062  18.381  1.00  0.00    -0.271 OA
ATOM     10  H3  UNL     1      11.033  20.178  16.417  1.00  0.00     0.169 HD
BRANCH   8  11
HETATM   11  C4  UNL     1      13.200  20.316  18.098  1.00  0.00     0.177 C 
BRANCH  11  12
HETATM   12  C3  UNL     1      12.539  21.479  18.682  1.00  0.00     0.034 C 
BRANCH  12  13
HETATM   13  C2  UNL     1      11.725  21.193  19.903  1.00  0.00    -0.002 C 
HETATM   14  C1  UNL     1      10.259  21.345  19.801  1.00  0.00     0.005 C 
ENDBRANCH  12  13
ENDBRANCH  11  12
BRANCH  11  15
HETATM   15  N1  UNL     1      14.087  20.518  17.005  1.00  0.00    -0.346 N 
HETATM   16  C5  UNL     1      13.825  21.275  15.844  1.00  0.00     0.245 C 
HETATM   17  O1  UNL     1      12.702  21.816  15.744  1.00  0.00    -0.271 OA
ATOM     18  H1  UNL     1      15.002  20.073  17.067  1.00  0.00     0.163 HD
BRANCH  16  19
HETATM   19  C6  UNL     1      14.830  21.432  14.797  1.00  0.00     0.102 C 
HETATM   20  C7  UNL     1      15.595  20.096  14.739  1.00  0.00     0.048 C 
HETATM   21  C8  UNL     1      14.156  21.543  13.450  1.00  0.00     0.048 C 
BRANCH  19  22
HETATM   22  N2  UNL     1      15.800  22.455  14.993  1.00  0.00    -0.392 N 
HETATM   23  C9  UNL     1      15.961  22.982  16.293  1.00  0.00     0.144 C 
HETATM   24  C10 UNL     1      17.432  23.336  16.517  1.00  0.00     0.187 C 
HETATM   25  O2  UNL     1      17.939  24.158  15.542  1.00  0.00    -0.388 OA
HETATM   26  C11 UNL     1      17.556  23.837  14.246  1.00  0.00     0.187 C 
HETATM   27  C12 UNL     1      16.988  22.406  14.228  1.00  0.00     0.144 C 
ENDBRANCH  19  22
ENDBRANCH  16  19
ENDBRANCH  11  15
ENDBRANCH   8  11
ENDBRANCH   1   7
BRANCH   3  28
HETATM   28  C17 UNL     1       7.455  16.053  17.597  1.00  0.00     0.268 C 
HETATM   29  O4  UNL     1       7.801  14.979  18.201  1.00  0.00    -0.266 OA
HETATM   30  N4  UNL     1       6.208  16.608  17.477  1.00  0.00    -0.350 N 
ATOM     31  H4  UNL     1       6.188  17.456  16.911  1.00  0.00     0.163 HD
BRANCH  30  32
HETATM   32  C18 UNL     1       4.907  16.221  17.999  1.00  0.00     0.103 C 
BRANCH  32  33
HETATM   33  C19 UNL     1       3.953  15.920  16.909  1.00  0.00     0.001 C 
HETATM   34  C20 UNL     1       3.400  14.505  16.870  1.00  0.00     0.011 C 
HETATM   35  C21 UNL     1       4.814  15.924  15.596  1.00  0.00     0.011 C 
ENDBRANCH  32  33
BRANCH  32  36
HETATM   36  C22 UNL     1       4.531  17.051  19.145  1.00  0.00     0.038 C 
HETATM   37  C23 UNL     1       3.411  16.444  19.992  1.00  0.00     0.026 C 
HETATM   38  C24 UNL     1       3.852  18.312  18.547  1.00  0.00     0.026 C 
BRANCH  36  39
HETATM   39  C25 UNL     1       5.540  17.582  20.049  1.00  0.00     0.123 C 
BRANCH  39  40
HETATM   40  O5  UNL     1       6.083  18.702  19.628  1.00  0.00    -0.349 OA
ATOM     41  H5  UNL     1       5.451  19.394  19.473  1.00  0.00     0.219 HD
ENDBRANCH  39  40
BRANCH  39  42
HETATM   42  N5  UNL     1       6.045  17.152  21.259  1.00  0.00    -0.361 N 
HETATM   43  C26 UNL     1       5.701  17.854  22.476  1.00  0.00     0.151 C 
HETATM   44  C27 UNL     1       5.319  16.933  23.614  1.00  0.00     0.187 C 
HETATM   45  O6  UNL     1       5.991  15.708  23.550  1.00  0.00    -0.388 OA
HETATM   46  C28 UNL     1       7.220  15.945  22.940  1.00  0.00     0.187 C 
HETATM   47  C29 UNL     1       6.916  16.027  21.418  1.00  0.00     0.151 C 
ENDBRANCH  39  42
ENDBRANCH  36  39
ENDBRANCH  32  36
ENDBRANCH  30  32
ENDBRANCH   3  28
TORSDOF 14
ENDMDL
MODEL 4
REMARK VINA RESULT: -8.970772931      1.231      2.122
REMARK  14 active torsions:
REMARK  status: ('A' for Active; 'I' for Inactive)
REMARK    1  A    between atoms: C2_2  and  C3_3 
REMARK    2  A    between atoms: C3_3  and  C4_4 
REMARK    3  A    between atoms: C4_4  and  N1_5 
REMARK    4  A    between atoms: C4_4  and  C13_18 
REMARK       I    between atoms: N1_5  and  C5_7 
REMARK    5  A    between atoms: C5_7  and  C6_9 
REMARK    6  A    between atoms: C6_9  and  N2_12 
REMARK       I    between atoms: C13_18  and  N3_20 
REMARK    7  A    between atoms: N3_20  and  C14_22 
REMARK    8  A    between atoms: C16_24  and  C17_25 
REMARK       I    between atoms: C17_25  and  N4_27 
REMARK    9  A    between atoms: N4_27  and  C18_29 
REMARK   10  A    between atoms: C18_29  and  C19_30 
REMARK   11  A    between atoms: C18_29  and  C22_33 
REMARK   12  A    between atoms: C22_33  and  C25_36 
REMARK   13  A    between atoms: C25_36  and  O5_37 
REMARK   14  A    between atoms: C25_36  and  N5_39 
ROOT
HETATM    1  C14 UNL     1       8.872  18.651  17.202  1.00  0.00     0.052 A 
HETATM    2  C15 UNL     1       9.756  19.434  16.452  1.00  0.00     0.066 A 
HETATM    3  C16 UNL     1      10.446  20.289  17.274  1.00  0.00     0.104 A 
HETATM    4  N6  UNL     1      10.025  20.073  18.520  1.00  0.00    -0.354 N 
HETATM    5  C30 UNL     1      10.421  20.734  19.777  1.00  0.00     0.156 C 
HETATM    6  C31 UNL     1       9.075  19.087  18.486  1.00  0.00     0.120 A 
ENDROOT
BRANCH   1   7
HETATM    7  N3  UNL     1       8.037  17.630  16.678  1.00  0.00    -0.324 N 
HETATM    8  C13 UNL     1       8.063  16.326  17.188  1.00  0.00     0.245 C 
HETATM    9  O3  UNL     1       8.846  16.069  18.156  1.00  0.00    -0.271 OA
ATOM     10  H3  UNL     1       7.401  17.852  15.912  1.00  0.00     0.169 HD
BRANCH   8  11
HETATM   11  C4  UNL     1       7.199  15.213  16.642  1.00  0.00     0.177 C 
BRANCH  11  12
HETATM   12  C3  UNL     1       7.438  14.935  15.229  1.00  0.00     0.034 C 
BRANCH  12  13
HETATM   13  C2  UNL     1       8.877  14.781  14.852  1.00  0.00    -0.002 C 
HETATM   14  C1  UNL     1       9.511  15.882  14.100  1.00  0.00     0.005 C 
ENDBRANCH  12  13
ENDBRANCH  11  12
BRANCH  11  15
HETATM   15  N1  UNL     1       5.856  15.372  17.083  1.00  0.00    -0.346 N 
HETATM   16  C5  UNL     1       4.885  16.224  16.517  1.00  0.00     0.245 C 
HETATM   17  O1  UNL     1       5.226  16.926  15.541  1.00  0.00    -0.271 OA
ATOM     18  H1  UNL     1       5.568  14.815  17.887  1.00  0.00     0.163 HD
BRANCH  16  19
HETATM   19  C6  UNL     1       3.525  16.282  17.045  1.00  0.00     0.102 C 
HETATM   20  C7  UNL     1       3.562  15.538  18.394  1.00  0.00     0.048 C 
HETATM   21  C8  UNL     1       3.174  17.705  17.406  1.00  0.00     0.048 C 
BRANCH  19  22
HETATM   22  N2  UNL     1       2.511  15.665  16.261  1.00  0.00    -0.392 N 
HETATM   23  C9  UNL     1       2.778  14.395  15.704  1.00  0.00     0.144 C 
HETATM   24  C10 UNL     1       1.489  13.571  15.683  1.00  0.00     0.187 C 
HETATM   25  O2  UNL     1       0.451  14.219  15.061  1.00  0.00    -0.388 OA
HETATM   26  C11 UNL     1       0.333  15.568  15.366  1.00  0.00     0.187 C 
HETATM   27  C12 UNL     1       1.161  15.873  16.627  1.00  0.00     0.144 C 
ENDBRANCH  19  22
ENDBRANCH  16  19
ENDBRANCH  11  15
ENDBRANCH   8  11
ENDBRANCH   1   7
BRANCH   3  28
HETATM   28  C17 UNL     1      11.420  21.294  16.793  1.00  0.00     0.268 C 
HETATM   29  O4  UNL     1      10.835  22.410  16.575  1.00  0.00    -0.266 OA
HETATM   30  N4  UNL     1      12.743  20.971  16.636  1.00  0.00    -0.350 N 
ATOM     31  H4  UNL     1      12.955  19.996  16.845  1.00  0.00     0.163 HD
BRANCH  30  32
HETATM   32  C18 UNL     1      13.901  21.750  16.230  1.00  0.00     0.103 C 
BRANCH  32  33
HETATM   33  C19 UNL     1      14.507  21.212  14.991  1.00  0.00     0.001 C 
HETATM   34  C20 UNL     1      13.719  21.425  13.709  1.00  0.00     0.011 C 
HETATM   35  C21 UNL     1      14.409  19.651  15.129  1.00  0.00     0.011 C 
ENDBRANCH  32  33
BRANCH  32  36
HETATM   36  C22 UNL     1      14.716  22.126  17.386  1.00  0.00     0.038 C 
HETATM   37  C23 UNL     1      16.220  22.057  17.116  1.00  0.00     0.026 C 
HETATM   38  C24 UNL     1      14.511  20.998  18.432  1.00  0.00     0.026 C 
BRANCH  36  39
HETATM   39  C25 UNL     1      14.449  23.351  18.124  1.00  0.00     0.123 C 
BRANCH  39  40
HETATM   40  O5  UNL     1      13.191  23.728  18.075  1.00  0.00    -0.349 OA
ATOM     41  H5  UNL     1      13.063  24.645  18.286  1.00  0.00     0.219 HD
ENDBRANCH  39  40
BRANCH  39  42
HETATM   42  N5  UNL     1      15.244  24.201  18.865  1.00  0.00    -0.361 N 
HETATM   43  C26 UNL     1      15.217  24.139  20.310  1.00  0.00     0.151 C 
HETATM   44  C27 UNL     1      16.594  24.161  20.938  1.00  0.00     0.187 C 
HETATM   45  O6  UNL     1      17.509  24.896  20.178  1.00  0.00    -0.388 OA
HETATM   46  C28 UNL     1      16.791  25.888  19.516  1.00  0.00     0.187 C 
HETATM   47  C29 UNL     1      16.127  25.178  18.303  1.00  0.00     0.151 C 
ENDBRANCH  39  42
ENDBRANCH  36  39
ENDBRANCH  32  36
ENDBRANCH  30  32
ENDBRANCH   3  28
TORSDOF 14
ENDMDL
MODEL 5
REMARK VINA RESULT: -8.937282286      1.956      2.882
REMARK  14 active torsions:
REMARK  status: ('A' for Active; 'I' for Inactive)
REMARK    1  A    between atoms: C2_2  and  C3_3 
REMARK    2  A    between atoms: C3_3  and  C4_4 
REMARK    3  A    between atoms: C4_4  and  N1_5 
REMARK    4  A    between atoms: C4_4  and  C13_18 
REMARK       I    between atoms: N1_5  and  C5_7 
REMARK    5  A    between atoms: C5_7  and  C6_9 
REMARK    6  A    between atoms: C6_9  and  N2_12 
REMARK       I    between atoms: C13_18  and  N3_20 
REMARK    7  A    between atoms: N3_20  and  C14_22 
REMARK    8  A    between atoms: C16_24  and  C17_25 
REMARK       I    between atoms: C17_25  and  N4_27 
REMARK    9  A    between atoms: N4_27  and  C18_29 
REMARK   10  A    between atoms: C18_29  and  C19_30 
REMARK   11  A    between atoms: C18_29  and  C22_33 
REMARK   12  A    between atoms: C22_33  and  C25_36 
REMARK   13  A    between atoms: C25_36  and  O5_37 
REMARK   14  A    between atoms: C25_36  and  N5_39 
ROOT
HETATM    1  C14 UNL     1       8.751  17.674  17.674  1.00  0.00     0.052 A 
HETATM    2  C15 UNL     1      10.052  17.930  17.227  1.00  0.00     0.066 A 
HETATM    3  C16 UNL     1      10.769  18.577  18.201  1.00  0.00     0.104 A 
HETATM    4  N6  UNL     1       9.962  18.741  19.250  1.00  0.00    -0.354 N 
HETATM    5  C30 UNL     1      10.222  19.393  20.546  1.00  0.00     0.156 C 
HETATM    6  C31 UNL     1       8.743  18.199  18.940  1.00  0.00     0.120 A 
ENDROOT
BRANCH   1   7
HETATM    7  N3  UNL     1       7.755  16.980  16.939  1.00  0.00    -0.324 N 
HETATM    8  C13 UNL     1       7.556  15.602  17.094  1.00  0.00     0.245 C 
HETATM    9  O3  UNL     1       8.279  14.974  17.930  1.00  0.00    -0.271 OA
ATOM     10  H3  UNL     1       7.170  17.497  16.282  1.00  0.00     0.169 HD
BRANCH   8  11
HETATM   11  C4  UNL     1       6.516  14.830  16.315  1.00  0.00     0.177 C 
BRANCH  11  12
HETATM   12  C3  UNL     1       6.705  14.901  14.869  1.00  0.00     0.034 C 
BRANCH  12  13
HETATM   13  C2  UNL     1       8.108  14.677  14.406  1.00  0.00    -0.002 C 
HETATM   14  C1  UNL     1       8.896  15.859  14.003  1.00  0.00     0.005 C 
ENDBRANCH  12  13
ENDBRANCH  11  12
BRANCH  11  15
HETATM   15  N1  UNL     1       5.219  15.083  16.842  1.00  0.00    -0.346 N 
HETATM   16  C5  UNL     1       4.402  16.195  16.553  1.00  0.00     0.245 C 
HETATM   17  O1  UNL     1       4.851  17.060  15.770  1.00  0.00    -0.271 OA
ATOM     18  H1  UNL     1       4.844  14.393  17.492  1.00  0.00     0.163 HD
BRANCH  16  19
HETATM   19  C6  UNL     1       3.071  16.333  17.139  1.00  0.00     0.102 C 
HETATM   20  C7  UNL     1       2.145  16.775  15.990  1.00  0.00     0.048 C 
HETATM   21  C8  UNL     1       2.547  14.978  17.548  1.00  0.00     0.048 C 
BRANCH  19  22
HETATM   22  N2  UNL     1       2.929  17.295  18.178  1.00  0.00    -0.392 N 
HETATM   23  C9  UNL     1       3.767  17.184  19.309  1.00  0.00     0.144 C 
HETATM   24  C10 UNL     1       4.110  18.583  19.824  1.00  0.00     0.187 C 
HETATM   25  O2  UNL     1       2.998  19.355  20.056  1.00  0.00    -0.388 OA
HETATM   26  C11 UNL     1       2.007  19.263  19.088  1.00  0.00     0.187 C 
HETATM   27  C12 UNL     1       2.599  18.623  17.819  1.00  0.00     0.144 C 
ENDBRANCH  19  22
ENDBRANCH  16  19
ENDBRANCH  11  15
ENDBRANCH   8  11
ENDBRANCH   1   7
BRANCH   3  28
HETATM   28  C17 UNL     1      12.163  19.044  18.031  1.00  0.00     0.268 C 
HETATM   29  O4  UNL     1      12.982  18.165  18.472  1.00  0.00    -0.266 OA
HETATM   30  N4  UNL     1      12.431  20.265  17.471  1.00  0.00    -0.350 N 
ATOM     31  H4  UNL     1      11.596  20.799  17.231  1.00  0.00     0.163 HD
BRANCH  30  32
HETATM   32  C18 UNL     1      13.675  20.947  17.152  1.00  0.00     0.103 C 
BRANCH  32  33
HETATM   33  C19 UNL     1      13.771  22.250  17.846  1.00  0.00     0.001 C 
HETATM   34  C20 UNL     1      14.281  22.214  19.277  1.00  0.00     0.011 C 
HETATM   35  C21 UNL     1      12.286  22.700  18.085  1.00  0.00     0.011 C 
ENDBRANCH  32  33
BRANCH  32  36
HETATM   36  C22 UNL     1      14.007  20.802  15.734  1.00  0.00     0.038 C 
HETATM   37  C23 UNL     1      12.813  20.391  14.870  1.00  0.00     0.026 C 
HETATM   38  C24 UNL     1      14.931  19.558  15.642  1.00  0.00     0.026 C 
BRANCH  36  39
HETATM   39  C25 UNL     1      14.736  21.842  15.025  1.00  0.00     0.123 C 
BRANCH  39  40
HETATM   40  O5  UNL     1      14.033  22.423  14.079  1.00  0.00    -0.349 OA
ATOM     41  H5  UNL     1      14.532  22.599  13.291  1.00  0.00     0.219 HD
ENDBRANCH  39  40
BRANCH  39  42
HETATM   42  N5  UNL     1      16.016  22.346  15.140  1.00  0.00    -0.361 N 
HETATM   43  C26 UNL     1      16.922  22.282  14.013  1.00  0.00     0.151 C 
HETATM   44  C27 UNL     1      17.668  23.575  13.768  1.00  0.00     0.187 C 
HETATM   45  O6  UNL     1      17.900  24.283  14.952  1.00  0.00    -0.388 OA
HETATM   46  C28 UNL     1      18.006  23.347  15.977  1.00  0.00     0.187 C 
HETATM   47  C29 UNL     1      16.544  22.950  16.326  1.00  0.00     0.151 C 
ENDBRANCH  39  42
ENDBRANCH  36  39
ENDBRANCH  32  36
ENDBRANCH  30  32
ENDBRANCH   3  28
TORSDOF 14
ENDMDL
