MODEL 1
REMARK VINA RESULT: -8.413602574      0.000      0.000
REMARK  13 active torsions:
REMARK  status: ('A' for Active; 'I' for Inactive)
REMARK    1  A    between atoms: C2_2  and  C3_3 
REMARK    2  A    between atoms: C3_3  and  C4_4 
REMARK    3  A    between atoms: C4_4  and  C5_5 
REMARK    4  A    between atoms: C5_5  and  N1_6 
REMARK    5  A    between atoms: C5_5  and  C26_39 
REMARK       I    between atoms: N1_6  and  C6_8 
REMARK    6  A    between atoms: C6_8  and  C7_10 
REMARK    7  A    between atoms: C7_10  and  C8_11 
REMARK    8  A    between atoms: C7_10  and  N2_15 
REMARK    9  A    between atoms: C8_11  and  C9_12 
REMARK   10  A    between atoms: C13_17  and  C14_18 
REMARK       I    between atoms: C14_18  and  N3_20 
REMARK   11  A    between atoms: N3_20  and  C15_22 
REMARK   12  A    between atoms: C19_28  and  C20_29 
REMARK   13  A    between atoms: C20_29  and  C21_30 
REMARK       I    between atoms: C26_39  and  N7_41 
REMARK       I    between atoms: N8_44  and  C29_45 
ROOT
HETATM    1  C7  UNL     1       5.264  17.639  19.807  1.00  0.00     0.183 C 
ENDROOT
BRANCH   1   2
HETATM    2  C6  UNL     1       5.244  16.644  18.735  1.00  0.00     0.241 C 
HETATM    3  N1  UNL     1       5.792  16.866  17.448  1.00  0.00    -0.346 N 
ATOM      4  H1  UNL     1       6.222  17.776  17.282  1.00  0.00     0.163 HD
HETATM    5  O1  UNL     1       4.721  15.536  18.924  1.00  0.00    -0.271 OA
BRANCH   3   6
HETATM    6  C5  UNL     1       5.804  15.926  16.343  1.00  0.00     0.176 C 
BRANCH   6   7
HETATM    7  C4  UNL     1       6.729  16.388  15.260  1.00  0.00     0.035 C 
BRANCH   7   8
HETATM    8  C3  UNL     1       7.329  15.262  14.469  1.00  0.00     0.002 C 
BRANCH   8   9
HETATM    9  C2  UNL     1       8.773  15.012  14.673  1.00  0.00    -0.004 C 
HETATM   10  C1  UNL     1       9.649  16.208  14.494  1.00  0.00     0.005 C 
ENDBRANCH   8   9
ENDBRANCH   7   8
ENDBRANCH   6   7
BRANCH   6  11
HETATM   11  C26 UNL     1       4.414  15.762  15.862  1.00  0.00     0.242 C 
HETATM   12  O3  UNL     1       3.729  16.841  15.676  1.00  0.00    -0.271 OA
HETATM   13  N7  UNL     1       3.777  14.541  15.598  1.00  0.00    -0.347 N 
HETATM   14  C27 UNL     1       4.412  13.279  15.789  1.00  0.00     0.145 C 
HETATM   15  C31 UNL     1       2.383  14.495  15.105  1.00  0.00     0.145 C 
HETATM   16  C28 UNL     1       3.383  12.195  16.154  1.00  0.00     0.147 C 
HETATM   17  N8  UNL     1       2.240  12.772  16.810  1.00  0.00    -0.333 N 
HETATM   18  C29 UNL     1       1.740  12.166  18.007  1.00  0.00     0.330 C 
HETATM   19  C30 UNL     1       1.579  13.954  16.291  1.00  0.00     0.147 C 
HETATM   20  N9  UNL     1       2.354  11.015  18.552  1.00  0.00    -0.040 NA
HETATM   21  O4  UNL     1       0.742  12.650  18.599  1.00  0.00    -0.251 OA
ENDBRANCH   6  11
ENDBRANCH   3   6
ENDBRANCH   1   2
BRANCH   1  22
HETATM   22  C8  UNL     1       4.612  18.913  19.474  1.00  0.00     0.039 C 
BRANCH  22  23
HETATM   23  C9  UNL     1       3.168  19.056  19.351  1.00  0.00    -0.020 C 
HETATM   24  C10 UNL     1       2.445  18.892  18.077  1.00  0.00     0.009 C 
HETATM   25  C11 UNL     1       2.389  18.285  20.424  1.00  0.00     0.009 C 
ENDBRANCH  22  23
ENDBRANCH   1  22
BRANCH   1  26
HETATM   26  N2  UNL     1       6.679  17.813  20.178  1.00  0.00    -0.330 N 
HETATM   27  C12 UNL     1       7.535  18.711  19.661  1.00  0.00     0.128 A 
HETATM   28  C13 UNL     1       8.772  18.580  20.248  1.00  0.00     0.117 A 
HETATM   29  N4  UNL     1       8.631  17.588  21.125  1.00  0.00    -0.340 N 
HETATM   30  C19 UNL     1       7.370  17.104  21.102  1.00  0.00     0.089 A 
ATOM     31  H4  UNL     1       9.374  17.240  21.731  1.00  0.00     0.167 HD
BRANCH  28  32
HETATM   32  C14 UNL     1       9.942  19.382  19.925  1.00  0.00     0.270 C 
HETATM   33  O2  UNL     1      10.754  19.614  20.835  1.00  0.00    -0.266 OA
HETATM   34  N3  UNL     1      10.170  19.888  18.631  1.00  0.00    -0.348 N 
ATOM     35  H3  UNL     1       9.486  19.684  17.903  1.00  0.00     0.163 HD
BRANCH  34  36
HETATM   36  C15 UNL     1      11.330  20.684  18.285  1.00  0.00     0.022 C 
HETATM   37  C16 UNL     1      11.168  21.379  16.960  1.00  0.00     0.037 C 
HETATM   38  C17 UNL     1      11.646  21.718  19.332  1.00  0.00     0.037 C 
HETATM   39  C18 UNL     1      12.555  19.778  18.158  1.00  0.00     0.037 C 
ENDBRANCH  34  36
ENDBRANCH  28  32
BRANCH  30  40
HETATM   40  C20 UNL     1       6.913  16.003  21.949  1.00  0.00     0.118 C 
BRANCH  40  41
HETATM   41  C21 UNL     1       6.012  16.355  23.060  1.00  0.00    -0.013 A 
HETATM   42  C22 UNL     1       4.861  17.083  22.787  1.00  0.00     0.098 A 
HETATM   43  N5  UNL     1       3.993  17.433  23.748  1.00  0.00    -0.361 N 
HETATM   44  C23 UNL     1       4.228  17.077  25.015  1.00  0.00     0.180 A 
ATOM     45  H5  UNL     1       3.157  17.969  23.513  1.00  0.00     0.166 HD
HETATM   46  N6  UNL     1       5.328  16.377  25.301  1.00  0.00    -0.356 N 
HETATM   47  C24 UNL     1       6.225  16.006  24.367  1.00  0.00     0.014 A 
ATOM     48  H6  UNL     1       5.497  16.112  26.271  1.00  0.00     0.166 HD
HETATM   49  C25 UNL     1       7.451  15.241  24.801  1.00  0.00     0.068 C 
ENDBRANCH  40  41
ENDBRANCH  30  40
ENDBRANCH   1  26
TORSDOF 13
ENDMDL
MODEL 2
REMARK VINA RESULT: -8.392240016      2.002      9.358
REMARK  13 active torsions:
REMARK  status: ('A' for Active; 'I' for Inactive)
REMARK    1  A    between atoms: C2_2  and  C3_3 
REMARK    2  A    between atoms: C3_3  and  C4_4 
REMARK    3  A    between atoms: C4_4  and  C5_5 
REMARK    4  A    between atoms: C5_5  and  N1_6 
REMARK    5  A    between atoms: C5_5  and  C26_39 
REMARK       I    between atoms: N1_6  and  C6_8 
REMARK    6  A    between atoms: C6_8  and  C7_10 
REMARK    7  A    between atoms: C7_10  and  C8_11 
REMARK    8  A    between atoms: C7_10  and  N2_15 
REMARK    9  A    between atoms: C8_11  and  C9_12 
REMARK   10  A    between atoms: C13_17  and  C14_18 
REMARK       I    between atoms: C14_18  and  N3_20 
REMARK   11  A    between atoms: N3_20  and  C15_22 
REMARK   12  A    between atoms: C19_28  and  C20_29 
REMARK   13  A    between atoms: C20_29  and  C21_30 
REMARK       I    between atoms: C26_39  and  N7_41 
REMARK       I    between atoms: N8_44  and  C29_45 
ROOT
HETATM    1  C7  UNL     1       5.036  17.103  18.081  1.00  0.00     0.183 C 
ENDROOT
BRANCH   1   2
HETATM    2  C6  UNL     1       6.323  16.801  18.708  1.00  0.00     0.241 C 
HETATM    3  N1  UNL     1       6.911  17.602  19.717  1.00  0.00    -0.346 N 
ATOM      4  H1  UNL     1       6.390  18.429  20.010  1.00  0.00     0.163 HD
HETATM    5  O1  UNL     1       6.967  15.801  18.358  1.00  0.00    -0.271 OA
BRANCH   3   6
HETATM    6  C5  UNL     1       8.181  17.362  20.377  1.00  0.00     0.176 C 
BRANCH   6   7
HETATM    7  C4  UNL     1       7.993  16.532  21.609  1.00  0.00     0.035 C 
BRANCH   7   8
HETATM    8  C3  UNL     1       6.553  16.367  22.000  1.00  0.00     0.002 C 
BRANCH   8   9
HETATM    9  C2  UNL     1       6.273  16.273  23.450  1.00  0.00    -0.004 C 
HETATM   10  C1  UNL     1       7.326  15.578  24.250  1.00  0.00     0.005 C 
ENDBRANCH   8   9
ENDBRANCH   7   8
ENDBRANCH   6   7
BRANCH   6  11
HETATM   11  C26 UNL     1       8.802  18.673  20.672  1.00  0.00     0.242 C 
HETATM   12  O3  UNL     1       8.112  19.499  21.387  1.00  0.00    -0.271 OA
HETATM   13  N7  UNL     1      10.066  19.097  20.239  1.00  0.00    -0.347 N 
HETATM   14  C27 UNL     1      10.915  18.293  19.422  1.00  0.00     0.145 C 
HETATM   15  C31 UNL     1      10.596  20.428  20.606  1.00  0.00     0.145 C 
HETATM   16  C28 UNL     1      11.800  19.169  18.520  1.00  0.00     0.147 C 
HETATM   17  N8  UNL     1      11.165  20.430  18.246  1.00  0.00    -0.333 N 
HETATM   18  C29 UNL     1      11.129  20.918  16.901  1.00  0.00     0.330 C 
HETATM   19  C30 UNL     1      10.561  21.224  19.299  1.00  0.00     0.147 C 
HETATM   20  N9  UNL     1      11.703  20.177  15.841  1.00  0.00    -0.040 NA
HETATM   21  O4  UNL     1      10.581  22.018  16.634  1.00  0.00    -0.251 OA
ENDBRANCH   6  11
ENDBRANCH   3   6
ENDBRANCH   1   2
BRANCH   1  22
HETATM   22  C8  UNL     1       3.932  17.329  19.024  1.00  0.00     0.039 C 
BRANCH  22  23
HETATM   23  C9  UNL     1       2.969  18.410  18.872  1.00  0.00    -0.020 C 
HETATM   24  C10 UNL     1       3.328  19.835  18.987  1.00  0.00     0.009 C 
HETATM   25  C11 UNL     1       2.080  18.260  17.630  1.00  0.00     0.009 C 
ENDBRANCH  22  23
ENDBRANCH   1  22
BRANCH   1  26
HETATM   26  N2  UNL     1       4.762  15.994  17.151  1.00  0.00    -0.330 N 
HETATM   27  C12 UNL     1       4.024  14.900  17.410  1.00  0.00     0.128 A 
HETATM   28  C13 UNL     1       3.989  14.080  16.306  1.00  0.00     0.117 A 
HETATM   29  N4  UNL     1       4.719  14.711  15.388  1.00  0.00    -0.340 N 
HETATM   30  C19 UNL     1       5.200  15.874  15.876  1.00  0.00     0.089 A 
ATOM     31  H4  UNL     1       4.892  14.362  14.445  1.00  0.00     0.167 HD
BRANCH  28  32
HETATM   32  C14 UNL     1       3.292  12.806  16.231  1.00  0.00     0.270 C 
HETATM   33  O2  UNL     1       2.328  12.718  15.454  1.00  0.00    -0.266 OA
HETATM   34  N3  UNL     1       3.678  11.693  17.002  1.00  0.00    -0.348 N 
ATOM     35  H3  UNL     1       4.472  11.793  17.635  1.00  0.00     0.163 HD
BRANCH  34  36
HETATM   36  C15 UNL     1       3.002  10.412  16.941  1.00  0.00     0.022 C 
HETATM   37  C16 UNL     1       1.581  10.496  17.428  1.00  0.00     0.037 C 
HETATM   38  C17 UNL     1       3.000   9.836  15.551  1.00  0.00     0.037 C 
HETATM   39  C18 UNL     1       3.719   9.410  17.846  1.00  0.00     0.037 C 
ENDBRANCH  34  36
ENDBRANCH  28  32
BRANCH  30  40
HETATM   40  C20 UNL     1       6.045  16.785  15.104  1.00  0.00     0.118 C 
BRANCH  40  41
HETATM   41  C21 UNL     1       7.440  16.367  14.887  1.00  0.00    -0.013 A 
HETATM   42  C22 UNL     1       7.737  15.010  14.847  1.00  0.00     0.098 A 
HETATM   43  N5  UNL     1       8.984  14.558  14.647  1.00  0.00    -0.361 N 
HETATM   44  C23 UNL     1       9.985  15.427  14.479  1.00  0.00     0.180 A 
ATOM     45  H5  UNL     1       9.167  13.554  14.623  1.00  0.00     0.166 HD
HETATM   46  N6  UNL     1       9.724  16.735  14.515  1.00  0.00    -0.356 N 
HETATM   47  C24 UNL     1       8.488  17.231  14.713  1.00  0.00     0.014 A 
ATOM     48  H6  UNL     1      10.497  17.389  14.386  1.00  0.00     0.166 HD
HETATM   49  C25 UNL     1       8.306  18.728  14.764  1.00  0.00     0.068 C 
ENDBRANCH  40  41
ENDBRANCH  30  40
ENDBRANCH   1  26
TORSDOF 13
ENDMDL
MODEL 3
REMARK VINA RESULT: -8.297373642      2.307      8.359
REMARK  13 active torsions:
REMARK  status: ('A' for Active; 'I' for Inactive)
REMARK    1  A    between atoms: C2_2  and  C3_3 
REMARK    2  A    between atoms: C3_3  and  C4_4 
REMARK    3  A    between atoms: C4_4  and  C5_5 
REMARK    4  A    between atoms: C5_5  and  N1_6 
REMARK    5  A    between atoms: C5_5  and  C26_39 
REMARK       I    between atoms: N1_6  and  C6_8 
REMARK    6  A    between atoms: C6_8  and  C7_10 
REMARK    7  A    between atoms: C7_10  and  C8_11 
REMARK    8  A    between atoms: C7_10  and  N2_15 
REMARK    9  A    between atoms: C8_11  and  C9_12 
REMARK   10  A    between atoms: C13_17  and  C14_18 
REMARK       I    between atoms: C14_18  and  N3_20 
REMARK   11  A    between atoms: N3_20  and  C15_22 
REMARK   12  A    between atoms: C19_28  and  C20_29 
REMARK   13  A    between atoms: C20_29  and  C21_30 
REMARK       I    between atoms: C26_39  and  N7_41 
REMARK       I    between atoms: N8_44  and  C29_45 
ROOT
HETATM    1  C7  UNL     1       8.338  18.542  19.488  1.00  0.00     0.183 C 
ENDROOT
BRANCH   1   2
HETATM    2  C6  UNL     1       9.124  18.733  18.269  1.00  0.00     0.241 C 
HETATM    3  N1  UNL     1      10.051  17.781  17.777  1.00  0.00    -0.346 N 
ATOM      4  H1  UNL     1      10.159  16.922  18.317  1.00  0.00     0.163 HD
HETATM    5  O1  UNL     1       9.005  19.773  17.607  1.00  0.00    -0.271 OA
BRANCH   3   6
HETATM    6  C5  UNL     1      10.861  17.906  16.580  1.00  0.00     0.176 C 
BRANCH   6   7
HETATM    7  C4  UNL     1      10.662  16.730  15.676  1.00  0.00     0.035 C 
BRANCH   7   8
HETATM    8  C3  UNL     1       9.879  17.057  14.438  1.00  0.00     0.002 C 
BRANCH   8   9
HETATM    9  C2  UNL     1       8.410  17.141  14.593  1.00  0.00    -0.004 C 
HETATM   10  C1  UNL     1       7.838  18.510  14.421  1.00  0.00     0.005 C 
ENDBRANCH   8   9
ENDBRANCH   7   8
ENDBRANCH   6   7
BRANCH   6  11
HETATM   11  C26 UNL     1      12.274  18.064  16.995  1.00  0.00     0.242 C 
HETATM   12  O3  UNL     1      12.767  17.141  17.751  1.00  0.00    -0.271 OA
HETATM   13  N7  UNL     1      13.116  19.128  16.643  1.00  0.00    -0.347 N 
HETATM   14  C27 UNL     1      12.687  20.223  15.837  1.00  0.00     0.145 C 
HETATM   15  C31 UNL     1      14.521  19.177  17.103  1.00  0.00     0.145 C 
HETATM   16  C28 UNL     1      13.450  21.507  16.202  1.00  0.00     0.147 C 
HETATM   17  N8  UNL     1      13.887  21.473  17.573  1.00  0.00    -0.333 N 
HETATM   18  C29 UNL     1      13.670  22.618  18.405  1.00  0.00     0.330 C 
HETATM   19  C30 UNL     1      14.543  20.309  18.135  1.00  0.00     0.147 C 
HETATM   20  N9  UNL     1      13.032  23.775  17.900  1.00  0.00    -0.040 NA
HETATM   21  O4  UNL     1      14.043  22.615  19.605  1.00  0.00    -0.251 OA
ENDBRANCH   6  11
ENDBRANCH   3   6
ENDBRANCH   1   2
BRANCH   1  22
HETATM   22  C8  UNL     1       9.134  18.389  20.714  1.00  0.00     0.039 C 
BRANCH  22  23
HETATM   23  C9  UNL     1       9.945  19.461  21.272  1.00  0.00    -0.020 C 
HETATM   24  C10 UNL     1      11.052  20.102  20.540  1.00  0.00     0.009 C 
HETATM   25  C11 UNL     1       9.113  20.578  21.916  1.00  0.00     0.009 C 
ENDBRANCH  22  23
ENDBRANCH   1  22
BRANCH   1  26
HETATM   26  N2  UNL     1       7.465  17.382  19.237  1.00  0.00    -0.330 N 
HETATM   27  C12 UNL     1       6.920  17.034  18.059  1.00  0.00     0.128 A 
HETATM   28  C13 UNL     1       6.162  15.896  18.204  1.00  0.00     0.117 A 
HETATM   29  N4  UNL     1       6.270  15.576  19.493  1.00  0.00    -0.340 N 
HETATM   30  C19 UNL     1       7.054  16.463  20.142  1.00  0.00     0.089 A 
ATOM     31  H4  UNL     1       5.820  14.771  19.929  1.00  0.00     0.167 HD
BRANCH  28  32
HETATM   32  C14 UNL     1       5.419  15.242  17.138  1.00  0.00     0.270 C 
HETATM   33  O2  UNL     1       5.971  15.130  16.032  1.00  0.00    -0.266 OA
HETATM   34  N3  UNL     1       4.116  14.742  17.329  1.00  0.00    -0.348 N 
ATOM     35  H3  UNL     1       3.685  14.849  18.247  1.00  0.00     0.163 HD
BRANCH  34  36
HETATM   36  C15 UNL     1       3.359  14.083  16.284  1.00  0.00     0.022 C 
HETATM   37  C16 UNL     1       3.096  14.991  15.113  1.00  0.00     0.037 C 
HETATM   38  C17 UNL     1       4.044  12.840  15.782  1.00  0.00     0.037 C 
HETATM   39  C18 UNL     1       1.995  13.660  16.828  1.00  0.00     0.037 C 
ENDBRANCH  34  36
ENDBRANCH  28  32
BRANCH  30  40
HETATM   40  C20 UNL     1       7.353  16.379  21.571  1.00  0.00     0.118 C 
BRANCH  40  41
HETATM   41  C21 UNL     1       6.239  16.647  22.496  1.00  0.00    -0.013 A 
HETATM   42  C22 UNL     1       5.150  17.381  22.041  1.00  0.00     0.098 A 
HETATM   43  N5  UNL     1       4.098  17.658  22.826  1.00  0.00    -0.361 N 
HETATM   44  C23 UNL     1       4.080  17.220  24.088  1.00  0.00     0.180 A 
ATOM     45  H5  UNL     1       3.314  18.200  22.460  1.00  0.00     0.166 HD
HETATM   46  N6  UNL     1       5.115  16.514  24.547  1.00  0.00    -0.356 N 
HETATM   47  C24 UNL     1       6.190  16.215  23.794  1.00  0.00     0.014 A 
ATOM     48  H6  UNL     1       5.090  16.186  25.513  1.00  0.00     0.166 HD
HETATM   49  C25 UNL     1       7.321  15.434  24.419  1.00  0.00     0.068 C 
ENDBRANCH  40  41
ENDBRANCH  30  40
ENDBRANCH   1  26
TORSDOF 13
ENDMDL
MODEL 4
REMARK VINA RESULT: -8.254125308      1.929      5.657
REMARK  13 active torsions:
REMARK  status: ('A' for Active; 'I' for Inactive)
REMARK    1  A    between atoms: C2_2  and  C3_3 
REMARK    2  A    between atoms: C3_3  and  C4_4 
REMARK    3  A    between atoms: C4_4  and  C5_5 
REMARK    4  A    between atoms: C5_5  and  N1_6 
REMARK    5  A    between atoms: C5_5  and  C26_39 
REMARK       I    between atoms: N1_6  and  C6_8 
REMARK    6  A    between atoms: C6_8  and  C7_10 
REMARK    7  A    between atoms: C7_10  and  C8_11 
REMARK    8  A    between atoms: C7_10  and  N2_15 
REMARK    9  A    between atoms: C8_11  and  C9_12 
REMARK   10  A    between atoms: C13_17  and  C14_18 
REMARK       I    between atoms: C14_18  and  N3_20 
REMARK   11  A    between atoms: N3_20  and  C15_22 
REMARK   12  A    between atoms: C19_28  and  C20_29 
REMARK   13  A    between atoms: C20_29  and  C21_30 
REMARK       I    between atoms: C26_39  and  N7_41 
REMARK       I    between atoms: N8_44  and  C29_45 
ROOT
HETATM    1  C7  UNL     1       7.376  17.945  19.452  1.00  0.00     0.183 C 
ENDROOT
BRANCH   1   2
HETATM    2  C6  UNL     1       7.223  16.848  18.497  1.00  0.00     0.241 C 
HETATM    3  N1  UNL     1       6.569  16.981  17.247  1.00  0.00    -0.346 N 
ATOM      4  H1  UNL     1       6.193  17.902  17.021  1.00  0.00     0.163 HD
HETATM    5  O1  UNL     1       7.672  15.723  18.762  1.00  0.00    -0.271 OA
BRANCH   3   6
HETATM    6  C5  UNL     1       6.381  15.937  16.257  1.00  0.00     0.176 C 
BRANCH   6   7
HETATM    7  C4  UNL     1       7.265  16.163  15.070  1.00  0.00     0.035 C 
BRANCH   7   8
HETATM    8  C3  UNL     1       7.589  17.609  14.838  1.00  0.00     0.002 C 
BRANCH   8   9
HETATM    9  C2  UNL     1       9.016  17.987  14.936  1.00  0.00    -0.004 C 
HETATM   10  C1  UNL     1       9.340  18.935  16.043  1.00  0.00     0.005 C 
ENDBRANCH   8   9
ENDBRANCH   7   8
ENDBRANCH   6   7
BRANCH   6  11
HETATM   11  C26 UNL     1       4.947  15.901  15.892  1.00  0.00     0.242 C 
HETATM   12  O3  UNL     1       4.325  17.032  15.853  1.00  0.00    -0.271 OA
HETATM   13  N7  UNL     1       4.207  14.748  15.591  1.00  0.00    -0.347 N 
HETATM   14  C27 UNL     1       4.767  13.438  15.624  1.00  0.00     0.145 C 
HETATM   15  C31 UNL     1       2.777  14.831  15.223  1.00  0.00     0.145 C 
HETATM   16  C28 UNL     1       3.700  12.393  15.995  1.00  0.00     0.147 C 
HETATM   17  N8  UNL     1       2.659  12.983  16.794  1.00  0.00    -0.333 N 
HETATM   18  C29 UNL     1       2.221  12.310  17.979  1.00  0.00     0.330 C 
HETATM   19  C30 UNL     1       2.040  14.243  16.430  1.00  0.00     0.147 C 
HETATM   20  N9  UNL     1       2.797  11.081  18.374  1.00  0.00    -0.040 NA
HETATM   21  O4  UNL     1       1.312  12.803  18.694  1.00  0.00    -0.251 OA
ENDBRANCH   6  11
ENDBRANCH   3   6
ENDBRANCH   1   2
BRANCH   1  22
HETATM   22  C8  UNL     1       8.730  18.097  20.002  1.00  0.00     0.039 C 
BRANCH  22  23
HETATM   23  C9  UNL     1       9.287  19.384  20.392  1.00  0.00    -0.020 C 
HETATM   24  C10 UNL     1       8.939  20.068  21.651  1.00  0.00     0.009 C 
HETATM   25  C11 UNL     1      10.812  19.456  20.237  1.00  0.00     0.009 C 
ENDBRANCH  22  23
ENDBRANCH   1  22
BRANCH   1  26
HETATM   26  N2  UNL     1       6.365  17.721  20.500  1.00  0.00    -0.330 N 
HETATM   27  C12 UNL     1       6.568  17.132  21.691  1.00  0.00     0.128 A 
HETATM   28  C13 UNL     1       5.396  17.096  22.409  1.00  0.00     0.117 A 
HETATM   29  N4  UNL     1       4.494  17.676  21.619  1.00  0.00    -0.340 N 
HETATM   30  C19 UNL     1       5.056  18.064  20.454  1.00  0.00     0.089 A 
ATOM     31  H4  UNL     1       3.512  17.809  21.861  1.00  0.00     0.167 HD
BRANCH  28  32
HETATM   32  C14 UNL     1       5.243  16.522  23.736  1.00  0.00     0.270 C 
HETATM   33  O2  UNL     1       5.988  15.580  24.049  1.00  0.00    -0.266 OA
HETATM   34  N3  UNL     1       4.290  17.001  24.656  1.00  0.00    -0.348 N 
ATOM     35  H3  UNL     1       3.689  17.774  24.372  1.00  0.00     0.163 HD
BRANCH  34  36
HETATM   36  C15 UNL     1       4.123  16.448  25.985  1.00  0.00     0.022 C 
HETATM   37  C16 UNL     1       2.940  15.523  26.071  1.00  0.00     0.037 C 
HETATM   38  C17 UNL     1       5.347  15.707  26.451  1.00  0.00     0.037 C 
HETATM   39  C18 UNL     1       3.870  17.579  26.982  1.00  0.00     0.037 C 
ENDBRANCH  34  36
ENDBRANCH  28  32
BRANCH  30  40
HETATM   40  C20 UNL     1       4.314  18.723  19.380  1.00  0.00     0.118 C 
BRANCH  40  41
HETATM   41  C21 UNL     1       2.883  18.394  19.268  1.00  0.00    -0.013 A 
HETATM   42  C22 UNL     1       2.516  17.100  18.919  1.00  0.00     0.098 A 
HETATM   43  N5  UNL     1       1.233  16.728  18.804  1.00  0.00    -0.361 N 
HETATM   44  C23 UNL     1       0.262  17.619  19.029  1.00  0.00     0.180 A 
ATOM     45  H5  UNL     1       0.998  15.769  18.547  1.00  0.00     0.166 HD
HETATM   46  N6  UNL     1       0.590  18.868  19.364  1.00  0.00    -0.356 N 
HETATM   47  C24 UNL     1       1.866  19.283  19.490  1.00  0.00     0.014 A 
ATOM     48  H6  UNL     1      -0.159  19.540  19.533  1.00  0.00     0.166 HD
HETATM   49  C25 UNL     1       2.129  20.726  19.845  1.00  0.00     0.068 C 
ENDBRANCH  40  41
ENDBRANCH  30  40
ENDBRANCH   1  26
TORSDOF 13
ENDMDL
MODEL 5
REMARK VINA RESULT: -8.198897034      2.181      8.181
REMARK  13 active torsions:
REMARK  status: ('A' for Active; 'I' for Inactive)
REMARK    1  A    between atoms: C2_2  and  C3_3 
REMARK    2  A    between atoms: C3_3  and  C4_4 
REMARK    3  A    between atoms: C4_4  and  C5_5 
REMARK    4  A    between atoms: C5_5  and  N1_6 
REMARK    5  A    between atoms: C5_5  and  C26_39 
REMARK       I    between atoms: N1_6  and  C6_8 
REMARK    6  A    between atoms: C6_8  and  C7_10 
REMARK    7  A    between atoms: C7_10  and  C8_11 
REMARK    8  A    between atoms: C7_10  and  N2_15 
REMARK    9  A    between atoms: C8_11  and  C9_12 
REMARK   10  A    between atoms: C13_17  and  C14_18 
REMARK       I    between atoms: C14_18  and  N3_20 
REMARK   11  A    between atoms: N3_20  and  C15_22 
REMARK   12  A    between atoms: C19_28  and  C20_29 
REMARK   13  A    between atoms: C20_29  and  C21_30 
REMARK       I    between atoms: C26_39  and  N7_41 
REMARK       I    between atoms: N8_44  and  C29_45 
ROOT
HETATM    1  C7  UNL     1       8.411  18.417  19.353  1.00  0.00     0.183 C 
ENDROOT
BRANCH   1   2
HETATM    2  C6  UNL     1       9.030  18.050  18.079  1.00  0.00     0.241 C 
HETATM    3  N1  UNL     1       9.446  18.995  17.109  1.00  0.00    -0.346 N 
ATOM      4  H1  UNL     1       9.297  19.979  17.332  1.00  0.00     0.163 HD
HETATM    5  O1  UNL     1       9.212  16.858  17.795  1.00  0.00    -0.271 OA
BRANCH   3   6
HETATM    6  C5  UNL     1      10.062  18.701  15.828  1.00  0.00     0.176 C 
BRANCH   6   7
HETATM    7  C4  UNL     1       9.409  17.519  15.181  1.00  0.00     0.035 C 
BRANCH   7   8
HETATM    8  C3  UNL     1       8.066  17.832  14.590  1.00  0.00     0.002 C 
BRANCH   8   9
HETATM    9  C2  UNL     1       6.969  16.896  14.918  1.00  0.00    -0.004 C 
HETATM   10  C1  UNL     1       7.329  15.449  14.823  1.00  0.00     0.005 C 
ENDBRANCH   8   9
ENDBRANCH   7   8
ENDBRANCH   6   7
BRANCH   6  11
HETATM   11  C26 UNL     1      11.511  18.490  16.052  1.00  0.00     0.242 C 
HETATM   12  O3  UNL     1      11.875  17.319  16.456  1.00  0.00    -0.271 OA
HETATM   13  N7  UNL     1      12.515  19.451  15.870  1.00  0.00    -0.347 N 
HETATM   14  C27 UNL     1      12.244  20.788  15.455  1.00  0.00     0.145 C 
HETATM   15  C31 UNL     1      13.938  19.127  16.110  1.00  0.00     0.145 C 
HETATM   16  C28 UNL     1      13.286  21.764  16.026  1.00  0.00     0.147 C 
HETATM   17  N8  UNL     1      13.838  21.264  17.257  1.00  0.00    -0.333 N 
HETATM   18  C29 UNL     1      13.943  22.141  18.384  1.00  0.00     0.330 C 
HETATM   19  C30 UNL     1      14.292  19.893  17.388  1.00  0.00     0.147 C 
HETATM   20  N9  UNL     1      13.510  23.485  18.303  1.00  0.00    -0.040 NA
HETATM   21  O4  UNL     1      14.422  21.730  19.471  1.00  0.00    -0.251 OA
ENDBRANCH   6  11
ENDBRANCH   3   6
ENDBRANCH   1   2
BRANCH   1  22
HETATM   22  C8  UNL     1       9.288  18.279  20.524  1.00  0.00     0.039 C 
BRANCH  22  23
HETATM   23  C9  UNL     1      10.056  19.388  21.074  1.00  0.00    -0.020 C 
HETATM   24  C10 UNL     1      11.087  20.113  20.311  1.00  0.00     0.009 C 
HETATM   25  C11 UNL     1       9.186  20.435  21.782  1.00  0.00     0.009 C 
ENDBRANCH  22  23
ENDBRANCH   1  22
BRANCH   1  26
HETATM   26  N2  UNL     1       7.191  17.600  19.467  1.00  0.00    -0.330 N 
HETATM   27  C12 UNL     1       6.434  17.149  18.451  1.00  0.00     0.128 A 
HETATM   28  C13 UNL     1       5.373  16.421  18.935  1.00  0.00     0.117 A 
HETATM   29  N4  UNL     1       5.517  16.448  20.259  1.00  0.00    -0.340 N 
HETATM   30  C19 UNL     1       6.612  17.158  20.608  1.00  0.00     0.089 A 
ATOM     31  H4  UNL     1       4.885  15.995  20.920  1.00  0.00     0.167 HD
BRANCH  28  32
HETATM   32  C14 UNL     1       4.346  15.792  18.120  1.00  0.00     0.270 C 
HETATM   33  O2  UNL     1       3.180  16.199  18.242  1.00  0.00    -0.266 OA
HETATM   34  N3  UNL     1       4.638  14.756  17.213  1.00  0.00    -0.348 N 
ATOM     35  H3  UNL     1       5.605  14.439  17.133  1.00  0.00     0.163 HD
BRANCH  34  36
HETATM   36  C15 UNL     1       3.633  14.118  16.387  1.00  0.00     0.022 C 
HETATM   37  C16 UNL     1       2.473  13.606  17.196  1.00  0.00     0.037 C 
HETATM   38  C17 UNL     1       3.105  15.039  15.320  1.00  0.00     0.037 C 
HETATM   39  C18 UNL     1       4.244  12.908  15.679  1.00  0.00     0.037 C 
ENDBRANCH  34  36
ENDBRANCH  28  32
BRANCH  30  40
HETATM   40  C20 UNL     1       7.026  17.372  21.994  1.00  0.00     0.118 C 
BRANCH  40  41
HETATM   41  C21 UNL     1       6.013  17.122  23.033  1.00  0.00    -0.013 A 
HETATM   42  C22 UNL     1       4.819  17.832  22.992  1.00  0.00     0.098 A 
HETATM   43  N5  UNL     1       3.849  17.651  23.901  1.00  0.00    -0.361 N 
HETATM   44  C23 UNL     1       4.021  16.763  24.885  1.00  0.00     0.180 A 
ATOM     45  H5  UNL     1       2.985  18.190  23.842  1.00  0.00     0.166 HD
HETATM   46  N6  UNL     1       5.159  16.069  24.944  1.00  0.00    -0.356 N 
HETATM   47  C24 UNL     1       6.157  16.220  24.053  1.00  0.00     0.014 A 
ATOM     48  H6  UNL     1       5.279  15.394  25.700  1.00  0.00     0.166 HD
HETATM   49  C25 UNL     1       7.416  15.407  24.228  1.00  0.00     0.068 C 
ENDBRANCH  40  41
ENDBRANCH  30  40
ENDBRANCH   1  26
TORSDOF 13
ENDMDL
