MODEL 1
REMARK VINA RESULT: -8.338017586      0.000      0.000
REMARK  17 active torsions:
REMARK  status: ('A' for Active; 'I' for Inactive)
REMARK    1  A    between atoms: C2_2  and  C3_3 
REMARK    2  A    between atoms: C4_6  and  N2_7 
REMARK    3  A    between atoms: N2_7  and  C5_8 
REMARK    4  A    between atoms: C5_8  and  C6_9 
REMARK    5  A    between atoms: C5_8  and  C13_20 
REMARK    6  A    between atoms: C6_9  and  C7_10 
REMARK    7  A    between atoms: C7_10  and  C8_11 
REMARK    8  A    between atoms: C8_11  and  N3_12 
REMARK       I    between atoms: N3_12  and  C9_14 
REMARK    9  A    between atoms: C9_14  and  O2_16 
REMARK   10  A    between atoms: O2_16  and  C10_17 
REMARK   11  A    between atoms: N5_27  and  C16_28 
REMARK   12  A    between atoms: C16_28  and  C17_29 
REMARK       I    between atoms: C17_29  and  N6_31 
REMARK   13  A    between atoms: C21_35  and  C22_36 
REMARK   14  A    between atoms: C22_36  and  C23_37 
REMARK   15  A    between atoms: C28_42  and  C29_43 
REMARK   16  A    between atoms: C29_43  and  O6_44 
REMARK   17  A    between atoms: C29_43  and  N7_46 
ROOT
HETATM    1  C3  UNL     1      12.690  18.640  18.302  1.00  0.00     0.020 A 
HETATM    2  N1  UNL     1      13.940  19.104  18.483  1.00  0.00    -0.333 N 
ATOM      3  H1  UNL     1      14.474  18.728  19.266  1.00  0.00     0.168 HD
HETATM    4  C4  UNL     1      14.541  20.031  17.704  1.00  0.00     0.203 A 
HETATM    5  C14 UNL     1      13.764  20.515  16.642  1.00  0.00     0.119 A 
HETATM    6  N4  UNL     1      14.112  21.409  15.699  1.00  0.00    -0.346 N 
ATOM      7  H4  UNL     1      15.003  21.899  15.617  1.00  0.00     0.167 HD
HETATM    8  C15 UNL     1      13.070  21.525  14.904  1.00  0.00     0.184 A 
HETATM    9  N5  UNL     1      12.040  20.693  15.344  1.00  0.00    -0.332 N 
HETATM   10  C20 UNL     1      12.472  20.066  16.421  1.00  0.00     0.076 A 
HETATM   11  C21 UNL     1      11.907  19.102  17.265  1.00  0.00    -0.002 A 
ENDROOT
BRANCH   4  12
HETATM   12  N2  UNL     1      15.647  20.456  17.861  1.00  0.00    -0.412 NA
BRANCH  12  13
HETATM   13  C5  UNL     1      16.899  20.933  18.033  1.00  0.00     0.266 C 
BRANCH  13  14
HETATM   14  C6  UNL     1      16.983  21.981  19.158  1.00  0.00     0.052 C 
BRANCH  14  15
HETATM   15  C7  UNL     1      18.326  22.486  19.468  1.00  0.00     0.023 C 
BRANCH  15  16
HETATM   16  C8  UNL     1      18.421  23.968  19.748  1.00  0.00     0.125 C 
BRANCH  16  17
HETATM   17  N3  UNL     1      18.217  24.746  18.548  1.00  0.00    -0.337 N 
HETATM   18  C9  UNL     1      19.346  25.212  17.843  1.00  0.00     0.360 C 
HETATM   19  O1  UNL     1      20.533  24.976  18.220  1.00  0.00    -0.239 OA
ATOM     20  H3  UNL     1      17.275  24.955  18.217  1.00  0.00     0.164 HD
BRANCH  18  21
HETATM   21  O2  UNL     1      19.209  25.958  16.689  1.00  0.00    -0.299 OA
BRANCH  21  22
HETATM   22  C10 UNL     1      19.360  25.374  15.400  1.00  0.00     0.125 C 
HETATM   23  C11 UNL     1      20.713  25.630  14.805  1.00  0.00     0.040 C 
HETATM   24  C12 UNL     1      18.289  25.986  14.512  1.00  0.00     0.040 C 
ENDBRANCH  21  22
ENDBRANCH  18  21
ENDBRANCH  16  17
ENDBRANCH  15  16
ENDBRANCH  14  15
ENDBRANCH  13  14
BRANCH  13  25
HETATM   25  C13 UNL     1      17.472  21.555  16.796  1.00  0.00     0.210 C 
HETATM   26  O3  UNL     1      18.374  20.898  16.215  1.00  0.00    -0.646 OA
HETATM   27  O4  UNL     1      17.093  22.749  16.280  1.00  0.00    -0.646 OA
ENDBRANCH  13  25
ENDBRANCH  12  13
ENDBRANCH   4  12
BRANCH   1  28
HETATM   28  C2  UNL     1      12.262  17.648  19.325  1.00  0.00     0.053 C 
HETATM   29  C1  UNL     1      12.278  18.224  20.720  1.00  0.00     0.011 C 
ENDBRANCH   1  28
BRANCH  11  30
HETATM   30  C22 UNL     1      10.608  18.550  17.010  1.00  0.00     0.081 C 
BRANCH  30  31
HETATM   31  C23 UNL     1      10.447  17.205  16.445  1.00  0.00    -0.052 A 
HETATM   32  C24 UNL     1      10.089  16.084  17.120  1.00  0.00     0.014 A 
HETATM   33  C25 UNL     1       9.911  14.888  16.496  1.00  0.00    -0.061 A 
HETATM   34  C26 UNL     1       9.514  13.642  17.228  1.00  0.00     0.048 C 
HETATM   35  C27 UNL     1      10.090  14.740  15.104  1.00  0.00     0.022 A 
HETATM   36  C28 UNL     1      10.453  15.853  14.389  1.00  0.00     0.015 A 
HETATM   37  C32 UNL     1      10.621  17.049  15.074  1.00  0.00     0.023 A 
BRANCH  36  38
HETATM   38  C29 UNL     1      10.672  15.826  12.960  1.00  0.00     0.147 C 
BRANCH  38  39
HETATM   39  O6  UNL     1      11.891  16.197  12.606  1.00  0.00    -0.346 OA
ATOM     40  H6  UNL     1      12.509  15.478  12.565  1.00  0.00     0.219 HD
ENDBRANCH  38  39
BRANCH  38  41
HETATM   41  N7  UNL     1       9.837  15.483  11.909  1.00  0.00    -0.370 N 
HETATM   42  C30 UNL     1       8.637  16.361  11.732  1.00  0.00     0.151 C 
HETATM   43  C31 UNL     1       9.921  14.428  10.958  1.00  0.00     0.151 C 
ENDBRANCH  38  41
ENDBRANCH  36  38
ENDBRANCH  30  31
ENDBRANCH  11  30
BRANCH   9  44
HETATM   44  C16 UNL     1      10.775  20.701  14.695  1.00  0.00     0.232 C 
BRANCH  44  45
HETATM   45  C17 UNL     1      10.988  20.069  13.328  1.00  0.00     0.237 C 
HETATM   46  O5  UNL     1      11.887  19.218  13.178  1.00  0.00    -0.272 OA
HETATM   47  N6  UNL     1      10.185  20.432  12.231  1.00  0.00    -0.359 N 
HETATM   48  C18 UNL     1       9.153  21.416  12.398  1.00  0.00     0.152 C 
HETATM   49  C19 UNL     1      10.385  19.825  10.946  1.00  0.00     0.152 C 
ENDBRANCH  44  45
ENDBRANCH   9  44
TORSDOF 17
ENDMDL
MODEL 2
REMARK VINA RESULT: -8.327336449      4.912     13.684
REMARK  17 active torsions:
REMARK  status: ('A' for Active; 'I' for Inactive)
REMARK    1  A    between atoms: C2_2  and  C3_3 
REMARK    2  A    between atoms: C4_6  and  N2_7 
REMARK    3  A    between atoms: N2_7  and  C5_8 
REMARK    4  A    between atoms: C5_8  and  C6_9 
REMARK    5  A    between atoms: C5_8  and  C13_20 
REMARK    6  A    between atoms: C6_9  and  C7_10 
REMARK    7  A    between atoms: C7_10  and  C8_11 
REMARK    8  A    between atoms: C8_11  and  N3_12 
REMARK       I    between atoms: N3_12  and  C9_14 
REMARK    9  A    between atoms: C9_14  and  O2_16 
REMARK   10  A    between atoms: O2_16  and  C10_17 
REMARK   11  A    between atoms: N5_27  and  C16_28 
REMARK   12  A    between atoms: C16_28  and  C17_29 
REMARK       I    between atoms: C17_29  and  N6_31 
REMARK   13  A    between atoms: C21_35  and  C22_36 
REMARK   14  A    between atoms: C22_36  and  C23_37 
REMARK   15  A    between atoms: C28_42  and  C29_43 
REMARK   16  A    between atoms: C29_43  and  O6_44 
REMARK   17  A    between atoms: C29_43  and  N7_46 
ROOT
HETATM    1  C3  UNL     1      21.039  26.345  15.629  1.00  0.00     0.020 A 
HETATM    2  N1  UNL     1      20.123  25.381  15.425  1.00  0.00    -0.333 N 
ATOM      3  H1  UNL     1      19.817  25.217  14.465  1.00  0.00     0.168 HD
HETATM    4  C4  UNL     1      19.577  24.615  16.395  1.00  0.00     0.203 A 
HETATM    5  C14 UNL     1      20.031  24.881  17.694  1.00  0.00     0.119 A 
HETATM    6  N4  UNL     1      19.688  24.259  18.837  1.00  0.00    -0.346 N 
ATOM      7  H4  UNL     1      19.019  23.497  18.944  1.00  0.00     0.167 HD
HETATM    8  C15 UNL     1      20.391  24.833  19.790  1.00  0.00     0.184 A 
HETATM    9  N5  UNL     1      21.196  25.838  19.250  1.00  0.00    -0.332 N 
HETATM   10  C20 UNL     1      20.973  25.865  17.950  1.00  0.00     0.076 A 
HETATM   11  C21 UNL     1      21.501  26.624  16.898  1.00  0.00    -0.002 A 
ENDROOT
BRANCH   4  12
HETATM   12  N2  UNL     1      18.756  23.763  16.225  1.00  0.00    -0.412 NA
BRANCH  12  13
HETATM   13  C5  UNL     1      17.832  22.798  16.027  1.00  0.00     0.266 C 
BRANCH  13  14
HETATM   14  C6  UNL     1      16.393  23.347  16.040  1.00  0.00     0.052 C 
BRANCH  14  15
HETATM   15  C7  UNL     1      16.040  24.199  17.182  1.00  0.00     0.023 C 
BRANCH  15  16
HETATM   16  C8  UNL     1      14.751  23.847  17.890  1.00  0.00     0.125 C 
BRANCH  16  17
HETATM   17  N3  UNL     1      14.917  22.695  18.745  1.00  0.00    -0.337 N 
HETATM   18  C9  UNL     1      14.256  21.497  18.404  1.00  0.00     0.360 C 
HETATM   19  O1  UNL     1      13.522  21.391  17.376  1.00  0.00    -0.239 OA
ATOM     20  H3  UNL     1      15.500  22.747  19.581  1.00  0.00     0.164 HD
BRANCH  18  21
HETATM   21  O2  UNL     1      14.381  20.366  19.184  1.00  0.00    -0.299 OA
BRANCH  21  22
HETATM   22  C10 UNL     1      13.425  19.313  19.134  1.00  0.00     0.125 C 
HETATM   23  C11 UNL     1      12.920  18.926  20.492  1.00  0.00     0.040 C 
HETATM   24  C12 UNL     1      14.113  18.123  18.488  1.00  0.00     0.040 C 
ENDBRANCH  21  22
ENDBRANCH  18  21
ENDBRANCH  16  17
ENDBRANCH  15  16
ENDBRANCH  14  15
ENDBRANCH  13  14
BRANCH  13  25
HETATM   25  C13 UNL     1      17.901  21.693  17.037  1.00  0.00     0.210 C 
HETATM   26  O3  UNL     1      17.905  20.523  16.576  1.00  0.00    -0.646 OA
HETATM   27  O4  UNL     1      17.953  21.871  18.379  1.00  0.00    -0.646 OA
ENDBRANCH  13  25
ENDBRANCH  12  13
ENDBRANCH   4  12
BRANCH   1  28
HETATM   28  C2  UNL     1      21.447  27.061  14.390  1.00  0.00     0.053 C 
HETATM   29  C1  UNL     1      20.625  28.304  14.154  1.00  0.00     0.011 C 
ENDBRANCH   1  28
BRANCH  11  30
HETATM   30  C22 UNL     1      22.542  27.586  17.117  1.00  0.00     0.081 C 
BRANCH  30  31
HETATM   31  C23 UNL     1      23.933  27.304  16.746  1.00  0.00    -0.052 A 
HETATM   32  C24 UNL     1      24.663  27.950  15.803  1.00  0.00     0.014 A 
HETATM   33  C25 UNL     1      25.970  27.652  15.567  1.00  0.00    -0.061 A 
HETATM   34  C26 UNL     1      26.790  28.357  14.529  1.00  0.00     0.048 C 
HETATM   35  C27 UNL     1      26.647  26.646  16.291  1.00  0.00     0.022 A 
HETATM   36  C28 UNL     1      25.939  25.972  17.253  1.00  0.00     0.015 A 
HETATM   37  C32 UNL     1      24.609  26.316  17.453  1.00  0.00     0.023 A 
BRANCH  36  38
HETATM   38  C29 UNL     1      26.520  24.918  18.054  1.00  0.00     0.147 C 
BRANCH  38  39
HETATM   39  O6  UNL     1      25.778  23.824  18.108  1.00  0.00    -0.346 OA
ATOM     40  H6  UNL     1      26.103  23.118  17.562  1.00  0.00     0.219 HD
ENDBRANCH  38  39
BRANCH  38  41
HETATM   41  N7  UNL     1      27.706  24.855  18.768  1.00  0.00    -0.370 N 
HETATM   42  C30 UNL     1      27.569  25.019  20.250  1.00  0.00     0.151 C 
HETATM   43  C31 UNL     1      29.046  24.661  18.333  1.00  0.00     0.151 C 
ENDBRANCH  38  41
ENDBRANCH  36  38
ENDBRANCH  30  31
ENDBRANCH  11  30
BRANCH   9  44
HETATM   44  C16 UNL     1      21.990  26.662  20.092  1.00  0.00     0.232 C 
BRANCH  44  45
HETATM   45  C17 UNL     1      22.972  25.737  20.797  1.00  0.00     0.237 C 
HETATM   46  O5  UNL     1      23.704  24.988  20.121  1.00  0.00    -0.272 OA
HETATM   47  N6  UNL     1      23.064  25.716  22.201  1.00  0.00    -0.359 N 
HETATM   48  C18 UNL     1      22.218  26.571  22.984  1.00  0.00     0.152 C 
HETATM   49  C19 UNL     1      23.999  24.848  22.858  1.00  0.00     0.152 C 
ENDBRANCH  44  45
ENDBRANCH   9  44
TORSDOF 17
ENDMDL
MODEL 3
REMARK VINA RESULT: -8.271981064      4.629     13.351
REMARK  17 active torsions:
REMARK  status: ('A' for Active; 'I' for Inactive)
REMARK    1  A    between atoms: C2_2  and  C3_3 
REMARK    2  A    between atoms: C4_6  and  N2_7 
REMARK    3  A    between atoms: N2_7  and  C5_8 
REMARK    4  A    between atoms: C5_8  and  C6_9 
REMARK    5  A    between atoms: C5_8  and  C13_20 
REMARK    6  A    between atoms: C6_9  and  C7_10 
REMARK    7  A    between atoms: C7_10  and  C8_11 
REMARK    8  A    between atoms: C8_11  and  N3_12 
REMARK       I    between atoms: N3_12  and  C9_14 
REMARK    9  A    between atoms: C9_14  and  O2_16 
REMARK   10  A    between atoms: O2_16  and  C10_17 
REMARK   11  A    between atoms: N5_27  and  C16_28 
REMARK   12  A    between atoms: C16_28  and  C17_29 
REMARK       I    between atoms: C17_29  and  N6_31 
REMARK   13  A    between atoms: C21_35  and  C22_36 
REMARK   14  A    between atoms: C22_36  and  C23_37 
REMARK   15  A    between atoms: C28_42  and  C29_43 
REMARK   16  A    between atoms: C29_43  and  O6_44 
REMARK   17  A    between atoms: C29_43  and  N7_46 
ROOT
HETATM    1  C3  UNL     1      20.428  26.098  15.728  1.00  0.00     0.020 A 
HETATM    2  N1  UNL     1      19.671  25.004  15.527  1.00  0.00    -0.333 N 
ATOM      3  H1  UNL     1      19.433  24.766  14.564  1.00  0.00     0.168 HD
HETATM    4  C4  UNL     1      19.204  24.196  16.505  1.00  0.00     0.203 A 
HETATM    5  C14 UNL     1      19.560  24.568  17.809  1.00  0.00     0.119 A 
HETATM    6  N4  UNL     1      19.265  23.940  18.961  1.00  0.00    -0.346 N 
ATOM      7  H4  UNL     1      18.711  23.090  19.072  1.00  0.00     0.167 HD
HETATM    8  C15 UNL     1      19.836  24.641  19.917  1.00  0.00     0.184 A 
HETATM    9  N5  UNL     1      20.507  25.736  19.369  1.00  0.00    -0.332 N 
HETATM   10  C20 UNL     1      20.336  25.688  18.061  1.00  0.00     0.076 A 
HETATM   11  C21 UNL     1      20.791  26.483  17.002  1.00  0.00    -0.002 A 
ENDROOT
BRANCH   4  12
HETATM   12  N2  UNL     1      18.524  23.228  16.338  1.00  0.00    -0.412 NA
BRANCH  12  13
HETATM   13  C5  UNL     1      17.762  22.129  16.146  1.00  0.00     0.266 C 
BRANCH  13  14
HETATM   14  C6  UNL     1      16.333  22.474  15.689  1.00  0.00     0.052 C 
BRANCH  14  15
HETATM   15  C7  UNL     1      15.787  23.743  16.187  1.00  0.00     0.023 C 
BRANCH  15  16
HETATM   16  C8  UNL     1      14.699  23.625  17.230  1.00  0.00     0.125 C 
BRANCH  16  17
HETATM   17  N3  UNL     1      14.034  22.345  17.155  1.00  0.00    -0.337 N 
HETATM   18  C9  UNL     1      13.965  21.548  18.316  1.00  0.00     0.360 C 
HETATM   19  O1  UNL     1      14.465  21.910  19.424  1.00  0.00    -0.239 OA
ATOM     20  H3  UNL     1      13.621  22.023  16.279  1.00  0.00     0.164 HD
BRANCH  18  21
HETATM   21  O2  UNL     1      13.339  20.318  18.302  1.00  0.00    -0.299 OA
BRANCH  21  22
HETATM   22  C10 UNL     1      13.810  19.231  19.090  1.00  0.00     0.125 C 
HETATM   23  C11 UNL     1      14.103  18.009  18.271  1.00  0.00     0.040 C 
HETATM   24  C12 UNL     1      12.721  18.916  20.103  1.00  0.00     0.040 C 
ENDBRANCH  21  22
ENDBRANCH  18  21
ENDBRANCH  16  17
ENDBRANCH  15  16
ENDBRANCH  14  15
ENDBRANCH  13  14
BRANCH  13  25
HETATM   25  C13 UNL     1      17.648  21.266  17.366  1.00  0.00     0.210 C 
HETATM   26  O3  UNL     1      16.711  20.426  17.361  1.00  0.00    -0.646 OA
HETATM   27  O4  UNL     1      18.466  21.333  18.444  1.00  0.00    -0.646 OA
ENDBRANCH  13  25
ENDBRANCH  12  13
ENDBRANCH   4  12
BRANCH   1  28
HETATM   28  C2  UNL     1      20.777  26.827  14.479  1.00  0.00     0.053 C 
HETATM   29  C1  UNL     1      19.900  28.035  14.259  1.00  0.00     0.011 C 
ENDBRANCH   1  28
BRANCH  11  30
HETATM   30  C22 UNL     1      21.669  27.595  17.222  1.00  0.00     0.081 C 
BRANCH  30  31
HETATM   31  C23 UNL     1      23.090  27.530  16.858  1.00  0.00    -0.052 A 
HETATM   32  C24 UNL     1      23.744  28.362  16.009  1.00  0.00     0.014 A 
HETATM   33  C25 UNL     1      25.080  28.256  15.776  1.00  0.00    -0.061 A 
HETATM   34  C26 UNL     1      25.817  29.168  14.843  1.00  0.00     0.048 C 
HETATM   35  C27 UNL     1      25.869  27.268  16.403  1.00  0.00     0.022 A 
HETATM   36  C28 UNL     1      25.241  26.408  17.268  1.00  0.00     0.015 A 
HETATM   37  C32 UNL     1      23.876  26.561  17.471  1.00  0.00     0.023 A 
BRANCH  36  38
HETATM   38  C29 UNL     1      25.940  25.351  17.964  1.00  0.00     0.147 C 
BRANCH  38  39
HETATM   39  O6  UNL     1      26.233  24.316  17.196  1.00  0.00    -0.346 OA
ATOM     40  H6  UNL     1      26.719  23.635  17.646  1.00  0.00     0.219 HD
ENDBRANCH  38  39
BRANCH  38  41
HETATM   41  N7  UNL     1      26.353  25.237  19.282  1.00  0.00    -0.370 N 
HETATM   42  C30 UNL     1      26.774  26.517  19.934  1.00  0.00     0.151 C 
HETATM   43  C31 UNL     1      26.447  24.100  20.133  1.00  0.00     0.151 C 
ENDBRANCH  38  41
ENDBRANCH  36  38
ENDBRANCH  30  31
ENDBRANCH  11  30
BRANCH   9  44
HETATM   44  C16 UNL     1      21.136  26.695  20.208  1.00  0.00     0.232 C 
BRANCH  44  45
HETATM   45  C17 UNL     1      22.308  25.984  20.869  1.00  0.00     0.237 C 
HETATM   46  O5  UNL     1      23.047  25.250  20.185  1.00  0.00    -0.272 OA
HETATM   47  N6  UNL     1      22.570  26.146  22.242  1.00  0.00    -0.359 N 
HETATM   48  C18 UNL     1      21.717  26.986  23.036  1.00  0.00     0.152 C 
HETATM   49  C19 UNL     1      23.682  25.481  22.857  1.00  0.00     0.152 C 
ENDBRANCH  44  45
ENDBRANCH   9  44
TORSDOF 17
ENDMDL
MODEL 4
REMARK VINA RESULT: -8.257630810      4.880     13.939
REMARK  17 active torsions:
REMARK  status: ('A' for Active; 'I' for Inactive)
REMARK    1  A    between atoms: C2_2  and  C3_3 
REMARK    2  A    between atoms: C4_6  and  N2_7 
REMARK    3  A    between atoms: N2_7  and  C5_8 
REMARK    4  A    between atoms: C5_8  and  C6_9 
REMARK    5  A    between atoms: C5_8  and  C13_20 
REMARK    6  A    between atoms: C6_9  and  C7_10 
REMARK    7  A    between atoms: C7_10  and  C8_11 
REMARK    8  A    between atoms: C8_11  and  N3_12 
REMARK       I    between atoms: N3_12  and  C9_14 
REMARK    9  A    between atoms: C9_14  and  O2_16 
REMARK   10  A    between atoms: O2_16  and  C10_17 
REMARK   11  A    between atoms: N5_27  and  C16_28 
REMARK   12  A    between atoms: C16_28  and  C17_29 
REMARK       I    between atoms: C17_29  and  N6_31 
REMARK   13  A    between atoms: C21_35  and  C22_36 
REMARK   14  A    between atoms: C22_36  and  C23_37 
REMARK   15  A    between atoms: C28_42  and  C29_43 
REMARK   16  A    between atoms: C29_43  and  O6_44 
REMARK   17  A    between atoms: C29_43  and  N7_46 
ROOT
HETATM    1  C3  UNL     1      21.182  26.224  15.650  1.00  0.00     0.020 A 
HETATM    2  N1  UNL     1      20.257  25.267  15.454  1.00  0.00    -0.333 N 
ATOM      3  H1  UNL     1      20.014  25.035  14.491  1.00  0.00     0.168 HD
HETATM    4  C4  UNL     1      19.626  24.589  16.438  1.00  0.00     0.203 A 
HETATM    5  C14 UNL     1      19.996  24.945  17.742  1.00  0.00     0.119 A 
HETATM    6  N4  UNL     1      19.560  24.421  18.902  1.00  0.00    -0.346 N 
ATOM      7  H4  UNL     1      18.864  23.683  19.018  1.00  0.00     0.167 HD
HETATM    8  C15 UNL     1      20.209  25.051  19.856  1.00  0.00     0.184 A 
HETATM    9  N5  UNL     1      21.075  25.994  19.300  1.00  0.00    -0.332 N 
HETATM   10  C20 UNL     1      20.944  25.926  17.989  1.00  0.00     0.076 A 
HETATM   11  C21 UNL     1      21.563  26.591  16.924  1.00  0.00    -0.002 A 
ENDROOT
BRANCH   4  12
HETATM   12  N2  UNL     1      18.796  23.744  16.275  1.00  0.00    -0.412 NA
BRANCH  12  13
HETATM   13  C5  UNL     1      17.863  22.784  16.094  1.00  0.00     0.266 C 
BRANCH  13  14
HETATM   14  C6  UNL     1      16.427  23.334  16.171  1.00  0.00     0.052 C 
BRANCH  14  15
HETATM   15  C7  UNL     1      16.077  24.047  17.406  1.00  0.00     0.023 C 
BRANCH  15  16
HETATM   16  C8  UNL     1      14.707  23.748  17.970  1.00  0.00     0.125 C 
BRANCH  16  17
HETATM   17  N3  UNL     1      14.744  22.625  18.878  1.00  0.00    -0.337 N 
HETATM   18  C9  UNL     1      14.162  21.407  18.473  1.00  0.00     0.360 C 
HETATM   19  O1  UNL     1      13.606  21.256  17.343  1.00  0.00    -0.239 OA
ATOM     20  H3  UNL     1      15.182  22.713  19.796  1.00  0.00     0.164 HD
BRANCH  18  21
HETATM   21  O2  UNL     1      14.171  20.302  19.300  1.00  0.00    -0.299 OA
BRANCH  21  22
HETATM   22  C10 UNL     1      13.216  19.256  19.161  1.00  0.00     0.125 C 
HETATM   23  C11 UNL     1      12.563  18.892  20.462  1.00  0.00     0.040 C 
HETATM   24  C12 UNL     1      13.960  18.050  18.610  1.00  0.00     0.040 C 
ENDBRANCH  21  22
ENDBRANCH  18  21
ENDBRANCH  16  17
ENDBRANCH  15  16
ENDBRANCH  14  15
ENDBRANCH  13  14
BRANCH  13  25
HETATM   25  C13 UNL     1      17.968  21.661  17.081  1.00  0.00     0.210 C 
HETATM   26  O3  UNL     1      17.584  20.534  16.676  1.00  0.00    -0.646 OA
HETATM   27  O4  UNL     1      18.434  21.781  18.347  1.00  0.00    -0.646 OA
ENDBRANCH  13  25
ENDBRANCH  12  13
ENDBRANCH   4  12
BRANCH   1  28
HETATM   28  C2  UNL     1      21.693  26.834  14.392  1.00  0.00     0.053 C 
HETATM   29  C1  UNL     1      20.875  28.028  13.965  1.00  0.00     0.011 C 
ENDBRANCH   1  28
BRANCH  11  30
HETATM   30  C22 UNL     1      22.611  27.545  17.142  1.00  0.00     0.081 C 
BRANCH  30  31
HETATM   31  C23 UNL     1      24.022  27.181  16.973  1.00  0.00    -0.052 A 
HETATM   32  C24 UNL     1      24.626  26.056  17.432  1.00  0.00     0.014 A 
HETATM   33  C25 UNL     1      25.933  25.779  17.177  1.00  0.00    -0.061 A 
HETATM   34  C26 UNL     1      26.613  24.540  17.676  1.00  0.00     0.048 C 
HETATM   35  C27 UNL     1      26.745  26.649  16.418  1.00  0.00     0.022 A 
HETATM   36  C28 UNL     1      26.168  27.797  15.938  1.00  0.00     0.015 A 
HETATM   37  C32 UNL     1      24.831  28.031  16.227  1.00  0.00     0.023 A 
BRANCH  36  38
HETATM   38  C29 UNL     1      26.898  28.769  15.155  1.00  0.00     0.147 C 
BRANCH  38  39
HETATM   39  O6  UNL     1      27.312  28.304  13.988  1.00  0.00    -0.346 OA
ATOM     40  H6  UNL     1      28.257  28.246  13.917  1.00  0.00     0.219 HD
ENDBRANCH  38  39
BRANCH  38  41
HETATM   41  N7  UNL     1      27.235  30.089  15.411  1.00  0.00    -0.370 N 
HETATM   42  C30 UNL     1      28.696  30.347  15.613  1.00  0.00     0.151 C 
HETATM   43  C31 UNL     1      26.425  31.254  15.517  1.00  0.00     0.151 C 
ENDBRANCH  38  41
ENDBRANCH  36  38
ENDBRANCH  30  31
ENDBRANCH  11  30
BRANCH   9  44
HETATM   44  C16 UNL     1      21.831  26.864  20.132  1.00  0.00     0.232 C 
BRANCH  44  45
HETATM   45  C17 UNL     1      22.819  25.986  20.887  1.00  0.00     0.237 C 
HETATM   46  O5  UNL     1      23.604  25.257  20.250  1.00  0.00    -0.272 OA
HETATM   47  N6  UNL     1      22.859  25.988  22.293  1.00  0.00    -0.359 N 
HETATM   48  C18 UNL     1      21.951  26.821  23.031  1.00  0.00     0.152 C 
HETATM   49  C19 UNL     1      23.799  25.165  22.999  1.00  0.00     0.152 C 
ENDBRANCH  44  45
ENDBRANCH   9  44
TORSDOF 17
ENDMDL
MODEL 5
REMARK VINA RESULT: -8.124339985      1.484      2.384
REMARK  17 active torsions:
REMARK  status: ('A' for Active; 'I' for Inactive)
REMARK    1  A    between atoms: C2_2  and  C3_3 
REMARK    2  A    between atoms: C4_6  and  N2_7 
REMARK    3  A    between atoms: N2_7  and  C5_8 
REMARK    4  A    between atoms: C5_8  and  C6_9 
REMARK    5  A    between atoms: C5_8  and  C13_20 
REMARK    6  A    between atoms: C6_9  and  C7_10 
REMARK    7  A    between atoms: C7_10  and  C8_11 
REMARK    8  A    between atoms: C8_11  and  N3_12 
REMARK       I    between atoms: N3_12  and  C9_14 
REMARK    9  A    between atoms: C9_14  and  O2_16 
REMARK   10  A    between atoms: O2_16  and  C10_17 
REMARK   11  A    between atoms: N5_27  and  C16_28 
REMARK   12  A    between atoms: C16_28  and  C17_29 
REMARK       I    between atoms: C17_29  and  N6_31 
REMARK   13  A    between atoms: C21_35  and  C22_36 
REMARK   14  A    between atoms: C22_36  and  C23_37 
REMARK   15  A    between atoms: C28_42  and  C29_43 
REMARK   16  A    between atoms: C29_43  and  O6_44 
REMARK   17  A    between atoms: C29_43  and  N7_46 
ROOT
HETATM    1  C3  UNL     1      12.522  18.714  18.012  1.00  0.00     0.020 A 
HETATM    2  N1  UNL     1      13.771  19.153  18.255  1.00  0.00    -0.333 N 
ATOM      3  H1  UNL     1      14.265  18.751  19.051  1.00  0.00     0.168 HD
HETATM    4  C4  UNL     1      14.418  20.087  17.524  1.00  0.00     0.203 A 
HETATM    5  C14 UNL     1      13.694  20.607  16.442  1.00  0.00     0.119 A 
HETATM    6  N4  UNL     1      14.096  21.516  15.534  1.00  0.00    -0.346 N 
ATOM      7  H4  UNL     1      14.998  21.993  15.501  1.00  0.00     0.167 HD
HETATM    8  C15 UNL     1      13.091  21.667  14.699  1.00  0.00     0.184 A 
HETATM    9  N5  UNL     1      12.030  20.843  15.076  1.00  0.00    -0.332 N 
HETATM   10  C20 UNL     1      12.406  20.184  16.156  1.00  0.00     0.076 A 
HETATM   11  C21 UNL     1      11.791  19.212  16.953  1.00  0.00    -0.002 A 
ENDROOT
BRANCH   4  12
HETATM   12  N2  UNL     1      15.523  20.489  17.737  1.00  0.00    -0.412 NA
BRANCH  12  13
HETATM   13  C5  UNL     1      16.774  20.938  17.979  1.00  0.00     0.266 C 
BRANCH  13  14
HETATM   14  C6  UNL     1      16.811  22.018  19.076  1.00  0.00     0.052 C 
BRANCH  14  15
HETATM   15  C7  UNL     1      18.141  22.360  19.597  1.00  0.00     0.023 C 
BRANCH  15  16
HETATM   16  C8  UNL     1      18.392  23.830  19.840  1.00  0.00     0.125 C 
BRANCH  16  17
HETATM   17  N3  UNL     1      18.148  24.612  18.650  1.00  0.00    -0.337 N 
HETATM   18  C9  UNL     1      19.252  25.116  17.933  1.00  0.00     0.360 C 
HETATM   19  O1  UNL     1      20.452  24.912  18.291  1.00  0.00    -0.239 OA
ATOM     20  H3  UNL     1      17.196  24.795  18.334  1.00  0.00     0.164 HD
BRANCH  18  21
HETATM   21  O2  UNL     1      19.077  25.866  16.788  1.00  0.00    -0.299 OA
BRANCH  21  22
HETATM   22  C10 UNL     1      19.299  25.317  15.493  1.00  0.00     0.125 C 
HETATM   23  C11 UNL     1      20.628  25.711  14.919  1.00  0.00     0.040 C 
HETATM   24  C12 UNL     1      18.184  25.834  14.599  1.00  0.00     0.040 C 
ENDBRANCH  21  22
ENDBRANCH  18  21
ENDBRANCH  16  17
ENDBRANCH  15  16
ENDBRANCH  14  15
ENDBRANCH  13  14
BRANCH  13  25
HETATM   25  C13 UNL     1      17.447  21.505  16.766  1.00  0.00     0.210 C 
HETATM   26  O3  UNL     1      18.368  20.807  16.270  1.00  0.00    -0.646 OA
HETATM   27  O4  UNL     1      17.137  22.692  16.190  1.00  0.00    -0.646 OA
ENDBRANCH  13  25
ENDBRANCH  12  13
ENDBRANCH   4  12
BRANCH   1  28
HETATM   28  C2  UNL     1      12.036  17.707  18.993  1.00  0.00     0.053 C 
HETATM   29  C1  UNL     1      12.366  18.090  20.415  1.00  0.00     0.011 C 
ENDBRANCH   1  28
BRANCH  11  30
HETATM   30  C22 UNL     1      10.495  18.687  16.632  1.00  0.00     0.081 C 
BRANCH  30  31
HETATM   31  C23 UNL     1      10.341  17.390  15.963  1.00  0.00    -0.052 A 
HETATM   32  C24 UNL     1      10.804  17.056  14.733  1.00  0.00     0.014 A 
HETATM   33  C25 UNL     1      10.659  15.805  14.219  1.00  0.00    -0.061 A 
HETATM   34  C26 UNL     1      11.166  15.420  12.862  1.00  0.00     0.048 C 
HETATM   35  C27 UNL     1      10.012  14.775  14.936  1.00  0.00     0.022 A 
HETATM   36  C28 UNL     1       9.530  15.077  16.184  1.00  0.00     0.015 A 
HETATM   37  C32 UNL     1       9.706  16.368  16.662  1.00  0.00     0.023 A 
BRANCH  36  38
HETATM   38  C29 UNL     1       8.845  14.110  17.012  1.00  0.00     0.147 C 
BRANCH  38  39
HETATM   39  O6  UNL     1       9.600  13.080  17.357  1.00  0.00    -0.346 OA
ATOM     40  H6  UNL     1      10.494  13.143  17.042  1.00  0.00     0.219 HD
ENDBRANCH  38  39
BRANCH  38  41
HETATM   41  N7  UNL     1       7.548  14.073  17.500  1.00  0.00    -0.370 N 
HETATM   42  C30 UNL     1       6.640  13.091  16.829  1.00  0.00     0.151 C 
HETATM   43  C31 UNL     1       6.923  14.817  18.540  1.00  0.00     0.151 C 
ENDBRANCH  38  41
ENDBRANCH  36  38
ENDBRANCH  30  31
ENDBRANCH  11  30
BRANCH   9  44
HETATM   44  C16 UNL     1      10.794  20.886  14.376  1.00  0.00     0.232 C 
BRANCH  44  45
HETATM   45  C17 UNL     1      11.023  20.169  13.054  1.00  0.00     0.237 C 
HETATM   46  O5  UNL     1      11.990  19.392  12.936  1.00  0.00    -0.272 OA
HETATM   47  N6  UNL     1      10.157  20.369  11.963  1.00  0.00    -0.359 N 
HETATM   48  C18 UNL     1       9.045  21.268  12.092  1.00  0.00     0.152 C 
HETATM   49  C19 UNL     1      10.373  19.682  10.723  1.00  0.00     0.152 C 
ENDBRANCH  44  45
ENDBRANCH   9  44
TORSDOF 17
ENDMDL
