MODEL 1
REMARK VINA RESULT: -9.715879040      0.000      0.000
REMARK  13 active torsions:
REMARK  status: ('A' for Active; 'I' for Inactive)
REMARK    1  A    between atoms: C2_2  and  C3_3 
REMARK    2  A    between atoms: C3_3  and  C4_4 
REMARK    3  A    between atoms: C4_4  and  N1_5 
REMARK    4  A    between atoms: C4_4  and  C19_24 
REMARK    5  A    between atoms: N1_5  and  C5_7 
REMARK    6  A    between atoms: C5_7  and  C6_8 
REMARK    7  A    between atoms: C5_7  and  C13_15 
REMARK    8  A    between atoms: C6_8  and  C7_9 
REMARK    9  A    between atoms: C13_15  and  C14_17 
REMARK       I    between atoms: C14_17  and  N2_19 
REMARK       I    between atoms: N3_28  and  C22_29 
REMARK   10  A    between atoms: C22_29  and  C23_31 
REMARK   11  A    between atoms: C23_31  and  N4_32 
REMARK   12  A    between atoms: C23_31  and  C28_43 
REMARK       I    between atoms: N4_32  and  C24_34 
REMARK   13  A    between atoms: C24_34  and  C25_36 
REMARK       I    between atoms: C25_36  and  N5_38 
REMARK       I    between atoms: N5_38  and  C26_40 
ROOT
HETATM    1  C4  UNL     1      17.899  21.995  18.055  1.00  0.00     0.101 C 
ENDROOT
BRANCH   1   2
HETATM    2  C3  UNL     1      17.975  21.729  19.556  1.00  0.00     0.026 C 
BRANCH   2   3
HETATM    3  C2  UNL     1      19.356  21.612  20.093  1.00  0.00    -0.002 C 
HETATM    4  C1  UNL     1      19.402  21.927  21.545  1.00  0.00     0.005 C 
ENDBRANCH   2   3
ENDBRANCH   1   2
BRANCH   1   5
HETATM    5  N1  UNL     1      17.217  20.944  17.461  1.00  0.00    -0.404 N 
ATOM      6  H1  UNL     1      17.781  20.180  17.088  1.00  0.00     0.154 HD
BRANCH   5   7
HETATM    7  C5  UNL     1      15.834  20.832  17.322  1.00  0.00     0.158 C 
BRANCH   7   8
HETATM    8  C6  UNL     1      15.061  19.618  17.439  1.00  0.00     0.042 C 
BRANCH   8   9
HETATM    9  C7  UNL     1      13.857  19.401  18.246  1.00  0.00    -0.042 C 
HETATM   10  C8  UNL     1      12.536  19.709  17.647  1.00  0.00     0.015 C 
HETATM   11  C9  UNL     1      13.739  17.787  18.388  1.00  0.00     0.009 C 
HETATM   12  C10 UNL     1      12.593  17.736  19.366  1.00  0.00     0.001 C 
HETATM   13  C11 UNL     1      12.784  18.887  20.303  1.00  0.00     0.001 C 
HETATM   14  C12 UNL     1      13.939  19.677  19.707  1.00  0.00     0.009 C 
ENDBRANCH   8   9
ENDBRANCH   7   8
BRANCH   7  15
HETATM   15  C13 UNL     1      15.512  21.562  16.019  1.00  0.00     0.238 C 
HETATM   16  O1  UNL     1      16.472  21.466  15.175  1.00  0.00    -0.285 OA
BRANCH  15  17
HETATM   17  C14 UNL     1      14.357  22.275  15.678  1.00  0.00     0.291 C 
HETATM   18  O2  UNL     1      13.999  23.403  16.130  1.00  0.00    -0.264 OA
HETATM   19  N2  UNL     1      13.427  21.699  14.696  1.00  0.00    -0.345 N 
HETATM   20  C15 UNL     1      12.215  22.325  14.268  1.00  0.00     0.126 C 
HETATM   21  C18 UNL     1      13.613  20.445  14.034  1.00  0.00     0.126 C 
HETATM   22  C16 UNL     1      11.411  21.247  13.617  1.00  0.00     0.021 C 
HETATM   23  C17 UNL     1      12.466  20.296  13.067  1.00  0.00     0.021 C 
ENDBRANCH  15  17
ENDBRANCH   7  15
ENDBRANCH   5   7
ENDBRANCH   1   5
BRANCH   1  24
HETATM   24  C19 UNL     1      17.472  23.361  17.725  1.00  0.00     0.123 C 
HETATM   25  C20 UNL     1      16.597  24.030  18.772  1.00  0.00     0.040 C 
HETATM   26  C21 UNL     1      15.999  25.253  18.154  1.00  0.00     0.100 C 
HETATM   27  S1  UNL     1      17.173  25.640  16.778  1.00  0.00    -0.050 SA
HETATM   28  N3  UNL     1      18.377  24.364  17.315  1.00  0.00    -0.283 N 
HETATM   29  C22 UNL     1      19.733  24.669  17.285  1.00  0.00     0.253 C 
HETATM   30  O3  UNL     1      20.600  23.923  17.804  1.00  0.00    -0.270 OA
BRANCH  29  31
HETATM   31  C23 UNL     1      20.289  25.914  16.634  1.00  0.00     0.181 C 
BRANCH  31  32
HETATM   32  N4  UNL     1      21.725  25.994  16.847  1.00  0.00    -0.339 N 
HETATM   33  C24 UNL     1      22.339  26.709  17.873  1.00  0.00     0.310 C 
HETATM   34  O4  UNL     1      21.645  27.345  18.694  1.00  0.00    -0.262 OA
ATOM     35  H4  UNL     1      22.328  25.489  16.197  1.00  0.00     0.163 HD
BRANCH  33  36
HETATM   36  C25 UNL     1      23.781  26.725  18.007  1.00  0.00     0.316 C 
HETATM   37  O5  UNL     1      24.360  27.256  19.000  1.00  0.00    -0.262 OA
HETATM   38  N5  UNL     1      24.600  26.132  17.004  1.00  0.00    -0.290 N 
HETATM   39  C26 UNL     1      26.001  26.113  17.051  1.00  0.00     0.220 C 
ATOM     40  H5  UNL     1      24.140  25.695  16.206  1.00  0.00     0.172 HD
HETATM   41  C27 UNL     1      26.815  26.700  18.125  1.00  0.00     0.117 C 
HETATM   42  O6  UNL     1      26.628  25.548  16.093  1.00  0.00    -0.274 OA
ENDBRANCH  33  36
ENDBRANCH  31  32
BRANCH  31  43
HETATM   43  C28 UNL     1      20.136  25.744  15.119  1.00  0.00     0.009 C 
HETATM   44  C29 UNL     1      19.813  27.087  14.497  1.00  0.00     0.012 C 
HETATM   45  C30 UNL     1      21.421  25.268  14.497  1.00  0.00     0.012 C 
ENDBRANCH  31  43
ENDBRANCH  29  31
ENDBRANCH   1  24
TORSDOF 13
ENDMDL
MODEL 2
REMARK VINA RESULT: -9.562911644      3.329     10.886
REMARK  13 active torsions:
REMARK  status: ('A' for Active; 'I' for Inactive)
REMARK    1  A    between atoms: C2_2  and  C3_3 
REMARK    2  A    between atoms: C3_3  and  C4_4 
REMARK    3  A    between atoms: C4_4  and  N1_5 
REMARK    4  A    between atoms: C4_4  and  C19_24 
REMARK    5  A    between atoms: N1_5  and  C5_7 
REMARK    6  A    between atoms: C5_7  and  C6_8 
REMARK    7  A    between atoms: C5_7  and  C13_15 
REMARK    8  A    between atoms: C6_8  and  C7_9 
REMARK    9  A    between atoms: C13_15  and  C14_17 
REMARK       I    between atoms: C14_17  and  N2_19 
REMARK       I    between atoms: N3_28  and  C22_29 
REMARK   10  A    between atoms: C22_29  and  C23_31 
REMARK   11  A    between atoms: C23_31  and  N4_32 
REMARK   12  A    between atoms: C23_31  and  C28_43 
REMARK       I    between atoms: N4_32  and  C24_34 
REMARK   13  A    between atoms: C24_34  and  C25_36 
REMARK       I    between atoms: C25_36  and  N5_38 
REMARK       I    between atoms: N5_38  and  C26_40 
ROOT
HETATM    1  C4  UNL     1      16.591  22.193  15.638  1.00  0.00     0.101 C 
ENDROOT
BRANCH   1   2
HETATM    2  C3  UNL     1      16.190  22.951  14.376  1.00  0.00     0.026 C 
BRANCH   2   3
HETATM    3  C2  UNL     1      15.484  22.128  13.359  1.00  0.00    -0.002 C 
HETATM    4  C1  UNL     1      14.019  22.384  13.376  1.00  0.00     0.005 C 
ENDBRANCH   2   3
ENDBRANCH   1   2
BRANCH   1   5
HETATM    5  N1  UNL     1      17.950  22.376  15.842  1.00  0.00    -0.404 N 
ATOM      6  H1  UNL     1      18.570  21.634  15.515  1.00  0.00     0.154 HD
BRANCH   5   7
HETATM    7  C5  UNL     1      18.552  23.476  16.451  1.00  0.00     0.158 C 
BRANCH   7   8
HETATM    8  C6  UNL     1      19.737  24.163  15.993  1.00  0.00     0.042 C 
BRANCH   8   9
HETATM    9  C7  UNL     1      19.886  25.594  15.714  1.00  0.00    -0.042 C 
HETATM   10  C8  UNL     1      20.342  26.486  16.809  1.00  0.00     0.015 C 
HETATM   11  C9  UNL     1      21.164  25.690  14.715  1.00  0.00     0.009 C 
HETATM   12  C10 UNL     1      21.077  27.159  14.388  1.00  0.00     0.001 C 
HETATM   13  C11 UNL     1      19.620  27.489  14.306  1.00  0.00     0.001 C 
HETATM   14  C12 UNL     1      18.914  26.227  14.781  1.00  0.00     0.009 C 
ENDBRANCH   8   9
ENDBRANCH   7   8
BRANCH   7  15
HETATM   15  C13 UNL     1      18.682  23.084  17.923  1.00  0.00     0.238 C 
HETATM   16  O1  UNL     1      18.841  21.820  18.062  1.00  0.00    -0.285 OA
BRANCH  15  17
HETATM   17  C14 UNL     1      18.647  23.908  19.054  1.00  0.00     0.291 C 
HETATM   18  O2  UNL     1      17.619  24.421  19.588  1.00  0.00    -0.264 OA
HETATM   19  N2  UNL     1      19.907  24.244  19.731  1.00  0.00    -0.345 N 
HETATM   20  C15 UNL     1      20.005  25.077  20.889  1.00  0.00     0.126 C 
HETATM   21  C18 UNL     1      21.199  23.780  19.327  1.00  0.00     0.126 C 
HETATM   22  C16 UNL     1      21.442  25.476  20.981  1.00  0.00     0.021 C 
HETATM   23  C17 UNL     1      22.180  24.305  20.345  1.00  0.00     0.021 C 
ENDBRANCH  15  17
ENDBRANCH   7  15
ENDBRANCH   5   7
ENDBRANCH   1   5
BRANCH   1  24
HETATM   24  C19 UNL     1      15.691  22.433  16.773  1.00  0.00     0.123 C 
HETATM   25  C20 UNL     1      14.939  23.753  16.730  1.00  0.00     0.040 C 
HETATM   26  C21 UNL     1      14.335  23.980  18.078  1.00  0.00     0.100 C 
HETATM   27  S1  UNL     1      14.232  22.272  18.780  1.00  0.00    -0.050 SA
HETATM   28  N3  UNL     1      14.734  21.486  17.199  1.00  0.00    -0.283 N 
HETATM   29  C22 UNL     1      14.078  20.331  16.789  1.00  0.00     0.253 C 
HETATM   30  O3  UNL     1      14.235  19.842  15.643  1.00  0.00    -0.270 OA
BRANCH  29  31
HETATM   31  C23 UNL     1      13.121  19.563  17.670  1.00  0.00     0.181 C 
BRANCH  31  32
HETATM   32  N4  UNL     1      12.432  18.543  16.895  1.00  0.00    -0.339 N 
HETATM   33  C24 UNL     1      11.117  18.638  16.447  1.00  0.00     0.310 C 
HETATM   34  O4  UNL     1      10.439  19.655  16.707  1.00  0.00    -0.262 OA
ATOM     35  H4  UNL     1      12.950  17.696  16.662  1.00  0.00     0.163 HD
BRANCH  33  36
HETATM   36  C25 UNL     1      10.517  17.569  15.674  1.00  0.00     0.316 C 
HETATM   37  O5  UNL     1       9.718  17.795  14.718  1.00  0.00    -0.262 OA
HETATM   38  N5  UNL     1      10.816  16.211  15.979  1.00  0.00    -0.290 N 
HETATM   39  C26 UNL     1      10.272  15.118  15.290  1.00  0.00     0.220 C 
ATOM     40  H5  UNL     1      11.465  16.022  16.742  1.00  0.00     0.172 HD
HETATM   41  C27 UNL     1       9.323  15.217  14.172  1.00  0.00     0.117 C 
HETATM   42  O6  UNL     1      10.619  13.944  15.652  1.00  0.00    -0.274 OA
ENDBRANCH  33  36
ENDBRANCH  31  32
BRANCH  31  43
HETATM   43  C28 UNL     1      13.963  18.773  18.678  1.00  0.00     0.009 C 
HETATM   44  C29 UNL     1      13.145  18.533  19.931  1.00  0.00     0.012 C 
HETATM   45  C30 UNL     1      14.334  17.422  18.129  1.00  0.00     0.012 C 
ENDBRANCH  31  43
ENDBRANCH  29  31
ENDBRANCH   1  24
TORSDOF 13
ENDMDL
MODEL 3
REMARK VINA RESULT: -9.304993690      4.143     11.126
REMARK  13 active torsions:
REMARK  status: ('A' for Active; 'I' for Inactive)
REMARK    1  A    between atoms: C2_2  and  C3_3 
REMARK    2  A    between atoms: C3_3  and  C4_4 
REMARK    3  A    between atoms: C4_4  and  N1_5 
REMARK    4  A    between atoms: C4_4  and  C19_24 
REMARK    5  A    between atoms: N1_5  and  C5_7 
REMARK    6  A    between atoms: C5_7  and  C6_8 
REMARK    7  A    between atoms: C5_7  and  C13_15 
REMARK    8  A    between atoms: C6_8  and  C7_9 
REMARK    9  A    between atoms: C13_15  and  C14_17 
REMARK       I    between atoms: C14_17  and  N2_19 
REMARK       I    between atoms: N3_28  and  C22_29 
REMARK   10  A    between atoms: C22_29  and  C23_31 
REMARK   11  A    between atoms: C23_31  and  N4_32 
REMARK   12  A    between atoms: C23_31  and  C28_43 
REMARK       I    between atoms: N4_32  and  C24_34 
REMARK   13  A    between atoms: C24_34  and  C25_36 
REMARK       I    between atoms: C25_36  and  N5_38 
REMARK       I    between atoms: N5_38  and  C26_40 
ROOT
HETATM    1  C4  UNL     1      13.430  22.428  15.014  1.00  0.00     0.101 C 
ENDROOT
BRANCH   1   2
HETATM    2  C3  UNL     1      13.520  22.986  13.597  1.00  0.00     0.026 C 
BRANCH   2   3
HETATM    3  C2  UNL     1      14.095  22.046  12.600  1.00  0.00    -0.002 C 
HETATM    4  C1  UNL     1      15.571  22.193  12.502  1.00  0.00     0.005 C 
ENDBRANCH   2   3
ENDBRANCH   1   2
BRANCH   1   5
HETATM    5  N1  UNL     1      13.798  23.429  15.901  1.00  0.00    -0.404 N 
ATOM      6  H1  UNL     1      13.056  24.042  16.240  1.00  0.00     0.154 HD
BRANCH   5   7
HETATM    7  C5  UNL     1      15.086  23.678  16.374  1.00  0.00     0.158 C 
BRANCH   7   8
HETATM    8  C6  UNL     1      16.288  23.753  15.577  1.00  0.00     0.042 C 
BRANCH   8   9
HETATM    9  C7  UNL     1      17.349  24.760  15.656  1.00  0.00    -0.042 C 
HETATM   10  C8  UNL     1      17.399  25.645  16.845  1.00  0.00     0.015 C 
HETATM   11  C9  UNL     1      18.714  23.907  15.874  1.00  0.00     0.009 C 
HETATM   12  C10 UNL     1      19.702  25.040  15.756  1.00  0.00     0.001 C 
HETATM   13  C11 UNL     1      19.166  25.962  14.707  1.00  0.00     0.001 C 
HETATM   14  C12 UNL     1      17.780  25.418  14.392  1.00  0.00     0.009 C 
ENDBRANCH   8   9
ENDBRANCH   7   8
BRANCH   7  15
HETATM   15  C13 UNL     1      15.266  22.710  17.543  1.00  0.00     0.238 C 
HETATM   16  O1  UNL     1      14.213  22.651  18.272  1.00  0.00    -0.285 OA
BRANCH  15  17
HETATM   17  C14 UNL     1      16.384  21.938  17.876  1.00  0.00     0.291 C 
HETATM   18  O2  UNL     1      16.713  20.822  17.375  1.00  0.00    -0.264 OA
HETATM   19  N2  UNL     1      17.308  22.428  18.909  1.00  0.00    -0.345 N 
HETATM   20  C15 UNL     1      18.480  21.731  19.341  1.00  0.00     0.126 C 
HETATM   21  C18 UNL     1      17.162  23.663  19.614  1.00  0.00     0.126 C 
HETATM   22  C16 UNL     1      18.867  22.357  20.641  1.00  0.00     0.021 C 
HETATM   23  C17 UNL     1      18.367  23.790  20.512  1.00  0.00     0.021 C 
ENDBRANCH  15  17
ENDBRANCH   7  15
ENDBRANCH   5   7
ENDBRANCH   1   5
BRANCH   1  24
HETATM   24  C19 UNL     1      12.178  21.707  15.279  1.00  0.00     0.123 C 
HETATM   25  C20 UNL     1      11.433  21.237  14.041  1.00  0.00     0.040 C 
HETATM   26  C21 UNL     1      10.060  20.822  14.462  1.00  0.00     0.100 C 
HETATM   27  S1  UNL     1      10.275  20.443  16.260  1.00  0.00    -0.050 SA
HETATM   28  N3  UNL     1      12.099  20.623  16.181  1.00  0.00    -0.283 N 
HETATM   29  C22 UNL     1      12.892  19.712  16.869  1.00  0.00     0.253 C 
HETATM   30  O3  UNL     1      14.137  19.657  16.717  1.00  0.00    -0.270 OA
BRANCH  29  31
HETATM   31  C23 UNL     1      12.337  18.707  17.852  1.00  0.00     0.181 C 
BRANCH  31  32
HETATM   32  N4  UNL     1      12.026  17.459  17.174  1.00  0.00    -0.339 N 
HETATM   33  C24 UNL     1      10.807  16.791  17.258  1.00  0.00     0.310 C 
HETATM   34  O4  UNL     1       9.883  17.259  17.958  1.00  0.00    -0.262 OA
ATOM     35  H4  UNL     1      12.754  17.042  16.594  1.00  0.00     0.163 HD
BRANCH  33  36
HETATM   36  C25 UNL     1      10.588  15.551  16.541  1.00  0.00     0.316 C 
HETATM   37  O5  UNL     1      11.110  15.327  15.409  1.00  0.00    -0.262 OA
HETATM   38  N5  UNL     1       9.764  14.534  17.102  1.00  0.00    -0.290 N 
HETATM   39  C26 UNL     1       9.492  13.313  16.470  1.00  0.00     0.220 C 
ATOM     40  H5  UNL     1       9.347  14.705  18.016  1.00  0.00     0.172 HD
HETATM   41  C27 UNL     1      10.009  12.914  15.153  1.00  0.00     0.117 C 
HETATM   42  O6  UNL     1       8.740  12.476  17.075  1.00  0.00    -0.274 OA
ENDBRANCH  33  36
ENDBRANCH  31  32
BRANCH  31  43
HETATM   43  C28 UNL     1      13.469  18.344  18.820  1.00  0.00     0.009 C 
HETATM   44  C29 UNL     1      12.873  17.770  20.089  1.00  0.00     0.012 C 
HETATM   45  C30 UNL     1      14.361  17.284  18.234  1.00  0.00     0.012 C 
ENDBRANCH  31  43
ENDBRANCH  29  31
ENDBRANCH   1  24
TORSDOF 13
ENDMDL
MODEL 4
REMARK VINA RESULT: -9.157943799      3.266     10.334
REMARK  13 active torsions:
REMARK  status: ('A' for Active; 'I' for Inactive)
REMARK    1  A    between atoms: C2_2  and  C3_3 
REMARK    2  A    between atoms: C3_3  and  C4_4 
REMARK    3  A    between atoms: C4_4  and  N1_5 
REMARK    4  A    between atoms: C4_4  and  C19_24 
REMARK    5  A    between atoms: N1_5  and  C5_7 
REMARK    6  A    between atoms: C5_7  and  C6_8 
REMARK    7  A    between atoms: C5_7  and  C13_15 
REMARK    8  A    between atoms: C6_8  and  C7_9 
REMARK    9  A    between atoms: C13_15  and  C14_17 
REMARK       I    between atoms: C14_17  and  N2_19 
REMARK       I    between atoms: N3_28  and  C22_29 
REMARK   10  A    between atoms: C22_29  and  C23_31 
REMARK   11  A    between atoms: C23_31  and  N4_32 
REMARK   12  A    between atoms: C23_31  and  C28_43 
REMARK       I    between atoms: N4_32  and  C24_34 
REMARK   13  A    between atoms: C24_34  and  C25_36 
REMARK       I    between atoms: C25_36  and  N5_38 
REMARK       I    between atoms: N5_38  and  C26_40 
ROOT
HETATM    1  C4  UNL     1      16.657  22.446  15.592  1.00  0.00     0.101 C 
ENDROOT
BRANCH   1   2
HETATM    2  C3  UNL     1      16.117  22.977  14.268  1.00  0.00     0.026 C 
BRANCH   2   3
HETATM    3  C2  UNL     1      15.388  21.972  13.451  1.00  0.00    -0.002 C 
HETATM    4  C1  UNL     1      13.965  22.357  13.259  1.00  0.00     0.005 C 
ENDBRANCH   2   3
ENDBRANCH   1   2
BRANCH   1   5
HETATM    5  N1  UNL     1      17.968  22.878  15.733  1.00  0.00    -0.404 N 
ATOM      6  H1  UNL     1      18.602  22.686  14.957  1.00  0.00     0.154 HD
BRANCH   5   7
HETATM    7  C5  UNL     1      18.502  23.547  16.833  1.00  0.00     0.158 C 
BRANCH   7   8
HETATM    8  C6  UNL     1      18.235  23.254  18.222  1.00  0.00     0.042 C 
BRANCH   8   9
HETATM    9  C7  UNL     1      19.210  23.110  19.306  1.00  0.00    -0.042 C 
HETATM   10  C8  UNL     1      20.567  23.678  19.119  1.00  0.00     0.015 C 
HETATM   11  C9  UNL     1      18.656  24.075  20.491  1.00  0.00     0.009 C 
HETATM   12  C10 UNL     1      19.638  23.688  21.567  1.00  0.00     0.001 C 
HETATM   13  C11 UNL     1      19.890  22.222  21.403  1.00  0.00     0.001 C 
HETATM   14  C12 UNL     1      19.182  21.855  20.106  1.00  0.00     0.009 C 
ENDBRANCH   8   9
ENDBRANCH   7   8
BRANCH   7  15
HETATM   15  C13 UNL     1      18.277  25.029  16.535  1.00  0.00     0.238 C 
HETATM   16  O1  UNL     1      17.628  25.607  17.476  1.00  0.00    -0.285 OA
BRANCH  15  17
HETATM   17  C14 UNL     1      18.679  25.766  15.415  1.00  0.00     0.291 C 
HETATM   18  O2  UNL     1      18.137  25.765  14.270  1.00  0.00    -0.264 OA
HETATM   19  N2  UNL     1      19.848  26.651  15.526  1.00  0.00    -0.345 N 
HETATM   20  C15 UNL     1      20.360  27.450  14.456  1.00  0.00     0.126 C 
HETATM   21  C18 UNL     1      20.622  26.835  16.714  1.00  0.00     0.126 C 
HETATM   22  C16 UNL     1      21.740  27.845  14.870  1.00  0.00     0.021 C 
HETATM   23  C17 UNL     1      21.662  27.878  16.391  1.00  0.00     0.021 C 
ENDBRANCH  15  17
ENDBRANCH   7  15
ENDBRANCH   5   7
ENDBRANCH   1   5
BRANCH   1  24
HETATM   24  C19 UNL     1      15.743  22.658  16.722  1.00  0.00     0.123 C 
HETATM   25  C20 UNL     1      14.906  23.923  16.642  1.00  0.00     0.040 C 
HETATM   26  C21 UNL     1      14.287  24.149  17.985  1.00  0.00     0.100 C 
HETATM   27  S1  UNL     1      14.298  22.458  18.735  1.00  0.00    -0.050 SA
HETATM   28  N3  UNL     1      14.851  21.662  17.177  1.00  0.00    -0.283 N 
HETATM   29  C22 UNL     1      14.274  20.455  16.801  1.00  0.00     0.253 C 
HETATM   30  O3  UNL     1      14.463  19.945  15.670  1.00  0.00    -0.270 OA
BRANCH  29  31
HETATM   31  C23 UNL     1      13.370  19.651  17.706  1.00  0.00     0.181 C 
BRANCH  31  32
HETATM   32  N4  UNL     1      12.622  18.674  16.930  1.00  0.00    -0.339 N 
HETATM   33  C24 UNL     1      11.232  18.614  16.855  1.00  0.00     0.310 C 
HETATM   34  O4  UNL     1      10.535  19.437  17.486  1.00  0.00    -0.262 OA
ATOM     35  H4  UNL     1      13.153  17.983  16.401  1.00  0.00     0.163 HD
BRANCH  33  36
HETATM   36  C25 UNL     1      10.575  17.605  16.050  1.00  0.00     0.316 C 
HETATM   37  O5  UNL     1       9.745  17.903  15.141  1.00  0.00    -0.262 OA
HETATM   38  N5  UNL     1      10.852  16.225  16.265  1.00  0.00    -0.290 N 
HETATM   39  C26 UNL     1      10.253  15.186  15.538  1.00  0.00     0.220 C 
ATOM     40  H5  UNL     1      11.525  15.978  16.990  1.00  0.00     0.172 HD
HETATM   41  C27 UNL     1       9.263  15.370  14.468  1.00  0.00     0.117 C 
HETATM   42  O6  UNL     1      10.585  13.985  15.820  1.00  0.00    -0.274 OA
ENDBRANCH  33  36
ENDBRANCH  31  32
BRANCH  31  43
HETATM   43  C28 UNL     1      14.269  18.807  18.616  1.00  0.00     0.009 C 
HETATM   44  C29 UNL     1      13.592  18.630  19.960  1.00  0.00     0.012 C 
HETATM   45  C30 UNL     1      14.477  17.432  18.044  1.00  0.00     0.012 C 
ENDBRANCH  31  43
ENDBRANCH  29  31
ENDBRANCH   1  24
TORSDOF 13
ENDMDL
MODEL 5
REMARK VINA RESULT: -9.104394418      1.438      3.133
REMARK  13 active torsions:
REMARK  status: ('A' for Active; 'I' for Inactive)
REMARK    1  A    between atoms: C2_2  and  C3_3 
REMARK    2  A    between atoms: C3_3  and  C4_4 
REMARK    3  A    between atoms: C4_4  and  N1_5 
REMARK    4  A    between atoms: C4_4  and  C19_24 
REMARK    5  A    between atoms: N1_5  and  C5_7 
REMARK    6  A    between atoms: C5_7  and  C6_8 
REMARK    7  A    between atoms: C5_7  and  C13_15 
REMARK    8  A    between atoms: C6_8  and  C7_9 
REMARK    9  A    between atoms: C13_15  and  C14_17 
REMARK       I    between atoms: C14_17  and  N2_19 
REMARK       I    between atoms: N3_28  and  C22_29 
REMARK   10  A    between atoms: C22_29  and  C23_31 
REMARK   11  A    between atoms: C23_31  and  N4_32 
REMARK   12  A    between atoms: C23_31  and  C28_43 
REMARK       I    between atoms: N4_32  and  C24_34 
REMARK   13  A    between atoms: C24_34  and  C25_36 
REMARK       I    between atoms: C25_36  and  N5_38 
REMARK       I    between atoms: N5_38  and  C26_40 
ROOT
HETATM    1  C4  UNL     1      17.865  21.878  18.168  1.00  0.00     0.101 C 
ENDROOT
BRANCH   1   2
HETATM    2  C3  UNL     1      18.040  21.679  19.670  1.00  0.00     0.026 C 
BRANCH   2   3
HETATM    3  C2  UNL     1      19.453  21.686  20.133  1.00  0.00    -0.002 C 
HETATM    4  C1  UNL     1      19.545  21.964  21.590  1.00  0.00     0.005 C 
ENDBRANCH   2   3
ENDBRANCH   1   2
BRANCH   1   5
HETATM    5  N1  UNL     1      17.137  20.808  17.669  1.00  0.00    -0.404 N 
ATOM      6  H1  UNL     1      17.575  19.888  17.721  1.00  0.00     0.154 HD
BRANCH   5   7
HETATM    7  C5  UNL     1      15.864  20.870  17.103  1.00  0.00     0.158 C 
BRANCH   7   8
HETATM    8  C6  UNL     1      15.211  22.056  16.600  1.00  0.00     0.042 C 
BRANCH   8   9
HETATM    9  C7  UNL     1      14.869  22.364  15.209  1.00  0.00    -0.042 C 
HETATM   10  C8  UNL     1      15.965  22.705  14.269  1.00  0.00     0.015 C 
HETATM   11  C9  UNL     1      14.381  20.948  14.579  1.00  0.00     0.009 C 
HETATM   12  C10 UNL     1      13.907  21.454  13.241  1.00  0.00     0.001 C 
HETATM   13  C11 UNL     1      13.285  22.792  13.490  1.00  0.00     0.001 C 
HETATM   14  C12 UNL     1      13.597  23.093  14.949  1.00  0.00     0.009 C 
ENDBRANCH   8   9
ENDBRANCH   7   8
BRANCH   7  15
HETATM   15  C13 UNL     1      14.963  20.125  18.087  1.00  0.00     0.238 C 
HETATM   16  O1  UNL     1      14.826  20.772  19.184  1.00  0.00    -0.285 OA
BRANCH  15  17
HETATM   17  C14 UNL     1      14.319  18.894  17.923  1.00  0.00     0.291 C 
HETATM   18  O2  UNL     1      14.833  17.743  18.052  1.00  0.00    -0.264 OA
HETATM   19  N2  UNL     1      12.894  18.877  17.562  1.00  0.00    -0.345 N 
HETATM   20  C15 UNL     1      12.125  17.688  17.362  1.00  0.00     0.126 C 
HETATM   21  C18 UNL     1      12.087  20.042  17.371  1.00  0.00     0.126 C 
HETATM   22  C16 UNL     1      10.896  18.118  16.629  1.00  0.00     0.021 C 
HETATM   23  C17 UNL     1      10.688  19.554  17.093  1.00  0.00     0.021 C 
ENDBRANCH  15  17
ENDBRANCH   7  15
ENDBRANCH   5   7
ENDBRANCH   1   5
BRANCH   1  24
HETATM   24  C19 UNL     1      17.425  23.232  17.805  1.00  0.00     0.123 C 
HETATM   25  C20 UNL     1      16.581  23.935  18.855  1.00  0.00     0.040 C 
HETATM   26  C21 UNL     1      15.962  25.136  18.215  1.00  0.00     0.100 C 
HETATM   27  S1  UNL     1      17.094  25.478  16.793  1.00  0.00    -0.050 SA
HETATM   28  N3  UNL     1      18.316  24.222  17.336  1.00  0.00    -0.283 N 
HETATM   29  C22 UNL     1      19.670  24.527  17.255  1.00  0.00     0.253 C 
HETATM   30  O3  UNL     1      20.553  23.800  17.773  1.00  0.00    -0.270 OA
BRANCH  29  31
HETATM   31  C23 UNL     1      20.203  25.750  16.547  1.00  0.00     0.181 C 
BRANCH  31  32
HETATM   32  N4  UNL     1      21.635  25.876  16.771  1.00  0.00    -0.339 N 
HETATM   33  C24 UNL     1      22.220  26.708  17.724  1.00  0.00     0.310 C 
HETATM   34  O4  UNL     1      21.503  27.417  18.461  1.00  0.00    -0.262 OA
ATOM     35  H4  UNL     1      22.256  25.315  16.189  1.00  0.00     0.163 HD
BRANCH  33  36
HETATM   36  C25 UNL     1      23.660  26.762  17.877  1.00  0.00     0.316 C 
HETATM   37  O5  UNL     1      24.211  27.314  18.874  1.00  0.00    -0.262 OA
HETATM   38  N5  UNL     1      24.507  26.185  16.889  1.00  0.00    -0.290 N 
HETATM   39  C26 UNL     1      25.908  26.203  16.954  1.00  0.00     0.220 C 
ATOM     40  H5  UNL     1      24.070  25.731  16.087  1.00  0.00     0.172 HD
HETATM   41  C27 UNL     1      26.691  26.817  18.035  1.00  0.00     0.117 C 
HETATM   42  O6  UNL     1      26.562  25.648  16.008  1.00  0.00    -0.274 OA
ENDBRANCH  33  36
ENDBRANCH  31  32
BRANCH  31  43
HETATM   43  C28 UNL     1      20.073  25.499  15.041  1.00  0.00     0.009 C 
HETATM   44  C29 UNL     1      19.566  26.758  14.367  1.00  0.00     0.012 C 
HETATM   45  C30 UNL     1      21.411  25.181  14.430  1.00  0.00     0.012 C 
ENDBRANCH  31  43
ENDBRANCH  29  31
ENDBRANCH   1  24
TORSDOF 13
ENDMDL
