MODEL 1
REMARK VINA RESULT: -8.862251241      0.000      0.000
REMARK  14 active torsions:
REMARK  status: ('A' for Active; 'I' for Inactive)
REMARK    1  A    between atoms: C2_2  and  C3_3 
REMARK    2  A    between atoms: C2_2  and  C14_20 
REMARK    3  A    between atoms: C3_3  and  C4_4 
REMARK    4  A    between atoms: C4_4  and  N1_5 
REMARK    5  A    between atoms: C13_15  and  N3_16 
REMARK    6  A    between atoms: C14_20  and  N4_21 
REMARK       I    between atoms: N5_25  and  C18_26 
REMARK       I    between atoms: C18_26  and  N6_28 
REMARK    7  A    between atoms: N6_28  and  C19_30 
REMARK    8  A    between atoms: C19_30  and  C20_31 
REMARK    9  A    between atoms: C20_31  and  C21_32 
REMARK   10  A    between atoms: C21_32  and  C22_33 
REMARK   11  A    between atoms: C22_33  and  C23_34 
REMARK   12  A    between atoms: C24_35  and  N7_36 
REMARK   13  A    between atoms: C26_38  and  C27_39 
REMARK   14  A    between atoms: C27_39  and  O2_42 
ROOT
HETATM    1  N4  UNL     1      11.756  19.636  12.894  1.00  0.00    -0.333 N 
HETATM    2  C15 UNL     1      10.444  20.213  13.111  1.00  0.00     0.129 C 
HETATM    3  C16 UNL     1      10.613  21.723  13.122  1.00  0.00     0.040 C 
HETATM    4  C17 UNL     1      11.460  22.170  14.292  1.00  0.00     0.140 C 
HETATM    5  N5  UNL     1      12.676  21.412  14.321  1.00  0.00    -0.252 N 
HETATM    6  C18 UNL     1      13.711  21.739  15.272  1.00  0.00     0.326 C 
HETATM    7  O1  UNL     1      14.770  21.070  15.286  1.00  0.00    -0.247 OA
HETATM    8  N6  UNL     1      13.495  22.824  16.174  1.00  0.00    -0.343 N 
ATOM      9  H6  UNL     1      12.619  23.345  16.138  1.00  0.00     0.164 HD
HETATM   10  C31 UNL     1      12.876  20.332  13.419  1.00  0.00     0.328 C 
HETATM   11  O5  UNL     1      14.053  20.011  13.102  1.00  0.00    -0.246 OA
ENDROOT
BRANCH   8  12
HETATM   12  C19 UNL     1      14.490  23.185  17.124  1.00  0.00     0.124 C 
BRANCH  12  13
HETATM   13  C20 UNL     1      14.402  22.451  18.391  1.00  0.00     0.020 C 
BRANCH  13  14
HETATM   14  C21 UNL     1      15.574  21.678  18.886  1.00  0.00     0.005 C 
BRANCH  14  15
HETATM   15  C22 UNL     1      16.829  22.389  19.173  1.00  0.00     0.028 C 
BRANCH  15  16
HETATM   16  C23 UNL     1      17.991  21.886  18.388  1.00  0.00    -0.009 C 
HETATM   17  C24 UNL     1      18.194  22.179  16.986  1.00  0.00     0.092 C 
BRANCH  17  18
HETATM   18  N7  UNL     1      18.303  23.464  16.411  1.00  0.00    -0.302 N 
HETATM   19  C25 UNL     1      19.330  24.460  16.761  1.00  0.00     0.169 C 
HETATM   20  C26 UNL     1      18.752  25.740  16.268  1.00  0.00     0.185 C 
HETATM   21  O3  UNL     1      17.549  25.447  15.626  1.00  0.00    -0.293 OA
HETATM   22  C30 UNL     1      17.510  24.097  15.398  1.00  0.00     0.367 C 
HETATM   23  O4  UNL     1      16.894  23.521  14.473  1.00  0.00    -0.238 OA
BRANCH  20  24
HETATM   24  C27 UNL     1      19.697  26.510  15.370  1.00  0.00     0.079 C 
HETATM   25  C28 UNL     1      18.867  27.006  14.183  1.00  0.00     0.048 C 
HETATM   26  C29 UNL     1      20.848  25.696  14.877  1.00  0.00     0.048 C 
BRANCH  24  27
HETATM   27  O2  UNL     1      20.169  27.648  16.015  1.00  0.00    -0.388 OA
ATOM     28  H2  UNL     1      20.884  28.038  15.527  1.00  0.00     0.210 HD
ENDBRANCH  24  27
ENDBRANCH  20  24
ENDBRANCH  17  18
ENDBRANCH  15  16
ENDBRANCH  14  15
ENDBRANCH  13  14
ENDBRANCH  12  13
ENDBRANCH   8  12
BRANCH   1  29
HETATM   29  C14 UNL     1      11.976  18.407  12.182  1.00  0.00     0.132 C 
BRANCH  29  30
HETATM   30  C2  UNL     1      10.926  17.407  12.605  1.00  0.00     0.001 C 
HETATM   31  C1  UNL     1      10.734  16.318  11.578  1.00  0.00     0.011 C 
BRANCH  30  32
HETATM   32  C3  UNL     1      11.208  16.829  13.973  1.00  0.00     0.026 C 
BRANCH  32  33
HETATM   33  C4  UNL     1       9.956  16.825  14.844  1.00  0.00     0.124 C 
BRANCH  33  34
HETATM   34  N1  UNL     1      10.324  17.277  16.139  1.00  0.00    -0.366 N 
HETATM   35  C5  UNL     1      10.418  18.663  16.332  1.00  0.00     0.062 C 
HETATM   36  C6  UNL     1      11.742  19.191  16.791  1.00  0.00     0.086 C 
HETATM   37  C7  UNL     1      12.178  18.394  17.989  1.00  0.00     0.167 C 
HETATM   38  C8  UNL     1      11.282  18.643  19.166  1.00  0.00     0.044 C 
HETATM   39  N2  UNL     1      13.466  18.822  18.498  1.00  0.00     0.094 N 
HETATM   40  C12 UNL     1      12.285  16.962  17.595  1.00  0.00     0.096 C 
HETATM   41  C9  UNL     1      12.104  18.154  20.332  1.00  0.00     0.033 C 
HETATM   42  C10 UNL     1      13.525  18.365  19.868  1.00  0.00     0.273 C 
HETATM   43  C11 UNL     1      14.578  18.273  17.784  1.00  0.00     0.310 C 
HETATM   44  C13 UNL     1      11.043  16.404  16.966  1.00  0.00     0.285 C 
BRANCH  44  45
HETATM   45  N3  UNL     1      10.203  15.843  18.014  1.00  0.00    -0.058 N 
ATOM     46  H33 UNL     1      10.324  16.343  18.895  1.00  0.00     0.276 HD
ATOM     47  H32 UNL     1       9.217  16.046  17.849  1.00  0.00     0.276 HD
ATOM     48  H31 UNL     1      10.362  14.842  18.128  1.00  0.00     0.276 HD
ENDBRANCH  44  45
ENDBRANCH  33  34
ENDBRANCH  32  33
ENDBRANCH  30  32
ENDBRANCH  29  30
ENDBRANCH   1  29
TORSDOF 14
ENDMDL
MODEL 2
REMARK VINA RESULT: -8.826377989      2.720      6.804
REMARK  14 active torsions:
REMARK  status: ('A' for Active; 'I' for Inactive)
REMARK    1  A    between atoms: C2_2  and  C3_3 
REMARK    2  A    between atoms: C2_2  and  C14_20 
REMARK    3  A    between atoms: C3_3  and  C4_4 
REMARK    4  A    between atoms: C4_4  and  N1_5 
REMARK    5  A    between atoms: C13_15  and  N3_16 
REMARK    6  A    between atoms: C14_20  and  N4_21 
REMARK       I    between atoms: N5_25  and  C18_26 
REMARK       I    between atoms: C18_26  and  N6_28 
REMARK    7  A    between atoms: N6_28  and  C19_30 
REMARK    8  A    between atoms: C19_30  and  C20_31 
REMARK    9  A    between atoms: C20_31  and  C21_32 
REMARK   10  A    between atoms: C21_32  and  C22_33 
REMARK   11  A    between atoms: C22_33  and  C23_34 
REMARK   12  A    between atoms: C24_35  and  N7_36 
REMARK   13  A    between atoms: C26_38  and  C27_39 
REMARK   14  A    between atoms: C27_39  and  O2_42 
ROOT
HETATM    1  N4  UNL     1      16.000  22.054  18.412  1.00  0.00    -0.333 N 
HETATM    2  C15 UNL     1      17.134  21.158  18.524  1.00  0.00     0.129 C 
HETATM    3  C16 UNL     1      18.311  21.983  19.015  1.00  0.00     0.040 C 
HETATM    4  C17 UNL     1      18.709  23.029  17.999  1.00  0.00     0.140 C 
HETATM    5  N5  UNL     1      17.553  23.777  17.603  1.00  0.00    -0.252 N 
HETATM    6  C18 UNL     1      17.692  24.921  16.734  1.00  0.00     0.326 C 
HETATM    7  O1  UNL     1      16.673  25.567  16.397  1.00  0.00    -0.247 OA
HETATM    8  N6  UNL     1      18.996  25.282  16.280  1.00  0.00    -0.343 N 
ATOM      9  H6  UNL     1      19.804  24.730  16.571  1.00  0.00     0.164 HD
HETATM   10  C31 UNL     1      16.259  23.404  18.059  1.00  0.00     0.328 C 
HETATM   11  O5  UNL     1      15.362  24.286  18.141  1.00  0.00    -0.246 OA
ENDROOT
BRANCH   8  12
HETATM   12  C19 UNL     1      19.181  26.404  15.427  1.00  0.00     0.124 C 
BRANCH  12  13
HETATM   13  C20 UNL     1      20.180  26.197  14.373  1.00  0.00     0.020 C 
BRANCH  13  14
HETATM   14  C21 UNL     1      21.611  26.008  14.732  1.00  0.00     0.005 C 
BRANCH  14  15
HETATM   15  C22 UNL     1      22.451  27.191  14.973  1.00  0.00     0.028 C 
BRANCH  15  16
HETATM   16  C23 UNL     1      23.610  26.926  15.869  1.00  0.00    -0.009 C 
HETATM   17  C24 UNL     1      23.591  27.171  17.294  1.00  0.00     0.092 C 
BRANCH  17  18
HETATM   18  N7  UNL     1      22.686  26.612  18.223  1.00  0.00    -0.302 N 
HETATM   19  C25 UNL     1      23.026  25.577  19.214  1.00  0.00     0.169 C 
HETATM   20  C26 UNL     1      21.702  25.012  19.592  1.00  0.00     0.185 C 
HETATM   21  O3  UNL     1      20.719  25.741  18.924  1.00  0.00    -0.293 OA
HETATM   22  C30 UNL     1      21.296  26.888  18.445  1.00  0.00     0.367 C 
HETATM   23  O4  UNL     1      20.715  27.977  18.238  1.00  0.00    -0.238 OA
BRANCH  20  24
HETATM   24  C27 UNL     1      21.471  24.993  21.088  1.00  0.00     0.079 C 
HETATM   25  C28 UNL     1      22.655  24.244  21.706  1.00  0.00     0.048 C 
HETATM   26  C29 UNL     1      20.192  24.334  21.486  1.00  0.00     0.048 C 
BRANCH  24  27
HETATM   27  O2  UNL     1      21.517  26.283  21.607  1.00  0.00    -0.388 OA
ATOM     28  H2  UNL     1      20.639  26.614  21.757  1.00  0.00     0.210 HD
ENDBRANCH  24  27
ENDBRANCH  20  24
ENDBRANCH  17  18
ENDBRANCH  15  16
ENDBRANCH  14  15
ENDBRANCH  13  14
ENDBRANCH  12  13
ENDBRANCH   8  12
BRANCH   1  29
HETATM   29  C14 UNL     1      14.639  21.647  18.637  1.00  0.00     0.132 C 
BRANCH  29  30
HETATM   30  C2  UNL     1      14.573  20.138  18.598  1.00  0.00     0.001 C 
HETATM   31  C1  UNL     1      13.884  19.570  19.814  1.00  0.00     0.011 C 
BRANCH  30  32
HETATM   32  C3  UNL     1      13.942  19.630  17.321  1.00  0.00     0.026 C 
BRANCH  32  33
HETATM   33  C4  UNL     1      14.168  20.598  16.165  1.00  0.00     0.124 C 
BRANCH  33  34
HETATM   34  N1  UNL     1      12.904  20.891  15.587  1.00  0.00    -0.366 N 
HETATM   35  C5  UNL     1      11.831  20.057  15.936  1.00  0.00     0.062 C 
HETATM   36  C6  UNL     1      11.135  19.349  14.816  1.00  0.00     0.086 C 
HETATM   37  C7  UNL     1      10.781  20.364  13.765  1.00  0.00     0.167 C 
HETATM   38  C8  UNL     1       9.742  21.325  14.262  1.00  0.00     0.044 C 
HETATM   39  N2  UNL     1      10.115  19.769  12.623  1.00  0.00     0.094 N 
HETATM   40  C12 UNL     1      12.033  21.014  13.287  1.00  0.00     0.096 C 
HETATM   41  C9  UNL     1       9.203  21.936  12.992  1.00  0.00     0.033 C 
HETATM   42  C10 UNL     1       9.404  20.845  11.970  1.00  0.00     0.273 C 
HETATM   43  C11 UNL     1      11.011  19.172  11.681  1.00  0.00     0.310 C 
HETATM   44  C13 UNL     1      12.875  21.601  14.380  1.00  0.00     0.285 C 
BRANCH  44  45
HETATM   45  N3  UNL     1      12.475  22.986  14.581  1.00  0.00    -0.058 N 
ATOM     46  H33 UNL     1      11.609  23.048  15.116  1.00  0.00     0.276 HD
ATOM     47  H32 UNL     1      13.099  23.463  15.231  1.00  0.00     0.276 HD
ATOM     48  H31 UNL     1      12.403  23.489  13.697  1.00  0.00     0.276 HD
ENDBRANCH  44  45
ENDBRANCH  33  34
ENDBRANCH  32  33
ENDBRANCH  30  32
ENDBRANCH  29  30
ENDBRANCH   1  29
TORSDOF 14
ENDMDL
MODEL 3
REMARK VINA RESULT: -8.781729038      3.324     11.326
REMARK  14 active torsions:
REMARK  status: ('A' for Active; 'I' for Inactive)
REMARK    1  A    between atoms: C2_2  and  C3_3 
REMARK    2  A    between atoms: C2_2  and  C14_20 
REMARK    3  A    between atoms: C3_3  and  C4_4 
REMARK    4  A    between atoms: C4_4  and  N1_5 
REMARK    5  A    between atoms: C13_15  and  N3_16 
REMARK    6  A    between atoms: C14_20  and  N4_21 
REMARK       I    between atoms: N5_25  and  C18_26 
REMARK       I    between atoms: C18_26  and  N6_28 
REMARK    7  A    between atoms: N6_28  and  C19_30 
REMARK    8  A    between atoms: C19_30  and  C20_31 
REMARK    9  A    between atoms: C20_31  and  C21_32 
REMARK   10  A    between atoms: C21_32  and  C22_33 
REMARK   11  A    between atoms: C22_33  and  C23_34 
REMARK   12  A    between atoms: C24_35  and  N7_36 
REMARK   13  A    between atoms: C26_38  and  C27_39 
REMARK   14  A    between atoms: C27_39  and  O2_42 
ROOT
HETATM    1  N4  UNL     1      20.583  23.349  20.405  1.00  0.00    -0.333 N 
HETATM    2  C15 UNL     1      20.064  22.648  21.563  1.00  0.00     0.129 C 
HETATM    3  C16 UNL     1      19.132  21.562  21.050  1.00  0.00     0.040 C 
HETATM    4  C17 UNL     1      17.930  22.157  20.352  1.00  0.00     0.140 C 
HETATM    5  N5  UNL     1      18.366  23.110  19.374  1.00  0.00    -0.252 N 
HETATM    6  C18 UNL     1      17.410  23.723  18.484  1.00  0.00     0.326 C 
HETATM    7  O1  UNL     1      17.804  24.553  17.633  1.00  0.00    -0.247 OA
HETATM    8  N6  UNL     1      16.034  23.364  18.603  1.00  0.00    -0.343 N 
ATOM      9  H6  UNL     1      15.747  22.687  19.311  1.00  0.00     0.164 HD
HETATM   10  C31 UNL     1      19.739  23.461  19.270  1.00  0.00     0.328 C 
HETATM   11  O5  UNL     1      20.183  23.870  18.162  1.00  0.00    -0.246 OA
ENDROOT
BRANCH   8  12
HETATM   12  C19 UNL     1      15.058  23.940  17.744  1.00  0.00     0.124 C 
BRANCH  12  13
HETATM   13  C20 UNL     1      15.195  23.549  16.336  1.00  0.00     0.020 C 
BRANCH  13  14
HETATM   14  C21 UNL     1      14.000  23.540  15.449  1.00  0.00     0.005 C 
BRANCH  14  15
HETATM   15  C22 UNL     1      13.974  22.629  14.294  1.00  0.00     0.028 C 
BRANCH  15  16
HETATM   16  C23 UNL     1      12.714  21.842  14.186  1.00  0.00    -0.009 C 
HETATM   17  C24 UNL     1      12.540  20.529  14.766  1.00  0.00     0.092 C 
BRANCH  17  18
HETATM   18  N7  UNL     1      12.685  20.196  16.130  1.00  0.00    -0.302 N 
HETATM   19  C25 UNL     1      11.608  19.680  16.991  1.00  0.00     0.169 C 
HETATM   20  C26 UNL     1      12.112  19.937  18.368  1.00  0.00     0.185 C 
HETATM   21  O3  UNL     1      13.396  20.470  18.260  1.00  0.00    -0.293 OA
HETATM   22  C30 UNL     1      13.838  20.253  16.982  1.00  0.00     0.367 C 
HETATM   23  O4  UNL     1      15.030  20.129  16.623  1.00  0.00    -0.238 OA
BRANCH  20  24
HETATM   24  C27 UNL     1      12.085  18.706  19.249  1.00  0.00     0.079 C 
HETATM   25  C28 UNL     1      13.142  18.921  20.335  1.00  0.00     0.048 C 
HETATM   26  C29 UNL     1      12.367  17.439  18.512  1.00  0.00     0.048 C 
BRANCH  24  27
HETATM   27  O2  UNL     1      10.866  18.603  19.911  1.00  0.00    -0.388 OA
ATOM     28  H2  UNL     1      10.589  17.696  19.963  1.00  0.00     0.210 HD
ENDBRANCH  24  27
ENDBRANCH  20  24
ENDBRANCH  17  18
ENDBRANCH  15  16
ENDBRANCH  14  15
ENDBRANCH  13  14
ENDBRANCH  12  13
ENDBRANCH   8  12
BRANCH   1  29
HETATM   29  C14 UNL     1      21.897  23.930  20.351  1.00  0.00     0.132 C 
BRANCH  29  30
HETATM   30  C2  UNL     1      21.957  25.082  21.326  1.00  0.00     0.001 C 
HETATM   31  C1  UNL     1      23.198  25.033  22.184  1.00  0.00     0.011 C 
BRANCH  30  32
HETATM   32  C3  UNL     1      21.818  26.420  20.636  1.00  0.00     0.026 C 
BRANCH  32  33
HETATM   33  C4  UNL     1      22.977  26.675  19.678  1.00  0.00     0.124 C 
BRANCH  33  34
HETATM   34  N1  UNL     1      22.439  27.208  18.476  1.00  0.00    -0.366 N 
HETATM   35  C5  UNL     1      21.077  27.544  18.476  1.00  0.00     0.062 C 
HETATM   36  C6  UNL     1      20.216  26.861  17.460  1.00  0.00     0.086 C 
HETATM   37  C7  UNL     1      20.864  27.014  16.112  1.00  0.00     0.167 C 
HETATM   38  C8  UNL     1      20.859  28.445  15.663  1.00  0.00     0.044 C 
HETATM   39  N2  UNL     1      20.109  26.366  15.058  1.00  0.00     0.094 N 
HETATM   40  C12 UNL     1      22.218  26.395  16.162  1.00  0.00     0.096 C 
HETATM   41  C9  UNL     1      21.108  28.339  14.178  1.00  0.00     0.033 C 
HETATM   42  C10 UNL     1      20.529  26.991  13.824  1.00  0.00     0.273 C 
HETATM   43  C11 UNL     1      20.344  24.958  14.962  1.00  0.00     0.310 C 
HETATM   44  C13 UNL     1      23.088  26.910  17.270  1.00  0.00     0.285 C 
BRANCH  44  45
HETATM   45  N3  UNL     1      23.848  28.047  16.774  1.00  0.00    -0.058 N 
ATOM     46  H33 UNL     1      23.424  28.930  17.057  1.00  0.00     0.276 HD
ATOM     47  H32 UNL     1      24.741  28.137  17.258  1.00  0.00     0.276 HD
ATOM     48  H31 UNL     1      23.976  28.002  15.763  1.00  0.00     0.276 HD
ENDBRANCH  44  45
ENDBRANCH  33  34
ENDBRANCH  32  33
ENDBRANCH  30  32
ENDBRANCH  29  30
ENDBRANCH   1  29
TORSDOF 14
ENDMDL
MODEL 4
REMARK VINA RESULT: -8.738987281      1.702      2.438
REMARK  14 active torsions:
REMARK  status: ('A' for Active; 'I' for Inactive)
REMARK    1  A    between atoms: C2_2  and  C3_3 
REMARK    2  A    between atoms: C2_2  and  C14_20 
REMARK    3  A    between atoms: C3_3  and  C4_4 
REMARK    4  A    between atoms: C4_4  and  N1_5 
REMARK    5  A    between atoms: C13_15  and  N3_16 
REMARK    6  A    between atoms: C14_20  and  N4_21 
REMARK       I    between atoms: N5_25  and  C18_26 
REMARK       I    between atoms: C18_26  and  N6_28 
REMARK    7  A    between atoms: N6_28  and  C19_30 
REMARK    8  A    between atoms: C19_30  and  C20_31 
REMARK    9  A    between atoms: C20_31  and  C21_32 
REMARK   10  A    between atoms: C21_32  and  C22_33 
REMARK   11  A    between atoms: C22_33  and  C23_34 
REMARK   12  A    between atoms: C24_35  and  N7_36 
REMARK   13  A    between atoms: C26_38  and  C27_39 
REMARK   14  A    between atoms: C27_39  and  O2_42 
ROOT
HETATM    1  N4  UNL     1      13.127  21.649  13.778  1.00  0.00    -0.333 N 
HETATM    2  C15 UNL     1      12.179  22.580  14.358  1.00  0.00     0.129 C 
HETATM    3  C16 UNL     1      12.955  23.828  14.744  1.00  0.00     0.040 C 
HETATM    4  C17 UNL     1      13.964  23.532  15.830  1.00  0.00     0.140 C 
HETATM    5  N5  UNL     1      14.760  22.403  15.451  1.00  0.00    -0.252 N 
HETATM    6  C18 UNL     1      15.881  22.001  16.266  1.00  0.00     0.326 C 
HETATM    7  O1  UNL     1      16.570  21.013  15.922  1.00  0.00    -0.247 OA
HETATM    8  N6  UNL     1      16.172  22.745  17.448  1.00  0.00    -0.343 N 
ATOM      9  H6  UNL     1      15.586  23.542  17.700  1.00  0.00     0.164 HD
HETATM   10  C31 UNL     1      14.457  21.668  14.272  1.00  0.00     0.328 C 
HETATM   11  O5  UNL     1      15.382  21.043  13.687  1.00  0.00    -0.246 OA
ENDROOT
BRANCH   8  12
HETATM   12  C19 UNL     1      17.269  22.387  18.278  1.00  0.00     0.124 C 
BRANCH  12  13
HETATM   13  C20 UNL     1      17.184  22.916  19.644  1.00  0.00     0.020 C 
BRANCH  13  14
HETATM   14  C21 UNL     1      18.239  23.833  20.152  1.00  0.00     0.005 C 
BRANCH  14  15
HETATM   15  C22 UNL     1      19.638  23.377  20.167  1.00  0.00     0.028 C 
BRANCH  15  16
HETATM   16  C23 UNL     1      20.626  24.491  20.196  1.00  0.00    -0.009 C 
HETATM   17  C24 UNL     1      21.310  24.983  19.020  1.00  0.00     0.092 C 
BRANCH  17  18
HETATM   18  N7  UNL     1      20.698  25.494  17.854  1.00  0.00    -0.302 N 
HETATM   19  C25 UNL     1      20.863  26.868  17.349  1.00  0.00     0.169 C 
HETATM   20  C26 UNL     1      19.703  27.040  16.432  1.00  0.00     0.185 C 
HETATM   21  O3  UNL     1      19.016  25.828  16.380  1.00  0.00    -0.293 OA
HETATM   22  C30 UNL     1      19.826  24.859  16.910  1.00  0.00     0.367 C 
HETATM   23  O4  UNL     1      19.808  23.641  16.622  1.00  0.00    -0.238 OA
BRANCH  20  24
HETATM   24  C27 UNL     1      20.103  27.521  15.053  1.00  0.00     0.079 C 
HETATM   25  C28 UNL     1      19.048  26.987  14.080  1.00  0.00     0.048 C 
HETATM   26  C29 UNL     1      21.459  27.060  14.631  1.00  0.00     0.048 C 
BRANCH  24  27
HETATM   27  O2  UNL     1      20.032  28.907  14.978  1.00  0.00    -0.388 OA
ATOM     28  H2  UNL     1      19.209  29.220  15.334  1.00  0.00     0.210 HD
ENDBRANCH  24  27
ENDBRANCH  20  24
ENDBRANCH  17  18
ENDBRANCH  15  16
ENDBRANCH  14  15
ENDBRANCH  13  14
ENDBRANCH  12  13
ENDBRANCH   8  12
BRANCH   1  29
HETATM   29  C14 UNL     1      12.790  20.717  12.736  1.00  0.00     0.132 C 
BRANCH  29  30
HETATM   30  C2  UNL     1      11.411  20.164  13.009  1.00  0.00     0.001 C 
HETATM   31  C1  UNL     1      10.675  19.824  11.736  1.00  0.00     0.011 C 
BRANCH  30  32
HETATM   32  C3  UNL     1      11.447  18.985  13.956  1.00  0.00     0.026 C 
BRANCH  32  33
HETATM   33  C4  UNL     1      10.179  18.911  14.799  1.00  0.00     0.124 C 
BRANCH  33  34
HETATM   34  N1  UNL     1      10.566  18.892  16.166  1.00  0.00    -0.366 N 
HETATM   35  C5  UNL     1      10.970  20.108  16.736  1.00  0.00     0.062 C 
HETATM   36  C6  UNL     1      12.351  20.157  17.311  1.00  0.00     0.086 C 
HETATM   37  C7  UNL     1      12.516  18.984  18.237  1.00  0.00     0.167 C 
HETATM   38  C8  UNL     1      11.636  19.112  19.445  1.00  0.00     0.044 C 
HETATM   39  N2  UNL     1      13.837  18.933  18.835  1.00  0.00     0.094 N 
HETATM   40  C12 UNL     1      12.308  17.730  17.461  1.00  0.00     0.096 C 
HETATM   41  C9  UNL     1      12.251  18.142  20.423  1.00  0.00     0.033 C 
HETATM   42  C10 UNL     1      13.706  18.122  20.024  1.00  0.00     0.273 C 
HETATM   43  C11 UNL     1      14.830  18.348  17.987  1.00  0.00     0.310 C 
HETATM   44  C13 UNL     1      11.010  17.680  16.713  1.00  0.00     0.285 C 
BRANCH  44  45
HETATM   45  N3  UNL     1      10.002  17.076  17.570  1.00  0.00    -0.058 N 
ATOM     46  H33 UNL     1       9.063  17.374  17.307  1.00  0.00     0.276 HD
ATOM     47  H32 UNL     1       9.910  16.077  17.389  1.00  0.00     0.276 HD
ATOM     48  H31 UNL     1      10.188  17.259  18.556  1.00  0.00     0.276 HD
ENDBRANCH  44  45
ENDBRANCH  33  34
ENDBRANCH  32  33
ENDBRANCH  30  32
ENDBRANCH  29  30
ENDBRANCH   1  29
TORSDOF 14
ENDMDL
MODEL 5
REMARK VINA RESULT: -8.737230685      3.292      9.897
REMARK  14 active torsions:
REMARK  status: ('A' for Active; 'I' for Inactive)
REMARK    1  A    between atoms: C2_2  and  C3_3 
REMARK    2  A    between atoms: C2_2  and  C14_20 
REMARK    3  A    between atoms: C3_3  and  C4_4 
REMARK    4  A    between atoms: C4_4  and  N1_5 
REMARK    5  A    between atoms: C13_15  and  N3_16 
REMARK    6  A    between atoms: C14_20  and  N4_21 
REMARK       I    between atoms: N5_25  and  C18_26 
REMARK       I    between atoms: C18_26  and  N6_28 
REMARK    7  A    between atoms: N6_28  and  C19_30 
REMARK    8  A    between atoms: C19_30  and  C20_31 
REMARK    9  A    between atoms: C20_31  and  C21_32 
REMARK   10  A    between atoms: C21_32  and  C22_33 
REMARK   11  A    between atoms: C22_33  and  C23_34 
REMARK   12  A    between atoms: C24_35  and  N7_36 
REMARK   13  A    between atoms: C26_38  and  C27_39 
REMARK   14  A    between atoms: C27_39  and  O2_42 
ROOT
HETATM    1  N4  UNL     1      17.494  23.661  16.926  1.00  0.00    -0.333 N 
HETATM    2  C15 UNL     1      18.573  22.695  16.978  1.00  0.00     0.129 C 
HETATM    3  C16 UNL     1      18.024  21.380  16.450  1.00  0.00     0.040 C 
HETATM    4  C17 UNL     1      16.939  20.838  17.353  1.00  0.00     0.140 C 
HETATM    5  N5  UNL     1      15.965  21.859  17.599  1.00  0.00    -0.252 N 
HETATM    6  C18 UNL     1      14.761  21.550  18.331  1.00  0.00     0.326 C 
HETATM    7  O1  UNL     1      13.916  22.453  18.538  1.00  0.00    -0.247 OA
HETATM    8  N6  UNL     1      14.567  20.217  18.802  1.00  0.00    -0.343 N 
ATOM      9  H6  UNL     1      15.278  19.508  18.619  1.00  0.00     0.164 HD
HETATM   10  C31 UNL     1      16.172  23.184  17.128  1.00  0.00     0.328 C 
HETATM   11  O5  UNL     1      15.171  23.915  16.897  1.00  0.00    -0.246 OA
ENDROOT
BRANCH   8  12
HETATM   12  C19 UNL     1      13.393  19.867  19.523  1.00  0.00     0.124 C 
BRANCH  12  13
HETATM   13  C20 UNL     1      13.365  18.474  19.982  1.00  0.00     0.020 C 
BRANCH  13  14
HETATM   14  C21 UNL     1      12.427  17.504  19.355  1.00  0.00     0.005 C 
BRANCH  14  15
HETATM   15  C22 UNL     1      12.711  17.009  18.000  1.00  0.00     0.028 C 
BRANCH  15  16
HETATM   16  C23 UNL     1      11.487  16.781  17.181  1.00  0.00    -0.009 C 
HETATM   17  C24 UNL     1      10.645  17.850  16.689  1.00  0.00     0.092 C 
BRANCH  17  18
HETATM   18  N7  UNL     1      11.055  18.919  15.864  1.00  0.00    -0.302 N 
HETATM   19  C25 UNL     1      11.717  20.146  16.339  1.00  0.00     0.169 C 
HETATM   20  C26 UNL     1      11.510  21.106  15.221  1.00  0.00     0.185 C 
HETATM   21  O3  UNL     1      10.865  20.426  14.188  1.00  0.00    -0.293 OA
HETATM   22  C30 UNL     1      10.958  19.084  14.442  1.00  0.00     0.367 C 
HETATM   23  O4  UNL     1      10.956  18.168  13.589  1.00  0.00    -0.238 OA
BRANCH  20  24
HETATM   24  C27 UNL     1      12.795  21.755  14.751  1.00  0.00     0.079 C 
HETATM   25  C28 UNL     1      12.544  22.240  13.320  1.00  0.00     0.048 C 
HETATM   26  C29 UNL     1      13.971  20.835  14.775  1.00  0.00     0.048 C 
BRANCH  24  27
HETATM   27  O2  UNL     1      13.072  22.892  15.502  1.00  0.00    -0.388 OA
ATOM     28  H2  UNL     1      13.655  23.473  15.027  1.00  0.00     0.210 HD
ENDBRANCH  24  27
ENDBRANCH  20  24
ENDBRANCH  17  18
ENDBRANCH  15  16
ENDBRANCH  14  15
ENDBRANCH  13  14
ENDBRANCH  12  13
ENDBRANCH   8  12
BRANCH   1  29
HETATM   29  C14 UNL     1      17.694  25.064  16.684  1.00  0.00     0.132 C 
BRANCH  29  30
HETATM   30  C2  UNL     1      18.699  25.224  15.568  1.00  0.00     0.001 C 
HETATM   31  C1  UNL     1      18.164  26.074  14.442  1.00  0.00     0.011 C 
BRANCH  30  32
HETATM   32  C3  UNL     1      20.027  25.747  16.068  1.00  0.00     0.026 C 
BRANCH  32  33
HETATM   33  C4  UNL     1      19.883  26.415  17.432  1.00  0.00     0.124 C 
BRANCH  33  34
HETATM   34  N1  UNL     1      20.828  25.820  18.310  1.00  0.00    -0.366 N 
HETATM   35  C5  UNL     1      20.365  24.799  19.153  1.00  0.00     0.062 C 
HETATM   36  C6  UNL     1      20.529  25.014  20.625  1.00  0.00     0.086 C 
HETATM   37  C7  UNL     1      21.958  25.399  20.889  1.00  0.00     0.167 C 
HETATM   38  C8  UNL     1      22.893  24.262  20.602  1.00  0.00     0.044 C 
HETATM   39  N2  UNL     1      22.213  25.648  22.295  1.00  0.00     0.094 N 
HETATM   40  C12 UNL     1      22.263  26.646  20.133  1.00  0.00     0.096 C 
HETATM   41  C9  UNL     1      24.152  24.660  21.331  1.00  0.00     0.033 C 
HETATM   42  C10 UNL     1      23.640  25.504  22.473  1.00  0.00     0.273 C 
HETATM   43  C11 UNL     1      21.827  26.956  22.727  1.00  0.00     0.310 C 
HETATM   44  C13 UNL     1      21.962  26.562  18.666  1.00  0.00     0.285 C 
BRANCH  44  45
HETATM   45  N3  UNL     1      23.151  26.092  17.973  1.00  0.00    -0.058 N 
ATOM     46  H33 UNL     1      22.912  25.456  17.214  1.00  0.00     0.276 HD
ATOM     47  H32 UNL     1      23.582  26.838  17.427  1.00  0.00     0.276 HD
ATOM     48  H31 UNL     1      23.820  25.669  18.617  1.00  0.00     0.276 HD
ENDBRANCH  44  45
ENDBRANCH  33  34
ENDBRANCH  32  33
ENDBRANCH  30  32
ENDBRANCH  29  30
ENDBRANCH   1  29
TORSDOF 14
ENDMDL
