MODEL 1
REMARK VINA RESULT: -8.678636382      0.000      0.000
REMARK  16 active torsions:
REMARK  status: ('A' for Active; 'I' for Inactive)
REMARK    1  A    between atoms: C2_2  and  C3_3 
REMARK    2  A    between atoms: C3_3  and  C4_4 
REMARK    3  A    between atoms: C4_4  and  O1_5 
REMARK    4  A    between atoms: O1_5  and  C5_6 
REMARK       I    between atoms: C5_6  and  N1_8 
REMARK       I    between atoms: N2_11  and  C8_12 
REMARK    5  A    between atoms: C8_12  and  C9_14 
REMARK    6  A    between atoms: C9_14  and  C10_15 
REMARK    7  A    between atoms: C9_14  and  N3_20 
REMARK    8  A    between atoms: C10_15  and  C11_16 
REMARK    9  A    between atoms: C11_16  and  C12_17 
REMARK   10  A    between atoms: N3_20  and  C13_21 
REMARK   11  A    between atoms: C13_21  and  O6_22 
REMARK   12  A    between atoms: C13_21  and  C14_24 
REMARK   13  A    between atoms: C16_26  and  N4_27 
REMARK       I    between atoms: N4_27  and  C17_29 
REMARK   14  A    between atoms: C17_29  and  C18_31 
REMARK   15  A    between atoms: C18_31  and  C19_32 
REMARK   16  A    between atoms: C18_31  and  N5_35 
ROOT
HETATM    1  C13 UNL     1      14.318  21.770  17.943  1.00  0.00     0.237 C 
ENDROOT
BRANCH   1   2
HETATM    2  N3  UNL     1      13.684  20.725  17.430  1.00  0.00    -0.408 NA
BRANCH   2   3
HETATM    3  C9  UNL     1      13.015  19.624  16.890  1.00  0.00     0.258 C 
BRANCH   3   4
HETATM    4  C8  UNL     1      11.541  20.156  16.637  1.00  0.00     0.255 C 
HETATM    5  N2  UNL     1      11.222  20.519  15.334  1.00  0.00    -0.346 N 
HETATM    6  C7  UNL     1      12.083  20.447  14.192  1.00  0.00     0.146 C 
HETATM    7  C29 UNL     1       9.862  21.063  15.124  1.00  0.00     0.146 C 
HETATM    8  C6  UNL     1      11.324  19.762  13.045  1.00  0.00     0.148 C 
HETATM    9  N1  UNL     1      10.148  20.518  12.779  1.00  0.00    -0.325 N 
HETATM   10  C5  UNL     1       9.351  20.260  11.625  1.00  0.00     0.362 C 
HETATM   11  C30 UNL     1       9.730  21.568  13.701  1.00  0.00     0.148 C 
HETATM   12  O2  UNL     1       9.693  19.348  10.835  1.00  0.00    -0.238 OA
HETATM   13  O3  UNL     1      10.814  20.205  17.596  1.00  0.00    -0.270 OA
BRANCH  10  14
HETATM   14  O1  UNL     1       8.219  20.992  11.371  1.00  0.00    -0.304 OA
BRANCH  14  15
HETATM   15  C4  UNL     1       8.057  22.023  10.453  1.00  0.00     0.180 C 
BRANCH  15  16
HETATM   16  C3  UNL     1       7.725  23.303  11.167  1.00  0.00     0.026 C 
BRANCH  16  17
HETATM   17  C2  UNL     1       8.529  24.470  10.688  1.00  0.00    -0.002 C 
HETATM   18  C1  UNL     1       8.377  24.627   9.207  1.00  0.00     0.005 C 
ENDBRANCH  16  17
ENDBRANCH  15  16
ENDBRANCH  14  15
ENDBRANCH  10  14
ENDBRANCH   3   4
BRANCH   3  19
HETATM   19  C10 UNL     1      12.802  18.399  17.678  1.00  0.00     0.060 C 
BRANCH  19  20
HETATM   20  C11 UNL     1      13.496  18.216  18.979  1.00  0.00     0.117 C 
BRANCH  20  21
HETATM   21  C12 UNL     1      12.740  18.832  20.105  1.00  0.00     0.172 C 
HETATM   22  O4  UNL     1      13.354  19.491  20.975  1.00  0.00    -0.648 OA
HETATM   23  O5  UNL     1      11.371  18.704  20.230  1.00  0.00    -0.648 OA
ENDBRANCH  20  21
ENDBRANCH  19  20
ENDBRANCH   3  19
ENDBRANCH   2   3
ENDBRANCH   1   2
BRANCH   1  24
HETATM   24  O6  UNL     1      14.129  22.003  19.265  1.00  0.00    -0.334 OA
ATOM     25  H6  UNL     1      13.446  22.622  19.493  1.00  0.00     0.220 HD
ENDBRANCH   1  24
BRANCH   1  26
HETATM   26  C14 UNL     1      15.220  22.785  17.371  1.00  0.00     0.101 A 
HETATM   27  C15 UNL     1      16.358  23.260  18.051  1.00  0.00     0.066 A 
HETATM   28  C16 UNL     1      16.855  24.288  17.274  1.00  0.00     0.052 A 
HETATM   29  C27 UNL     1      16.051  24.417  16.174  1.00  0.00     0.120 A 
HETATM   30  N6  UNL     1      15.058  23.485  16.258  1.00  0.00    -0.355 N 
HETATM   31  C28 UNL     1      14.011  23.450  15.241  1.00  0.00     0.156 C 
BRANCH  28  32
HETATM   32  N4  UNL     1      17.959  25.101  17.655  1.00  0.00    -0.324 N 
HETATM   33  C17 UNL     1      19.273  24.834  17.197  1.00  0.00     0.256 C 
HETATM   34  O7  UNL     1      19.360  23.803  16.427  1.00  0.00    -0.271 OA
ATOM     35  H4  UNL     1      17.799  25.897  18.272  1.00  0.00     0.169 HD
BRANCH  33  36
HETATM   36  C18 UNL     1      20.515  25.532  17.464  1.00  0.00     0.317 C 
BRANCH  36  37
HETATM   37  C19 UNL     1      20.637  25.854  18.968  1.00  0.00     0.020 C 
HETATM   38  C20 UNL     1      21.022  27.330  19.113  1.00  0.00     0.012 C 
HETATM   39  C21 UNL     1      21.627  24.976  19.669  1.00  0.00     0.012 C 
ENDBRANCH  36  37
BRANCH  36  40
HETATM   40  N5  UNL     1      20.714  26.761  16.701  1.00  0.00     0.102 N 
HETATM   41  C22 UNL     1      19.754  26.720  15.583  1.00  0.00     0.273 C 
HETATM   42  C23 UNL     1      19.839  28.031  14.794  1.00  0.00     0.030 C 
HETATM   43  C24 UNL     1      21.235  28.261  14.319  1.00  0.00     0.003 C 
HETATM   44  C25 UNL     1      22.062  27.050  14.636  1.00  0.00     0.030 C 
HETATM   45  C26 UNL     1      22.019  26.663  16.094  1.00  0.00     0.273 C 
ENDBRANCH  36  40
ENDBRANCH  33  36
ENDBRANCH  28  32
ENDBRANCH   1  26
TORSDOF 16
ENDMDL
MODEL 2
REMARK VINA RESULT: -8.636326153      3.549     12.858
REMARK  16 active torsions:
REMARK  status: ('A' for Active; 'I' for Inactive)
REMARK    1  A    between atoms: C2_2  and  C3_3 
REMARK    2  A    between atoms: C3_3  and  C4_4 
REMARK    3  A    between atoms: C4_4  and  O1_5 
REMARK    4  A    between atoms: O1_5  and  C5_6 
REMARK       I    between atoms: C5_6  and  N1_8 
REMARK       I    between atoms: N2_11  and  C8_12 
REMARK    5  A    between atoms: C8_12  and  C9_14 
REMARK    6  A    between atoms: C9_14  and  C10_15 
REMARK    7  A    between atoms: C9_14  and  N3_20 
REMARK    8  A    between atoms: C10_15  and  C11_16 
REMARK    9  A    between atoms: C11_16  and  C12_17 
REMARK   10  A    between atoms: N3_20  and  C13_21 
REMARK   11  A    between atoms: C13_21  and  O6_22 
REMARK   12  A    between atoms: C13_21  and  C14_24 
REMARK   13  A    between atoms: C16_26  and  N4_27 
REMARK       I    between atoms: N4_27  and  C17_29 
REMARK   14  A    between atoms: C17_29  and  C18_31 
REMARK   15  A    between atoms: C18_31  and  C19_32 
REMARK   16  A    between atoms: C18_31  and  N5_35 
ROOT
HETATM    1  C13 UNL     1      18.729  24.753  17.177  1.00  0.00     0.237 C 
ENDROOT
BRANCH   1   2
HETATM    2  N3  UNL     1      19.938  25.293  17.130  1.00  0.00    -0.408 NA
BRANCH   2   3
HETATM    3  C9  UNL     1      21.212  25.862  17.081  1.00  0.00     0.258 C 
BRANCH   3   4
HETATM    4  C8  UNL     1      21.245  26.837  18.334  1.00  0.00     0.255 C 
HETATM    5  N2  UNL     1      21.770  26.322  19.514  1.00  0.00    -0.346 N 
HETATM    6  C7  UNL     1      22.297  25.006  19.711  1.00  0.00     0.146 C 
HETATM    7  C29 UNL     1      21.744  27.225  20.686  1.00  0.00     0.146 C 
HETATM    8  C6  UNL     1      23.656  25.121  20.419  1.00  0.00     0.148 C 
HETATM    9  N1  UNL     1      23.456  25.805  21.651  1.00  0.00    -0.325 N 
HETATM   10  C5  UNL     1      24.488  25.872  22.633  1.00  0.00     0.362 C 
HETATM   11  C30 UNL     1      22.185  26.466  21.922  1.00  0.00     0.148 C 
HETATM   12  O2  UNL     1      25.591  25.321  22.402  1.00  0.00    -0.238 OA
HETATM   13  O3  UNL     1      20.812  27.948  18.164  1.00  0.00    -0.270 OA
BRANCH  10  14
HETATM   14  O1  UNL     1      24.292  26.531  23.819  1.00  0.00    -0.304 OA
BRANCH  14  15
HETATM   15  C4  UNL     1      24.213  25.987  25.096  1.00  0.00     0.180 C 
BRANCH  15  16
HETATM   16  C3  UNL     1      23.636  26.992  26.052  1.00  0.00     0.026 C 
BRANCH  16  17
HETATM   17  C2  UNL     1      22.207  26.721  26.401  1.00  0.00    -0.002 C 
HETATM   18  C1  UNL     1      21.303  27.303  25.358  1.00  0.00     0.005 C 
ENDBRANCH  16  17
ENDBRANCH  15  16
ENDBRANCH  14  15
ENDBRANCH  10  14
ENDBRANCH   3   4
BRANCH   3  19
HETATM   19  C10 UNL     1      21.616  26.733  15.965  1.00  0.00     0.060 C 
BRANCH  19  20
HETATM   20  C11 UNL     1      20.911  26.652  14.660  1.00  0.00     0.117 C 
BRANCH  20  21
HETATM   21  C12 UNL     1      19.785  27.624  14.575  1.00  0.00     0.172 C 
HETATM   22  O4  UNL     1      19.968  28.815  14.917  1.00  0.00    -0.648 OA
HETATM   23  O5  UNL     1      18.530  27.260  14.129  1.00  0.00    -0.648 OA
ENDBRANCH  20  21
ENDBRANCH  19  20
ENDBRANCH   3  19
ENDBRANCH   2   3
ENDBRANCH   1   2
BRANCH   1  24
HETATM   24  O6  UNL     1      17.808  25.254  16.317  1.00  0.00    -0.334 OA
ATOM     25  H6  UNL     1      17.206  24.630  15.929  1.00  0.00     0.220 HD
ENDBRANCH   1  24
BRANCH   1  26
HETATM   26  C14 UNL     1      18.131  23.683  17.995  1.00  0.00     0.101 A 
HETATM   27  C15 UNL     1      17.360  22.643  17.442  1.00  0.00     0.066 A 
HETATM   28  C16 UNL     1      16.861  21.934  18.517  1.00  0.00     0.052 A 
HETATM   29  C27 UNL     1      17.320  22.523  19.664  1.00  0.00     0.120 A 
HETATM   30  N6  UNL     1      18.093  23.591  19.316  1.00  0.00    -0.355 N 
HETATM   31  C28 UNL     1      18.654  24.447  20.358  1.00  0.00     0.156 C 
BRANCH  28  32
HETATM   32  N4  UNL     1      15.951  20.847  18.391  1.00  0.00    -0.324 N 
HETATM   33  C17 UNL     1      14.552  21.029  18.527  1.00  0.00     0.256 C 
HETATM   34  O7  UNL     1      14.204  22.246  18.774  1.00  0.00    -0.271 OA
ATOM     35  H4  UNL     1      16.315  19.915  18.199  1.00  0.00     0.169 HD
BRANCH  33  36
HETATM   36  C18 UNL     1      13.472  20.067  18.435  1.00  0.00     0.317 C 
BRANCH  36  37
HETATM   37  C19 UNL     1      13.832  18.781  19.207  1.00  0.00     0.020 C 
HETATM   38  C20 UNL     1      14.217  17.702  18.189  1.00  0.00     0.012 C 
HETATM   39  C21 UNL     1      12.719  18.305  20.089  1.00  0.00     0.012 C 
ENDBRANCH  36  37
BRANCH  36  40
HETATM   40  N5  UNL     1      13.074  19.707  17.078  1.00  0.00     0.102 N 
HETATM   41  C22 UNL     1      13.505  20.815  16.206  1.00  0.00     0.273 C 
HETATM   42  C23 UNL     1      13.207  20.457  14.746  1.00  0.00     0.030 C 
HETATM   43  C24 UNL     1      11.758  20.145  14.573  1.00  0.00     0.003 C 
HETATM   44  C25 UNL     1      11.040  20.442  15.857  1.00  0.00     0.030 C 
HETATM   45  C26 UNL     1      11.632  19.730  17.050  1.00  0.00     0.273 C 
ENDBRANCH  36  40
ENDBRANCH  33  36
ENDBRANCH  28  32
ENDBRANCH   1  26
TORSDOF 16
ENDMDL
MODEL 3
REMARK VINA RESULT: -8.603000778      1.105      2.333
REMARK  16 active torsions:
REMARK  status: ('A' for Active; 'I' for Inactive)
REMARK    1  A    between atoms: C2_2  and  C3_3 
REMARK    2  A    between atoms: C3_3  and  C4_4 
REMARK    3  A    between atoms: C4_4  and  O1_5 
REMARK    4  A    between atoms: O1_5  and  C5_6 
REMARK       I    between atoms: C5_6  and  N1_8 
REMARK       I    between atoms: N2_11  and  C8_12 
REMARK    5  A    between atoms: C8_12  and  C9_14 
REMARK    6  A    between atoms: C9_14  and  C10_15 
REMARK    7  A    between atoms: C9_14  and  N3_20 
REMARK    8  A    between atoms: C10_15  and  C11_16 
REMARK    9  A    between atoms: C11_16  and  C12_17 
REMARK   10  A    between atoms: N3_20  and  C13_21 
REMARK   11  A    between atoms: C13_21  and  O6_22 
REMARK   12  A    between atoms: C13_21  and  C14_24 
REMARK   13  A    between atoms: C16_26  and  N4_27 
REMARK       I    between atoms: N4_27  and  C17_29 
REMARK   14  A    between atoms: C17_29  and  C18_31 
REMARK   15  A    between atoms: C18_31  and  C19_32 
REMARK   16  A    between atoms: C18_31  and  N5_35 
ROOT
HETATM    1  C13 UNL     1      14.422  20.867  17.214  1.00  0.00     0.237 C 
ENDROOT
BRANCH   1   2
HETATM    2  N3  UNL     1      13.486  19.969  16.941  1.00  0.00    -0.408 NA
BRANCH   2   3
HETATM    3  C9  UNL     1      12.500  19.023  16.654  1.00  0.00     0.258 C 
BRANCH   3   4
HETATM    4  C8  UNL     1      11.198  19.892  16.395  1.00  0.00     0.255 C 
HETATM    5  N2  UNL     1      10.944  20.263  15.079  1.00  0.00    -0.346 N 
HETATM    6  C7  UNL     1      11.731  19.928  13.931  1.00  0.00     0.146 C 
HETATM    7  C29 UNL     1       9.756  21.118  14.861  1.00  0.00     0.146 C 
HETATM    8  C6  UNL     1      10.797  19.401  12.830  1.00  0.00     0.148 C 
HETATM    9  N1  UNL     1       9.839  20.413  12.543  1.00  0.00    -0.325 N 
HETATM   10  C5  UNL     1       8.973  20.309  11.414  1.00  0.00     0.362 C 
HETATM   11  C30 UNL     1       9.717  21.574  13.416  1.00  0.00     0.148 C 
HETATM   12  O2  UNL     1       9.059  19.306  10.666  1.00  0.00    -0.238 OA
HETATM   13  O3  UNL     1      10.530  20.163  17.360  1.00  0.00    -0.270 OA
BRANCH  10  14
HETATM   14  O1  UNL     1       8.051  21.286  11.139  1.00  0.00    -0.304 OA
BRANCH  14  15
HETATM   15  C4  UNL     1       8.138  22.301  10.193  1.00  0.00     0.180 C 
BRANCH  15  16
HETATM   16  C3  UNL     1       7.854  23.630  10.833  1.00  0.00     0.026 C 
BRANCH  16  17
HETATM   17  C2  UNL     1       8.608  24.760  10.207  1.00  0.00    -0.002 C 
HETATM   18  C1  UNL     1       8.224  24.897   8.765  1.00  0.00     0.005 C 
ENDBRANCH  16  17
ENDBRANCH  15  16
ENDBRANCH  14  15
ENDBRANCH  10  14
ENDBRANCH   3   4
BRANCH   3  19
HETATM   19  C10 UNL     1      12.060  18.048  17.666  1.00  0.00     0.060 C 
BRANCH  19  20
HETATM   20  C11 UNL     1      12.895  17.789  18.868  1.00  0.00     0.117 C 
BRANCH  20  21
HETATM   21  C12 UNL     1      12.549  18.702  19.993  1.00  0.00     0.172 C 
HETATM   22  O4  UNL     1      13.462  19.299  20.609  1.00  0.00    -0.648 OA
HETATM   23  O5  UNL     1      11.244  18.922  20.389  1.00  0.00    -0.648 OA
ENDBRANCH  20  21
ENDBRANCH  19  20
ENDBRANCH   3  19
ENDBRANCH   2   3
ENDBRANCH   1   2
BRANCH   1  24
HETATM   24  O6  UNL     1      14.904  20.873  18.482  1.00  0.00    -0.334 OA
ATOM     25  H6  UNL     1      14.416  21.382  19.118  1.00  0.00     0.220 HD
ENDBRANCH   1  24
BRANCH   1  26
HETATM   26  C14 UNL     1      15.084  21.912  16.413  1.00  0.00     0.101 A 
HETATM   27  C15 UNL     1      16.448  22.230  16.556  1.00  0.00     0.066 A 
HETATM   28  C16 UNL     1      16.660  23.336  15.758  1.00  0.00     0.052 A 
HETATM   29  C27 UNL     1      15.473  23.661  15.158  1.00  0.00     0.120 A 
HETATM   30  N6  UNL     1      14.525  22.775  15.577  1.00  0.00    -0.355 N 
HETATM   31  C28 UNL     1      13.141  22.937  15.143  1.00  0.00     0.156 C 
BRANCH  28  32
HETATM   32  N4  UNL     1      17.898  24.034  15.689  1.00  0.00    -0.324 N 
HETATM   33  C17 UNL     1      18.092  25.274  16.348  1.00  0.00     0.256 C 
HETATM   34  O7  UNL     1      17.055  25.691  16.992  1.00  0.00    -0.271 OA
ATOM     35  H4  UNL     1      18.666  23.631  15.152  1.00  0.00     0.169 HD
BRANCH  33  36
HETATM   36  C18 UNL     1      19.259  26.130  16.402  1.00  0.00     0.317 C 
BRANCH  36  37
HETATM   37  C19 UNL     1      19.792  26.401  14.979  1.00  0.00     0.020 C 
HETATM   38  C20 UNL     1      21.093  25.611  14.797  1.00  0.00     0.012 C 
HETATM   39  C21 UNL     1      20.014  27.858  14.713  1.00  0.00     0.012 C 
ENDBRANCH  36  37
BRANCH  36  40
HETATM   40  N5  UNL     1      20.355  25.636  17.230  1.00  0.00     0.102 N 
HETATM   41  C22 UNL     1      19.766  24.663  18.168  1.00  0.00     0.273 C 
HETATM   42  C23 UNL     1      20.881  24.028  19.005  1.00  0.00     0.030 C 
HETATM   43  C24 UNL     1      21.661  25.082  19.717  1.00  0.00     0.003 C 
HETATM   44  C25 UNL     1      20.994  26.409  19.502  1.00  0.00     0.030 C 
HETATM   45  C26 UNL     1      20.789  26.745  18.045  1.00  0.00     0.273 C 
ENDBRANCH  36  40
ENDBRANCH  33  36
ENDBRANCH  28  32
ENDBRANCH   1  26
TORSDOF 16
ENDMDL
MODEL 4
REMARK VINA RESULT: -8.472758743      1.968      3.238
REMARK  16 active torsions:
REMARK  status: ('A' for Active; 'I' for Inactive)
REMARK    1  A    between atoms: C2_2  and  C3_3 
REMARK    2  A    between atoms: C3_3  and  C4_4 
REMARK    3  A    between atoms: C4_4  and  O1_5 
REMARK    4  A    between atoms: O1_5  and  C5_6 
REMARK       I    between atoms: C5_6  and  N1_8 
REMARK       I    between atoms: N2_11  and  C8_12 
REMARK    5  A    between atoms: C8_12  and  C9_14 
REMARK    6  A    between atoms: C9_14  and  C10_15 
REMARK    7  A    between atoms: C9_14  and  N3_20 
REMARK    8  A    between atoms: C10_15  and  C11_16 
REMARK    9  A    between atoms: C11_16  and  C12_17 
REMARK   10  A    between atoms: N3_20  and  C13_21 
REMARK   11  A    between atoms: C13_21  and  O6_22 
REMARK   12  A    between atoms: C13_21  and  C14_24 
REMARK   13  A    between atoms: C16_26  and  N4_27 
REMARK       I    between atoms: N4_27  and  C17_29 
REMARK   14  A    between atoms: C17_29  and  C18_31 
REMARK   15  A    between atoms: C18_31  and  C19_32 
REMARK   16  A    between atoms: C18_31  and  N5_35 
ROOT
HETATM    1  C13 UNL     1      17.396  21.224  17.143  1.00  0.00     0.237 C 
ENDROOT
BRANCH   1   2
HETATM    2  N3  UNL     1      16.128  20.892  17.339  1.00  0.00    -0.408 NA
BRANCH   2   3
HETATM    3  C9  UNL     1      14.792  20.542  17.546  1.00  0.00     0.258 C 
BRANCH   3   4
HETATM    4  C8  UNL     1      13.977  21.745  16.907  1.00  0.00     0.255 C 
HETATM    5  N2  UNL     1      13.336  21.494  15.698  1.00  0.00    -0.346 N 
HETATM    6  C7  UNL     1      13.323  20.256  14.979  1.00  0.00     0.146 C 
HETATM    7  C29 UNL     1      12.625  22.640  15.088  1.00  0.00     0.146 C 
HETATM    8  C6  UNL     1      11.875  19.931  14.583  1.00  0.00     0.148 C 
HETATM    9  N1  UNL     1      11.380  21.010  13.797  1.00  0.00    -0.325 N 
HETATM   10  C5  UNL     1      10.141  20.904  13.097  1.00  0.00     0.362 C 
HETATM   11  C30 UNL     1      12.132  22.255  13.708  1.00  0.00     0.148 C 
HETATM   12  O2  UNL     1       9.479  19.842  13.180  1.00  0.00    -0.238 OA
HETATM   13  O3  UNL     1      13.978  22.782  17.518  1.00  0.00    -0.270 OA
BRANCH  10  14
HETATM   14  O1  UNL     1       9.668  21.944  12.340  1.00  0.00    -0.304 OA
BRANCH  14  15
HETATM   15  C4  UNL     1       8.359  22.180  11.936  1.00  0.00     0.180 C 
BRANCH  15  16
HETATM   16  C3  UNL     1       8.211  23.597  11.459  1.00  0.00     0.026 C 
BRANCH  16  17
HETATM   17  C2  UNL     1       7.906  23.699   9.998  1.00  0.00    -0.002 C 
HETATM   18  C1  UNL     1       8.572  24.907   9.416  1.00  0.00     0.005 C 
ENDBRANCH  16  17
ENDBRANCH  15  16
ENDBRANCH  14  15
ENDBRANCH  10  14
ENDBRANCH   3   4
BRANCH   3  19
HETATM   19  C10 UNL     1      14.232  20.438  18.904  1.00  0.00     0.060 C 
BRANCH  19  20
HETATM   20  C11 UNL     1      13.604  19.171  19.359  1.00  0.00     0.117 C 
BRANCH  20  21
HETATM   21  C12 UNL     1      12.117  19.242  19.323  1.00  0.00     0.172 C 
HETATM   22  O4  UNL     1      11.458  18.935  20.343  1.00  0.00    -0.648 OA
HETATM   23  O5  UNL     1      11.425  19.640  18.196  1.00  0.00    -0.648 OA
ENDBRANCH  20  21
ENDBRANCH  19  20
ENDBRANCH   3  19
ENDBRANCH   2   3
ENDBRANCH   1   2
BRANCH   1  24
HETATM   24  O6  UNL     1      18.118  20.408  16.335  1.00  0.00    -0.334 OA
ATOM     25  H6  UNL     1      18.099  19.482  16.543  1.00  0.00     0.220 HD
ENDBRANCH   1  24
BRANCH   1  26
HETATM   26  C14 UNL     1      18.238  22.330  17.632  1.00  0.00     0.101 A 
HETATM   27  C15 UNL     1      19.089  23.068  16.787  1.00  0.00     0.066 A 
HETATM   28  C16 UNL     1      19.808  23.904  17.619  1.00  0.00     0.052 A 
HETATM   29  C27 UNL     1      19.400  23.677  18.905  1.00  0.00     0.120 A 
HETATM   30  N6  UNL     1      18.439  22.710  18.885  1.00  0.00    -0.355 N 
HETATM   31  C28 UNL     1      17.877  22.222  20.141  1.00  0.00     0.156 C 
BRANCH  28  32
HETATM   32  N4  UNL     1      20.852  24.758  17.167  1.00  0.00    -0.324 N 
HETATM   33  C17 UNL     1      20.612  26.115  16.834  1.00  0.00     0.256 C 
HETATM   34  O7  UNL     1      19.382  26.478  16.974  1.00  0.00    -0.271 OA
ATOM     35  H4  UNL     1      21.797  24.386  17.081  1.00  0.00     0.169 HD
BRANCH  33  36
HETATM   36  C18 UNL     1      21.524  27.137  16.362  1.00  0.00     0.317 C 
BRANCH  36  37
HETATM   37  C19 UNL     1      21.318  27.386  14.854  1.00  0.00     0.020 C 
HETATM   38  C20 UNL     1      20.238  28.461  14.688  1.00  0.00     0.012 C 
HETATM   39  C21 UNL     1      20.945  26.141  14.109  1.00  0.00     0.012 C 
ENDBRANCH  36  37
BRANCH  36  40
HETATM   40  N5  UNL     1      22.938  26.869  16.607  1.00  0.00     0.102 N 
HETATM   41  C22 UNL     1      23.193  27.217  18.017  1.00  0.00     0.273 C 
HETATM   42  C23 UNL     1      24.641  26.864  18.372  1.00  0.00     0.030 C 
HETATM   43  C24 UNL     1      25.586  27.558  17.449  1.00  0.00     0.003 C 
HETATM   44  C25 UNL     1      24.809  28.501  16.577  1.00  0.00     0.030 C 
HETATM   45  C26 UNL     1      23.681  27.831  15.831  1.00  0.00     0.273 C 
ENDBRANCH  36  40
ENDBRANCH  33  36
ENDBRANCH  28  32
ENDBRANCH   1  26
TORSDOF 16
ENDMDL
MODEL 5
REMARK VINA RESULT: -8.315166560      3.782     13.096
REMARK  16 active torsions:
REMARK  status: ('A' for Active; 'I' for Inactive)
REMARK    1  A    between atoms: C2_2  and  C3_3 
REMARK    2  A    between atoms: C3_3  and  C4_4 
REMARK    3  A    between atoms: C4_4  and  O1_5 
REMARK    4  A    between atoms: O1_5  and  C5_6 
REMARK       I    between atoms: C5_6  and  N1_8 
REMARK       I    between atoms: N2_11  and  C8_12 
REMARK    5  A    between atoms: C8_12  and  C9_14 
REMARK    6  A    between atoms: C9_14  and  C10_15 
REMARK    7  A    between atoms: C9_14  and  N3_20 
REMARK    8  A    between atoms: C10_15  and  C11_16 
REMARK    9  A    between atoms: C11_16  and  C12_17 
REMARK   10  A    between atoms: N3_20  and  C13_21 
REMARK   11  A    between atoms: C13_21  and  O6_22 
REMARK   12  A    between atoms: C13_21  and  C14_24 
REMARK   13  A    between atoms: C16_26  and  N4_27 
REMARK       I    between atoms: N4_27  and  C17_29 
REMARK   14  A    between atoms: C17_29  and  C18_31 
REMARK   15  A    between atoms: C18_31  and  C19_32 
REMARK   16  A    between atoms: C18_31  and  N5_35 
ROOT
HETATM    1  C13 UNL     1      18.627  24.846  17.401  1.00  0.00     0.237 C 
ENDROOT
BRANCH   1   2
HETATM    2  N3  UNL     1      19.855  25.338  17.462  1.00  0.00    -0.408 NA
BRANCH   2   3
HETATM    3  C9  UNL     1      21.150  25.856  17.526  1.00  0.00     0.258 C 
BRANCH   3   4
HETATM    4  C8  UNL     1      21.093  26.886  18.732  1.00  0.00     0.255 C 
HETATM    5  N2  UNL     1      21.504  26.418  19.976  1.00  0.00    -0.346 N 
HETATM    6  C7  UNL     1      21.990  25.105  20.276  1.00  0.00     0.146 C 
HETATM    7  C29 UNL     1      21.394  27.374  21.100  1.00  0.00     0.146 C 
HETATM    8  C6  UNL     1      23.284  25.233  21.093  1.00  0.00     0.148 C 
HETATM    9  N1  UNL     1      22.990  25.975  22.272  1.00  0.00    -0.325 N 
HETATM   10  C5  UNL     1      23.935  26.073  23.336  1.00  0.00     0.362 C 
HETATM   11  C30 UNL     1      21.713  26.666  22.402  1.00  0.00     0.148 C 
HETATM   12  O2  UNL     1      25.044  25.496  23.227  1.00  0.00    -0.238 OA
HETATM   13  O3  UNL     1      20.696  27.994  18.477  1.00  0.00    -0.270 OA
BRANCH  10  14
HETATM   14  O1  UNL     1      23.649  26.788  24.470  1.00  0.00    -0.304 OA
BRANCH  14  15
HETATM   15  C4  UNL     1      23.600  26.327  25.781  1.00  0.00     0.180 C 
BRANCH  15  16
HETATM   16  C3  UNL     1      22.240  26.579  26.368  1.00  0.00     0.026 C 
BRANCH  16  17
HETATM   17  C2  UNL     1      22.090  26.051  27.759  1.00  0.00    -0.002 C 
HETATM   18  C1  UNL     1      20.768  25.363  27.908  1.00  0.00     0.005 C 
ENDBRANCH  16  17
ENDBRANCH  15  16
ENDBRANCH  14  15
ENDBRANCH  10  14
ENDBRANCH   3   4
BRANCH   3  19
HETATM   19  C10 UNL     1      21.707  26.657  16.424  1.00  0.00     0.060 C 
BRANCH  19  20
HETATM   20  C11 UNL     1      21.155  26.527  15.051  1.00  0.00     0.117 C 
BRANCH  20  21
HETATM   21  C12 UNL     1      20.040  27.484  14.807  1.00  0.00     0.172 C 
HETATM   22  O4  UNL     1      18.946  27.061  14.367  1.00  0.00    -0.648 OA
HETATM   23  O5  UNL     1      20.165  28.838  15.049  1.00  0.00    -0.648 OA
ENDBRANCH  20  21
ENDBRANCH  19  20
ENDBRANCH   3  19
ENDBRANCH   2   3
ENDBRANCH   1   2
BRANCH   1  24
HETATM   24  O6  UNL     1      17.705  25.597  16.747  1.00  0.00    -0.334 OA
ATOM     25  H6  UNL     1      17.083  25.127  16.205  1.00  0.00     0.220 HD
ENDBRANCH   1  24
BRANCH   1  26
HETATM   26  C14 UNL     1      18.006  23.610  17.910  1.00  0.00     0.101 A 
HETATM   27  C15 UNL     1      17.364  22.679  17.072  1.00  0.00     0.066 A 
HETATM   28  C16 UNL     1      16.792  21.748  17.915  1.00  0.00     0.052 A 
HETATM   29  C27 UNL     1      17.085  22.104  19.203  1.00  0.00     0.120 A 
HETATM   30  N6  UNL     1      17.828  23.248  19.172  1.00  0.00    -0.355 N 
HETATM   31  C28 UNL     1      18.219  23.891  20.424  1.00  0.00     0.156 C 
BRANCH  28  32
HETATM   32  N4  UNL     1      15.967  20.679  17.466  1.00  0.00    -0.324 N 
HETATM   33  C17 UNL     1      14.597  20.874  17.158  1.00  0.00     0.256 C 
HETATM   34  O7  UNL     1      14.190  22.087  17.329  1.00  0.00    -0.271 OA
ATOM     35  H4  UNL     1      16.372  19.749  17.363  1.00  0.00     0.169 HD
BRANCH  33  36
HETATM   36  C18 UNL     1      13.601  19.931  16.693  1.00  0.00     0.317 C 
BRANCH  36  37
HETATM   37  C19 UNL     1      12.578  20.639  15.779  1.00  0.00     0.020 C 
HETATM   38  C20 UNL     1      11.195  20.037  16.052  1.00  0.00     0.012 C 
HETATM   39  C21 UNL     1      12.928  20.529  14.327  1.00  0.00     0.012 C 
ENDBRANCH  36  37
BRANCH  36  40
HETATM   40  N5  UNL     1      12.880  19.218  17.744  1.00  0.00     0.102 N 
HETATM   41  C22 UNL     1      13.172  19.924  19.005  1.00  0.00     0.273 C 
HETATM   42  C23 UNL     1      12.365  19.287  20.141  1.00  0.00     0.030 C 
HETATM   43  C24 UNL     1      12.667  17.829  20.238  1.00  0.00     0.003 C 
HETATM   44  C25 UNL     1      13.784  17.500  19.291  1.00  0.00     0.030 C 
HETATM   45  C26 UNL     1      13.507  17.925  17.870  1.00  0.00     0.273 C 
ENDBRANCH  36  40
ENDBRANCH  33  36
ENDBRANCH  28  32
ENDBRANCH   1  26
TORSDOF 16
ENDMDL
