MODEL 1
REMARK VINA RESULT: -9.460411888      0.000      0.000
REMARK  14 active torsions:
REMARK  status: ('A' for Active; 'I' for Inactive)
REMARK    1  A    between atoms: C9_10  and  C10_11 
REMARK       I    between atoms: C10_11  and  N1_13 
REMARK    2  A    between atoms: N1_13  and  C11_14 
REMARK    3  A    between atoms: C11_14  and  C12_15 
REMARK    4  A    between atoms: C12_15  and  O3_16 
REMARK    5  A    between atoms: O3_16  and  C13_17 
REMARK    6  A    between atoms: C13_17  and  C14_18 
REMARK    7  A    between atoms: C14_18  and  O4_19 
REMARK    8  A    between atoms: O4_19  and  C15_20 
REMARK    9  A    between atoms: C15_20  and  C16_21 
REMARK   10  A    between atoms: C16_21  and  O5_22 
REMARK   11  A    between atoms: O5_22  and  N2_23 
REMARK   12  A    between atoms: N2_23  and  O6_24 
REMARK   13  A    between atoms: N3_26  and  C17_28 
REMARK   14  A    between atoms: C23_37  and  C24_38 
ROOT
HETATM    1  C1  UNL     1      17.327  21.512  19.358  1.00  0.00     0.023 C 
HETATM    2  C2  UNL     1      16.680  21.986  18.308  1.00  0.00    -0.016 C 
HETATM    3  C3  UNL     1      16.776  21.394  16.969  1.00  0.00     0.173 C 
HETATM    4  O1  UNL     1      17.487  20.432  16.655  1.00  0.00    -0.291 OA
HETATM    5  C4  UNL     1      15.873  22.146  16.031  1.00  0.00     0.084 C 
HETATM    6  C5  UNL     1      15.721  21.641  14.703  1.00  0.00    -0.007 C 
HETATM    7  C6  UNL     1      14.458  21.842  14.315  1.00  0.00    -0.024 C 
HETATM    8  C7  UNL     1      13.676  22.519  15.422  1.00  0.00     0.024 C 
HETATM    9  C8  UNL     1      13.504  23.929  15.084  1.00  0.00     0.015 C 
HETATM   10  C9  UNL     1      14.481  22.129  16.599  1.00  0.00     0.084 C 
HETATM   11  C19 UNL     1      14.392  22.888  17.843  1.00  0.00     0.032 C 
HETATM   12  C20 UNL     1      15.799  23.179  18.405  1.00  0.00     0.027 C 
HETATM   13  C21 UNL     1      16.370  24.206  17.397  1.00  0.00     0.045 C 
HETATM   14  C22 UNL     1      16.463  23.515  16.115  1.00  0.00    -0.058 C 
HETATM   15  C23 UNL     1      17.058  24.039  15.077  1.00  0.00     0.005 C 
ENDROOT
BRANCH  10  16
HETATM   16  C10 UNL     1      14.016  20.683  16.878  1.00  0.00     0.302 C 
HETATM   17  O2  UNL     1      13.753  19.954  15.903  1.00  0.00    -0.256 OA
HETATM   18  N1  UNL     1      13.920  20.290  18.184  1.00  0.00    -0.385 NA
BRANCH  18  19
HETATM   19  C11 UNL     1      13.824  19.893  19.499  1.00  0.00     0.185 C 
BRANCH  19  20
HETATM   20  C12 UNL     1      12.545  19.132  19.836  1.00  0.00     0.227 C 
BRANCH  20  21
HETATM   21  O3  UNL     1      11.564  19.177  18.901  1.00  0.00    -0.383 OA
BRANCH  21  22
HETATM   22  C13 UNL     1      11.094  17.983  18.434  1.00  0.00     0.194 C 
BRANCH  22  23
HETATM   23  C14 UNL     1      12.144  17.165  17.735  1.00  0.00     0.193 C 
BRANCH  23  24
HETATM   24  O4  UNL     1      11.592  16.284  16.859  1.00  0.00    -0.387 OA
BRANCH  24  25
HETATM   25  C15 UNL     1      10.268  16.468  16.609  1.00  0.00     0.196 C 
BRANCH  25  26
HETATM   26  C16 UNL     1      10.008  16.725  15.142  1.00  0.00     0.232 C 
BRANCH  26  27
HETATM   27  O5  UNL     1       9.979  18.143  14.916  1.00  0.00    -0.236 OA
BRANCH  27  28
HETATM   28  N2  UNL     1      10.936  18.716  14.142  1.00  0.00    -0.054 N 
HETATM   29  N3  UNL     1      11.152  19.950  14.203  1.00  0.00    -0.243 N 
ATOM     30  H3  UNL     1      11.875  20.359  13.611  1.00  0.00     0.193 HD
BRANCH  28  31
HETATM   31  O6  UNL     1      11.703  17.970  13.258  1.00  0.00    -0.248 OA
ATOM     32  H6  UNL     1      12.344  18.376  12.687  1.00  0.00     0.249 HD
ENDBRANCH  28  31
BRANCH  29  33
HETATM   33  C17 UNL     1      10.415  20.792  15.077  1.00  0.00     0.089 C 
HETATM   34  C18 UNL     1       9.471  21.809  14.564  1.00  0.00     0.090 C 
HETATM   35  N4  UNL     1      10.600  20.638  16.353  1.00  0.00    -0.388 N 
ATOM     36  H42 UNL     1      11.250  19.937  16.706  1.00  0.00     0.157 HD
ATOM     37  H41 UNL     1      10.070  21.244  16.981  1.00  0.00     0.157 HD
ENDBRANCH  29  33
ENDBRANCH  27  28
ENDBRANCH  26  27
ENDBRANCH  25  26
ENDBRANCH  24  25
ENDBRANCH  23  24
ENDBRANCH  22  23
ENDBRANCH  21  22
ENDBRANCH  20  21
ENDBRANCH  19  20
ENDBRANCH  18  19
ENDBRANCH  10  16
BRANCH  15  38
HETATM   38  C24 UNL     1      17.623  25.373  15.201  1.00  0.00     0.013 C 
HETATM   39  C25 UNL     1      18.831  25.704  15.573  1.00  0.00     0.014 C 
HETATM   40  C26 UNL     1      19.226  27.163  15.638  1.00  0.00     0.088 C 
HETATM   41  C31 UNL     1      19.879  24.786  15.963  1.00  0.00     0.254 C 
HETATM   42  C27 UNL     1      20.536  27.294  14.884  1.00  0.00     0.010 C 
HETATM   43  C28 UNL     1      20.626  28.211  13.962  1.00  0.00    -0.018 C 
HETATM   44  C30 UNL     1      21.597  26.379  15.268  1.00  0.00     0.254 C 
HETATM   45  C29 UNL     1      21.737  28.563  13.092  1.00  0.00     0.036 C 
HETATM   46  O7  UNL     1      22.808  26.733  15.109  1.00  0.00    -0.268 OA
HETATM   47  N5  UNL     1      21.279  25.108  15.815  1.00  0.00    -0.290 N 
ATOM     48  H5  UNL     1      22.008  24.451  16.092  1.00  0.00     0.172 HD
HETATM   49  O8  UNL     1      19.546  23.666  16.449  1.00  0.00    -0.268 OA
ENDBRANCH  15  38
TORSDOF 14
ENDMDL
MODEL 2
REMARK VINA RESULT: -8.978520833      3.341      5.422
REMARK  14 active torsions:
REMARK  status: ('A' for Active; 'I' for Inactive)
REMARK    1  A    between atoms: C9_10  and  C10_11 
REMARK       I    between atoms: C10_11  and  N1_13 
REMARK    2  A    between atoms: N1_13  and  C11_14 
REMARK    3  A    between atoms: C11_14  and  C12_15 
REMARK    4  A    between atoms: C12_15  and  O3_16 
REMARK    5  A    between atoms: O3_16  and  C13_17 
REMARK    6  A    between atoms: C13_17  and  C14_18 
REMARK    7  A    between atoms: C14_18  and  O4_19 
REMARK    8  A    between atoms: O4_19  and  C15_20 
REMARK    9  A    between atoms: C15_20  and  C16_21 
REMARK   10  A    between atoms: C16_21  and  O5_22 
REMARK   11  A    between atoms: O5_22  and  N2_23 
REMARK   12  A    between atoms: N2_23  and  O6_24 
REMARK   13  A    between atoms: N3_26  and  C17_28 
REMARK   14  A    between atoms: C23_37  and  C24_38 
ROOT
HETATM    1  C1  UNL     1      17.639  25.350  14.801  1.00  0.00     0.023 C 
HETATM    2  C2  UNL     1      18.041  24.835  15.950  1.00  0.00    -0.016 C 
HETATM    3  C3  UNL     1      17.447  25.192  17.244  1.00  0.00     0.173 C 
HETATM    4  O1  UNL     1      16.552  26.026  17.420  1.00  0.00    -0.291 OA
HETATM    5  C4  UNL     1      18.105  24.384  18.328  1.00  0.00     0.084 C 
HETATM    6  C5  UNL     1      17.575  24.487  19.650  1.00  0.00    -0.007 C 
HETATM    7  C6  UNL     1      17.656  23.288  20.234  1.00  0.00    -0.024 C 
HETATM    8  C7  UNL     1      18.269  22.285  19.279  1.00  0.00     0.024 C 
HETATM    9  C8  UNL     1      19.654  22.043  19.673  1.00  0.00     0.015 C 
HETATM   10  C9  UNL     1      17.966  22.927  17.983  1.00  0.00     0.084 C 
HETATM   11  C19 UNL     1      18.725  22.577  16.785  1.00  0.00     0.032 C 
HETATM   12  C20 UNL     1      19.149  23.847  16.019  1.00  0.00     0.027 C 
HETATM   13  C21 UNL     1      20.214  24.475  16.951  1.00  0.00     0.045 C 
HETATM   14  C22 UNL     1      19.523  24.828  18.186  1.00  0.00    -0.058 C 
HETATM   15  C23 UNL     1      20.089  25.530  19.131  1.00  0.00     0.005 C 
ENDROOT
BRANCH  10  16
HETATM   16  C10 UNL     1      16.486  22.554  17.744  1.00  0.00     0.302 C 
HETATM   17  O2  UNL     1      15.719  22.545  18.726  1.00  0.00    -0.256 OA
HETATM   18  N1  UNL     1      16.106  22.256  16.465  1.00  0.00    -0.385 NA
BRANCH  18  19
HETATM   19  C11 UNL     1      15.723  21.956  15.177  1.00  0.00     0.185 C 
BRANCH  19  20
HETATM   20  C12 UNL     1      14.501  22.728  14.688  1.00  0.00     0.227 C 
BRANCH  20  21
HETATM   21  O3  UNL     1      13.296  22.240  15.077  1.00  0.00    -0.383 OA
BRANCH  21  22
HETATM   22  C13 UNL     1      12.313  22.183  14.130  1.00  0.00     0.194 C 
BRANCH  22  23
HETATM   23  C14 UNL     1      11.148  21.324  14.536  1.00  0.00     0.193 C 
BRANCH  23  24
HETATM   24  O4  UNL     1      11.519  20.367  15.428  1.00  0.00    -0.387 OA
BRANCH  24  25
HETATM   25  C15 UNL     1      10.833  19.196  15.341  1.00  0.00     0.196 C 
BRANCH  25  26
HETATM   26  C16 UNL     1      10.624  18.570  16.700  1.00  0.00     0.232 C 
BRANCH  26  27
HETATM   27  O5  UNL     1      10.952  19.536  17.712  1.00  0.00    -0.236 OA
BRANCH  27  28
HETATM   28  N2  UNL     1      11.496  19.118  18.883  1.00  0.00    -0.054 N 
HETATM   29  N3  UNL     1      12.718  19.287  19.116  1.00  0.00    -0.243 N 
ATOM     30  H3  UNL     1      13.105  18.963  20.002  1.00  0.00     0.193 HD
BRANCH  28  31
HETATM   31  O6  UNL     1      10.735  18.490  19.859  1.00  0.00    -0.248 OA
ATOM     32  H6  UNL     1      11.037  18.413  20.757  1.00  0.00     0.249 HD
ENDBRANCH  28  31
BRANCH  29  33
HETATM   33  C17 UNL     1      13.574  19.917  18.175  1.00  0.00     0.089 C 
HETATM   34  C18 UNL     1      14.777  19.241  17.643  1.00  0.00     0.090 C 
HETATM   35  N4  UNL     1      13.263  21.119  17.795  1.00  0.00    -0.388 N 
ATOM     36  H42 UNL     1      12.434  21.585  18.162  1.00  0.00     0.157 HD
ATOM     37  H41 UNL     1      13.879  21.572  17.119  1.00  0.00     0.157 HD
ENDBRANCH  29  33
ENDBRANCH  27  28
ENDBRANCH  26  27
ENDBRANCH  25  26
ENDBRANCH  24  25
ENDBRANCH  23  24
ENDBRANCH  22  23
ENDBRANCH  21  22
ENDBRANCH  20  21
ENDBRANCH  19  20
ENDBRANCH  18  19
ENDBRANCH  10  16
BRANCH  15  38
HETATM   38  C24 UNL     1      21.470  25.948  18.954  1.00  0.00     0.013 C 
HETATM   39  C25 UNL     1      22.491  25.703  19.732  1.00  0.00     0.014 C 
HETATM   40  C26 UNL     1      23.860  26.234  19.367  1.00  0.00     0.088 C 
HETATM   41  C31 UNL     1      22.453  24.958  20.971  1.00  0.00     0.254 C 
HETATM   42  C27 UNL     1      24.822  25.064  19.466  1.00  0.00     0.010 C 
HETATM   43  C28 UNL     1      25.604  24.824  18.452  1.00  0.00    -0.018 C 
HETATM   44  C30 UNL     1      24.794  24.310  20.706  1.00  0.00     0.254 C 
HETATM   45  C29 UNL     1      26.609  23.789  18.266  1.00  0.00     0.036 C 
HETATM   46  O7  UNL     1      25.848  23.710  21.090  1.00  0.00    -0.268 OA
HETATM   47  N5  UNL     1      23.603  24.248  21.478  1.00  0.00    -0.290 N 
ATOM     48  H5  UNL     1      23.563  23.724  22.352  1.00  0.00     0.172 HD
HETATM   49  O8  UNL     1      21.370  24.935  21.625  1.00  0.00    -0.268 OA
ENDBRANCH  15  38
TORSDOF 14
ENDMDL
MODEL 3
REMARK VINA RESULT: -8.973918969      3.341      5.611
REMARK  14 active torsions:
REMARK  status: ('A' for Active; 'I' for Inactive)
REMARK    1  A    between atoms: C9_10  and  C10_11 
REMARK       I    between atoms: C10_11  and  N1_13 
REMARK    2  A    between atoms: N1_13  and  C11_14 
REMARK    3  A    between atoms: C11_14  and  C12_15 
REMARK    4  A    between atoms: C12_15  and  O3_16 
REMARK    5  A    between atoms: O3_16  and  C13_17 
REMARK    6  A    between atoms: C13_17  and  C14_18 
REMARK    7  A    between atoms: C14_18  and  O4_19 
REMARK    8  A    between atoms: O4_19  and  C15_20 
REMARK    9  A    between atoms: C15_20  and  C16_21 
REMARK   10  A    between atoms: C16_21  and  O5_22 
REMARK   11  A    between atoms: O5_22  and  N2_23 
REMARK   12  A    between atoms: N2_23  and  O6_24 
REMARK   13  A    between atoms: N3_26  and  C17_28 
REMARK   14  A    between atoms: C23_37  and  C24_38 
ROOT
HETATM    1  C1  UNL     1      17.426  25.226  15.118  1.00  0.00     0.023 C 
HETATM    2  C2  UNL     1      17.907  24.708  16.235  1.00  0.00    -0.016 C 
HETATM    3  C3  UNL     1      17.329  24.970  17.559  1.00  0.00     0.173 C 
HETATM    4  O1  UNL     1      16.376  25.722  17.792  1.00  0.00    -0.291 OA
HETATM    5  C4  UNL     1      18.085  24.183  18.592  1.00  0.00     0.084 C 
HETATM    6  C5  UNL     1      17.592  24.198  19.933  1.00  0.00    -0.007 C 
HETATM    7  C6  UNL     1      17.789  22.990  20.470  1.00  0.00    -0.024 C 
HETATM    8  C7  UNL     1      18.450  22.073  19.461  1.00  0.00     0.024 C 
HETATM    9  C8  UNL     1      19.862  21.933  19.804  1.00  0.00     0.015 C 
HETATM   10  C9  UNL     1      18.053  22.732  18.199  1.00  0.00     0.084 C 
HETATM   11  C19 UNL     1      18.798  22.486  16.967  1.00  0.00     0.032 C 
HETATM   12  C20 UNL     1      19.093  23.812  16.235  1.00  0.00     0.027 C 
HETATM   13  C21 UNL     1      20.134  24.493  17.157  1.00  0.00     0.045 C 
HETATM   14  C22 UNL     1      19.457  24.747  18.424  1.00  0.00    -0.058 C 
HETATM   15  C23 UNL     1      19.995  25.460  19.377  1.00  0.00     0.005 C 
ENDROOT
BRANCH  10  16
HETATM   16  C10 UNL     1      16.601  22.248  17.991  1.00  0.00     0.302 C 
HETATM   17  O2  UNL     1      15.843  22.229  18.980  1.00  0.00    -0.256 OA
HETATM   18  N1  UNL     1      16.234  21.866  16.731  1.00  0.00    -0.385 NA
BRANCH  18  19
HETATM   19  C11 UNL     1      15.864  21.484  15.461  1.00  0.00     0.185 C 
BRANCH  19  20
HETATM   20  C12 UNL     1      15.187  22.581  14.645  1.00  0.00     0.227 C 
BRANCH  20  21
HETATM   21  O3  UNL     1      14.374  23.419  15.335  1.00  0.00    -0.383 OA
BRANCH  21  22
HETATM   22  C13 UNL     1      13.164  23.713  14.774  1.00  0.00     0.194 C 
BRANCH  22  23
HETATM   23  C14 UNL     1      12.739  22.723  13.726  1.00  0.00     0.193 C 
BRANCH  23  24
HETATM   24  O4  UNL     1      11.695  21.962  14.151  1.00  0.00    -0.387 OA
BRANCH  24  25
HETATM   25  C15 UNL     1      12.004  20.675  14.460  1.00  0.00     0.196 C 
BRANCH  25  26
HETATM   26  C16 UNL     1      11.565  20.317  15.861  1.00  0.00     0.232 C 
BRANCH  26  27
HETATM   27  O5  UNL     1      12.688  19.778  16.576  1.00  0.00    -0.236 OA
BRANCH  27  28
HETATM   28  N2  UNL     1      13.184  20.450  17.645  1.00  0.00    -0.054 N 
HETATM   29  N3  UNL     1      13.590  19.829  18.658  1.00  0.00    -0.243 N 
ATOM     30  H3  UNL     1      13.957  20.355  19.450  1.00  0.00     0.193 HD
BRANCH  28  31
HETATM   31  O6  UNL     1      13.260  21.836  17.666  1.00  0.00    -0.248 OA
ATOM     32  H6  UNL     1      13.367  22.319  18.477  1.00  0.00     0.249 HD
ENDBRANCH  28  31
BRANCH  29  33
HETATM   33  C17 UNL     1      13.549  18.412  18.727  1.00  0.00     0.089 C 
HETATM   34  C18 UNL     1      12.671  17.705  19.686  1.00  0.00     0.090 C 
HETATM   35  N4  UNL     1      14.315  17.751  17.914  1.00  0.00    -0.388 N 
ATOM     36  H42 UNL     1      14.920  18.238  17.253  1.00  0.00     0.157 HD
ATOM     37  H41 UNL     1      14.286  16.732  17.964  1.00  0.00     0.157 HD
ENDBRANCH  29  33
ENDBRANCH  27  28
ENDBRANCH  26  27
ENDBRANCH  25  26
ENDBRANCH  24  25
ENDBRANCH  23  24
ENDBRANCH  22  23
ENDBRANCH  21  22
ENDBRANCH  20  21
ENDBRANCH  19  20
ENDBRANCH  18  19
ENDBRANCH  10  16
BRANCH  15  38
HETATM   38  C24 UNL     1      21.332  25.995  19.173  1.00  0.00     0.013 C 
HETATM   39  C25 UNL     1      22.416  25.733  19.853  1.00  0.00     0.014 C 
HETATM   40  C26 UNL     1      23.721  26.402  19.478  1.00  0.00     0.088 C 
HETATM   41  C31 UNL     1      22.510  24.841  20.988  1.00  0.00     0.254 C 
HETATM   42  C27 UNL     1      24.760  25.302  19.373  1.00  0.00     0.010 C 
HETATM   43  C28 UNL     1      25.487  25.243  18.293  1.00  0.00    -0.018 C 
HETATM   44  C30 UNL     1      24.865  24.401  20.507  1.00  0.00     0.254 C 
HETATM   45  C29 UNL     1      26.542  24.315  17.919  1.00  0.00     0.036 C 
HETATM   46  O7  UNL     1      25.979  23.837  20.750  1.00  0.00    -0.268 OA
HETATM   47  N5  UNL     1      23.735  24.160  21.333  1.00  0.00    -0.290 N 
ATOM     48  H5  UNL     1      23.786  23.532  22.135  1.00  0.00     0.172 HD
HETATM   49  O8  UNL     1      21.477  24.660  21.696  1.00  0.00    -0.268 OA
ENDBRANCH  15  38
TORSDOF 14
ENDMDL
MODEL 4
REMARK VINA RESULT: -8.950590045      0.913      1.234
REMARK  14 active torsions:
REMARK  status: ('A' for Active; 'I' for Inactive)
REMARK    1  A    between atoms: C9_10  and  C10_11 
REMARK       I    between atoms: C10_11  and  N1_13 
REMARK    2  A    between atoms: N1_13  and  C11_14 
REMARK    3  A    between atoms: C11_14  and  C12_15 
REMARK    4  A    between atoms: C12_15  and  O3_16 
REMARK    5  A    between atoms: O3_16  and  C13_17 
REMARK    6  A    between atoms: C13_17  and  C14_18 
REMARK    7  A    between atoms: C14_18  and  O4_19 
REMARK    8  A    between atoms: O4_19  and  C15_20 
REMARK    9  A    between atoms: C15_20  and  C16_21 
REMARK   10  A    between atoms: C16_21  and  O5_22 
REMARK   11  A    between atoms: O5_22  and  N2_23 
REMARK   12  A    between atoms: N2_23  and  O6_24 
REMARK   13  A    between atoms: N3_26  and  C17_28 
REMARK   14  A    between atoms: C23_37  and  C24_38 
ROOT
HETATM    1  C1  UNL     1      17.070  21.425  19.312  1.00  0.00     0.023 C 
HETATM    2  C2  UNL     1      16.470  21.925  18.246  1.00  0.00    -0.016 C 
HETATM    3  C3  UNL     1      16.605  21.351  16.902  1.00  0.00     0.173 C 
HETATM    4  O1  UNL     1      17.311  20.383  16.600  1.00  0.00    -0.291 OA
HETATM    5  C4  UNL     1      15.749  22.133  15.944  1.00  0.00     0.084 C 
HETATM    6  C5  UNL     1      15.638  21.650  14.604  1.00  0.00    -0.007 C 
HETATM    7  C6  UNL     1      14.394  21.878  14.173  1.00  0.00    -0.024 C 
HETATM    8  C7  UNL     1      13.582  22.552  15.261  1.00  0.00     0.024 C 
HETATM    9  C8  UNL     1      13.447  23.970  14.938  1.00  0.00     0.015 C 
HETATM   10  C9  UNL     1      14.337  22.131  16.460  1.00  0.00     0.084 C 
HETATM   11  C19 UNL     1      14.216  22.872  17.712  1.00  0.00     0.032 C 
HETATM   12  C20 UNL     1      15.606  23.131  18.329  1.00  0.00     0.027 C 
HETATM   13  C21 UNL     1      16.230  24.163  17.358  1.00  0.00     0.045 C 
HETATM   14  C22 UNL     1      16.358  23.491  16.070  1.00  0.00    -0.058 C 
HETATM   15  C23 UNL     1      17.000  24.019  15.063  1.00  0.00     0.005 C 
ENDROOT
BRANCH  10  16
HETATM   16  C10 UNL     1      13.839  20.689  16.700  1.00  0.00     0.302 C 
HETATM   17  O2  UNL     1      13.660  19.959  15.707  1.00  0.00    -0.256 OA
HETATM   18  N1  UNL     1      13.622  20.301  17.992  1.00  0.00    -0.385 NA
BRANCH  18  19
HETATM   19  C11 UNL     1      13.405  19.909  19.295  1.00  0.00     0.185 C 
BRANCH  19  20
HETATM   20  C12 UNL     1      12.268  18.907  19.469  1.00  0.00     0.227 C 
BRANCH  20  21
HETATM   21  O3  UNL     1      11.710  18.436  18.326  1.00  0.00    -0.383 OA
BRANCH  21  22
HETATM   22  C13 UNL     1      12.037  17.163  17.953  1.00  0.00     0.194 C 
BRANCH  22  23
HETATM   23  C14 UNL     1      10.878  16.398  17.376  1.00  0.00     0.193 C 
BRANCH  23  24
HETATM   24  O4  UNL     1      11.275  15.570  16.374  1.00  0.00    -0.387 OA
BRANCH  24  25
HETATM   25  C15 UNL     1      10.471  15.560  15.277  1.00  0.00     0.196 C 
BRANCH  25  26
HETATM   26  C16 UNL     1       9.635  16.815  15.187  1.00  0.00     0.232 C 
BRANCH  26  27
HETATM   27  O5  UNL     1      10.321  17.772  14.364  1.00  0.00    -0.236 OA
BRANCH  27  28
HETATM   28  N2  UNL     1      10.454  19.052  14.795  1.00  0.00    -0.054 N 
HETATM   29  N3  UNL     1      11.069  19.899  14.104  1.00  0.00    -0.243 N 
ATOM     30  H3  UNL     1      11.157  20.854  14.449  1.00  0.00     0.193 HD
BRANCH  28  31
HETATM   31  O6  UNL     1       9.924  19.472  16.008  1.00  0.00    -0.248 OA
ATOM     32  H6  UNL     1       9.258  20.147  16.056  1.00  0.00     0.249 HD
ENDBRANCH  28  31
BRANCH  29  33
HETATM   33  C17 UNL     1      11.645  19.559  12.852  1.00  0.00     0.089 C 
HETATM   34  C18 UNL     1      10.977  19.887  11.573  1.00  0.00     0.090 C 
HETATM   35  N4  UNL     1      12.789  18.944  12.867  1.00  0.00    -0.388 N 
ATOM     36  H42 UNL     1      13.249  18.718  13.748  1.00  0.00     0.157 HD
ATOM     37  H41 UNL     1      13.202  18.700  11.966  1.00  0.00     0.157 HD
ENDBRANCH  29  33
ENDBRANCH  27  28
ENDBRANCH  26  27
ENDBRANCH  25  26
ENDBRANCH  24  25
ENDBRANCH  23  24
ENDBRANCH  22  23
ENDBRANCH  21  22
ENDBRANCH  20  21
ENDBRANCH  19  20
ENDBRANCH  18  19
ENDBRANCH  10  16
BRANCH  15  38
HETATM   38  C24 UNL     1      17.581  25.342  15.227  1.00  0.00     0.013 C 
HETATM   39  C25 UNL     1      18.798  25.645  15.596  1.00  0.00     0.014 C 
HETATM   40  C26 UNL     1      19.210  27.097  15.709  1.00  0.00     0.088 C 
HETATM   41  C31 UNL     1      19.840  24.703  15.938  1.00  0.00     0.254 C 
HETATM   42  C27 UNL     1      20.512  27.241  14.943  1.00  0.00     0.010 C 
HETATM   43  C28 UNL     1      20.601  28.190  14.054  1.00  0.00    -0.018 C 
HETATM   44  C30 UNL     1      21.566  26.301  15.279  1.00  0.00     0.254 C 
HETATM   45  C29 UNL     1      21.704  28.562  13.183  1.00  0.00     0.036 C 
HETATM   46  O7  UNL     1      22.780  26.648  15.118  1.00  0.00    -0.268 OA
HETATM   47  N5  UNL     1      21.241  25.015  15.784  1.00  0.00    -0.290 N 
ATOM     48  H5  UNL     1      21.966  24.340  16.027  1.00  0.00     0.172 HD
HETATM   49  O8  UNL     1      19.501  23.570  16.388  1.00  0.00    -0.268 OA
ENDBRANCH  15  38
TORSDOF 14
ENDMDL
MODEL 5
REMARK VINA RESULT: -8.822025651      2.047      3.398
REMARK  14 active torsions:
REMARK  status: ('A' for Active; 'I' for Inactive)
REMARK    1  A    between atoms: C9_10  and  C10_11 
REMARK       I    between atoms: C10_11  and  N1_13 
REMARK    2  A    between atoms: N1_13  and  C11_14 
REMARK    3  A    between atoms: C11_14  and  C12_15 
REMARK    4  A    between atoms: C12_15  and  O3_16 
REMARK    5  A    between atoms: O3_16  and  C13_17 
REMARK    6  A    between atoms: C13_17  and  C14_18 
REMARK    7  A    between atoms: C14_18  and  O4_19 
REMARK    8  A    between atoms: O4_19  and  C15_20 
REMARK    9  A    between atoms: C15_20  and  C16_21 
REMARK   10  A    between atoms: C16_21  and  O5_22 
REMARK   11  A    between atoms: O5_22  and  N2_23 
REMARK   12  A    between atoms: N2_23  and  O6_24 
REMARK   13  A    between atoms: N3_26  and  C17_28 
REMARK   14  A    between atoms: C23_37  and  C24_38 
ROOT
HETATM    1  C1  UNL     1      15.256  22.057  14.631  1.00  0.00     0.023 C 
HETATM    2  C2  UNL     1      16.033  22.204  15.691  1.00  0.00    -0.016 C 
HETATM    3  C3  UNL     1      15.777  23.193  16.745  1.00  0.00     0.173 C 
HETATM    4  O1  UNL     1      14.857  24.018  16.751  1.00  0.00    -0.291 OA
HETATM    5  C4  UNL     1      16.819  23.050  17.819  1.00  0.00     0.084 C 
HETATM    6  C5  UNL     1      16.670  23.837  19.002  1.00  0.00    -0.007 C 
HETATM    7  C6  UNL     1      17.082  23.112  20.047  1.00  0.00    -0.024 C 
HETATM    8  C7  UNL     1      17.543  21.746  19.583  1.00  0.00     0.024 C 
HETATM    9  C8  UNL     1      19.002  21.712  19.589  1.00  0.00     0.015 C 
HETATM   10  C9  UNL     1      16.801  21.629  18.310  1.00  0.00     0.084 C 
HETATM   11  C19 UNL     1      17.239  20.692  17.279  1.00  0.00     0.032 C 
HETATM   12  C20 UNL     1      17.246  21.371  15.893  1.00  0.00     0.027 C 
HETATM   13  C21 UNL     1      18.427  22.367  16.001  1.00  0.00     0.045 C 
HETATM   14  C22 UNL     1      18.063  23.325  17.039  1.00  0.00    -0.058 C 
HETATM   15  C23 UNL     1      18.763  24.402  17.276  1.00  0.00     0.005 C 
ENDROOT
BRANCH  10  16
HETATM   16  C10 UNL     1      15.383  21.220  18.765  1.00  0.00     0.302 C 
HETATM   17  O2  UNL     1      14.759  22.001  19.509  1.00  0.00    -0.256 OA
HETATM   18  N1  UNL     1      14.897  20.022  18.323  1.00  0.00    -0.385 NA
BRANCH  18  19
HETATM   19  C11 UNL     1      14.406  18.815  17.877  1.00  0.00     0.185 C 
BRANCH  19  20
HETATM   20  C12 UNL     1      13.916  17.886  18.985  1.00  0.00     0.227 C 
BRANCH  20  21
HETATM   21  O3  UNL     1      13.559  18.486  20.148  1.00  0.00    -0.383 OA
BRANCH  21  22
HETATM   22  C13 UNL     1      12.255  18.874  20.273  1.00  0.00     0.194 C 
BRANCH  22  23
HETATM   23  C14 UNL     1      11.310  18.057  19.437  1.00  0.00     0.193 C 
BRANCH  23  24
HETATM   24  O4  UNL     1      10.538  18.843  18.641  1.00  0.00    -0.387 OA
BRANCH  24  25
HETATM   25  C15 UNL     1      10.713  18.665  17.304  1.00  0.00     0.196 C 
BRANCH  25  26
HETATM   26  C16 UNL     1      10.832  19.984  16.577  1.00  0.00     0.232 C 
BRANCH  26  27
HETATM   27  O5  UNL     1       9.746  20.100  15.644  1.00  0.00    -0.236 OA
BRANCH  27  28
HETATM   28  N2  UNL     1       9.427  21.318  15.138  1.00  0.00    -0.054 N 
HETATM   29  N3  UNL     1       9.797  21.649  13.985  1.00  0.00    -0.243 N 
ATOM     30  H3  UNL     1       9.547  22.570  13.627  1.00  0.00     0.193 HD
BRANCH  28  31
HETATM   31  O6  UNL     1       8.690  22.241  15.867  1.00  0.00    -0.248 OA
ATOM     32  H6  UNL     1       9.108  22.896  16.415  1.00  0.00     0.249 HD
ENDBRANCH  28  31
BRANCH  29  33
HETATM   33  C17 UNL     1      10.556  20.771  13.168  1.00  0.00     0.089 C 
HETATM   34  C18 UNL     1      12.030  20.862  13.088  1.00  0.00     0.090 C 
HETATM   35  N4  UNL     1       9.906  19.877  12.485  1.00  0.00    -0.388 N 
ATOM     36  H42 UNL     1       8.890  19.814  12.541  1.00  0.00     0.157 HD
ATOM     37  H41 UNL     1      10.452  19.246  11.898  1.00  0.00     0.157 HD
ENDBRANCH  29  33
ENDBRANCH  27  28
ENDBRANCH  26  27
ENDBRANCH  25  26
ENDBRANCH  24  25
ENDBRANCH  23  24
ENDBRANCH  22  23
ENDBRANCH  21  22
ENDBRANCH  20  21
ENDBRANCH  19  20
ENDBRANCH  18  19
ENDBRANCH  10  16
BRANCH  15  38
HETATM   38  C24 UNL     1      19.965  24.636  16.493  1.00  0.00     0.013 C 
HETATM   39  C25 UNL     1      20.125  25.459  15.491  1.00  0.00     0.014 C 
HETATM   40  C26 UNL     1      21.469  25.554  14.801  1.00  0.00     0.088 C 
HETATM   41  C31 UNL     1      19.107  26.322  14.931  1.00  0.00     0.254 C 
HETATM   42  C27 UNL     1      21.817  27.028  14.727  1.00  0.00     0.010 C 
HETATM   43  C28 UNL     1      22.988  27.406  15.155  1.00  0.00    -0.018 C 
HETATM   44  C30 UNL     1      20.804  27.904  14.165  1.00  0.00     0.254 C 
HETATM   45  C29 UNL     1      23.588  28.730  15.207  1.00  0.00     0.036 C 
HETATM   46  O7  UNL     1      21.164  28.978  13.587  1.00  0.00    -0.268 OA
HETATM   47  N5  UNL     1      19.430  27.558  14.261  1.00  0.00    -0.290 N 
ATOM     48  H5  UNL     1      18.702  28.158  13.872  1.00  0.00     0.172 HD
HETATM   49  O8  UNL     1      17.897  25.969  15.038  1.00  0.00    -0.268 OA
ENDBRANCH  15  38
TORSDOF 14
ENDMDL
