MODEL 1
REMARK VINA RESULT: -9.021207555      0.000      0.000
REMARK  16 active torsions:
REMARK  status: ('A' for Active; 'I' for Inactive)
REMARK    1  A    between atoms: C2_2  and  C3_3 
REMARK    2  A    between atoms: C3_3  and  C4_4 
REMARK    3  A    between atoms: C4_4  and  O1_5 
REMARK    4  A    between atoms: O1_5  and  C5_6 
REMARK       I    between atoms: C5_6  and  N1_8 
REMARK       I    between atoms: N2_11  and  C8_12 
REMARK    5  A    between atoms: C8_12  and  C9_14 
REMARK    6  A    between atoms: C9_14  and  C10_15 
REMARK    7  A    between atoms: C9_14  and  N3_19 
REMARK    8  A    between atoms: C10_15  and  C11_16 
REMARK       I    between atoms: N3_19  and  C14_21 
REMARK    9  A    between atoms: C14_21  and  C15_23 
REMARK   10  A    between atoms: C15_23  and  C16_24 
REMARK   11  A    between atoms: C15_23  and  N4_33 
REMARK   12  A    between atoms: C16_24  and  C17_25 
REMARK   13  A    between atoms: C17_25  and  C18_26 
REMARK   14  A    between atoms: C18_26  and  O6_28 
REMARK   15  A    between atoms: O6_28  and  C19_29 
REMARK       I    between atoms: N4_33  and  C23_35 
REMARK   16  A    between atoms: C23_35  and  C24_37 
ROOT
HETATM    1  N3  UNL     1      14.918  22.485  16.154  1.00  0.00    -0.346 N 
ATOM      2  H3  UNL     1      14.632  23.463  16.100  1.00  0.00     0.163 HD
HETATM    3  C14 UNL     1      16.153  22.128  15.625  1.00  0.00     0.241 C 
HETATM    4  O4  UNL     1      16.514  20.901  15.690  1.00  0.00    -0.271 OA
ENDROOT
BRANCH   3   5
HETATM    5  C15 UNL     1      17.127  23.084  14.970  1.00  0.00     0.177 C 
BRANCH   5   6
HETATM    6  C16 UNL     1      16.746  23.258  13.565  1.00  0.00     0.044 C 
BRANCH   6   7
HETATM    7  C17 UNL     1      17.121  24.516  12.878  1.00  0.00     0.113 C 
BRANCH   7   8
HETATM    8  C18 UNL     1      18.511  24.952  13.021  1.00  0.00     0.259 C 
HETATM    9  O5  UNL     1      19.412  24.539  12.258  1.00  0.00    -0.265 OA
BRANCH   8  10
HETATM   10  O6  UNL     1      18.879  25.841  14.013  1.00  0.00    -0.311 OA
BRANCH  10  11
HETATM   11  C19 UNL     1      18.852  27.211  13.764  1.00  0.00     0.060 C 
HETATM   12  C20 UNL     1      18.545  27.951  15.046  1.00  0.00     0.045 C 
HETATM   13  C21 UNL     1      20.286  27.571  13.327  1.00  0.00     0.045 C 
HETATM   14  C22 UNL     1      17.907  27.626  12.689  1.00  0.00     0.045 C 
ENDBRANCH  10  11
ENDBRANCH   8  10
ENDBRANCH   7   8
ENDBRANCH   6   7
ENDBRANCH   5   6
BRANCH   5  15
HETATM   15  N4  UNL     1      17.179  24.227  15.810  1.00  0.00    -0.346 N 
HETATM   16  C23 UNL     1      17.789  24.331  17.084  1.00  0.00     0.240 C 
HETATM   17  O7  UNL     1      18.346  23.325  17.565  1.00  0.00    -0.271 OA
ATOM     18  H4  UNL     1      16.727  25.069  15.456  1.00  0.00     0.163 HD
BRANCH  16  19
HETATM   19  C24 UNL     1      17.789  25.589  17.866  1.00  0.00     0.169 C 
HETATM   20  C25 UNL     1      18.234  25.332  19.299  1.00  0.00     0.034 C 
HETATM   21  C26 UNL     1      17.166  25.597  20.309  1.00  0.00     0.004 C 
HETATM   22  C27 UNL     1      15.814  25.108  19.888  1.00  0.00     0.019 C 
HETATM   23  C28 UNL     1      15.444  25.611  18.513  1.00  0.00     0.114 C 
HETATM   24  N5  UNL     1      16.518  26.231  17.827  1.00  0.00    -0.409 N 
ATOM     25  H5  UNL     1      16.386  27.108  17.323  1.00  0.00     0.154 HD
ENDBRANCH  16  19
ENDBRANCH   5  15
ENDBRANCH   3   5
BRANCH   1  26
HETATM   26  C9  UNL     1      14.002  21.527  16.786  1.00  0.00     0.177 C 
BRANCH  26  27
HETATM   27  C8  UNL     1      13.176  20.852  15.749  1.00  0.00     0.242 C 
HETATM   28  N2  UNL     1      12.566  19.587  15.882  1.00  0.00    -0.347 N 
HETATM   29  C7  UNL     1      12.778  18.782  17.062  1.00  0.00     0.146 C 
HETATM   30  C29 UNL     1      11.701  19.096  14.813  1.00  0.00     0.146 C 
HETATM   31  C6  UNL     1      11.465  18.368  17.637  1.00  0.00     0.148 C 
HETATM   32  N1  UNL     1      10.609  17.847  16.614  1.00  0.00    -0.325 N 
HETATM   33  C5  UNL     1       9.329  17.343  16.989  1.00  0.00     0.362 C 
HETATM   34  C30 UNL     1      11.012  17.817  15.235  1.00  0.00     0.148 C 
HETATM   35  O2  UNL     1       8.992  17.344  18.221  1.00  0.00    -0.238 OA
HETATM   36  O3  UNL     1      13.020  21.498  14.648  1.00  0.00    -0.271 OA
BRANCH  33  37
HETATM   37  O1  UNL     1       8.414  16.847  16.091  1.00  0.00    -0.304 OA
BRANCH  37  38
HETATM   38  C4  UNL     1       8.210  15.482  15.889  1.00  0.00     0.180 C 
BRANCH  38  39
HETATM   39  C3  UNL     1       8.760  14.910  14.631  1.00  0.00     0.026 C 
BRANCH  39  40
HETATM   40  C2  UNL     1       7.676  14.549  13.631  1.00  0.00    -0.002 C 
HETATM   41  C1  UNL     1       6.458  14.076  14.416  1.00  0.00     0.005 C 
ENDBRANCH  39  40
ENDBRANCH  38  39
ENDBRANCH  37  38
ENDBRANCH  33  37
ENDBRANCH  26  27
BRANCH  26  42
HETATM   42  C10 UNL     1      13.002  22.387  17.574  1.00  0.00     0.038 C 
BRANCH  42  43
HETATM   43  C11 UNL     1      13.161  22.274  19.052  1.00  0.00    -0.020 C 
HETATM   44  C12 UNL     1      14.396  21.470  19.434  1.00  0.00     0.009 C 
HETATM   45  C13 UNL     1      11.957  21.559  19.621  1.00  0.00     0.009 C 
ENDBRANCH  42  43
ENDBRANCH  26  42
ENDBRANCH   1  26
TORSDOF 16
ENDMDL
MODEL 2
REMARK VINA RESULT: -8.817216277      1.434      1.923
REMARK  16 active torsions:
REMARK  status: ('A' for Active; 'I' for Inactive)
REMARK    1  A    between atoms: C2_2  and  C3_3 
REMARK    2  A    between atoms: C3_3  and  C4_4 
REMARK    3  A    between atoms: C4_4  and  O1_5 
REMARK    4  A    between atoms: O1_5  and  C5_6 
REMARK       I    between atoms: C5_6  and  N1_8 
REMARK       I    between atoms: N2_11  and  C8_12 
REMARK    5  A    between atoms: C8_12  and  C9_14 
REMARK    6  A    between atoms: C9_14  and  C10_15 
REMARK    7  A    between atoms: C9_14  and  N3_19 
REMARK    8  A    between atoms: C10_15  and  C11_16 
REMARK       I    between atoms: N3_19  and  C14_21 
REMARK    9  A    between atoms: C14_21  and  C15_23 
REMARK   10  A    between atoms: C15_23  and  C16_24 
REMARK   11  A    between atoms: C15_23  and  N4_33 
REMARK   12  A    between atoms: C16_24  and  C17_25 
REMARK   13  A    between atoms: C17_25  and  C18_26 
REMARK   14  A    between atoms: C18_26  and  O6_28 
REMARK   15  A    between atoms: O6_28  and  C19_29 
REMARK       I    between atoms: N4_33  and  C23_35 
REMARK   16  A    between atoms: C23_35  and  C24_37 
ROOT
HETATM    1  N3  UNL     1      13.642  22.068  17.199  1.00  0.00    -0.346 N 
ATOM      2  H3  UNL     1      13.510  23.054  17.428  1.00  0.00     0.163 HD
HETATM    3  C14 UNL     1      14.676  21.725  16.334  1.00  0.00     0.241 C 
HETATM    4  O4  UNL     1      14.843  20.489  16.043  1.00  0.00    -0.271 OA
ENDROOT
BRANCH   3   5
HETATM    5  C15 UNL     1      15.640  22.705  15.699  1.00  0.00     0.177 C 
BRANCH   5   6
HETATM    6  C16 UNL     1      15.244  22.919  14.303  1.00  0.00     0.044 C 
BRANCH   6   7
HETATM    7  C17 UNL     1      16.305  23.051  13.277  1.00  0.00     0.113 C 
BRANCH   7   8
HETATM    8  C18 UNL     1      17.610  23.525  13.742  1.00  0.00     0.259 C 
HETATM    9  O5  UNL     1      18.553  22.735  13.969  1.00  0.00    -0.265 OA
BRANCH   8  10
HETATM   10  O6  UNL     1      17.847  24.871  13.947  1.00  0.00    -0.311 OA
BRANCH  10  11
HETATM   11  C19 UNL     1      18.253  25.675  12.885  1.00  0.00     0.060 C 
HETATM   12  C20 UNL     1      17.036  26.224  12.174  1.00  0.00     0.045 C 
HETATM   13  C21 UNL     1      19.006  26.853  13.536  1.00  0.00     0.045 C 
HETATM   14  C22 UNL     1      19.161  25.005  11.913  1.00  0.00     0.045 C 
ENDBRANCH  10  11
ENDBRANCH   8  10
ENDBRANCH   7   8
ENDBRANCH   6   7
ENDBRANCH   5   6
BRANCH   5  15
HETATM   15  N4  UNL     1      15.694  23.822  16.572  1.00  0.00    -0.346 N 
HETATM   16  C23 UNL     1      16.775  24.216  17.398  1.00  0.00     0.240 C 
HETATM   17  O7  UNL     1      17.812  23.525  17.397  1.00  0.00    -0.271 OA
ATOM     18  H4  UNL     1      14.861  24.408  16.609  1.00  0.00     0.163 HD
BRANCH  16  19
HETATM   19  C24 UNL     1      16.719  25.416  18.264  1.00  0.00     0.169 C 
HETATM   20  C25 UNL     1      17.860  25.407  19.272  1.00  0.00     0.034 C 
HETATM   21  C26 UNL     1      17.399  25.300  20.689  1.00  0.00     0.004 C 
HETATM   22  C27 UNL     1      16.277  24.325  20.878  1.00  0.00     0.019 C 
HETATM   23  C28 UNL     1      15.140  24.593  19.921  1.00  0.00     0.114 C 
HETATM   24  N5  UNL     1      15.458  25.538  18.913  1.00  0.00    -0.409 N 
ATOM     25  H5  UNL     1      14.804  26.279  18.660  1.00  0.00     0.154 HD
ENDBRANCH  16  19
ENDBRANCH   5  15
ENDBRANCH   3   5
BRANCH   1  26
HETATM   26  C9  UNL     1      12.730  21.085  17.798  1.00  0.00     0.177 C 
BRANCH  26  27
HETATM   27  C8  UNL     1      11.518  20.933  16.949  1.00  0.00     0.242 C 
HETATM   28  N2  UNL     1      10.985  19.708  16.494  1.00  0.00    -0.347 N 
HETATM   29  C7  UNL     1      11.659  18.460  16.766  1.00  0.00     0.146 C 
HETATM   30  C29 UNL     1       9.730  19.710  15.748  1.00  0.00     0.146 C 
HETATM   31  C6  UNL     1      10.707  17.496  17.393  1.00  0.00     0.148 C 
HETATM   32  N1  UNL     1       9.479  17.451  16.658  1.00  0.00    -0.325 N 
HETATM   33  C5  UNL     1       8.469  16.535  17.077  1.00  0.00     0.362 C 
HETATM   34  C30 UNL     1       9.249  18.294  15.518  1.00  0.00     0.148 C 
HETATM   35  O2  UNL     1       8.695  15.766  18.072  1.00  0.00    -0.238 OA
HETATM   36  O3  UNL     1      10.924  22.024  16.617  1.00  0.00    -0.271 OA
BRANCH  33  37
HETATM   37  O1  UNL     1       7.242  16.425  16.468  1.00  0.00    -0.304 OA
BRANCH  37  38
HETATM   38  C4  UNL     1       6.528  15.227  16.409  1.00  0.00     0.180 C 
BRANCH  38  39
HETATM   39  C3  UNL     1       6.798  14.353  15.236  1.00  0.00     0.026 C 
BRANCH  39  40
HETATM   40  C2  UNL     1       7.362  15.121  14.054  1.00  0.00    -0.002 C 
HETATM   41  C1  UNL     1       8.834  14.754  13.919  1.00  0.00     0.005 C 
ENDBRANCH  39  40
ENDBRANCH  38  39
ENDBRANCH  37  38
ENDBRANCH  33  37
ENDBRANCH  26  27
BRANCH  26  42
HETATM   42  C10 UNL     1      12.217  21.748  19.086  1.00  0.00     0.038 C 
BRANCH  42  43
HETATM   43  C11 UNL     1      11.056  21.038  19.694  1.00  0.00    -0.020 C 
HETATM   44  C12 UNL     1      10.375  21.872  20.770  1.00  0.00     0.009 C 
HETATM   45  C13 UNL     1      11.548  19.765  20.346  1.00  0.00     0.009 C 
ENDBRANCH  42  43
ENDBRANCH  26  42
ENDBRANCH   1  26
TORSDOF 16
ENDMDL
MODEL 3
REMARK VINA RESULT: -8.750334078      2.637     11.538
REMARK  16 active torsions:
REMARK  status: ('A' for Active; 'I' for Inactive)
REMARK    1  A    between atoms: C2_2  and  C3_3 
REMARK    2  A    between atoms: C3_3  and  C4_4 
REMARK    3  A    between atoms: C4_4  and  O1_5 
REMARK    4  A    between atoms: O1_5  and  C5_6 
REMARK       I    between atoms: C5_6  and  N1_8 
REMARK       I    between atoms: N2_11  and  C8_12 
REMARK    5  A    between atoms: C8_12  and  C9_14 
REMARK    6  A    between atoms: C9_14  and  C10_15 
REMARK    7  A    between atoms: C9_14  and  N3_19 
REMARK    8  A    between atoms: C10_15  and  C11_16 
REMARK       I    between atoms: N3_19  and  C14_21 
REMARK    9  A    between atoms: C14_21  and  C15_23 
REMARK   10  A    between atoms: C15_23  and  C16_24 
REMARK   11  A    between atoms: C15_23  and  N4_33 
REMARK   12  A    between atoms: C16_24  and  C17_25 
REMARK   13  A    between atoms: C17_25  and  C18_26 
REMARK   14  A    between atoms: C18_26  and  O6_28 
REMARK   15  A    between atoms: O6_28  and  C19_29 
REMARK       I    between atoms: N4_33  and  C23_35 
REMARK   16  A    between atoms: C23_35  and  C24_37 
ROOT
HETATM    1  N3  UNL     1      13.046  21.033  17.862  1.00  0.00    -0.346 N 
ATOM      2  H3  UNL     1      12.156  21.525  17.946  1.00  0.00     0.163 HD
HETATM    3  C14 UNL     1      13.116  19.716  18.302  1.00  0.00     0.241 C 
HETATM    4  O4  UNL     1      14.231  19.095  18.198  1.00  0.00    -0.271 OA
ENDROOT
BRANCH   3   5
HETATM    5  C15 UNL     1      11.964  18.937  18.901  1.00  0.00     0.177 C 
BRANCH   5   6
HETATM    6  C16 UNL     1      10.966  19.885  19.407  1.00  0.00     0.044 C 
BRANCH   6   7
HETATM    7  C17 UNL     1      10.725  19.949  20.867  1.00  0.00     0.113 C 
BRANCH   7   8
HETATM    8  C18 UNL     1       9.346  20.202  21.293  1.00  0.00     0.259 C 
HETATM    9  O5  UNL     1       9.087  20.788  22.367  1.00  0.00    -0.265 OA
BRANCH   8  10
HETATM   10  O6  UNL     1       8.277  19.799  20.517  1.00  0.00    -0.311 OA
BRANCH  10  11
HETATM   11  C19 UNL     1       7.672  18.567  20.752  1.00  0.00     0.060 C 
HETATM   12  C20 UNL     1       6.169  18.734  20.745  1.00  0.00     0.045 C 
HETATM   13  C21 UNL     1       8.068  17.686  19.549  1.00  0.00     0.045 C 
HETATM   14  C22 UNL     1       8.110  17.891  22.005  1.00  0.00     0.045 C 
ENDBRANCH  10  11
ENDBRANCH   8  10
ENDBRANCH   7   8
ENDBRANCH   6   7
ENDBRANCH   5   6
BRANCH   5  15
HETATM   15  N4  UNL     1      11.572  17.996  17.914  1.00  0.00    -0.346 N 
HETATM   16  C23 UNL     1      11.175  18.262  16.581  1.00  0.00     0.240 C 
HETATM   17  O7  UNL     1      11.141  19.445  16.191  1.00  0.00    -0.271 OA
ATOM     18  H4  UNL     1      11.577  17.016  18.197  1.00  0.00     0.163 HD
BRANCH  16  19
HETATM   19  C24 UNL     1      10.797  17.187  15.634  1.00  0.00     0.169 C 
HETATM   20  C25 UNL     1      10.748  17.719  14.208  1.00  0.00     0.034 C 
HETATM   21  C26 UNL     1       9.382  17.683  13.608  1.00  0.00     0.004 C 
HETATM   22  C27 UNL     1       8.302  18.103  14.558  1.00  0.00     0.019 C 
HETATM   23  C28 UNL     1       8.380  17.341  15.860  1.00  0.00     0.114 C 
HETATM   24  N5  UNL     1       9.565  16.575  15.999  1.00  0.00    -0.409 N 
ATOM     25  H5  UNL     1       9.535  15.617  16.349  1.00  0.00     0.154 HD
ENDBRANCH  16  19
ENDBRANCH   5  15
ENDBRANCH   3   5
BRANCH   1  26
HETATM   26  C9  UNL     1      14.187  21.753  17.282  1.00  0.00     0.177 C 
BRANCH  26  27
HETATM   27  C8  UNL     1      14.270  23.123  17.855  1.00  0.00     0.242 C 
HETATM   28  N2  UNL     1      15.460  23.849  18.074  1.00  0.00    -0.347 N 
HETATM   29  C7  UNL     1      16.750  23.253  17.819  1.00  0.00     0.146 C 
HETATM   30  C29 UNL     1      15.377  25.226  18.553  1.00  0.00     0.146 C 
HETATM   31  C6  UNL     1      17.551  24.139  16.925  1.00  0.00     0.148 C 
HETATM   32  N1  UNL     1      17.517  25.491  17.394  1.00  0.00    -0.325 N 
HETATM   33  C5  UNL     1      18.281  26.474  16.697  1.00  0.00     0.362 C 
HETATM   34  C30 UNL     1      16.745  25.872  18.544  1.00  0.00     0.148 C 
HETATM   35  O2  UNL     1      18.990  26.119  15.695  1.00  0.00    -0.238 OA
HETATM   36  O3  UNL     1      13.149  23.668  18.169  1.00  0.00    -0.271 OA
BRANCH  33  37
HETATM   37  O1  UNL     1      18.301  27.805  17.038  1.00  0.00    -0.304 OA
BRANCH  37  38
HETATM   38  C4  UNL     1      19.405  28.421  17.628  1.00  0.00     0.180 C 
BRANCH  38  39
HETATM   39  C3  UNL     1      19.762  29.770  17.113  1.00  0.00     0.026 C 
BRANCH  39  40
HETATM   40  C2  UNL     1      18.982  30.143  15.865  1.00  0.00    -0.002 C 
HETATM   41  C1  UNL     1      19.870  29.860  14.660  1.00  0.00     0.005 C 
ENDBRANCH  39  40
ENDBRANCH  38  39
ENDBRANCH  37  38
ENDBRANCH  33  37
ENDBRANCH  26  27
BRANCH  26  42
HETATM   42  C10 UNL     1      13.814  21.974  15.808  1.00  0.00     0.038 C 
BRANCH  42  43
HETATM   43  C11 UNL     1      14.197  20.837  14.923  1.00  0.00    -0.020 C 
HETATM   44  C12 UNL     1      15.635  20.394  15.152  1.00  0.00     0.009 C 
HETATM   45  C13 UNL     1      14.078  21.276  13.482  1.00  0.00     0.009 C 
ENDBRANCH  42  43
ENDBRANCH  26  42
ENDBRANCH   1  26
TORSDOF 16
ENDMDL
MODEL 4
REMARK VINA RESULT: -8.723480198      2.579     11.245
REMARK  16 active torsions:
REMARK  status: ('A' for Active; 'I' for Inactive)
REMARK    1  A    between atoms: C2_2  and  C3_3 
REMARK    2  A    between atoms: C3_3  and  C4_4 
REMARK    3  A    between atoms: C4_4  and  O1_5 
REMARK    4  A    between atoms: O1_5  and  C5_6 
REMARK       I    between atoms: C5_6  and  N1_8 
REMARK       I    between atoms: N2_11  and  C8_12 
REMARK    5  A    between atoms: C8_12  and  C9_14 
REMARK    6  A    between atoms: C9_14  and  C10_15 
REMARK    7  A    between atoms: C9_14  and  N3_19 
REMARK    8  A    between atoms: C10_15  and  C11_16 
REMARK       I    between atoms: N3_19  and  C14_21 
REMARK    9  A    between atoms: C14_21  and  C15_23 
REMARK   10  A    between atoms: C15_23  and  C16_24 
REMARK   11  A    between atoms: C15_23  and  N4_33 
REMARK   12  A    between atoms: C16_24  and  C17_25 
REMARK   13  A    between atoms: C17_25  and  C18_26 
REMARK   14  A    between atoms: C18_26  and  O6_28 
REMARK   15  A    between atoms: O6_28  and  C19_29 
REMARK       I    between atoms: N4_33  and  C23_35 
REMARK   16  A    between atoms: C23_35  and  C24_37 
ROOT
HETATM    1  N3  UNL     1      11.525  19.730  16.390  1.00  0.00    -0.346 N 
ATOM      2  H3  UNL     1      10.707  20.286  16.642  1.00  0.00     0.163 HD
HETATM    3  C14 UNL     1      11.361  18.361  16.206  1.00  0.00     0.241 C 
HETATM    4  O4  UNL     1      12.385  17.660  15.892  1.00  0.00    -0.271 OA
ENDROOT
BRANCH   3   5
HETATM    5  C15 UNL     1      10.050  17.616  16.345  1.00  0.00     0.177 C 
BRANCH   5   6
HETATM    6  C16 UNL     1      10.071  16.452  15.454  1.00  0.00     0.044 C 
BRANCH   6   7
HETATM    7  C17 UNL     1       9.013  16.326  14.425  1.00  0.00     0.113 C 
BRANCH   7   8
HETATM    8  C18 UNL     1       8.071  15.217  14.585  1.00  0.00     0.259 C 
HETATM    9  O5  UNL     1       8.463  14.038  14.732  1.00  0.00    -0.265 OA
BRANCH   8  10
HETATM   10  O6  UNL     1       6.707  15.436  14.581  1.00  0.00    -0.311 OA
BRANCH  10  11
HETATM   11  C19 UNL     1       5.994  15.412  15.777  1.00  0.00     0.060 C 
HETATM   12  C20 UNL     1       5.009  16.558  15.799  1.00  0.00     0.045 C 
HETATM   13  C21 UNL     1       5.200  14.090  15.747  1.00  0.00     0.045 C 
HETATM   14  C22 UNL     1       6.841  15.434  17.002  1.00  0.00     0.045 C 
ENDBRANCH  10  11
ENDBRANCH   8  10
ENDBRANCH   7   8
ENDBRANCH   6   7
ENDBRANCH   5   6
BRANCH   5  15
HETATM   15  N4  UNL     1       9.862  17.408  17.736  1.00  0.00    -0.346 N 
HETATM   16  C23 UNL     1       9.280  18.301  18.668  1.00  0.00     0.240 C 
HETATM   17  O7  UNL     1       8.882  19.411  18.267  1.00  0.00    -0.271 OA
ATOM     18  H4  UNL     1      10.184  16.514  18.107  1.00  0.00     0.163 HD
BRANCH  16  19
HETATM   19  C24 UNL     1       9.127  17.965  20.103  1.00  0.00     0.169 C 
HETATM   20  C25 UNL     1       7.973  18.745  20.719  1.00  0.00     0.034 C 
HETATM   21  C26 UNL     1       8.405  19.710  21.774  1.00  0.00     0.004 C 
HETATM   22  C27 UNL     1       9.658  20.454  21.424  1.00  0.00     0.019 C 
HETATM   23  C28 UNL     1      10.767  19.515  21.013  1.00  0.00     0.114 C 
HETATM   24  N5  UNL     1      10.336  18.177  20.824  1.00  0.00    -0.409 N 
ATOM     25  H5  UNL     1      10.875  17.393  21.192  1.00  0.00     0.154 HD
ENDBRANCH  16  19
ENDBRANCH   5  15
ENDBRANCH   3   5
BRANCH   1  26
HETATM   26  C9  UNL     1      12.815  20.416  16.242  1.00  0.00     0.177 C 
BRANCH  26  27
HETATM   27  C8  UNL     1      12.784  21.719  16.958  1.00  0.00     0.242 C 
HETATM   28  N2  UNL     1      13.748  22.169  17.885  1.00  0.00    -0.347 N 
HETATM   29  C7  UNL     1      14.844  21.319  18.285  1.00  0.00     0.146 C 
HETATM   30  C29 UNL     1      13.634  23.517  18.434  1.00  0.00     0.146 C 
HETATM   31  C6  UNL     1      16.138  22.040  18.102  1.00  0.00     0.148 C 
HETATM   32  N1  UNL     1      16.066  23.354  18.666  1.00  0.00    -0.325 N 
HETATM   33  C5  UNL     1      17.235  24.171  18.639  1.00  0.00     0.362 C 
HETATM   34  C30 UNL     1      14.857  23.857  19.257  1.00  0.00     0.148 C 
HETATM   35  O2  UNL     1      18.314  23.703  18.141  1.00  0.00    -0.238 OA
HETATM   36  O3  UNL     1      11.784  22.482  16.691  1.00  0.00    -0.271 OA
BRANCH  33  37
HETATM   37  O1  UNL     1      17.276  25.457  19.123  1.00  0.00    -0.304 OA
BRANCH  37  38
HETATM   38  C4  UNL     1      18.169  26.419  18.649  1.00  0.00     0.180 C 
BRANCH  38  39
HETATM   39  C3  UNL     1      17.906  26.949  17.284  1.00  0.00     0.026 C 
BRANCH  39  40
HETATM   40  C2  UNL     1      18.832  28.094  16.916  1.00  0.00    -0.002 C 
HETATM   41  C1  UNL     1      20.028  28.048  17.859  1.00  0.00     0.005 C 
ENDBRANCH  39  40
ENDBRANCH  38  39
ENDBRANCH  37  38
ENDBRANCH  33  37
ENDBRANCH  26  27
BRANCH  26  42
HETATM   42  C10 UNL     1      12.899  20.795  14.756  1.00  0.00     0.038 C 
BRANCH  42  43
HETATM   43  C11 UNL     1      14.178  21.467  14.388  1.00  0.00    -0.020 C 
HETATM   44  C12 UNL     1      14.223  21.840  12.913  1.00  0.00     0.009 C 
HETATM   45  C13 UNL     1      15.324  20.519  14.655  1.00  0.00     0.009 C 
ENDBRANCH  42  43
ENDBRANCH  26  42
ENDBRANCH   1  26
TORSDOF 16
ENDMDL
MODEL 5
REMARK VINA RESULT: -8.658068804      2.358      3.652
REMARK  16 active torsions:
REMARK  status: ('A' for Active; 'I' for Inactive)
REMARK    1  A    between atoms: C2_2  and  C3_3 
REMARK    2  A    between atoms: C3_3  and  C4_4 
REMARK    3  A    between atoms: C4_4  and  O1_5 
REMARK    4  A    between atoms: O1_5  and  C5_6 
REMARK       I    between atoms: C5_6  and  N1_8 
REMARK       I    between atoms: N2_11  and  C8_12 
REMARK    5  A    between atoms: C8_12  and  C9_14 
REMARK    6  A    between atoms: C9_14  and  C10_15 
REMARK    7  A    between atoms: C9_14  and  N3_19 
REMARK    8  A    between atoms: C10_15  and  C11_16 
REMARK       I    between atoms: N3_19  and  C14_21 
REMARK    9  A    between atoms: C14_21  and  C15_23 
REMARK   10  A    between atoms: C15_23  and  C16_24 
REMARK   11  A    between atoms: C15_23  and  N4_33 
REMARK   12  A    between atoms: C16_24  and  C17_25 
REMARK   13  A    between atoms: C17_25  and  C18_26 
REMARK   14  A    between atoms: C18_26  and  O6_28 
REMARK   15  A    between atoms: O6_28  and  C19_29 
REMARK       I    between atoms: N4_33  and  C23_35 
REMARK   16  A    between atoms: C23_35  and  C24_37 
ROOT
HETATM    1  N3  UNL     1      15.480  21.768  16.638  1.00  0.00    -0.346 N 
ATOM      2  H3  UNL     1      16.100  21.805  17.448  1.00  0.00     0.163 HD
HETATM    3  C14 UNL     1      15.934  22.296  15.434  1.00  0.00     0.241 C 
HETATM    4  O4  UNL     1      15.158  22.251  14.417  1.00  0.00    -0.271 OA
ENDROOT
BRANCH   3   5
HETATM    5  C15 UNL     1      17.293  22.928  15.220  1.00  0.00     0.177 C 
BRANCH   5   6
HETATM    6  C16 UNL     1      17.541  23.036  13.779  1.00  0.00     0.044 C 
BRANCH   6   7
HETATM    7  C17 UNL     1      17.161  24.289  13.086  1.00  0.00     0.113 C 
BRANCH   7   8
HETATM    8  C18 UNL     1      18.220  24.975  12.343  1.00  0.00     0.259 C 
HETATM    9  O5  UNL     1      19.431  24.766  12.580  1.00  0.00    -0.265 OA
BRANCH   8  10
HETATM   10  O6  UNL     1      17.917  25.883  11.347  1.00  0.00    -0.311 OA
BRANCH  10  11
HETATM   11  C19 UNL     1      17.582  27.194  11.679  1.00  0.00     0.060 C 
HETATM   12  C20 UNL     1      18.191  28.141  10.670  1.00  0.00     0.045 C 
HETATM   13  C21 UNL     1      16.047  27.264  11.546  1.00  0.00     0.045 C 
HETATM   14  C22 UNL     1      17.961  27.598  13.061  1.00  0.00     0.045 C 
ENDBRANCH  10  11
ENDBRANCH   8  10
ENDBRANCH   7   8
ENDBRANCH   6   7
ENDBRANCH   5   6
BRANCH   5  15
HETATM   15  N4  UNL     1      17.305  24.109  16.006  1.00  0.00    -0.346 N 
HETATM   16  C23 UNL     1      17.753  24.248  17.342  1.00  0.00     0.240 C 
HETATM   17  O7  UNL     1      18.183  23.242  17.938  1.00  0.00    -0.271 OA
ATOM     18  H4  UNL     1      16.951  24.954  15.557  1.00  0.00     0.163 HD
BRANCH  16  19
HETATM   19  C24 UNL     1      17.726  25.544  18.059  1.00  0.00     0.169 C 
HETATM   20  C25 UNL     1      18.103  25.358  19.522  1.00  0.00     0.034 C 
HETATM   21  C26 UNL     1      16.993  25.680  20.467  1.00  0.00     0.004 C 
HETATM   22  C27 UNL     1      15.657  25.179  20.009  1.00  0.00     0.019 C 
HETATM   23  C28 UNL     1      15.354  25.613  18.595  1.00  0.00     0.114 C 
HETATM   24  N5  UNL     1      16.465  26.191  17.929  1.00  0.00    -0.409 N 
ATOM     25  H5  UNL     1      16.363  27.042  17.376  1.00  0.00     0.154 HD
ENDBRANCH  16  19
ENDBRANCH   5  15
ENDBRANCH   3   5
BRANCH   1  26
HETATM   26  C9  UNL     1      14.154  21.159  16.804  1.00  0.00     0.177 C 
BRANCH  26  27
HETATM   27  C8  UNL     1      13.698  21.308  18.212  1.00  0.00     0.242 C 
HETATM   28  N2  UNL     1      12.356  21.427  18.631  1.00  0.00    -0.347 N 
HETATM   29  C7  UNL     1      11.283  21.497  17.668  1.00  0.00     0.146 C 
HETATM   30  C29 UNL     1      12.056  21.468  20.059  1.00  0.00     0.146 C 
HETATM   31  C6  UNL     1      10.247  20.471  17.986  1.00  0.00     0.148 C 
HETATM   32  N1  UNL     1       9.906  20.514  19.376  1.00  0.00    -0.325 N 
HETATM   33  C5  UNL     1       8.883  19.642  19.854  1.00  0.00     0.362 C 
HETATM   34  C30 UNL     1      10.561  21.412  20.287  1.00  0.00     0.148 C 
HETATM   35  O2  UNL     1       8.284  18.870  19.031  1.00  0.00    -0.238 OA
HETATM   36  O3  UNL     1      14.625  21.327  19.103  1.00  0.00    -0.271 OA
BRANCH  33  37
HETATM   37  O1  UNL     1       8.494  19.576  21.170  1.00  0.00    -0.304 OA
BRANCH  37  38
HETATM   38  C4  UNL     1       8.589  18.411  21.933  1.00  0.00     0.180 C 
BRANCH  38  39
HETATM   39  C3  UNL     1       7.357  17.583  22.032  1.00  0.00     0.026 C 
BRANCH  39  40
HETATM   40  C2  UNL     1       7.650  16.094  21.996  1.00  0.00    -0.002 C 
HETATM   41  C1  UNL     1       7.649  15.655  20.537  1.00  0.00     0.005 C 
ENDBRANCH  39  40
ENDBRANCH  38  39
ENDBRANCH  37  38
ENDBRANCH  33  37
ENDBRANCH  26  27
BRANCH  26  42
HETATM   42  C10 UNL     1      14.381  19.650  16.631  1.00  0.00     0.038 C 
BRANCH  42  43
HETATM   43  C11 UNL     1      13.437  19.016  15.667  1.00  0.00    -0.020 C 
HETATM   44  C12 UNL     1      12.599  20.049  14.926  1.00  0.00     0.009 C 
HETATM   45  C13 UNL     1      12.489  18.119  16.429  1.00  0.00     0.009 C 
ENDBRANCH  42  43
ENDBRANCH  26  42
ENDBRANCH   1  26
TORSDOF 16
ENDMDL
