MODEL 1
REMARK VINA RESULT: -8.266648812      0.000      0.000
REMARK  17 active torsions:
REMARK  status: ('A' for Active; 'I' for Inactive)
REMARK    1  A    between atoms: C2_2  and  C4_4 
REMARK    2  A    between atoms: C4_4  and  C5_5 
REMARK    3  A    between atoms: C5_5  and  N1_6 
REMARK    4  A    between atoms: C5_5  and  C14_22 
REMARK    5  A    between atoms: N1_6  and  C6_8 
REMARK    6  A    between atoms: C6_8  and  C7_10 
REMARK    7  A    between atoms: C7_10  and  C8_11 
REMARK    8  A    between atoms: C7_10  and  N4_19 
REMARK    9  A    between atoms: C8_11  and  C9_12 
REMARK   10  A    between atoms: C14_22  and  O1_23 
REMARK   11  A    between atoms: C14_22  and  N5_25 
REMARK   12  A    between atoms: N5_25  and  C15_27 
REMARK   13  A    between atoms: C15_27  and  C16_28 
REMARK   14  A    between atoms: C15_27  and  C20_32 
REMARK   15  A    between atoms: C16_28  and  C17_29 
REMARK       I    between atoms: C20_32  and  N6_34 
REMARK       I    between atoms: N7_37  and  C23_38 
REMARK   16  A    between atoms: C23_38  and  O4_40 
REMARK   17  A    between atoms: O4_40  and  C24_41 
ROOT
HETATM    1  C14 UNL     1      12.545  18.321  18.267  1.00  0.00     0.135 C 
ENDROOT
BRANCH   1   2
HETATM    2  C5  UNL     1      12.334  18.695  16.847  1.00  0.00     0.157 C 
BRANCH   2   3
HETATM    3  C4  UNL     1      11.773  17.605  15.989  1.00  0.00     0.037 C 
BRANCH   3   4
HETATM    4  C2  UNL     1      10.416  17.840  15.402  1.00  0.00    -0.020 C 
HETATM    5  C1  UNL     1       9.868  19.228  15.678  1.00  0.00     0.009 C 
HETATM    6  C3  UNL     1      10.604  17.689  13.875  1.00  0.00     0.009 C 
ENDBRANCH   3   4
ENDBRANCH   2   3
BRANCH   2   7
HETATM    7  N1  UNL     1      13.642  19.022  16.257  1.00  0.00    -0.370 N 
ATOM      8  H1  UNL     1      14.367  18.305  16.262  1.00  0.00     0.161 HD
BRANCH   7   9
HETATM    9  C6  UNL     1      13.946  20.273  15.686  1.00  0.00     0.108 C 
HETATM   10  S1  UNL     1      13.082  20.818  14.424  1.00  0.00    -0.063 SA
BRANCH   9  11
HETATM   11  C7  UNL     1      15.046  21.105  16.259  1.00  0.00     0.288 C 
BRANCH  11  12
HETATM   12  C8  UNL     1      14.565  22.522  16.379  1.00  0.00     0.101 C 
BRANCH  12  13
HETATM   13  C9  UNL     1      15.088  23.228  17.587  1.00  0.00     0.028 A 
HETATM   14  C10 UNL     1      15.592  22.662  18.737  1.00  0.00     0.114 A 
HETATM   15  N2  UNL     1      15.940  23.647  19.567  1.00  0.00    -0.360 N 
HETATM   16  C11 UNL     1      15.672  24.817  18.979  1.00  0.00     0.180 A 
ATOM     17  H2  UNL     1      16.343  23.526  20.497  1.00  0.00     0.166 HD
HETATM   18  N3  UNL     1      15.151  24.556  17.766  1.00  0.00    -0.355 N 
ATOM     19  H3  UNL     1      14.850  25.258  17.090  1.00  0.00     0.166 HD
ENDBRANCH  12  13
ENDBRANCH  11  12
BRANCH  11  20
HETATM   20  N4  UNL     1      16.274  21.026  15.547  1.00  0.00     0.091 N 
HETATM   21  C12 UNL     1      16.412  19.746  14.844  1.00  0.00     0.310 C 
HETATM   22  C13 UNL     1      16.541  22.074  14.610  1.00  0.00     0.310 C 
ENDBRANCH  11  20
ENDBRANCH   9  11
ENDBRANCH   7   9
ENDBRANCH   2   7
ENDBRANCH   1   2
BRANCH   1  23
HETATM   23  O1  UNL     1      13.625  17.646  18.543  1.00  0.00    -0.348 OA
ATOM     24  H1  UNL     1      13.630  17.158  19.359  1.00  0.00     0.219 HD
ENDBRANCH   1  23
BRANCH   1  25
HETATM   25  N5  UNL     1      11.739  18.596  19.367  1.00  0.00    -0.359 N 
ATOM     26  H5  UNL     1      12.149  18.603  20.301  1.00  0.00     0.162 HD
BRANCH  25  27
HETATM   27  C15 UNL     1      10.282  18.882  19.203  1.00  0.00     0.176 C 
BRANCH  27  28
HETATM   28  C16 UNL     1      10.087  20.364  19.166  1.00  0.00     0.038 C 
BRANCH  28  29
HETATM   29  C17 UNL     1      11.156  21.144  19.903  1.00  0.00    -0.020 C 
HETATM   30  C18 UNL     1      11.900  22.097  19.026  1.00  0.00     0.009 C 
HETATM   31  C19 UNL     1      10.485  21.843  21.070  1.00  0.00     0.009 C 
ENDBRANCH  28  29
ENDBRANCH  27  28
BRANCH  27  32
HETATM   32  C20 UNL     1       9.550  18.293  20.335  1.00  0.00     0.242 C 
HETATM   33  O2  UNL     1      10.030  18.371  21.512  1.00  0.00    -0.271 OA
HETATM   34  N6  UNL     1       8.318  17.629  20.168  1.00  0.00    -0.347 N 
HETATM   35  C21 UNL     1       7.761  17.488  18.845  1.00  0.00     0.146 C 
HETATM   36  C29 UNL     1       7.594  17.074  21.306  1.00  0.00     0.146 C 
HETATM   37  C22 UNL     1       7.034  16.131  18.800  1.00  0.00     0.148 C 
HETATM   38  N7  UNL     1       5.906  16.304  19.705  1.00  0.00    -0.325 N 
HETATM   39  C23 UNL     1       4.599  16.031  19.269  1.00  0.00     0.363 C 
HETATM   40  C28 UNL     1       6.163  16.769  21.053  1.00  0.00     0.148 C 
HETATM   41  O3  UNL     1       3.608  16.167  20.030  1.00  0.00    -0.238 OA
BRANCH  39  42
HETATM   42  O4  UNL     1       4.369  15.608  17.991  1.00  0.00    -0.294 OA
BRANCH  42  43
HETATM   43  C24 UNL     1       3.841  16.366  16.949  1.00  0.00     0.061 C 
HETATM   44  C25 UNL     1       3.479  17.764  17.278  1.00  0.00     0.046 C 
HETATM   45  C26 UNL     1       2.610  15.652  16.430  1.00  0.00     0.046 C 
HETATM   46  C27 UNL     1       4.841  16.407  15.797  1.00  0.00     0.046 C 
ENDBRANCH  42  43
ENDBRANCH  39  42
ENDBRANCH  27  32
ENDBRANCH  25  27
ENDBRANCH   1  25
TORSDOF 17
ENDMDL
MODEL 2
REMARK VINA RESULT: -8.253945051      1.489      2.032
REMARK  17 active torsions:
REMARK  status: ('A' for Active; 'I' for Inactive)
REMARK    1  A    between atoms: C2_2  and  C4_4 
REMARK    2  A    between atoms: C4_4  and  C5_5 
REMARK    3  A    between atoms: C5_5  and  N1_6 
REMARK    4  A    between atoms: C5_5  and  C14_22 
REMARK    5  A    between atoms: N1_6  and  C6_8 
REMARK    6  A    between atoms: C6_8  and  C7_10 
REMARK    7  A    between atoms: C7_10  and  C8_11 
REMARK    8  A    between atoms: C7_10  and  N4_19 
REMARK    9  A    between atoms: C8_11  and  C9_12 
REMARK   10  A    between atoms: C14_22  and  O1_23 
REMARK   11  A    between atoms: C14_22  and  N5_25 
REMARK   12  A    between atoms: N5_25  and  C15_27 
REMARK   13  A    between atoms: C15_27  and  C16_28 
REMARK   14  A    between atoms: C15_27  and  C20_32 
REMARK   15  A    between atoms: C16_28  and  C17_29 
REMARK       I    between atoms: C20_32  and  N6_34 
REMARK       I    between atoms: N7_37  and  C23_38 
REMARK   16  A    between atoms: C23_38  and  O4_40 
REMARK   17  A    between atoms: O4_40  and  C24_41 
ROOT
HETATM    1  C14 UNL     1      12.644  18.269  18.274  1.00  0.00     0.135 C 
ENDROOT
BRANCH   1   2
HETATM    2  C5  UNL     1      12.555  18.800  16.891  1.00  0.00     0.157 C 
BRANCH   2   3
HETATM    3  C4  UNL     1      12.124  17.801  15.863  1.00  0.00     0.037 C 
BRANCH   3   4
HETATM    4  C2  UNL     1      10.736  17.947  15.323  1.00  0.00    -0.020 C 
HETATM    5  C1  UNL     1      10.128  19.314  15.572  1.00  0.00     0.009 C 
HETATM    6  C3  UNL     1      10.874  17.749  13.796  1.00  0.00     0.009 C 
ENDBRANCH   3   4
ENDBRANCH   2   3
BRANCH   2   7
HETATM    7  N1  UNL     1      13.900  19.231  16.476  1.00  0.00    -0.370 N 
ATOM      8  H1  UNL     1      14.686  18.609  16.662  1.00  0.00     0.161 HD
BRANCH   7   9
HETATM    9  C6  UNL     1      14.159  20.458  15.835  1.00  0.00     0.108 C 
HETATM   10  S1  UNL     1      13.130  21.017  14.709  1.00  0.00    -0.063 SA
BRANCH   9  11
HETATM   11  C7  UNL     1      15.366  21.254  16.211  1.00  0.00     0.288 C 
BRANCH  11  12
HETATM   12  C8  UNL     1      14.994  22.708  16.239  1.00  0.00     0.101 C 
BRANCH  12  13
HETATM   13  C9  UNL     1      15.542  23.440  17.420  1.00  0.00     0.028 A 
HETATM   14  C10 UNL     1      15.003  24.540  18.050  1.00  0.00     0.114 A 
HETATM   15  N2  UNL     1      15.812  24.883  19.053  1.00  0.00    -0.360 N 
HETATM   16  C11 UNL     1      16.845  24.035  19.078  1.00  0.00     0.180 A 
ATOM     17  H2  UNL     1      15.666  25.663  19.695  1.00  0.00     0.166 HD
HETATM   18  N3  UNL     1      16.676  23.153  18.076  1.00  0.00    -0.355 N 
ATOM     19  H3  UNL     1      17.311  22.387  17.851  1.00  0.00     0.166 HD
ENDBRANCH  12  13
ENDBRANCH  11  12
BRANCH  11  20
HETATM   20  N4  UNL     1      16.504  21.019  15.391  1.00  0.00     0.091 N 
HETATM   21  C12 UNL     1      16.451  19.697  14.759  1.00  0.00     0.310 C 
HETATM   22  C13 UNL     1      16.770  21.985  14.371  1.00  0.00     0.310 C 
ENDBRANCH  11  20
ENDBRANCH   9  11
ENDBRANCH   7   9
ENDBRANCH   2   7
ENDBRANCH   1   2
BRANCH   1  23
HETATM   23  O1  UNL     1      13.737  17.634  18.591  1.00  0.00    -0.348 OA
ATOM     24  H1  UNL     1      14.091  17.796  19.458  1.00  0.00     0.219 HD
ENDBRANCH   1  23
BRANCH   1  25
HETATM   25  N5  UNL     1      11.709  18.358  19.299  1.00  0.00    -0.359 N 
ATOM     26  H5  UNL     1      11.627  17.594  19.971  1.00  0.00     0.162 HD
BRANCH  25  27
HETATM   27  C15 UNL     1      10.822  19.552  19.433  1.00  0.00     0.176 C 
BRANCH  27  28
HETATM   28  C16 UNL     1      11.507  20.561  20.300  1.00  0.00     0.038 C 
BRANCH  28  29
HETATM   29  C17 UNL     1      12.168  21.686  19.531  1.00  0.00    -0.020 C 
HETATM   30  C18 UNL     1      13.641  21.504  19.372  1.00  0.00     0.009 C 
HETATM   31  C19 UNL     1      11.457  21.801  18.196  1.00  0.00     0.009 C 
ENDBRANCH  28  29
ENDBRANCH  27  28
BRANCH  27  32
HETATM   32  C20 UNL     1       9.547  19.134  20.037  1.00  0.00     0.242 C 
HETATM   33  O2  UNL     1       9.175  19.635  21.146  1.00  0.00    -0.271 OA
HETATM   34  N6  UNL     1       8.707  18.180  19.428  1.00  0.00    -0.347 N 
HETATM   35  C21 UNL     1       9.112  17.562  18.190  1.00  0.00     0.146 C 
HETATM   36  C29 UNL     1       7.434  17.797  20.029  1.00  0.00     0.146 C 
HETATM   37  C22 UNL     1       8.595  16.112  18.214  1.00  0.00     0.148 C 
HETATM   38  N7  UNL     1       7.147  16.252  18.148  1.00  0.00    -0.325 N 
HETATM   39  C23 UNL     1       6.413  15.574  17.161  1.00  0.00     0.363 C 
HETATM   40  C28 UNL     1       6.489  17.108  19.113  1.00  0.00     0.148 C 
HETATM   41  O3  UNL     1       5.163  15.672  17.085  1.00  0.00    -0.238 OA
BRANCH  39  42
HETATM   42  O4  UNL     1       7.048  14.782  16.247  1.00  0.00    -0.294 OA
BRANCH  42  43
HETATM   43  C24 UNL     1       7.484  15.164  14.981  1.00  0.00     0.061 C 
HETATM   44  C25 UNL     1       7.357  16.602  14.653  1.00  0.00     0.046 C 
HETATM   45  C26 UNL     1       6.710  14.358  13.958  1.00  0.00     0.046 C 
HETATM   46  C27 UNL     1       8.952  14.782  14.817  1.00  0.00     0.046 C 
ENDBRANCH  42  43
ENDBRANCH  39  42
ENDBRANCH  27  32
ENDBRANCH  25  27
ENDBRANCH   1  25
TORSDOF 17
ENDMDL
MODEL 3
REMARK VINA RESULT: -8.215068514      3.051      9.832
REMARK  17 active torsions:
REMARK  status: ('A' for Active; 'I' for Inactive)
REMARK    1  A    between atoms: C2_2  and  C4_4 
REMARK    2  A    between atoms: C4_4  and  C5_5 
REMARK    3  A    between atoms: C5_5  and  N1_6 
REMARK    4  A    between atoms: C5_5  and  C14_22 
REMARK    5  A    between atoms: N1_6  and  C6_8 
REMARK    6  A    between atoms: C6_8  and  C7_10 
REMARK    7  A    between atoms: C7_10  and  C8_11 
REMARK    8  A    between atoms: C7_10  and  N4_19 
REMARK    9  A    between atoms: C8_11  and  C9_12 
REMARK   10  A    between atoms: C14_22  and  O1_23 
REMARK   11  A    between atoms: C14_22  and  N5_25 
REMARK   12  A    between atoms: N5_25  and  C15_27 
REMARK   13  A    between atoms: C15_27  and  C16_28 
REMARK   14  A    between atoms: C15_27  and  C20_32 
REMARK   15  A    between atoms: C16_28  and  C17_29 
REMARK       I    between atoms: C20_32  and  N6_34 
REMARK       I    between atoms: N7_37  and  C23_38 
REMARK   16  A    between atoms: C23_38  and  O4_40 
REMARK   17  A    between atoms: O4_40  and  C24_41 
ROOT
HETATM    1  C14 UNL     1       9.620  18.011  18.028  1.00  0.00     0.135 C 
ENDROOT
BRANCH   1   2
HETATM    2  C5  UNL     1       8.494  17.617  18.910  1.00  0.00     0.157 C 
BRANCH   2   3
HETATM    3  C4  UNL     1       8.863  17.417  20.346  1.00  0.00     0.037 C 
BRANCH   3   4
HETATM    4  C2  UNL     1       8.024  18.125  21.363  1.00  0.00    -0.020 C 
HETATM    5  C1  UNL     1       7.000  19.065  20.757  1.00  0.00     0.009 C 
HETATM    6  C3  UNL     1       7.268  17.005  22.113  1.00  0.00     0.009 C 
ENDBRANCH   3   4
ENDBRANCH   2   3
BRANCH   2   7
HETATM    7  N1  UNL     1       7.985  16.313  18.453  1.00  0.00    -0.370 N 
ATOM      8  H1  UNL     1       8.586  15.497  18.558  1.00  0.00     0.161 HD
BRANCH   7   9
HETATM    9  C6  UNL     1       6.712  16.135  17.878  1.00  0.00     0.108 C 
HETATM   10  S1  UNL     1       5.378  16.392  18.768  1.00  0.00    -0.063 SA
BRANCH   9  11
HETATM   11  C7  UNL     1       6.593  15.735  16.444  1.00  0.00     0.288 C 
BRANCH  11  12
HETATM   12  C8  UNL     1       6.658  16.969  15.592  1.00  0.00     0.101 C 
BRANCH  12  13
HETATM   13  C9  UNL     1       7.998  17.196  14.973  1.00  0.00     0.028 A 
HETATM   14  C10 UNL     1       8.498  18.372  14.461  1.00  0.00     0.114 A 
HETATM   15  N2  UNL     1       9.726  18.136  13.999  1.00  0.00    -0.360 N 
HETATM   16  C11 UNL     1      10.020  16.848  14.202  1.00  0.00     0.180 A 
ATOM     17  H2  UNL     1      10.340  18.824  13.563  1.00  0.00     0.166 HD
HETATM   18  N3  UNL     1       8.958  16.275  14.800  1.00  0.00    -0.355 N 
ATOM     19  H3  UNL     1       8.894  15.295  15.076  1.00  0.00     0.166 HD
ENDBRANCH  12  13
ENDBRANCH  11  12
BRANCH  11  20
HETATM   20  N4  UNL     1       5.443  14.952  16.147  1.00  0.00     0.091 N 
HETATM   21  C12 UNL     1       4.379  15.761  15.543  1.00  0.00     0.310 C 
HETATM   22  C13 UNL     1       5.645  13.803  15.320  1.00  0.00     0.310 C 
ENDBRANCH  11  20
ENDBRANCH   9  11
ENDBRANCH   7   9
ENDBRANCH   2   7
ENDBRANCH   1   2
BRANCH   1  23
HETATM   23  O1  UNL     1      10.365  17.050  17.560  1.00  0.00    -0.348 OA
ATOM     24  H1  UNL     1       9.977  16.490  16.898  1.00  0.00     0.219 HD
ENDBRANCH   1  23
BRANCH   1  25
HETATM   25  N5  UNL     1       9.998  19.287  17.620  1.00  0.00    -0.359 N 
ATOM     26  H5  UNL     1       9.387  19.815  16.996  1.00  0.00     0.162 HD
BRANCH  25  27
HETATM   27  C15 UNL     1      11.281  19.895  18.081  1.00  0.00     0.176 C 
BRANCH  27  28
HETATM   28  C16 UNL     1      11.002  21.277  18.582  1.00  0.00     0.038 C 
BRANCH  28  29
HETATM   29  C17 UNL     1      10.930  21.381  20.091  1.00  0.00    -0.020 C 
HETATM   30  C18 UNL     1       9.561  21.699  20.595  1.00  0.00     0.009 C 
HETATM   31  C19 UNL     1      11.465  20.082  20.662  1.00  0.00     0.009 C 
ENDBRANCH  28  29
ENDBRANCH  27  28
BRANCH  27  32
HETATM   32  C20 UNL     1      12.222  19.936  16.951  1.00  0.00     0.242 C 
HETATM   33  O2  UNL     1      11.988  19.253  15.903  1.00  0.00    -0.271 OA
HETATM   34  N6  UNL     1      13.400  20.711  16.984  1.00  0.00    -0.347 N 
HETATM   35  C21 UNL     1      13.719  21.469  18.169  1.00  0.00     0.146 C 
HETATM   36  C29 UNL     1      14.308  20.759  15.844  1.00  0.00     0.146 C 
HETATM   37  C22 UNL     1      15.252  21.462  18.313  1.00  0.00     0.148 C 
HETATM   38  N7  UNL     1      15.717  22.253  17.182  1.00  0.00    -0.325 N 
HETATM   39  C23 UNL     1      16.577  23.345  17.386  1.00  0.00     0.363 C 
HETATM   40  C28 UNL     1      15.268  21.892  15.853  1.00  0.00     0.148 C 
HETATM   41  O3  UNL     1      16.998  24.041  16.428  1.00  0.00    -0.238 OA
BRANCH  39  42
HETATM   42  O4  UNL     1      16.980  23.683  18.646  1.00  0.00    -0.294 OA
BRANCH  42  43
HETATM   43  C24 UNL     1      16.522  24.760  19.401  1.00  0.00     0.061 C 
HETATM   44  C25 UNL     1      15.215  25.328  19.002  1.00  0.00     0.046 C 
HETATM   45  C26 UNL     1      17.570  25.852  19.340  1.00  0.00     0.046 C 
HETATM   46  C27 UNL     1      16.415  24.341  20.865  1.00  0.00     0.046 C 
ENDBRANCH  42  43
ENDBRANCH  39  42
ENDBRANCH  27  32
ENDBRANCH  25  27
ENDBRANCH   1  25
TORSDOF 17
ENDMDL
MODEL 4
REMARK VINA RESULT: -8.201060426      2.793      9.250
REMARK  17 active torsions:
REMARK  status: ('A' for Active; 'I' for Inactive)
REMARK    1  A    between atoms: C2_2  and  C4_4 
REMARK    2  A    between atoms: C4_4  and  C5_5 
REMARK    3  A    between atoms: C5_5  and  N1_6 
REMARK    4  A    between atoms: C5_5  and  C14_22 
REMARK    5  A    between atoms: N1_6  and  C6_8 
REMARK    6  A    between atoms: C6_8  and  C7_10 
REMARK    7  A    between atoms: C7_10  and  C8_11 
REMARK    8  A    between atoms: C7_10  and  N4_19 
REMARK    9  A    between atoms: C8_11  and  C9_12 
REMARK   10  A    between atoms: C14_22  and  O1_23 
REMARK   11  A    between atoms: C14_22  and  N5_25 
REMARK   12  A    between atoms: N5_25  and  C15_27 
REMARK   13  A    between atoms: C15_27  and  C16_28 
REMARK   14  A    between atoms: C15_27  and  C20_32 
REMARK   15  A    between atoms: C16_28  and  C17_29 
REMARK       I    between atoms: C20_32  and  N6_34 
REMARK       I    between atoms: N7_37  and  C23_38 
REMARK   16  A    between atoms: C23_38  and  O4_40 
REMARK   17  A    between atoms: O4_40  and  C24_41 
ROOT
HETATM    1  C14 UNL     1       8.511  17.218  17.272  1.00  0.00     0.135 C 
ENDROOT
BRANCH   1   2
HETATM    2  C5  UNL     1       8.083  17.126  15.854  1.00  0.00     0.157 C 
BRANCH   2   3
HETATM    3  C4  UNL     1       8.623  18.202  14.966  1.00  0.00     0.037 C 
BRANCH   3   4
HETATM    4  C2  UNL     1       9.733  17.817  14.039  1.00  0.00    -0.020 C 
HETATM    5  C1  UNL     1      11.081  18.387  14.437  1.00  0.00     0.009 C 
HETATM    6  C3  UNL     1       9.815  16.276  14.125  1.00  0.00     0.009 C 
ENDBRANCH   3   4
ENDBRANCH   2   3
BRANCH   2   7
HETATM    7  N1  UNL     1       6.619  17.276  15.803  1.00  0.00    -0.370 N 
ATOM      8  H1  UNL     1       6.232  18.217  15.734  1.00  0.00     0.161 HD
BRANCH   7   9
HETATM    9  C6  UNL     1       5.725  16.190  15.846  1.00  0.00     0.108 C 
HETATM   10  S1  UNL     1       6.203  14.726  15.330  1.00  0.00    -0.063 SA
BRANCH   9  11
HETATM   11  C7  UNL     1       4.347  16.381  16.391  1.00  0.00     0.288 C 
BRANCH  11  12
HETATM   12  C8  UNL     1       4.441  16.601  17.873  1.00  0.00     0.101 C 
BRANCH  12  13
HETATM   13  C9  UNL     1       4.045  17.978  18.296  1.00  0.00     0.028 A 
HETATM   14  C10 UNL     1       3.003  18.738  17.812  1.00  0.00     0.114 A 
HETATM   15  N2  UNL     1       3.006  19.906  18.456  1.00  0.00    -0.360 N 
HETATM   16  C11 UNL     1       4.016  19.909  19.331  1.00  0.00     0.180 A 
ATOM     17  H2  UNL     1       2.347  20.670  18.304  1.00  0.00     0.166 HD
HETATM   18  N3  UNL     1       4.650  18.726  19.231  1.00  0.00    -0.355 N 
ATOM     19  H3  UNL     1       5.463  18.443  19.779  1.00  0.00     0.166 HD
ENDBRANCH  12  13
ENDBRANCH  11  12
BRANCH  11  20
HETATM   20  N4  UNL     1       3.439  15.333  16.073  1.00  0.00     0.091 N 
HETATM   21  C12 UNL     1       2.907  14.693  17.280  1.00  0.00     0.310 C 
HETATM   22  C13 UNL     1       2.335  15.674  15.232  1.00  0.00     0.310 C 
ENDBRANCH  11  20
ENDBRANCH   9  11
ENDBRANCH   7   9
ENDBRANCH   2   7
ENDBRANCH   1   2
BRANCH   1  23
HETATM   23  O1  UNL     1       9.344  16.309  17.694  1.00  0.00    -0.348 OA
ATOM     24  H1  UNL     1       8.967  15.504  18.029  1.00  0.00     0.219 HD
ENDBRANCH   1  23
BRANCH   1  25
HETATM   25  N5  UNL     1       8.142  18.156  18.231  1.00  0.00    -0.359 N 
ATOM     26  H5  UNL     1       7.425  18.846  18.007  1.00  0.00     0.162 HD
BRANCH  25  27
HETATM   27  C15 UNL     1       8.780  18.170  19.581  1.00  0.00     0.176 C 
BRANCH  27  28
HETATM   28  C16 UNL     1       7.757  17.769  20.596  1.00  0.00     0.038 C 
BRANCH  28  29
HETATM   29  C17 UNL     1       8.157  16.570  21.432  1.00  0.00    -0.020 C 
HETATM   30  C18 UNL     1       7.395  16.465  22.712  1.00  0.00     0.009 C 
HETATM   31  C19 UNL     1       7.993  15.337  20.564  1.00  0.00     0.009 C 
ENDBRANCH  28  29
ENDBRANCH  27  28
BRANCH  27  32
HETATM   32  C20 UNL     1       9.279  19.525  19.859  1.00  0.00     0.242 C 
HETATM   33  O2  UNL     1       8.579  20.331  20.553  1.00  0.00    -0.271 OA
HETATM   34  N6  UNL     1      10.523  19.980  19.374  1.00  0.00    -0.347 N 
HETATM   35  C21 UNL     1      11.327  19.110  18.553  1.00  0.00     0.146 C 
HETATM   36  C29 UNL     1      11.013  21.319  19.682  1.00  0.00     0.146 C 
HETATM   37  C22 UNL     1      12.053  19.997  17.525  1.00  0.00     0.148 C 
HETATM   38  N7  UNL     1      12.982  20.780  18.327  1.00  0.00    -0.325 N 
HETATM   39  C23 UNL     1      14.350  20.802  18.008  1.00  0.00     0.363 C 
HETATM   40  C28 UNL     1      12.467  21.523  19.459  1.00  0.00     0.148 C 
HETATM   41  O3  UNL     1      15.174  21.472  18.680  1.00  0.00    -0.238 OA
BRANCH  39  42
HETATM   42  O4  UNL     1      14.826  20.084  16.948  1.00  0.00    -0.294 OA
BRANCH  42  43
HETATM   43  C24 UNL     1      15.116  20.575  15.678  1.00  0.00     0.061 C 
HETATM   44  C25 UNL     1      13.957  20.800  14.785  1.00  0.00     0.046 C 
HETATM   45  C26 UNL     1      16.068  19.605  15.009  1.00  0.00     0.046 C 
HETATM   46  C27 UNL     1      15.862  21.900  15.807  1.00  0.00     0.046 C 
ENDBRANCH  42  43
ENDBRANCH  39  42
ENDBRANCH  27  32
ENDBRANCH  25  27
ENDBRANCH   1  25
TORSDOF 17
ENDMDL
MODEL 5
REMARK VINA RESULT: -8.165462990      2.956      9.547
REMARK  17 active torsions:
REMARK  status: ('A' for Active; 'I' for Inactive)
REMARK    1  A    between atoms: C2_2  and  C4_4 
REMARK    2  A    between atoms: C4_4  and  C5_5 
REMARK    3  A    between atoms: C5_5  and  N1_6 
REMARK    4  A    between atoms: C5_5  and  C14_22 
REMARK    5  A    between atoms: N1_6  and  C6_8 
REMARK    6  A    between atoms: C6_8  and  C7_10 
REMARK    7  A    between atoms: C7_10  and  C8_11 
REMARK    8  A    between atoms: C7_10  and  N4_19 
REMARK    9  A    between atoms: C8_11  and  C9_12 
REMARK   10  A    between atoms: C14_22  and  O1_23 
REMARK   11  A    between atoms: C14_22  and  N5_25 
REMARK   12  A    between atoms: N5_25  and  C15_27 
REMARK   13  A    between atoms: C15_27  and  C16_28 
REMARK   14  A    between atoms: C15_27  and  C20_32 
REMARK   15  A    between atoms: C16_28  and  C17_29 
REMARK       I    between atoms: C20_32  and  N6_34 
REMARK       I    between atoms: N7_37  and  C23_38 
REMARK   16  A    between atoms: C23_38  and  O4_40 
REMARK   17  A    between atoms: O4_40  and  C24_41 
ROOT
HETATM    1  C14 UNL     1       8.041  17.095  17.844  1.00  0.00     0.135 C 
ENDROOT
BRANCH   1   2
HETATM    2  C5  UNL     1       7.057  16.308  17.061  1.00  0.00     0.157 C 
BRANCH   2   3
HETATM    3  C4  UNL     1       7.425  16.094  15.627  1.00  0.00     0.037 C 
BRANCH   3   4
HETATM    4  C2  UNL     1       7.572  14.675  15.173  1.00  0.00    -0.020 C 
HETATM    5  C1  UNL     1       6.249  13.983  14.907  1.00  0.00     0.009 C 
HETATM    6  C3  UNL     1       8.352  14.755  13.841  1.00  0.00     0.009 C 
ENDBRANCH   3   4
ENDBRANCH   2   3
BRANCH   2   7
HETATM    7  N1  UNL     1       5.789  17.054  17.031  1.00  0.00    -0.370 N 
ATOM      8  H1  UNL     1       5.681  17.796  16.340  1.00  0.00     0.161 HD
BRANCH   7   9
HETATM    9  C6  UNL     1       4.716  16.798  17.906  1.00  0.00     0.108 C 
HETATM   10  S1  UNL     1       3.788  15.483  17.686  1.00  0.00    -0.063 SA
BRANCH   9  11
HETATM   11  C7  UNL     1       4.450  17.723  19.049  1.00  0.00     0.288 C 
BRANCH  11  12
HETATM   12  C8  UNL     1       4.851  17.040  20.324  1.00  0.00     0.101 C 
BRANCH  12  13
HETATM   13  C9  UNL     1       6.107  17.584  20.921  1.00  0.00     0.028 A 
HETATM   14  C10 UNL     1       6.592  18.870  20.830  1.00  0.00     0.114 A 
HETATM   15  N2  UNL     1       7.743  18.928  21.499  1.00  0.00    -0.360 N 
HETATM   16  C11 UNL     1       8.003  17.721  22.011  1.00  0.00     0.180 A 
ATOM     17  H2  UNL     1       8.329  19.757  21.603  1.00  0.00     0.166 HD
HETATM   18  N3  UNL     1       6.998  16.900  21.655  1.00  0.00    -0.355 N 
ATOM     19  H3  UNL     1       6.925  15.913  21.904  1.00  0.00     0.166 HD
ENDBRANCH  12  13
ENDBRANCH  11  12
BRANCH  11  20
HETATM   20  N4  UNL     1       3.116  18.210  19.111  1.00  0.00     0.091 N 
HETATM   21  C12 UNL     1       2.604  18.214  20.486  1.00  0.00     0.310 C 
HETATM   22  C13 UNL     1       2.878  19.504  18.550  1.00  0.00     0.310 C 
ENDBRANCH  11  20
ENDBRANCH   9  11
ENDBRANCH   7   9
ENDBRANCH   2   7
ENDBRANCH   1   2
BRANCH   1  23
HETATM   23  O1  UNL     1       8.609  16.493  18.851  1.00  0.00    -0.348 OA
ATOM     24  H1  UNL     1       8.385  16.807  19.720  1.00  0.00     0.219 HD
ENDBRANCH   1  23
BRANCH   1  25
HETATM   25  N5  UNL     1       8.453  18.410  17.650  1.00  0.00    -0.359 N 
ATOM     26  H5  UNL     1       7.784  19.170  17.782  1.00  0.00     0.162 HD
BRANCH  25  27
HETATM   27  C15 UNL     1       9.856  18.728  17.251  1.00  0.00     0.176 C 
BRANCH  27  28
HETATM   28  C16 UNL     1      10.549  17.454  16.885  1.00  0.00     0.038 C 
BRANCH  28  29
HETATM   29  C17 UNL     1      10.869  17.329  15.410  1.00  0.00    -0.020 C 
HETATM   30  C18 UNL     1      10.144  18.323  14.564  1.00  0.00     0.009 C 
HETATM   31  C19 UNL     1      12.375  17.440  15.262  1.00  0.00     0.009 C 
ENDBRANCH  28  29
ENDBRANCH  27  28
BRANCH  27  32
HETATM   32  C20 UNL     1      10.537  19.379  18.381  1.00  0.00     0.242 C 
HETATM   33  O2  UNL     1      10.127  19.182  19.570  1.00  0.00    -0.271 OA
HETATM   34  N6  UNL     1      11.643  20.234  18.198  1.00  0.00    -0.347 N 
HETATM   35  C21 UNL     1      12.113  20.512  16.863  1.00  0.00     0.146 C 
HETATM   36  C29 UNL     1      12.322  20.851  19.332  1.00  0.00     0.146 C 
HETATM   37  C22 UNL     1      12.619  21.966  16.852  1.00  0.00     0.148 C 
HETATM   38  N7  UNL     1      13.798  21.937  17.706  1.00  0.00    -0.325 N 
HETATM   39  C23 UNL     1      15.027  22.428  17.234  1.00  0.00     0.363 C 
HETATM   40  C28 UNL     1      13.676  21.386  19.039  1.00  0.00     0.148 C 
HETATM   41  O3  UNL     1      16.059  22.419  17.950  1.00  0.00    -0.238 OA
BRANCH  39  42
HETATM   42  O4  UNL     1      15.133  22.931  15.968  1.00  0.00    -0.294 OA
BRANCH  42  43
HETATM   43  C24 UNL     1      15.677  22.283  14.862  1.00  0.00     0.061 C 
HETATM   44  C25 UNL     1      15.748  20.807  14.939  1.00  0.00     0.046 C 
HETATM   45  C26 UNL     1      17.073  22.830  14.643  1.00  0.00     0.046 C 
HETATM   46  C27 UNL     1      14.869  22.642  13.619  1.00  0.00     0.046 C 
ENDBRANCH  42  43
ENDBRANCH  39  42
ENDBRANCH  27  32
ENDBRANCH  25  27
ENDBRANCH   1  25
TORSDOF 17
ENDMDL
