MODEL 1
REMARK VINA RESULT: -7.874075166      0.000      0.000
REMARK  0 active torsions:
REMARK  status: ('A' for Active; 'I' for Inactive)
ROOT
HETATM    1  C1  UNL     1      14.620   0.128  20.461  1.00  0.00     0.015 C 
HETATM    2  C2  UNL     1      13.274   0.403  21.030  1.00  0.00    -0.042 C 
HETATM    3  C3  UNL     1      13.262  -0.157  22.459  1.00  0.00     0.015 C 
HETATM    4  C4  UNL     1      12.888   1.847  21.064  1.00  0.00     0.014 C 
HETATM    5  C5  UNL     1      11.441   2.096  20.807  1.00  0.00    -0.007 C 
HETATM    6  C6  UNL     1      10.564   1.067  21.504  1.00  0.00     0.024 C 
HETATM    7  C7  UNL     1      10.854  -0.266  20.904  1.00  0.00     0.098 C 
HETATM    8  C8  UNL     1       9.848  -0.670  19.897  1.00  0.00     0.064 C 
HETATM    9  N1  UNL     1       9.049  -0.997  19.123  1.00  0.00    -0.197 NA
HETATM   10  C9  UNL     1      12.205  -0.341  20.248  1.00  0.00     0.016 C 
HETATM   11  C10 UNL     1      12.185   0.001  18.806  1.00  0.00     0.081 C 
HETATM   12  C11 UNL     1      11.814   1.364  18.424  1.00  0.00     0.230 C 
HETATM   13  C12 UNL     1      11.038   2.169  19.392  1.00  0.00     0.079 C 
HETATM   14  O1  UNL     1      11.022   1.283  17.248  1.00  0.00    -0.195 OA
HETATM   15  O2  UNL     1      11.746   1.448  16.171  1.00  0.00    -0.194 OA
HETATM   16  C13 UNL     1      12.122   2.790  16.106  1.00  0.00     0.237 C 
HETATM   17  O3  UNL     1      12.372   3.213  17.417  1.00  0.00    -0.194 OA
HETATM   18  O4  UNL     1      12.920   2.153  18.018  1.00  0.00    -0.195 OA
HETATM   19  C14 UNL     1      10.974   3.544  15.482  1.00  0.00     0.055 C 
HETATM   20  C15 UNL     1      10.769   2.945  14.096  1.00  0.00     0.015 C 
HETATM   21  C16 UNL     1      12.030   3.167  13.314  1.00  0.00    -0.013 C 
HETATM   22  C17 UNL     1      12.348   4.641  13.208  1.00  0.00     0.009 C 
HETATM   23  C18 UNL     1      12.561   5.209  14.591  1.00  0.00    -0.013 C 
HETATM   24  C19 UNL     1      11.269   5.008  15.361  1.00  0.00     0.015 C 
HETATM   25  C20 UNL     1      13.673   4.489  15.315  1.00  0.00     0.015 C 
HETATM   26  C21 UNL     1      13.400   2.992  15.324  1.00  0.00     0.055 C 
HETATM   27  C22 UNL     1      13.210   2.480  13.933  1.00  0.00     0.015 C 
ENDROOT
TORSDOF 0
ENDMDL
MODEL 2
REMARK VINA RESULT: -7.749420708      2.798      7.128
REMARK  0 active torsions:
REMARK  status: ('A' for Active; 'I' for Inactive)
ROOT
HETATM    1  C1  UNL     1       8.864   3.072  12.428  1.00  0.00     0.015 C 
HETATM    2  C2  UNL     1       9.909   3.965  12.991  1.00  0.00    -0.042 C 
HETATM    3  C3  UNL     1       9.840   5.290  12.218  1.00  0.00     0.015 C 
HETATM    4  C4  UNL     1       9.778   4.243  14.454  1.00  0.00     0.014 C 
HETATM    5  C5  UNL     1      11.081   4.359  15.171  1.00  0.00    -0.007 C 
HETATM    6  C6  UNL     1      12.104   5.128  14.349  1.00  0.00     0.024 C 
HETATM    7  C7  UNL     1      12.392   4.339  13.118  1.00  0.00     0.098 C 
HETATM    8  C8  UNL     1      13.644   3.559  13.221  1.00  0.00     0.064 C 
HETATM    9  N1  UNL     1      14.637   2.963  13.293  1.00  0.00    -0.197 NA
HETATM   10  C9  UNL     1      11.292   3.381  12.756  1.00  0.00     0.016 C 
HETATM   11  C10 UNL     1      11.465   2.028  13.336  1.00  0.00     0.081 C 
HETATM   12  C11 UNL     1      11.425   1.891  14.791  1.00  0.00     0.230 C 
HETATM   13  C12 UNL     1      11.694   3.094  15.610  1.00  0.00     0.079 C 
HETATM   14  O1  UNL     1      12.405   0.931  15.162  1.00  0.00    -0.195 OA
HETATM   15  O2  UNL     1      11.882  -0.261  15.288  1.00  0.00    -0.194 OA
HETATM   16  C13 UNL     1      11.100  -0.270  16.443  1.00  0.00     0.237 C 
HETATM   17  O3  UNL     1      10.482   0.984  16.533  1.00  0.00    -0.194 OA
HETATM   18  O4  UNL     1      10.217   1.323  15.268  1.00  0.00    -0.195 OA
HETATM   19  C14 UNL     1      12.025  -0.524  17.606  1.00  0.00     0.055 C 
HETATM   20  C15 UNL     1      12.674  -1.880  17.351  1.00  0.00     0.015 C 
HETATM   21  C16 UNL     1      11.581  -2.907  17.316  1.00  0.00    -0.013 C 
HETATM   22  C17 UNL     1      10.816  -2.927  18.619  1.00  0.00     0.009 C 
HETATM   23  C18 UNL     1      10.172  -1.579  18.843  1.00  0.00    -0.013 C 
HETATM   24  C19 UNL     1      11.288  -0.555  18.910  1.00  0.00     0.015 C 
HETATM   25  C20 UNL     1       9.248  -1.216  17.705  1.00  0.00     0.015 C 
HETATM   26  C21 UNL     1       9.998  -1.303  16.384  1.00  0.00     0.055 C 
HETATM   27  C22 UNL     1      10.604  -2.657  16.207  1.00  0.00     0.015 C 
ENDROOT
TORSDOF 0
ENDMDL
MODEL 3
REMARK VINA RESULT: -7.591160524      2.127      6.856
REMARK  0 active torsions:
REMARK  status: ('A' for Active; 'I' for Inactive)
ROOT
HETATM    1  C1  UNL     1      10.036   2.161  13.332  1.00  0.00     0.015 C 
HETATM    2  C2  UNL     1      10.884   3.378  13.419  1.00  0.00    -0.042 C 
HETATM    3  C3  UNL     1      10.670   4.175  12.124  1.00  0.00     0.015 C 
HETATM    4  C4  UNL     1      10.600   4.261  14.592  1.00  0.00     0.014 C 
HETATM    5  C5  UNL     1      11.809   4.912  15.170  1.00  0.00    -0.007 C 
HETATM    6  C6  UNL     1      12.761   5.390  14.084  1.00  0.00     0.024 C 
HETATM    7  C7  UNL     1      13.262   4.192  13.353  1.00  0.00     0.098 C 
HETATM    8  C8  UNL     1      14.609   3.773  13.799  1.00  0.00     0.064 C 
HETATM    9  N1  UNL     1      15.673   3.456  14.133  1.00  0.00    -0.197 NA
HETATM   10  C9  UNL     1      12.354   3.000  13.474  1.00  0.00     0.016 C 
HETATM   11  C10 UNL     1      12.691   2.109  14.610  1.00  0.00     0.081 C 
HETATM   12  C11 UNL     1      12.561   2.641  15.966  1.00  0.00     0.230 C 
HETATM   13  C12 UNL     1      12.576   4.111  16.140  1.00  0.00     0.079 C 
HETATM   14  O1  UNL     1      13.646   2.139  16.734  1.00  0.00    -0.195 OA
HETATM   15  O2  UNL     1      13.306   1.063  17.395  1.00  0.00    -0.194 OA
HETATM   16  C13 UNL     1      12.448   1.443  18.427  1.00  0.00     0.237 C 
HETATM   17  O3  UNL     1      11.639   2.474  17.933  1.00  0.00    -0.194 OA
HETATM   18  O4  UNL     1      11.422   2.152  16.654  1.00  0.00    -0.195 OA
HETATM   19  C14 UNL     1      13.310   1.908  19.574  1.00  0.00     0.055 C 
HETATM   20  C15 UNL     1      14.178   0.719  19.968  1.00  0.00     0.015 C 
HETATM   21  C16 UNL     1      13.264  -0.385  20.412  1.00  0.00    -0.013 C 
HETATM   22  C17 UNL     1      12.413   0.055  21.581  1.00  0.00     0.009 C 
HETATM   23  C18 UNL     1      11.553   1.224  21.163  1.00  0.00    -0.013 C 
HETATM   24  C19 UNL     1      12.488   2.344  20.748  1.00  0.00     0.015 C 
HETATM   25  C20 UNL     1      10.674   0.866  19.988  1.00  0.00     0.015 C 
HETATM   26  C21 UNL     1      11.528   0.322  18.852  1.00  0.00     0.055 C 
HETATM   27  C22 UNL     1      12.348  -0.837  19.315  1.00  0.00     0.015 C 
ENDROOT
TORSDOF 0
ENDMDL
MODEL 4
REMARK VINA RESULT: -7.240034540      1.372      6.509
REMARK  0 active torsions:
REMARK  status: ('A' for Active; 'I' for Inactive)
ROOT
HETATM    1  C1  UNL     1      12.478   5.694  15.651  1.00  0.00     0.015 C 
HETATM    2  C2  UNL     1      12.528   4.474  14.803  1.00  0.00    -0.042 C 
HETATM    3  C3  UNL     1      12.580   4.939  13.341  1.00  0.00     0.015 C 
HETATM    4  C4  UNL     1      13.686   3.568  15.072  1.00  0.00     0.014 C 
HETATM    5  C5  UNL     1      13.369   2.118  14.935  1.00  0.00    -0.007 C 
HETATM    6  C6  UNL     1      12.471   1.853  13.736  1.00  0.00     0.024 C 
HETATM    7  C7  UNL     1      11.165   2.528  13.983  1.00  0.00     0.098 C 
HETATM    8  C8  UNL     1      10.124   1.597  14.470  1.00  0.00     0.064 C 
HETATM    9  N1  UNL     1       9.302   0.863  14.832  1.00  0.00    -0.197 NA
HETATM   10  C9  UNL     1      11.257   3.659  14.969  1.00  0.00     0.016 C 
HETATM   11  C10 UNL     1      11.000   3.248  16.370  1.00  0.00     0.081 C 
HETATM   12  C11 UNL     1      11.933   2.313  16.997  1.00  0.00     0.230 C 
HETATM   13  C12 UNL     1      12.771   1.471  16.115  1.00  0.00     0.079 C 
HETATM   14  O1  UNL     1      11.174   1.417  17.798  1.00  0.00    -0.195 OA
HETATM   15  O2  UNL     1      11.127   1.812  19.044  1.00  0.00    -0.194 OA
HETATM   16  C13 UNL     1      12.388   1.616  19.607  1.00  0.00     0.237 C 
HETATM   17  O3  UNL     1      13.333   1.912  18.617  1.00  0.00    -0.194 OA
HETATM   18  O4  UNL     1      12.801   2.930  17.933  1.00  0.00    -0.195 OA
HETATM   19  C14 UNL     1      12.462   0.173  20.040  1.00  0.00     0.055 C 
HETATM   20  C15 UNL     1      11.348  -0.027  21.061  1.00  0.00     0.015 C 
HETATM   21  C16 UNL     1      11.625   0.884  22.221  1.00  0.00    -0.013 C 
HETATM   22  C17 UNL     1      12.968   0.576  22.841  1.00  0.00     0.009 C 
HETATM   23  C18 UNL     1      14.056   0.795  21.816  1.00  0.00    -0.013 C 
HETATM   24  C19 UNL     1      13.784  -0.154  20.665  1.00  0.00     0.015 C 
HETATM   25  C20 UNL     1      14.039   2.211  21.291  1.00  0.00     0.015 C 
HETATM   26  C21 UNL     1      12.652   2.550  20.765  1.00  0.00     0.055 C 
HETATM   27  C22 UNL     1      11.617   2.328  21.820  1.00  0.00     0.015 C 
ENDROOT
TORSDOF 0
ENDMDL
MODEL 5
REMARK VINA RESULT: -7.207097295      3.069      4.842
REMARK  0 active torsions:
REMARK  status: ('A' for Active; 'I' for Inactive)
ROOT
HETATM    1  C1  UNL     1      13.573   4.194  15.730  1.00  0.00     0.015 C 
HETATM    2  C2  UNL     1      13.345   3.372  16.946  1.00  0.00    -0.042 C 
HETATM    3  C3  UNL     1      14.348   3.845  18.009  1.00  0.00     0.015 C 
HETATM    4  C4  UNL     1      11.962   3.447  17.508  1.00  0.00     0.014 C 
HETATM    5  C5  UNL     1      11.468   2.164  18.084  1.00  0.00    -0.007 C 
HETATM    6  C6  UNL     1      12.558   1.446  18.866  1.00  0.00     0.024 C 
HETATM    7  C7  UNL     1      13.636   1.068  17.909  1.00  0.00     0.098 C 
HETATM    8  C8  UNL     1      13.554  -0.348  17.488  1.00  0.00     0.064 C 
HETATM    9  N1  UNL     1      13.503  -1.463  17.173  1.00  0.00    -0.197 NA
HETATM   10  C9  UNL     1      13.648   1.910  16.664  1.00  0.00     0.016 C 
HETATM   11  C10 UNL     1      12.842   1.345  15.556  1.00  0.00     0.081 C 
HETATM   12  C11 UNL     1      11.396   1.227  15.745  1.00  0.00     0.230 C 
HETATM   13  C12 UNL     1      10.876   1.211  17.130  1.00  0.00     0.079 C 
HETATM   14  O1  UNL     1      10.981   0.005  15.151  1.00  0.00    -0.195 OA
HETATM   15  O2  UNL     1      10.551   0.190  13.929  1.00  0.00    -0.194 OA
HETATM   16  C13 UNL     1       9.322   0.845  13.998  1.00  0.00     0.237 C 
HETATM   17  O3  UNL     1       9.397   1.755  15.060  1.00  0.00    -0.194 OA
HETATM   18  O4  UNL     1      10.656   2.204  15.033  1.00  0.00    -0.195 OA
HETATM   19  C14 UNL     1       8.269  -0.209  14.237  1.00  0.00     0.055 C 
HETATM   20  C15 UNL     1       8.338  -1.162  13.049  1.00  0.00     0.015 C 
HETATM   21  C16 UNL     1       8.019  -0.372  11.814  1.00  0.00    -0.013 C 
HETATM   22  C17 UNL     1       6.645   0.251  11.910  1.00  0.00     0.009 C 
HETATM   23  C18 UNL     1       6.606   1.200  13.084  1.00  0.00    -0.013 C 
HETATM   24  C19 UNL     1       6.897   0.385  14.329  1.00  0.00     0.015 C 
HETATM   25  C20 UNL     1       7.656   2.278  12.954  1.00  0.00     0.015 C 
HETATM   26  C21 UNL     1       9.024   1.644  12.750  1.00  0.00     0.055 C 
HETATM   27  C22 UNL     1       9.011   0.725  11.571  1.00  0.00     0.015 C 
ENDROOT
TORSDOF 0
ENDMDL
