MODEL 1
REMARK VINA RESULT: -7.390352557      0.000      0.000
REMARK  1 active torsions:
REMARK  status: ('A' for Active; 'I' for Inactive)
REMARK    1  A    between atoms: C19_24  and  O3_25 
ROOT
HETATM    1  C1  UNL     1      14.140   1.351  18.964  1.00  0.00     0.011 C 
HETATM    2  C2  UNL     1      13.519   0.080  18.548  1.00  0.00    -0.008 C 
HETATM    3  C3  UNL     1      13.383  -0.035  17.057  1.00  0.00     0.033 C 
HETATM    4  C4  UNL     1      12.648   1.038  16.378  1.00  0.00     0.113 C 
HETATM    5  N1  UNL     1      11.995   0.469  15.206  1.00  0.00    -0.391 N 
ATOM      6  H1  UNL     1      11.952  -0.547  15.120  1.00  0.00     0.159 HD
HETATM    7  C5  UNL     1      11.466   1.187  14.268  1.00  0.00     0.119 C 
HETATM    8  C6  UNL     1      11.380   2.654  14.129  1.00  0.00     0.198 C 
HETATM    9  C7  UNL     1      12.507   3.104  13.237  1.00  0.00     0.070 C 
HETATM   10  C8  UNL     1      12.749   4.574  13.341  1.00  0.00     0.005 C 
HETATM   11  C9  UNL     1      12.091   5.275  12.175  1.00  0.00     0.002 C 
HETATM   12  C10 UNL     1      10.734   4.646  11.910  1.00  0.00     0.019 C 
HETATM   13  C11 UNL     1      10.001   4.397  13.198  1.00  0.00     0.119 C 
HETATM   14  N2  UNL     1      10.092   3.062  13.676  1.00  0.00    -0.380 N 
HETATM   15  C12 UNL     1       9.355   2.088  12.951  1.00  0.00     0.146 C 
HETATM   16  O1  UNL     1      11.549   3.192  15.428  1.00  0.00    -0.202 OA
HETATM   17  O2  UNL     1      10.811   2.455  16.215  1.00  0.00    -0.231 OA
HETATM   18  C13 UNL     1      11.603   1.749  17.161  1.00  0.00     0.183 C 
HETATM   19  C14 UNL     1      10.662   0.854  17.888  1.00  0.00     0.047 C 
HETATM   20  C15 UNL     1      11.092   0.393  19.236  1.00  0.00    -0.034 C 
HETATM   21  C16 UNL     1      11.003   1.599  20.159  1.00  0.00     0.016 C 
HETATM   22  C17 UNL     1       9.945  -0.511  19.734  1.00  0.00     0.012 C 
HETATM   23  C18 UNL     1       9.685  -1.643  18.811  1.00  0.00     0.032 C 
HETATM   24  C19 UNL     1      10.948  -2.288  18.369  1.00  0.00     0.118 C 
HETATM   25  C20 UNL     1      12.178  -1.869  19.076  1.00  0.00     0.042 C 
HETATM   26  C21 UNL     1      12.326  -0.386  19.336  1.00  0.00    -0.031 C 
HETATM   27  C22 UNL     1      12.804  -0.294  20.804  1.00  0.00     0.016 C 
ENDROOT
BRANCH  24  28
HETATM   28  O3  UNL     1      10.797  -3.683  18.599  1.00  0.00    -0.396 OA
ATOM     29  H3  UNL     1      11.351  -4.125  17.966  1.00  0.00     0.210 HD
ENDBRANCH  24  28
TORSDOF 1
ENDMDL
MODEL 2
REMARK VINA RESULT: -7.104181556      2.459      6.943
REMARK  1 active torsions:
REMARK  status: ('A' for Active; 'I' for Inactive)
REMARK    1  A    between atoms: C19_24  and  O3_25 
ROOT
HETATM    1  C1  UNL     1      13.633   4.973  14.914  1.00  0.00     0.011 C 
HETATM    2  C2  UNL     1      12.161   4.915  14.875  1.00  0.00    -0.008 C 
HETATM    3  C3  UNL     1      11.546   4.914  16.245  1.00  0.00     0.033 C 
HETATM    4  C4  UNL     1      11.987   3.859  17.163  1.00  0.00     0.113 C 
HETATM    5  N1  UNL     1      10.877   3.540  18.054  1.00  0.00    -0.391 N 
ATOM      6  H1  UNL     1       9.951   3.898  17.822  1.00  0.00     0.159 HD
HETATM    7  C5  UNL     1      11.008   2.826  19.125  1.00  0.00     0.119 C 
HETATM    8  C6  UNL     1      12.209   2.187  19.700  1.00  0.00     0.198 C 
HETATM    9  C7  UNL     1      12.755   3.098  20.767  1.00  0.00     0.070 C 
HETATM   10  C8  UNL     1      14.160   2.747  21.136  1.00  0.00     0.005 C 
HETATM   11  C9  UNL     1      14.155   1.932  22.409  1.00  0.00     0.002 C 
HETATM   12  C10 UNL     1      13.005   0.941  22.368  1.00  0.00     0.019 C 
HETATM   13  C11 UNL     1      12.907   0.293  21.016  1.00  0.00     0.119 C 
HETATM   14  N2  UNL     1      11.929   0.868  20.160  1.00  0.00    -0.380 N 
HETATM   15  C12 UNL     1      10.574   0.604  20.496  1.00  0.00     0.146 C 
HETATM   16  O1  UNL     1      13.144   2.064  18.644  1.00  0.00    -0.202 OA
HETATM   17  O2  UNL     1      12.464   1.628  17.617  1.00  0.00    -0.231 OA
HETATM   18  C13 UNL     1      12.448   2.579  16.562  1.00  0.00     0.183 C 
HETATM   19  C14 UNL     1      11.533   2.021  15.528  1.00  0.00     0.047 C 
HETATM   20  C15 UNL     1      11.715   2.522  14.139  1.00  0.00    -0.034 C 
HETATM   21  C16 UNL     1      13.017   1.925  13.625  1.00  0.00     0.016 C 
HETATM   22  C17 UNL     1      10.643   1.789  13.305  1.00  0.00     0.012 C 
HETATM   23  C18 UNL     1       9.273   2.038  13.816  1.00  0.00     0.032 C 
HETATM   24  C19 UNL     1       9.059   3.473  14.131  1.00  0.00     0.118 C 
HETATM   25  C20 UNL     1      10.115   4.406  13.679  1.00  0.00     0.042 C 
HETATM   26  C21 UNL     1      11.542   3.954  13.897  1.00  0.00    -0.031 C 
HETATM   27  C22 UNL     1      12.261   4.280  12.566  1.00  0.00     0.016 C 
ENDROOT
BRANCH  24  28
HETATM   28  O3  UNL     1       7.859   3.862  13.475  1.00  0.00    -0.396 OA
ATOM     29  H3  UNL     1       7.184   3.256  13.758  1.00  0.00     0.210 HD
ENDBRANCH  24  28
TORSDOF 1
ENDMDL
MODEL 3
REMARK VINA RESULT: -7.038636371      1.897      2.472
REMARK  1 active torsions:
REMARK  status: ('A' for Active; 'I' for Inactive)
REMARK    1  A    between atoms: C19_24  and  O3_25 
ROOT
HETATM    1  C1  UNL     1      15.942   3.512  18.459  1.00  0.00     0.011 C 
HETATM    2  C2  UNL     1      15.405   2.160  18.699  1.00  0.00    -0.008 C 
HETATM    3  C3  UNL     1      14.861   1.525  17.453  1.00  0.00     0.033 C 
HETATM    4  C4  UNL     1      13.823   2.271  16.732  1.00  0.00     0.113 C 
HETATM    5  N1  UNL     1      12.942   1.308  16.081  1.00  0.00    -0.391 N 
ATOM      6  H1  UNL     1      13.014   0.327  16.349  1.00  0.00     0.159 HD
HETATM    7  C5  UNL     1      12.073   1.637  15.180  1.00  0.00     0.119 C 
HETATM    8  C6  UNL     1      11.755   2.959  14.605  1.00  0.00     0.198 C 
HETATM    9  C7  UNL     1      12.504   3.095  13.306  1.00  0.00     0.070 C 
HETATM   10  C8  UNL     1      12.566   4.513  12.842  1.00  0.00     0.005 C 
HETATM   11  C9  UNL     1      11.511   4.742  11.785  1.00  0.00     0.002 C 
HETATM   12  C10 UNL     1      10.233   4.025  12.185  1.00  0.00     0.019 C 
HETATM   13  C11 UNL     1       9.943   4.226  13.646  1.00  0.00     0.119 C 
HETATM   14  N2  UNL     1      10.348   3.148  14.478  1.00  0.00    -0.380 N 
HETATM   15  C12 UNL     1       9.571   1.962  14.384  1.00  0.00     0.146 C 
HETATM   16  O1  UNL     1      12.217   3.924  15.533  1.00  0.00    -0.202 OA
HETATM   17  O2  UNL     1      11.844   3.492  16.709  1.00  0.00    -0.231 OA
HETATM   18  C13 UNL     1      12.963   3.185  17.529  1.00  0.00     0.183 C 
HETATM   19  C14 UNL     1      12.402   2.578  18.768  1.00  0.00     0.047 C 
HETATM   20  C15 UNL     1      13.260   2.632  19.982  1.00  0.00    -0.034 C 
HETATM   21  C16 UNL     1      13.281   4.083  20.438  1.00  0.00     0.016 C 
HETATM   22  C17 UNL     1      12.439   1.932  21.084  1.00  0.00     0.012 C 
HETATM   23  C18 UNL     1      12.079   0.541  20.713  1.00  0.00     0.032 C 
HETATM   24  C19 UNL     1      13.234  -0.185  20.129  1.00  0.00     0.118 C 
HETATM   25  C20 UNL     1      14.549   0.488  20.231  1.00  0.00     0.042 C 
HETATM   26  C21 UNL     1      14.564   1.971  19.932  1.00  0.00    -0.031 C 
HETATM   27  C22 UNL     1      15.429   2.585  21.058  1.00  0.00     0.016 C 
ENDROOT
BRANCH  24  28
HETATM   28  O3  UNL     1      13.346  -1.413  20.836  1.00  0.00    -0.396 OA
ATOM     29  H3  UNL     1      12.571  -1.487  21.381  1.00  0.00     0.210 HD
ENDBRANCH  24  28
TORSDOF 1
ENDMDL
MODEL 4
REMARK VINA RESULT: -6.977274463      2.796      6.966
REMARK  1 active torsions:
REMARK  status: ('A' for Active; 'I' for Inactive)
REMARK    1  A    between atoms: C19_24  and  O3_25 
ROOT
HETATM    1  C1  UNL     1      12.489   5.661  15.913  1.00  0.00     0.011 C 
HETATM    2  C2  UNL     1      11.392   4.692  15.742  1.00  0.00    -0.008 C 
HETATM    3  C3  UNL     1      10.836   4.211  17.051  1.00  0.00     0.033 C 
HETATM    4  C4  UNL     1      11.789   3.609  17.990  1.00  0.00     0.113 C 
HETATM    5  N1  UNL     1      11.082   2.603  18.773  1.00  0.00    -0.391 N 
ATOM      6  H1  UNL     1      10.154   2.313  18.464  1.00  0.00     0.159 HD
HETATM    7  C5  UNL     1      11.571   2.061  19.841  1.00  0.00     0.119 C 
HETATM    8  C6  UNL     1      12.868   2.283  20.511  1.00  0.00     0.198 C 
HETATM    9  C7  UNL     1      12.649   3.260  21.636  1.00  0.00     0.070 C 
HETATM   10  C8  UNL     1      13.933   3.847  22.124  1.00  0.00     0.005 C 
HETATM   11  C9  UNL     1      14.368   3.128  23.379  1.00  0.00     0.002 C 
HETATM   12  C10 UNL     1      14.112   1.639  23.221  1.00  0.00     0.019 C 
HETATM   13  C11 UNL     1      14.527   1.168  21.856  1.00  0.00     0.119 C 
HETATM   14  N2  UNL     1      13.460   1.055  20.925  1.00  0.00    -0.380 N 
HETATM   15  C12 UNL     1      12.561  -0.025  21.134  1.00  0.00     0.146 C 
HETATM   16  O1  UNL     1      13.731   2.849  19.541  1.00  0.00    -0.202 OA
HETATM   17  O2  UNL     1      13.544   2.153  18.451  1.00  0.00    -0.231 OA
HETATM   18  C13 UNL     1      12.991   2.950  17.413  1.00  0.00     0.183 C 
HETATM   19  C14 UNL     1      12.701   2.013  16.293  1.00  0.00     0.047 C 
HETATM   20  C15 UNL     1      12.607   2.609  14.934  1.00  0.00    -0.034 C 
HETATM   21  C16 UNL     1      14.021   3.002  14.530  1.00  0.00     0.016 C 
HETATM   22  C17 UNL     1      12.295   1.424  13.997  1.00  0.00     0.012 C 
HETATM   23  C18 UNL     1      11.049   0.718  14.387  1.00  0.00     0.032 C 
HETATM   24  C19 UNL     1       9.956   1.673  14.703  1.00  0.00     0.118 C 
HETATM   25  C20 UNL     1      10.207   3.090  14.360  1.00  0.00     0.042 C 
HETATM   26  C21 UNL     1      11.581   3.625  14.698  1.00  0.00    -0.031 C 
HETATM   27  C22 UNL     1      12.009   4.420  13.442  1.00  0.00     0.016 C 
ENDROOT
BRANCH  24  28
HETATM   28  O3  UNL     1       8.824   1.263  13.948  1.00  0.00    -0.396 OA
ATOM     29  H3  UNL     1       8.057   1.468  14.471  1.00  0.00     0.210 HD
ENDBRANCH  24  28
TORSDOF 1
ENDMDL
MODEL 5
REMARK VINA RESULT: -6.931002663      2.477      3.561
REMARK  1 active torsions:
REMARK  status: ('A' for Active; 'I' for Inactive)
REMARK    1  A    between atoms: C19_24  and  O3_25 
ROOT
HETATM    1  C1  UNL     1      12.619   4.208  18.561  1.00  0.00     0.011 C 
HETATM    2  C2  UNL     1      13.509   3.043  18.723  1.00  0.00    -0.008 C 
HETATM    3  C3  UNL     1      13.620   2.224  17.470  1.00  0.00     0.033 C 
HETATM    4  C4  UNL     1      12.366   1.722  16.898  1.00  0.00     0.113 C 
HETATM    5  N1  UNL     1      12.646   0.454  16.234  1.00  0.00    -0.391 N 
ATOM      6  H1  UNL     1      13.543   0.003  16.409  1.00  0.00     0.159 HD
HETATM    7  C5  UNL     1      11.812  -0.127  15.433  1.00  0.00     0.119 C 
HETATM    8  C6  UNL     1      10.462   0.288  15.002  1.00  0.00     0.198 C 
HETATM    9  C7  UNL     1      10.590   0.972  13.667  1.00  0.00     0.070 C 
HETATM   10  C8  UNL     1       9.370   1.764  13.326  1.00  0.00     0.005 C 
HETATM   11  C9  UNL     1       8.506   0.968  12.375  1.00  0.00     0.002 C 
HETATM   12  C10 UNL     1       8.491  -0.488  12.806  1.00  0.00     0.019 C 
HETATM   13  C11 UNL     1       8.336  -0.601  14.297  1.00  0.00     0.119 C 
HETATM   14  N2  UNL     1       9.554  -0.810  14.998  1.00  0.00    -0.380 N 
HETATM   15  C12 UNL     1      10.140  -2.097  14.860  1.00  0.00     0.146 C 
HETATM   16  O1  UNL     1       9.994   1.206  15.973  1.00  0.00    -0.202 OA
HETATM   17  O2  UNL     1      10.298   0.683  17.131  1.00  0.00    -0.231 OA
HETATM   18  C13 UNL     1      11.235   1.487  17.834  1.00  0.00     0.183 C 
HETATM   19  C14 UNL     1      11.597   0.713  19.054  1.00  0.00     0.047 C 
HETATM   20  C15 UNL     1      12.137   1.493  20.200  1.00  0.00    -0.034 C 
HETATM   21  C16 UNL     1      10.973   2.284  20.779  1.00  0.00     0.016 C 
HETATM   22  C17 UNL     1      12.426   0.446  21.296  1.00  0.00     0.012 C 
HETATM   23  C18 UNL     1      13.372  -0.599  20.833  1.00  0.00     0.032 C 
HETATM   24  C19 UNL     1      14.522  -0.010  20.102  1.00  0.00     0.118 C 
HETATM   25  C20 UNL     1      14.651   1.463  20.163  1.00  0.00     0.042 C 
HETATM   26  C21 UNL     1      13.371   2.252  19.995  1.00  0.00    -0.031 C 
HETATM   27  C22 UNL     1      13.431   3.331  21.101  1.00  0.00     0.016 C 
ENDROOT
BRANCH  24  28
HETATM   28  O3  UNL     1      15.699  -0.550  20.689  1.00  0.00    -0.396 OA
ATOM     29  H3  UNL     1      15.488  -0.748  21.594  1.00  0.00     0.210 HD
ENDBRANCH  24  28
TORSDOF 1
ENDMDL
