MODEL 1
REMARK VINA RESULT: -6.919576348      0.000      0.000
REMARK  0 active torsions:
REMARK  status: ('A' for Active; 'I' for Inactive)
ROOT
HETATM    1  C1  UNL     1       9.553  -0.987  19.151  1.00  0.00     0.043 C 
HETATM    2  C2  UNL     1      10.736  -0.661  18.312  1.00  0.00    -0.079 C 
HETATM    3  C3  UNL     1      10.550  -0.883  16.998  1.00  0.00    -0.064 A 
HETATM    4  C4  UNL     1      11.619  -0.624  15.955  1.00  0.00     0.027 A 
HETATM    5  C5  UNL     1      12.015   0.798  16.106  1.00  0.00     0.011 C 
HETATM    6  C6  UNL     1      11.541   1.534  17.297  1.00  0.00     0.014 C 
HETATM    7  C7  UNL     1      12.268   1.285  18.594  1.00  0.00     0.010 C 
HETATM    8  C8  UNL     1      11.969  -0.128  18.985  1.00  0.00     0.047 C 
HETATM    9  C9  UNL     1      11.843   2.320  19.614  1.00  0.00    -0.000 C 
HETATM   10  C10 UNL     1      10.871   1.856  20.649  1.00  0.00     0.018 C 
HETATM   11  C11 UNL     1      11.146   3.522  18.961  1.00  0.00     0.018 C 
HETATM   12  C12 UNL     1      13.064   2.806  20.326  1.00  0.00     0.181 C 
HETATM   13  C13 UNL     1      13.264   4.247  20.109  1.00  0.00     0.088 C 
HETATM   14  N1  UNL     1      13.438   5.398  19.954  1.00  0.00    -0.195 NA
HETATM   15  C14 UNL     1      12.998   2.610  21.771  1.00  0.00     0.088 C 
HETATM   16  N2  UNL     1      12.938   2.452  22.911  1.00  0.00    -0.195 NA
HETATM   17  C15 UNL     1      14.216   2.032  19.808  1.00  0.00     0.205 C 
HETATM   18  C16 UNL     1      15.356   2.951  19.655  1.00  0.00     0.090 C 
HETATM   19  N3  UNL     1      16.237   3.678  19.536  1.00  0.00    -0.195 NA
HETATM   20  C17 UNL     1      14.611   0.903  20.630  1.00  0.00     0.090 C 
HETATM   21  N4  UNL     1      14.915   0.003  21.267  1.00  0.00    -0.195 NA
HETATM   22  C18 UNL     1      13.741   1.555  18.420  1.00  0.00     0.182 C 
HETATM   23  C19 UNL     1      14.544   0.395  18.121  1.00  0.00     0.088 C 
HETATM   24  N5  UNL     1      15.204  -0.522  17.867  1.00  0.00    -0.195 NA
HETATM   25  C20 UNL     1      14.035   2.685  17.537  1.00  0.00     0.088 C 
HETATM   26  N6  UNL     1      14.283   3.561  16.823  1.00  0.00    -0.195 NA
HETATM   27  C21 UNL     1      10.326  -1.131  15.574  1.00  0.00    -0.016 A 
HETATM   28  C22 UNL     1       9.406  -0.254  14.764  1.00  0.00     0.020 C 
HETATM   29  C23 UNL     1      10.201  -2.598  15.217  1.00  0.00     0.020 C 
ENDROOT
TORSDOF 0
ENDMDL
MODEL 2
REMARK VINA RESULT: -6.806239240      2.075      4.061
REMARK  0 active torsions:
REMARK  status: ('A' for Active; 'I' for Inactive)
ROOT
HETATM    1  C1  UNL     1       9.813   3.650  14.447  1.00  0.00     0.043 C 
HETATM    2  C2  UNL     1       9.868   2.297  15.059  1.00  0.00    -0.079 C 
HETATM    3  C3  UNL     1       9.284   1.338  14.316  1.00  0.00    -0.064 A 
HETATM    4  C4  UNL     1       9.218  -0.115  14.742  1.00  0.00     0.027 A 
HETATM    5  C5  UNL     1      10.619  -0.543  14.985  1.00  0.00     0.011 C 
HETATM    6  C6  UNL     1      11.671   0.495  15.028  1.00  0.00     0.014 C 
HETATM    7  C7  UNL     1      11.790   1.301  16.295  1.00  0.00     0.010 C 
HETATM    8  C8  UNL     1      10.551   2.136  16.387  1.00  0.00     0.047 C 
HETATM    9  C9  UNL     1      13.078   2.096  16.266  1.00  0.00    -0.000 C 
HETATM   10  C10 UNL     1      12.943   3.548  15.947  1.00  0.00     0.018 C 
HETATM   11  C11 UNL     1      14.055   1.570  15.205  1.00  0.00     0.018 C 
HETATM   12  C12 UNL     1      13.728   1.986  17.607  1.00  0.00     0.181 C 
HETATM   13  C13 UNL     1      15.044   1.338  17.507  1.00  0.00     0.088 C 
HETATM   14  N1  UNL     1      16.101   0.828  17.446  1.00  0.00    -0.195 NA
HETATM   15  C14 UNL     1      13.952   3.282  18.241  1.00  0.00     0.088 C 
HETATM   16  N2  UNL     1      14.127   4.310  18.733  1.00  0.00    -0.195 NA
HETATM   17  C15 UNL     1      12.821   1.199  18.476  1.00  0.00     0.205 C 
HETATM   18  C16 UNL     1      13.641   0.291  19.294  1.00  0.00     0.090 C 
HETATM   19  N3  UNL     1      14.290  -0.417  19.924  1.00  0.00    -0.195 NA
HETATM   20  C17 UNL     1      11.967   1.993  19.341  1.00  0.00     0.090 C 
HETATM   21  N4  UNL     1      11.281   2.614  20.013  1.00  0.00    -0.195 NA
HETATM   22  C18 UNL     1      11.976   0.383  17.477  1.00  0.00     0.182 C 
HETATM   23  C19 UNL     1      10.767   0.046  18.187  1.00  0.00     0.088 C 
HETATM   24  N5  UNL     1       9.805  -0.246  18.762  1.00  0.00    -0.195 NA
HETATM   25  C20 UNL     1      12.803  -0.790  17.189  1.00  0.00     0.088 C 
HETATM   26  N6  UNL     1      13.436  -1.733  16.969  1.00  0.00    -0.195 NA
HETATM   27  C21 UNL     1       8.644   0.312  13.493  1.00  0.00    -0.016 A 
HETATM   28  C22 UNL     1       9.269  -0.155  12.203  1.00  0.00     0.020 C 
HETATM   29  C23 UNL     1       7.138   0.449  13.399  1.00  0.00     0.020 C 
ENDROOT
TORSDOF 0
ENDMDL
MODEL 3
REMARK VINA RESULT: -6.638996883      1.512      2.058
REMARK  0 active torsions:
REMARK  status: ('A' for Active; 'I' for Inactive)
ROOT
HETATM    1  C1  UNL     1       8.773  -0.652  20.196  1.00  0.00     0.043 C 
HETATM    2  C2  UNL     1      10.205  -0.861  19.859  1.00  0.00    -0.079 C 
HETATM    3  C3  UNL     1      10.402  -1.628  18.770  1.00  0.00    -0.064 A 
HETATM    4  C4  UNL     1      11.779  -1.977  18.241  1.00  0.00     0.027 A 
HETATM    5  C5  UNL     1      12.474  -0.687  17.999  1.00  0.00     0.011 C 
HETATM    6  C6  UNL     1      11.856   0.549  18.524  1.00  0.00     0.014 C 
HETATM    7  C7  UNL     1      12.028   0.834  19.994  1.00  0.00     0.010 C 
HETATM    8  C8  UNL     1      11.250  -0.215  20.725  1.00  0.00     0.047 C 
HETATM    9  C9  UNL     1      11.591   2.253  20.285  1.00  0.00    -0.000 C 
HETATM   10  C10 UNL     1      10.249   2.406  20.924  1.00  0.00     0.018 C 
HETATM   11  C11 UNL     1      11.495   3.100  19.009  1.00  0.00     0.018 C 
HETATM   12  C12 UNL     1      12.598   2.877  21.196  1.00  0.00     0.181 C 
HETATM   13  C13 UNL     1      13.239   4.038  20.561  1.00  0.00     0.088 C 
HETATM   14  N1  UNL     1      13.757   4.973  20.073  1.00  0.00    -0.195 NA
HETATM   15  C14 UNL     1      12.018   3.357  22.446  1.00  0.00     0.088 C 
HETATM   16  N2  UNL     1      11.551   3.734  23.431  1.00  0.00    -0.195 NA
HETATM   17  C15 UNL     1      13.603   1.838  21.523  1.00  0.00     0.205 C 
HETATM   18  C16 UNL     1      14.933   2.467  21.519  1.00  0.00     0.090 C 
HETATM   19  N3  UNL     1      15.967   2.968  21.509  1.00  0.00    -0.195 NA
HETATM   20  C17 UNL     1      13.390   1.163  22.791  1.00  0.00     0.090 C 
HETATM   21  N4  UNL     1      13.217   0.617  23.781  1.00  0.00    -0.195 NA
HETATM   22  C18 UNL     1      13.493   0.842  20.351  1.00  0.00     0.182 C 
HETATM   23  C19 UNL     1      14.005  -0.405  20.862  1.00  0.00     0.088 C 
HETATM   24  N5  UNL     1      14.439  -1.402  21.261  1.00  0.00    -0.195 NA
HETATM   25  C20 UNL     1      14.350   1.419  19.314  1.00  0.00     0.088 C 
HETATM   26  N6  UNL     1      15.042   1.852  18.494  1.00  0.00    -0.195 NA
HETATM   27  C21 UNL     1      10.594  -2.463  17.585  1.00  0.00    -0.016 A 
HETATM   28  C22 UNL     1      10.258  -1.951  16.208  1.00  0.00     0.020 C 
HETATM   29  C23 UNL     1      10.201  -3.913  17.783  1.00  0.00     0.020 C 
ENDROOT
TORSDOF 0
ENDMDL
MODEL 4
REMARK VINA RESULT: -6.596494403      3.785      6.856
REMARK  0 active torsions:
REMARK  status: ('A' for Active; 'I' for Inactive)
ROOT
HETATM    1  C1  UNL     1      16.138   1.913  16.989  1.00  0.00     0.043 C 
HETATM    2  C2  UNL     1      15.529   3.017  16.203  1.00  0.00    -0.079 C 
HETATM    3  C3  UNL     1      16.412   3.710  15.460  1.00  0.00    -0.064 A 
HETATM    4  C4  UNL     1      16.017   4.880  14.582  1.00  0.00     0.027 A 
HETATM    5  C5  UNL     1      14.970   4.376  13.658  1.00  0.00     0.011 C 
HETATM    6  C6  UNL     1      14.380   3.047  13.928  1.00  0.00     0.014 C 
HETATM    7  C7  UNL     1      13.339   2.964  15.014  1.00  0.00     0.010 C 
HETATM    8  C8  UNL     1      14.046   3.238  16.304  1.00  0.00     0.047 C 
HETATM    9  C9  UNL     1      12.653   1.616  14.951  1.00  0.00    -0.000 C 
HETATM   10  C10 UNL     1      13.079   0.617  15.976  1.00  0.00     0.018 C 
HETATM   11  C11 UNL     1      12.900   0.906  13.613  1.00  0.00     0.018 C 
HETATM   12  C12 UNL     1      11.182   1.830  15.112  1.00  0.00     0.181 C 
HETATM   13  C13 UNL     1      10.448   1.381  13.919  1.00  0.00     0.088 C 
HETATM   14  N1  UNL     1       9.843   1.023  12.979  1.00  0.00    -0.195 NA
HETATM   15  C14 UNL     1      10.620   1.098  16.244  1.00  0.00     0.088 C 
HETATM   16  N2  UNL     1      10.184   0.517  17.139  1.00  0.00    -0.195 NA
HETATM   17  C15 UNL     1      10.968   3.277  15.346  1.00  0.00     0.205 C 
HETATM   18  C16 UNL     1       9.770   3.691  14.599  1.00  0.00     0.090 C 
HETATM   19  N3  UNL     1       8.836   4.005  14.008  1.00  0.00    -0.195 NA
HETATM   20  C17 UNL     1      10.823   3.653  16.741  1.00  0.00     0.090 C 
HETATM   21  N4  UNL     1      10.724   3.956  17.840  1.00  0.00    -0.195 NA
HETATM   22  C18 UNL     1      12.220   3.935  14.732  1.00  0.00     0.182 C 
HETATM   23  C19 UNL     1      12.339   5.214  15.390  1.00  0.00     0.088 C 
HETATM   24  N5  UNL     1      12.424   6.250  15.898  1.00  0.00    -0.195 NA
HETATM   25  C20 UNL     1      11.893   4.064  13.312  1.00  0.00     0.088 C 
HETATM   26  N6  UNL     1      11.638   4.192  12.190  1.00  0.00    -0.195 NA
HETATM   27  C21 UNL     1      17.388   4.449  14.661  1.00  0.00    -0.016 A 
HETATM   28  C22 UNL     1      18.031   3.829  13.446  1.00  0.00     0.020 C 
HETATM   29  C23 UNL     1      18.360   5.273  15.481  1.00  0.00     0.020 C 
ENDROOT
TORSDOF 0
ENDMDL
MODEL 5
REMARK VINA RESULT: -6.564977735      1.192      1.267
REMARK  0 active torsions:
REMARK  status: ('A' for Active; 'I' for Inactive)
ROOT
HETATM    1  C1  UNL     1       9.599  -1.403  18.667  1.00  0.00     0.043 C 
HETATM    2  C2  UNL     1      10.809  -0.766  18.084  1.00  0.00    -0.079 C 
HETATM    3  C3  UNL     1      10.702  -0.491  16.771  1.00  0.00    -0.064 A 
HETATM    4  C4  UNL     1      11.812   0.156  15.967  1.00  0.00     0.027 A 
HETATM    5  C5  UNL     1      12.139   1.430  16.654  1.00  0.00     0.011 C 
HETATM    6  C6  UNL     1      11.572   1.665  18.000  1.00  0.00     0.014 C 
HETATM    7  C7  UNL     1      12.240   0.970  19.158  1.00  0.00     0.010 C 
HETATM    8  C8  UNL     1      11.982  -0.494  18.983  1.00  0.00     0.047 C 
HETATM    9  C9  UNL     1      11.719   1.545  20.457  1.00  0.00    -0.000 C 
HETATM   10  C10 UNL     1      10.715   0.713  21.185  1.00  0.00     0.018 C 
HETATM   11  C11 UNL     1      11.007   2.889  20.248  1.00  0.00     0.018 C 
HETATM   12  C12 UNL     1      12.879   1.759  21.375  1.00  0.00     0.181 C 
HETATM   13  C13 UNL     1      13.029   3.182  21.716  1.00  0.00     0.088 C 
HETATM   14  N1  UNL     1      13.162   4.312  22.005  1.00  0.00    -0.195 NA
HETATM   15  C14 UNL     1      12.746   1.042  22.640  1.00  0.00     0.088 C 
HETATM   16  N2  UNL     1      12.633   0.473  23.636  1.00  0.00    -0.195 NA
HETATM   17  C15 UNL     1      14.089   1.255  20.684  1.00  0.00     0.205 C 
HETATM   18  C16 UNL     1      15.194   2.188  20.953  1.00  0.00     0.090 C 
HETATM   19  N3  UNL     1      16.049   2.925  21.166  1.00  0.00    -0.195 NA
HETATM   20  C17 UNL     1      14.487  -0.090  21.059  1.00  0.00     0.090 C 
HETATM   21  N4  UNL     1      14.796  -1.155  21.338  1.00  0.00    -0.195 NA
HETATM   22  C18 UNL     1      13.708   1.314  19.191  1.00  0.00     0.182 C 
HETATM   23  C19 UNL     1      14.574   0.363  18.539  1.00  0.00     0.088 C 
HETATM   24  N5  UNL     1      15.284  -0.382  18.009  1.00  0.00    -0.195 NA
HETATM   25  C20 UNL     1      13.999   2.695  18.805  1.00  0.00     0.088 C 
HETATM   26  N6  UNL     1      14.246   3.778  18.480  1.00  0.00    -0.195 NA
HETATM   27  C21 UNL     1      10.564  -0.201  15.344  1.00  0.00    -0.016 A 
HETATM   28  C22 UNL     1       9.651   0.894  14.855  1.00  0.00     0.020 C 
HETATM   29  C23 UNL     1      10.520  -1.435  14.466  1.00  0.00     0.020 C 
ENDROOT
TORSDOF 0
ENDMDL
