MODEL 1
REMARK VINA RESULT: -7.050174520      0.000      0.000
REMARK  1 active torsions:
REMARK  status: ('A' for Active; 'I' for Inactive)
REMARK    1  A    between atoms: C9_14  and  O2_16 
ROOT
HETATM    1  C1  UNL     1      10.912   4.144  14.529  1.00  0.00     0.016 C 
HETATM    2  C2  UNL     1      11.492   3.181  15.510  1.00  0.00     0.057 C 
HETATM    3  C3  UNL     1      12.027   4.019  16.687  1.00  0.00     0.128 C 
HETATM    4  C4  UNL     1      12.255   5.441  16.303  1.00  0.00     0.046 C 
HETATM    5  C5  UNL     1      11.093   3.988  17.857  1.00  0.00     0.046 C 
HETATM    6  N1  UNL     1      13.313   3.432  17.063  1.00  0.00    -0.029 N 
ATOM      7  H11 UNL     1      13.466   3.356  18.069  1.00  0.00     0.281 HD
ATOM      8  H12 UNL     1      14.120   4.027  16.879  1.00  0.00     0.281 HD
HETATM    9  C6  UNL     1      13.323   2.190  16.367  1.00  0.00     0.285 C 
HETATM   10  O1  UNL     1      12.326   1.392  16.994  1.00  0.00    -0.259 OA
HETATM   11  N2  UNL     1      12.851   0.241  17.302  1.00  0.00    -0.193 NA
HETATM   12  C7  UNL     1      14.253   0.572  17.636  1.00  0.00     0.133 C 
HETATM   13  C8  UNL     1      14.567   1.414  16.468  1.00  0.00     0.105 C 
HETATM   14  C9  UNL     1      15.698   2.356  16.408  1.00  0.00     0.085 C 
HETATM   15  C10 UNL     1      16.989   1.543  16.399  1.00  0.00     0.049 C 
HETATM   16  C11 UNL     1      15.568   3.009  15.010  1.00  0.00     0.209 C 
HETATM   17  O3  UNL     1      15.123   2.242  14.023  1.00  0.00    -0.358 OA
HETATM   18  C12 UNL     1      13.804   2.430  13.520  1.00  0.00     0.268 C 
HETATM   19  O4  UNL     1      13.382   3.506  14.290  1.00  0.00    -0.344 OA
HETATM   20  C13 UNL     1      12.778   2.552  15.076  1.00  0.00     0.138 C 
HETATM   21  C14 UNL     1      12.897   1.456  14.146  1.00  0.00     0.081 C 
HETATM   22  C15 UNL     1      11.604   0.922  13.854  1.00  0.00     0.013 C 
HETATM   23  C16 UNL     1      11.458  -0.532  14.214  1.00  0.00     0.011 C 
HETATM   24  C17 UNL     1      11.503  -1.005  15.597  1.00  0.00    -0.026 C 
HETATM   25  C18 UNL     1      11.384  -2.545  15.351  1.00  0.00     0.011 C 
HETATM   26  C19 UNL     1      11.081  -3.316  16.565  1.00  0.00     0.001 C 
HETATM   27  C20 UNL     1       9.991  -2.799  17.447  1.00  0.00     0.000 C 
HETATM   28  C21 UNL     1      10.072  -1.324  17.632  1.00  0.00     0.001 C 
HETATM   29  C22 UNL     1      10.187  -0.695  16.272  1.00  0.00     0.011 C 
HETATM   30  C23 UNL     1      12.686  -0.867  16.447  1.00  0.00     0.130 C 
ENDROOT
BRANCH  14  31
HETATM   31  O2  UNL     1      15.769   3.308  17.389  1.00  0.00    -0.387 OA
ATOM     32  H2  UNL     1      15.045   3.351  18.002  1.00  0.00     0.210 HD
ENDBRANCH  14  31
TORSDOF 1
ENDMDL
MODEL 2
REMARK VINA RESULT: -7.040361766      2.127      4.639
REMARK  1 active torsions:
REMARK  status: ('A' for Active; 'I' for Inactive)
REMARK    1  A    between atoms: C9_14  and  O2_16 
ROOT
HETATM    1  C1  UNL     1      13.236   5.226  14.598  1.00  0.00     0.016 C 
HETATM    2  C2  UNL     1      13.325   3.847  15.161  1.00  0.00     0.057 C 
HETATM    3  C3  UNL     1      14.066   2.991  14.116  1.00  0.00     0.128 C 
HETATM    4  C4  UNL     1      14.021   3.604  12.758  1.00  0.00     0.046 C 
HETATM    5  C5  UNL     1      15.499   2.776  14.493  1.00  0.00     0.046 C 
HETATM    6  N1  UNL     1      13.369   1.706  14.063  1.00  0.00    -0.029 N 
ATOM      7  H11 UNL     1      13.983   0.893  14.015  1.00  0.00     0.281 HD
ATOM      8  H12 UNL     1      12.883   1.524  13.186  1.00  0.00     0.281 HD
HETATM    9  C6  UNL     1      12.526   1.744  15.210  1.00  0.00     0.285 C 
HETATM   10  O1  UNL     1      13.399   1.674  16.330  1.00  0.00    -0.259 OA
HETATM   11  N2  UNL     1      12.984   0.726  17.120  1.00  0.00    -0.193 NA
HETATM   12  C7  UNL     1      12.427  -0.284  16.195  1.00  0.00     0.133 C 
HETATM   13  C8  UNL     1      11.604   0.608  15.359  1.00  0.00     0.105 C 
HETATM   14  C9  UNL     1      11.096   0.254  14.023  1.00  0.00     0.085 C 
HETATM   15  C10 UNL     1      10.056  -0.849  14.191  1.00  0.00     0.049 C 
HETATM   16  C11 UNL     1      10.336   1.522  13.563  1.00  0.00     0.209 C 
HETATM   17  O3  UNL     1       9.696   2.216  14.496  1.00  0.00    -0.358 OA
HETATM   18  C12 UNL     1      10.216   3.469  14.927  1.00  0.00     0.268 C 
HETATM   19  O4  UNL     1      11.329   3.587  14.106  1.00  0.00    -0.344 OA
HETATM   20  C13 UNL     1      12.028   3.103  15.187  1.00  0.00     0.138 C 
HETATM   21  C14 UNL     1      10.985   3.282  16.167  1.00  0.00     0.081 C 
HETATM   22  C15 UNL     1      11.449   4.122  17.224  1.00  0.00     0.013 C 
HETATM   23  C16 UNL     1      11.415   3.462  18.577  1.00  0.00     0.011 C 
HETATM   24  C17 UNL     1      12.266   2.322  18.913  1.00  0.00    -0.026 C 
HETATM   25  C18 UNL     1      11.752   2.029  20.361  1.00  0.00     0.011 C 
HETATM   26  C19 UNL     1      12.620   1.123  21.125  1.00  0.00     0.001 C 
HETATM   27  C20 UNL     1      14.089   1.396  21.091  1.00  0.00     0.000 C 
HETATM   28  C21 UNL     1      14.566   1.732  19.722  1.00  0.00     0.001 C 
HETATM   29  C22 UNL     1      13.672   2.808  19.175  1.00  0.00     0.011 C 
HETATM   30  C23 UNL     1      12.171   1.031  18.231  1.00  0.00     0.130 C 
ENDROOT
BRANCH  14  31
HETATM   31  O2  UNL     1      12.018  -0.132  13.088  1.00  0.00    -0.387 OA
ATOM     32  H2  UNL     1      11.698  -0.630  12.345  1.00  0.00     0.210 HD
ENDBRANCH  14  31
TORSDOF 1
ENDMDL
MODEL 3
REMARK VINA RESULT: -6.945619344      2.224      3.670
REMARK  1 active torsions:
REMARK  status: ('A' for Active; 'I' for Inactive)
REMARK    1  A    between atoms: C9_14  and  O2_16 
ROOT
HETATM    1  C1  UNL     1      11.456   3.526  18.052  1.00  0.00     0.016 C 
HETATM    2  C2  UNL     1      11.773   2.641  16.893  1.00  0.00     0.057 C 
HETATM    3  C3  UNL     1      13.038   1.850  17.275  1.00  0.00     0.128 C 
HETATM    4  C4  UNL     1      13.802   2.511  18.371  1.00  0.00     0.046 C 
HETATM    5  C5  UNL     1      12.709   0.453  17.702  1.00  0.00     0.046 C 
HETATM    6  N1  UNL     1      13.884   1.817  16.081  1.00  0.00    -0.029 N 
ATOM      7  H11 UNL     1      14.324   0.916  15.899  1.00  0.00     0.281 HD
ATOM      8  H12 UNL     1      14.752   2.344  16.163  1.00  0.00     0.281 HD
HETATM    9  C6  UNL     1      13.012   2.269  15.050  1.00  0.00     0.285 C 
HETATM   10  O1  UNL     1      12.050   1.236  14.882  1.00  0.00    -0.259 OA
HETATM   11  N2  UNL     1      11.987   0.931  13.617  1.00  0.00    -0.193 NA
HETATM   12  C7  UNL     1      13.373   1.124  13.140  1.00  0.00     0.133 C 
HETATM   13  C8  UNL     1      13.630   2.450  13.729  1.00  0.00     0.105 C 
HETATM   14  C9  UNL     1      14.972   3.022  13.927  1.00  0.00     0.085 C 
HETATM   15  C10 UNL     1      15.568   3.313  12.554  1.00  0.00     0.049 C 
HETATM   16  C11 UNL     1      14.702   4.389  14.600  1.00  0.00     0.209 C 
HETATM   17  O3  UNL     1      13.610   5.044  14.223  1.00  0.00    -0.358 OA
HETATM   18  C12 UNL     1      12.493   5.119  15.102  1.00  0.00     0.268 C 
HETATM   19  O4  UNL     1      12.983   4.439  16.209  1.00  0.00    -0.344 OA
HETATM   20  C13 UNL     1      12.307   3.358  15.693  1.00  0.00     0.138 C 
HETATM   21  C14 UNL     1      11.511   4.087  14.737  1.00  0.00     0.081 C 
HETATM   22  C15 UNL     1      10.122   3.857  14.983  1.00  0.00     0.013 C 
HETATM   23  C16 UNL     1       9.398   3.240  13.816  1.00  0.00     0.011 C 
HETATM   24  C17 UNL     1       9.688   1.888  13.342  1.00  0.00    -0.026 C 
HETATM   25  C18 UNL     1       8.725   1.830  12.110  1.00  0.00     0.011 C 
HETATM   26  C19 UNL     1       8.530   0.476  11.574  1.00  0.00     0.001 C 
HETATM   27  C20 UNL     1       8.254  -0.614  12.559  1.00  0.00     0.000 C 
HETATM   28  C21 UNL     1       9.132  -0.522  13.758  1.00  0.00     0.001 C 
HETATM   29  C22 UNL     1       9.055   0.885  14.278  1.00  0.00     0.011 C 
HETATM   30  C23 UNL     1      10.989   1.498  12.798  1.00  0.00     0.130 C 
ENDROOT
BRANCH  14  31
HETATM   31  O2  UNL     1      15.862   2.283  14.659  1.00  0.00    -0.387 OA
ATOM     32  H2  UNL     1      15.991   2.535  15.566  1.00  0.00     0.210 HD
ENDBRANCH  14  31
TORSDOF 1
ENDMDL
MODEL 4
REMARK VINA RESULT: -6.535644255      2.146      5.286
REMARK  1 active torsions:
REMARK  status: ('A' for Active; 'I' for Inactive)
REMARK    1  A    between atoms: C9_14  and  O2_16 
ROOT
HETATM    1  C1  UNL     1      13.268  -1.243  15.864  1.00  0.00     0.016 C 
HETATM    2  C2  UNL     1      12.612  -0.025  16.421  1.00  0.00     0.057 C 
HETATM    3  C3  UNL     1      11.094  -0.222  16.247  1.00  0.00     0.128 C 
HETATM    4  C4  UNL     1      10.778  -1.238  15.204  1.00  0.00     0.046 C 
HETATM    5  C5  UNL     1      10.440  -0.638  17.528  1.00  0.00     0.046 C 
HETATM    6  N1  UNL     1      10.556   1.067  15.811  1.00  0.00    -0.029 N 
ATOM      7  H11 UNL     1       9.679   1.332  16.259  1.00  0.00     0.281 HD
ATOM      8  H12 UNL     1      10.195   1.074  14.858  1.00  0.00     0.281 HD
HETATM    9  C6  UNL     1      11.635   1.967  16.042  1.00  0.00     0.285 C 
HETATM   10  O1  UNL     1      11.767   2.052  17.455  1.00  0.00    -0.259 OA
HETATM   11  N2  UNL     1      11.776   3.309  17.795  1.00  0.00    -0.193 NA
HETATM   12  C7  UNL     1      10.871   3.946  16.815  1.00  0.00     0.133 C 
HETATM   13  C8  UNL     1      11.420   3.348  15.584  1.00  0.00     0.105 C 
HETATM   14  C9  UNL     1      10.703   3.296  14.299  1.00  0.00     0.085 C 
HETATM   15  C10 UNL     1      10.580   4.721  13.770  1.00  0.00     0.049 C 
HETATM   16  C11 UNL     1      11.677   2.549  13.356  1.00  0.00     0.209 C 
HETATM   17  O3  UNL     1      12.975   2.766  13.531  1.00  0.00    -0.358 OA
HETATM   18  C12 UNL     1      13.789   1.755  14.116  1.00  0.00     0.268 C 
HETATM   19  O4  UNL     1      12.858   0.741  14.296  1.00  0.00    -0.344 OA
HETATM   20  C13 UNL     1      12.779   1.206  15.588  1.00  0.00     0.138 C 
HETATM   21  C14 UNL     1      13.960   2.033  15.551  1.00  0.00     0.081 C 
HETATM   22  C15 UNL     1      14.871   1.626  16.573  1.00  0.00     0.013 C 
HETATM   23  C16 UNL     1      15.192   2.716  17.562  1.00  0.00     0.011 C 
HETATM   24  C17 UNL     1      14.189   3.268  18.470  1.00  0.00    -0.026 C 
HETATM   25  C18 UNL     1      15.048   4.374  19.168  1.00  0.00     0.011 C 
HETATM   26  C19 UNL     1      14.428   4.928  20.380  1.00  0.00     0.001 C 
HETATM   27  C20 UNL     1      13.856   3.955  21.359  1.00  0.00     0.000 C 
HETATM   28  C21 UNL     1      13.087   2.870  20.689  1.00  0.00     0.001 C 
HETATM   29  C22 UNL     1      13.953   2.297  19.603  1.00  0.00     0.011 C 
HETATM   30  C23 UNL     1      12.998   3.980  18.003  1.00  0.00     0.130 C 
ENDROOT
BRANCH  14  31
HETATM   31  O2  UNL     1       9.468   2.704  14.297  1.00  0.00    -0.387 OA
ATOM     32  H2  UNL     1       8.741   3.223  13.977  1.00  0.00     0.210 HD
ENDBRANCH  14  31
TORSDOF 1
ENDMDL
MODEL 5
REMARK VINA RESULT: -6.398679961      2.499      4.712
REMARK  1 active torsions:
REMARK  status: ('A' for Active; 'I' for Inactive)
REMARK    1  A    between atoms: C9_14  and  O2_16 
ROOT
HETATM    1  C1  UNL     1      13.268  -1.303  15.802  1.00  0.00     0.016 C 
HETATM    2  C2  UNL     1      12.547  -0.246  16.570  1.00  0.00     0.057 C 
HETATM    3  C3  UNL     1      11.326   0.159  15.724  1.00  0.00     0.128 C 
HETATM    4  C4  UNL     1      11.491  -0.213  14.289  1.00  0.00     0.046 C 
HETATM    5  C5  UNL     1      10.067  -0.469  16.235  1.00  0.00     0.046 C 
HETATM    6  N1  UNL     1      11.224   1.615  15.811  1.00  0.00    -0.029 N 
ATOM      7  H11 UNL     1      10.275   1.967  15.931  1.00  0.00     0.281 HD
ATOM      8  H12 UNL     1      11.409   2.106  14.937  1.00  0.00     0.281 HD
HETATM    9  C6  UNL     1      12.116   1.942  16.873  1.00  0.00     0.285 C 
HETATM   10  O1  UNL     1      11.509   1.432  18.053  1.00  0.00    -0.259 OA
HETATM   11  N2  UNL     1      11.470   2.382  18.943  1.00  0.00    -0.193 NA
HETATM   12  C7  UNL     1      11.271   3.608  18.140  1.00  0.00     0.133 C 
HETATM   13  C8  UNL     1      12.310   3.378  17.120  1.00  0.00     0.105 C 
HETATM   14  C9  UNL     1      12.357   4.064  15.818  1.00  0.00     0.085 C 
HETATM   15  C10 UNL     1      12.671   5.534  16.070  1.00  0.00     0.049 C 
HETATM   16  C11 UNL     1      13.596   3.453  15.117  1.00  0.00     0.209 C 
HETATM   17  O3  UNL     1      14.632   3.139  15.885  1.00  0.00    -0.358 OA
HETATM   18  C12 UNL     1      14.919   1.773  16.162  1.00  0.00     0.268 C 
HETATM   19  O4  UNL     1      13.931   1.142  15.418  1.00  0.00    -0.344 OA
HETATM   20  C13 UNL     1      13.246   1.076  16.609  1.00  0.00     0.138 C 
HETATM   21  C14 UNL     1      14.354   1.407  17.470  1.00  0.00     0.081 C 
HETATM   22  C15 UNL     1      14.561   0.362  18.422  1.00  0.00     0.013 C 
HETATM   23  C16 UNL     1      14.436   0.817  19.852  1.00  0.00     0.011 C 
HETATM   24  C17 UNL     1      13.171   1.282  20.417  1.00  0.00    -0.026 C 
HETATM   25  C18 UNL     1      13.656   1.681  21.850  1.00  0.00     0.011 C 
HETATM   26  C19 UNL     1      12.560   1.904  22.804  1.00  0.00     0.001 C 
HETATM   27  C20 UNL     1      11.469   0.884  22.841  1.00  0.00     0.000 C 
HETATM   28  C21 UNL     1      11.050   0.462  21.476  1.00  0.00     0.001 C 
HETATM   29  C22 UNL     1      12.288   0.092  20.708  1.00  0.00     0.011 C 
HETATM   30  C23 UNL     1      12.472   2.472  19.931  1.00  0.00     0.130 C 
ENDROOT
BRANCH  14  31
HETATM   31  O2  UNL     1      11.247   3.967  15.022  1.00  0.00    -0.387 OA
ATOM     32  H2  UNL     1      11.369   3.608  14.152  1.00  0.00     0.210 HD
ENDBRANCH  14  31
TORSDOF 1
ENDMDL
