MODEL 1
REMARK VINA RESULT: -7.766824370      0.000      0.000
REMARK  2 active torsions:
REMARK  status: ('A' for Active; 'I' for Inactive)
REMARK    1  A    between atoms: N1_19  and  O4_21 
REMARK    2  A    between atoms: C20_27  and  O5_28 
ROOT
HETATM    1  C1  UNL     1      13.541   2.878  19.827  1.00  0.00     0.050 C 
HETATM    2  C2  UNL     1      14.125   2.969  18.402  1.00  0.00     0.097 C 
HETATM    3  C3  UNL     1      15.568   3.265  18.595  1.00  0.00     0.041 C 
HETATM    4  C4  UNL     1      16.279   2.004  18.273  1.00  0.00     0.004 C 
HETATM    5  C5  UNL     1      15.317   1.048  17.662  1.00  0.00     0.008 C 
HETATM    6  C6  UNL     1      13.942   1.701  17.635  1.00  0.00     0.028 C 
HETATM    7  C7  UNL     1      13.518   1.768  16.227  1.00  0.00     0.006 C 
HETATM    8  C8  UNL     1      14.136   2.986  15.515  1.00  0.00     0.016 C 
HETATM    9  C9  UNL     1      13.036   3.861  15.250  1.00  0.00     0.050 C 
HETATM   10  C10 UNL     1      12.935   5.269  15.581  1.00  0.00     0.175 C 
HETATM   11  O1  UNL     1      11.637   5.448  16.128  1.00  0.00    -0.388 OA
HETATM   12  C11 UNL     1      10.918   4.254  15.807  1.00  0.00     0.210 C 
HETATM   13  C12 UNL     1      11.912   3.288  16.135  1.00  0.00     0.132 C 
HETATM   14  O2  UNL     1      12.213   3.524  17.504  1.00  0.00    -0.225 OA
HETATM   15  O3  UNL     1      13.386   3.938  17.757  1.00  0.00    -0.229 OA
HETATM   16  C13 UNL     1      12.016   1.876  15.945  1.00  0.00     0.014 C 
HETATM   17  C14 UNL     1      11.177   1.236  17.048  1.00  0.00     0.069 C 
HETATM   18  C15 UNL     1      11.231  -0.175  16.774  1.00  0.00     0.019 C 
HETATM   19  N1  UNL     1      11.341  -1.148  17.578  1.00  0.00    -0.277 N 
ATOM     20  H1  UNL     1      11.362  -2.085  17.176  1.00  0.00     0.193 HD
HETATM   21  C16 UNL     1      11.117  -0.260  15.303  1.00  0.00     0.005 C 
HETATM   22  C17 UNL     1      11.960  -1.383  14.838  1.00  0.00     0.022 C 
HETATM   23  C18 UNL     1       9.657  -0.551  15.038  1.00  0.00     0.018 C 
HETATM   24  C19 UNL     1       9.455  -0.550  13.563  1.00  0.00     0.033 C 
HETATM   25  C20 UNL     1       9.675   0.837  13.096  1.00  0.00     0.119 C 
HETATM   26  C21 UNL     1      10.359   1.748  14.077  1.00  0.00     0.042 C 
HETATM   27  C22 UNL     1      11.547   1.116  14.783  1.00  0.00    -0.018 C 
HETATM   28  C23 UNL     1      12.521   0.813  13.683  1.00  0.00     0.017 C 
ENDROOT
BRANCH  19  29
HETATM   29  O4  UNL     1      11.436  -1.047  18.945  1.00  0.00    -0.290 OA
ATOM     30  H4  UNL     1      10.954  -1.574  19.572  1.00  0.00     0.244 HD
ENDBRANCH  19  29
BRANCH  25  31
HETATM   31  O5  UNL     1       8.396   1.406  12.873  1.00  0.00    -0.396 OA
ATOM     32  H5  UNL     1       8.536   2.241  12.442  1.00  0.00     0.210 HD
ENDBRANCH  25  31
TORSDOF 2
ENDMDL
MODEL 2
REMARK VINA RESULT: -7.547067038      2.456      6.445
REMARK  2 active torsions:
REMARK  status: ('A' for Active; 'I' for Inactive)
REMARK    1  A    between atoms: N1_19  and  O4_21 
REMARK    2  A    between atoms: C20_27  and  O5_28 
ROOT
HETATM    1  C1  UNL     1       6.932   0.829  13.775  1.00  0.00     0.050 C 
HETATM    2  C2  UNL     1       8.320   0.370  13.282  1.00  0.00     0.097 C 
HETATM    3  C3  UNL     1       8.041  -0.573  12.169  1.00  0.00     0.041 C 
HETATM    4  C4  UNL     1       8.390   0.162  10.928  1.00  0.00     0.004 C 
HETATM    5  C5  UNL     1       9.094   1.420  11.293  1.00  0.00     0.008 C 
HETATM    6  C6  UNL     1       9.158   1.514  12.811  1.00  0.00     0.028 C 
HETATM    7  C7  UNL     1      10.579   1.565  13.186  1.00  0.00     0.006 C 
HETATM    8  C8  UNL     1      11.198   0.155  13.225  1.00  0.00     0.016 C 
HETATM    9  C9  UNL     1      11.475  -0.093  14.606  1.00  0.00     0.050 C 
HETATM   10  C10 UNL     1      11.079  -1.251  15.385  1.00  0.00     0.175 C 
HETATM   11  O1  UNL     1      10.589  -0.742  16.616  1.00  0.00    -0.388 OA
HETATM   12  C11 UNL     1      11.004   0.625  16.658  1.00  0.00     0.210 C 
HETATM   13  C12 UNL     1      10.676   1.009  15.326  1.00  0.00     0.132 C 
HETATM   14  O2  UNL     1       9.283   0.750  15.205  1.00  0.00    -0.225 OA
HETATM   15  O3  UNL     1       8.952  -0.160  14.386  1.00  0.00    -0.229 OA
HETATM   16  C13 UNL     1      10.930   2.179  14.546  1.00  0.00     0.014 C 
HETATM   17  C14 UNL     1       9.903   3.218  14.990  1.00  0.00     0.069 C 
HETATM   18  C15 UNL     1      10.244   4.404  14.251  1.00  0.00     0.019 C 
HETATM   19  N1  UNL     1       9.485   5.254  13.697  1.00  0.00    -0.277 N 
ATOM     20  H1  UNL     1       9.931   6.035  13.216  1.00  0.00     0.193 HD
HETATM   21  C16 UNL     1      11.722   4.434  14.281  1.00  0.00     0.005 C 
HETATM   22  C17 UNL     1      12.199   4.975  12.990  1.00  0.00     0.022 C 
HETATM   23  C18 UNL     1      12.073   5.376  15.410  1.00  0.00     0.018 C 
HETATM   24  C19 UNL     1      13.554   5.374  15.558  1.00  0.00     0.033 C 
HETATM   25  C20 UNL     1      13.940   4.025  16.031  1.00  0.00     0.119 C 
HETATM   26  C21 UNL     1      12.882   2.966  15.896  1.00  0.00     0.042 C 
HETATM   27  C22 UNL     1      12.150   2.990  14.564  1.00  0.00    -0.018 C 
HETATM   28  C23 UNL     1      13.215   2.709  13.544  1.00  0.00     0.017 C 
ENDROOT
BRANCH  19  29
HETATM   29  O4  UNL     1       8.112   5.213  13.690  1.00  0.00    -0.290 OA
ATOM     30  H4  UNL     1       7.539   5.930  13.445  1.00  0.00     0.244 HD
ENDBRANCH  19  29
BRANCH  25  31
HETATM   31  O5  UNL     1      14.198   4.132  17.421  1.00  0.00    -0.396 OA
ATOM     32  H5  UNL     1      13.962   3.299  17.811  1.00  0.00     0.210 HD
ENDBRANCH  25  31
TORSDOF 2
ENDMDL
MODEL 3
REMARK VINA RESULT: -7.510046273      2.299      4.120
REMARK  2 active torsions:
REMARK  status: ('A' for Active; 'I' for Inactive)
REMARK    1  A    between atoms: N1_19  and  O4_21 
REMARK    2  A    between atoms: C20_27  and  O5_28 
ROOT
HETATM    1  C1  UNL     1      15.890  -0.338  18.071  1.00  0.00     0.050 C 
HETATM    2  C2  UNL     1      14.709   0.449  18.675  1.00  0.00     0.097 C 
HETATM    3  C3  UNL     1      15.098   0.705  20.085  1.00  0.00     0.041 C 
HETATM    4  C4  UNL     1      15.446   2.146  20.145  1.00  0.00     0.004 C 
HETATM    5  C5  UNL     1      15.039   2.796  18.871  1.00  0.00     0.008 C 
HETATM    6  C6  UNL     1      14.455   1.731  17.953  1.00  0.00     0.028 C 
HETATM    7  C7  UNL     1      13.071   2.125  17.651  1.00  0.00     0.006 C 
HETATM    8  C8  UNL     1      12.112   1.706  18.783  1.00  0.00     0.016 C 
HETATM    9  C9  UNL     1      11.294   0.678  18.217  1.00  0.00     0.050 C 
HETATM   10  C10 UNL     1      11.038  -0.640  18.765  1.00  0.00     0.175 C 
HETATM   11  O1  UNL     1      11.168  -1.545  17.679  1.00  0.00    -0.388 OA
HETATM   12  C11 UNL     1      11.166  -0.734  16.501  1.00  0.00     0.210 C 
HETATM   13  C12 UNL     1      12.050   0.298  16.929  1.00  0.00     0.132 C 
HETATM   14  O2  UNL     1      13.259  -0.371  17.262  1.00  0.00    -0.225 OA
HETATM   15  O3  UNL     1      13.597  -0.344  18.485  1.00  0.00    -0.229 OA
HETATM   16  C13 UNL     1      12.435   1.558  16.377  1.00  0.00     0.014 C 
HETATM   17  C14 UNL     1      13.477   1.252  15.303  1.00  0.00     0.069 C 
HETATM   18  C15 UNL     1      13.774   2.528  14.710  1.00  0.00     0.019 C 
HETATM   19  N1  UNL     1      14.888   3.002  14.336  1.00  0.00    -0.277 N 
ATOM     20  H1  UNL     1      14.885   3.940  13.935  1.00  0.00     0.193 HD
HETATM   21  C16 UNL     1      12.459   3.197  14.616  1.00  0.00     0.005 C 
HETATM   22  C17 UNL     1      12.656   4.642  14.862  1.00  0.00     0.022 C 
HETATM   23  C18 UNL     1      12.000   2.961  13.196  1.00  0.00     0.018 C 
HETATM   24  C19 UNL     1      10.629   3.526  13.062  1.00  0.00     0.033 C 
HETATM   25  C20 UNL     1       9.737   2.704  13.911  1.00  0.00     0.119 C 
HETATM   26  C21 UNL     1      10.430   1.816  14.906  1.00  0.00     0.042 C 
HETATM   27  C22 UNL     1      11.571   2.491  15.647  1.00  0.00    -0.018 C 
HETATM   28  C23 UNL     1      10.918   3.609  16.406  1.00  0.00     0.017 C 
ENDROOT
BRANCH  19  29
HETATM   29  O4  UNL     1      16.099   2.360  14.424  1.00  0.00    -0.290 OA
ATOM     30  H4  UNL     1      16.445   1.745  13.787  1.00  0.00     0.244 HD
ENDBRANCH  19  29
BRANCH  25  31
HETATM   31  O5  UNL     1       9.032   1.831  13.045  1.00  0.00    -0.396 OA
ATOM     32  H5  UNL     1       9.419   0.969  13.145  1.00  0.00     0.210 HD
ENDBRANCH  25  31
TORSDOF 2
ENDMDL
MODEL 4
REMARK VINA RESULT: -7.407026410      1.962      4.323
REMARK  2 active torsions:
REMARK  status: ('A' for Active; 'I' for Inactive)
REMARK    1  A    between atoms: N1_19  and  O4_21 
REMARK    2  A    between atoms: C20_27  and  O5_28 
ROOT
HETATM    1  C1  UNL     1      13.060   5.452  14.077  1.00  0.00     0.050 C 
HETATM    2  C2  UNL     1      13.270   3.982  13.663  1.00  0.00     0.097 C 
HETATM    3  C3  UNL     1      14.214   4.034  12.518  1.00  0.00     0.041 C 
HETATM    4  C4  UNL     1      15.513   3.554  13.051  1.00  0.00     0.004 C 
HETATM    5  C5  UNL     1      15.298   2.990  14.411  1.00  0.00     0.008 C 
HETATM    6  C6  UNL     1      13.830   3.157  14.775  1.00  0.00     0.028 C 
HETATM    7  C7  UNL     1      13.285   1.812  15.017  1.00  0.00     0.006 C 
HETATM    8  C8  UNL     1      12.902   1.118  13.695  1.00  0.00     0.016 C 
HETATM    9  C9  UNL     1      11.474   1.033  13.719  1.00  0.00     0.050 C 
HETATM   10  C10 UNL     1      10.553   1.466  12.686  1.00  0.00     0.175 C 
HETATM   11  O1  UNL     1       9.515   2.162  13.358  1.00  0.00    -0.388 OA
HETATM   12  C11 UNL     1       9.673   1.844  14.743  1.00  0.00     0.210 C 
HETATM   13  C12 UNL     1      11.085   1.996  14.856  1.00  0.00     0.132 C 
HETATM   14  O2  UNL     1      11.340   3.337  14.458  1.00  0.00    -0.225 OA
HETATM   15  O3  UNL     1      12.012   3.487  13.392  1.00  0.00    -0.229 OA
HETATM   16  C13 UNL     1      12.029   1.704  15.888  1.00  0.00     0.014 C 
HETATM   17  C14 UNL     1      11.927   2.847  16.895  1.00  0.00     0.069 C 
HETATM   18  C15 UNL     1      12.822   2.476  17.958  1.00  0.00     0.019 C 
HETATM   19  N1  UNL     1      13.620   3.197  18.627  1.00  0.00    -0.277 N 
ATOM     20  H1  UNL     1      14.175   2.735  19.348  1.00  0.00     0.193 HD
HETATM   21  C16 UNL     1      12.601   1.024  18.122  1.00  0.00     0.005 C 
HETATM   22  C17 UNL     1      13.896   0.396  18.468  1.00  0.00     0.022 C 
HETATM   23  C18 UNL     1      11.632   0.902  19.276  1.00  0.00     0.018 C 
HETATM   24  C19 UNL     1      11.290  -0.539  19.430  1.00  0.00     0.033 C 
HETATM   25  C20 UNL     1      10.527  -0.935  18.225  1.00  0.00     0.119 C 
HETATM   26  C21 UNL     1      10.602   0.024  17.069  1.00  0.00     0.042 C 
HETATM   27  C22 UNL     1      12.000   0.552  16.794  1.00  0.00    -0.018 C 
HETATM   28  C23 UNL     1      12.798  -0.666  16.433  1.00  0.00     0.017 C 
ENDROOT
BRANCH  19  29
HETATM   29  O4  UNL     1      13.803   4.549  18.464  1.00  0.00    -0.290 OA
ATOM     30  H4  UNL     1      13.862   5.187  19.166  1.00  0.00     0.244 HD
ENDBRANCH  19  29
BRANCH  25  31
HETATM   31  O5  UNL     1       9.159  -0.978  18.597  1.00  0.00    -0.396 OA
ATOM     32  H5  UNL     1       8.748  -1.647  18.063  1.00  0.00     0.210 HD
ENDBRANCH  25  31
TORSDOF 2
ENDMDL
MODEL 5
REMARK VINA RESULT: -7.182081816      2.096      5.680
REMARK  2 active torsions:
REMARK  status: ('A' for Active; 'I' for Inactive)
REMARK    1  A    between atoms: N1_19  and  O4_21 
REMARK    2  A    between atoms: C20_27  and  O5_28 
ROOT
HETATM    1  C1  UNL     1       9.073   0.400  11.378  1.00  0.00     0.050 C 
HETATM    2  C2  UNL     1       8.791   1.525  12.395  1.00  0.00     0.097 C 
HETATM    3  C3  UNL     1       7.347   1.835  12.237  1.00  0.00     0.041 C 
HETATM    4  C4  UNL     1       6.684   1.261  13.433  1.00  0.00     0.004 C 
HETATM    5  C5  UNL     1       7.724   0.837  14.407  1.00  0.00     0.008 C 
HETATM    6  C6  UNL     1       9.093   1.107  13.797  1.00  0.00     0.028 C 
HETATM    7  C7  UNL     1       9.793   2.042  14.691  1.00  0.00     0.006 C 
HETATM    8  C8  UNL     1       9.363   3.497  14.425  1.00  0.00     0.016 C 
HETATM    9  C9  UNL     1      10.516   4.130  13.864  1.00  0.00     0.050 C 
HETATM   10  C10 UNL     1      10.584   4.900  12.636  1.00  0.00     0.175 C 
HETATM   11  O1  UNL     1      11.749   4.452  11.961  1.00  0.00    -0.388 OA
HETATM   12  C11 UNL     1      12.488   3.699  12.927  1.00  0.00     0.210 C 
HETATM   13  C12 UNL     1      11.423   2.941  13.494  1.00  0.00     0.132 C 
HETATM   14  O2  UNL     1      10.859   2.229  12.400  1.00  0.00    -0.225 OA
HETATM   15  O3  UNL     1       9.670   2.539  12.083  1.00  0.00    -0.229 OA
HETATM   16  C13 UNL     1      11.324   2.073  14.624  1.00  0.00     0.014 C 
HETATM   17  C14 UNL     1      11.907   0.732  14.184  1.00  0.00     0.069 C 
HETATM   18  C15 UNL     1      11.873  -0.085  15.367  1.00  0.00     0.019 C 
HETATM   19  N1  UNL     1      11.577  -1.311  15.490  1.00  0.00    -0.277 N 
ATOM     20  H1  UNL     1      11.614  -1.708  16.429  1.00  0.00     0.193 HD
HETATM   21  C16 UNL     1      12.278   0.834  16.451  1.00  0.00     0.005 C 
HETATM   22  C17 UNL     1      11.518   0.477  17.669  1.00  0.00     0.022 C 
HETATM   23  C18 UNL     1      13.753   0.573  16.655  1.00  0.00     0.018 C 
HETATM   24  C19 UNL     1      14.248   1.542  17.671  1.00  0.00     0.033 C 
HETATM   25  C20 UNL     1      14.163   2.889  17.063  1.00  0.00     0.119 C 
HETATM   26  C21 UNL     1      13.319   2.986  15.823  1.00  0.00     0.042 C 
HETATM   27  C22 UNL     1      11.997   2.242  15.915  1.00  0.00    -0.018 C 
HETATM   28  C23 UNL     1      11.257   2.925  17.027  1.00  0.00     0.017 C 
ENDROOT
BRANCH  19  29
HETATM   29  O4  UNL     1      11.212  -2.151  14.466  1.00  0.00    -0.290 OA
ATOM     30  H4  UNL     1      10.489  -2.767  14.489  1.00  0.00     0.244 HD
ENDBRANCH  19  29
BRANCH  25  31
HETATM   31  O5  UNL     1      15.475   3.246  16.662  1.00  0.00    -0.396 OA
ATOM     32  H5  UNL     1      15.538   4.192  16.732  1.00  0.00     0.210 HD
ENDBRANCH  25  31
TORSDOF 2
ENDMDL
