MODEL 1
REMARK VINA RESULT: -8.353587640      0.000      0.000
REMARK  2 active torsions:
REMARK  status: ('A' for Active; 'I' for Inactive)
REMARK    1  A    between atoms: C6_6  and  O1_7 
REMARK    2  A    between atoms: C21_25  and  N1_26 
ROOT
HETATM    1  C1  UNL     1      12.338   4.381  13.920  1.00  0.00     0.016 C 
HETATM    2  C2  UNL     1      11.344   3.261  14.250  1.00  0.00    -0.032 C 
HETATM    3  C3  UNL     1       9.994   3.739  13.826  1.00  0.00     0.011 C 
HETATM    4  C4  UNL     1       8.946   2.658  13.876  1.00  0.00     0.008 C 
HETATM    5  C5  UNL     1       9.337   1.597  12.894  1.00  0.00     0.019 C 
HETATM    6  C6  UNL     1       8.441   0.374  12.973  1.00  0.00     0.122 C 
HETATM    7  C7  UNL     1       9.276  -0.736  13.591  1.00  0.00     0.032 C 
HETATM    8  C8  UNL     1      10.467   0.018  14.205  1.00  0.00     0.008 C 
HETATM    9  C9  UNL     1      10.693   1.065  13.171  1.00  0.00    -0.003 C 
HETATM   10  C10 UNL     1      11.760   2.064  13.445  1.00  0.00     0.002 C 
HETATM   11  C11 UNL     1      12.979   1.365  13.955  1.00  0.00     0.033 C 
HETATM   12  C12 UNL     1      13.205   1.433  15.404  1.00  0.00    -0.018 C 
HETATM   13  C13 UNL     1      12.470   2.191  16.189  1.00  0.00    -0.012 C 
HETATM   14  C14 UNL     1      11.358   3.039  15.714  1.00  0.00     0.028 C 
HETATM   15  C15 UNL     1      11.497   4.285  16.555  1.00  0.00     0.016 C 
HETATM   16  C16 UNL     1      12.400   3.951  17.706  1.00  0.00     0.080 C 
HETATM   17  C17 UNL     1      12.496   2.452  17.672  1.00  0.00     0.253 C 
HETATM   18  O2  UNL     1      13.630   1.952  18.263  1.00  0.00    -0.190 OA
HETATM   19  O3  UNL     1      13.370   0.930  19.049  1.00  0.00    -0.194 OA
HETATM   20  C18 UNL     1      12.594   1.402  20.117  1.00  0.00     0.230 C 
HETATM   21  C19 UNL     1      13.499   2.254  20.973  1.00  0.00     0.076 C 
HETATM   22  C20 UNL     1      12.923   2.535  22.332  1.00  0.00     0.038 C 
HETATM   23  C21 UNL     1      12.559   1.220  23.012  1.00  0.00     0.183 C 
HETATM   24  C22 UNL     1      11.442   0.612  22.166  1.00  0.00     0.038 C 
HETATM   25  C23 UNL     1      12.059   0.207  20.857  1.00  0.00     0.076 C 
HETATM   26  O4  UNL     1      11.533   2.107  19.589  1.00  0.00    -0.194 OA
HETATM   27  O5  UNL     1      11.376   1.926  18.294  1.00  0.00    -0.190 OA
ENDROOT
BRANCH  23  28
HETATM   28  N1  UNL     1      13.703   0.327  22.898  1.00  0.00    -0.075 N 
ATOM     29  H13 UNL     1      14.285   0.531  22.086  1.00  0.00     0.274 HD
ATOM     30  H12 UNL     1      14.407   0.494  23.617  1.00  0.00     0.274 HD
ATOM     31  H11 UNL     1      13.353  -0.631  22.903  1.00  0.00     0.274 HD
ENDBRANCH  23  28
BRANCH   6  32
HETATM   32  O1  UNL     1       8.133  -0.020  11.671  1.00  0.00    -0.395 OA
ATOM     33  H1  UNL     1       7.784   0.734  11.211  1.00  0.00     0.210 HD
ENDBRANCH   6  32
TORSDOF 2
ENDMDL
MODEL 2
REMARK VINA RESULT: -8.076306189      1.982      2.789
REMARK  2 active torsions:
REMARK  status: ('A' for Active; 'I' for Inactive)
REMARK    1  A    between atoms: C6_6  and  O1_7 
REMARK    2  A    between atoms: C21_25  and  N1_26 
ROOT
HETATM    1  C1  UNL     1      11.351   3.956  12.041  1.00  0.00     0.016 C 
HETATM    2  C2  UNL     1      10.122   3.802  12.944  1.00  0.00    -0.032 C 
HETATM    3  C3  UNL     1       9.405   5.113  12.928  1.00  0.00     0.011 C 
HETATM    4  C4  UNL     1       8.052   5.049  13.586  1.00  0.00     0.008 C 
HETATM    5  C5  UNL     1       7.202   4.102  12.796  1.00  0.00     0.019 C 
HETATM    6  C6  UNL     1       5.864   3.829  13.459  1.00  0.00     0.122 C 
HETATM    7  C7  UNL     1       5.920   2.401  13.975  1.00  0.00     0.032 C 
HETATM    8  C8  UNL     1       7.422   2.071  13.942  1.00  0.00     0.008 C 
HETATM    9  C9  UNL     1       7.828   2.762  12.688  1.00  0.00    -0.003 C 
HETATM   10  C10 UNL     1       9.272   2.725  12.335  1.00  0.00     0.002 C 
HETATM   11  C11 UNL     1       9.796   1.338  12.526  1.00  0.00     0.033 C 
HETATM   12  C12 UNL     1      10.577   1.104  13.747  1.00  0.00    -0.018 C 
HETATM   13  C13 UNL     1      10.929   2.085  14.548  1.00  0.00    -0.012 C 
HETATM   14  C14 UNL     1      10.584   3.504  14.318  1.00  0.00     0.028 C 
HETATM   15  C15 UNL     1      11.834   4.231  14.753  1.00  0.00     0.016 C 
HETATM   16  C16 UNL     1      12.659   3.268  15.554  1.00  0.00     0.080 C 
HETATM   17  C17 UNL     1      11.723   2.125  15.827  1.00  0.00     0.253 C 
HETATM   18  O2  UNL     1      12.357   0.933  16.076  1.00  0.00    -0.190 OA
HETATM   19  O3  UNL     1      11.844   0.305  17.112  1.00  0.00    -0.194 OA
HETATM   20  C18 UNL     1      12.098   1.085  18.249  1.00  0.00     0.230 C 
HETATM   21  C19 UNL     1      13.581   1.001  18.514  1.00  0.00     0.076 C 
HETATM   22  C20 UNL     1      13.955   1.479  19.889  1.00  0.00     0.038 C 
HETATM   23  C21 UNL     1      13.141   0.721  20.931  1.00  0.00     0.183 C 
HETATM   24  C22 UNL     1      11.687   1.125  20.694  1.00  0.00     0.038 C 
HETATM   25  C23 UNL     1      11.277   0.525  19.379  1.00  0.00     0.076 C 
HETATM   26  O4  UNL     1      11.671   2.369  17.985  1.00  0.00    -0.194 OA
HETATM   27  O5  UNL     1      10.922   2.461  16.906  1.00  0.00    -0.190 OA
ENDROOT
BRANCH  23  28
HETATM   28  N1  UNL     1      13.235  -0.699  20.625  1.00  0.00    -0.075 N 
ATOM     29  H13 UNL     1      12.542  -1.003  19.941  1.00  0.00     0.274 HD
ATOM     30  H12 UNL     1      14.070  -0.933  20.088  1.00  0.00     0.274 HD
ATOM     31  H11 UNL     1      13.174  -1.213  21.504  1.00  0.00     0.274 HD
ENDBRANCH  23  28
BRANCH   6  32
HETATM   32  O1  UNL     1       4.878   3.872  12.474  1.00  0.00    -0.395 OA
ATOM     33  H1  UNL     1       4.058   4.111  12.889  1.00  0.00     0.210 HD
ENDBRANCH   6  32
TORSDOF 2
ENDMDL
MODEL 3
REMARK VINA RESULT: -7.837140045      1.757      2.107
REMARK  2 active torsions:
REMARK  status: ('A' for Active; 'I' for Inactive)
REMARK    1  A    between atoms: C6_6  and  O1_7 
REMARK    2  A    between atoms: C21_25  and  N1_26 
ROOT
HETATM    1  C1  UNL     1      12.397   4.705  12.998  1.00  0.00     0.016 C 
HETATM    2  C2  UNL     1      11.696   3.593  13.786  1.00  0.00    -0.032 C 
HETATM    3  C3  UNL     1      10.233   3.718  13.509  1.00  0.00     0.011 C 
HETATM    4  C4  UNL     1       9.435   2.553  14.031  1.00  0.00     0.008 C 
HETATM    5  C5  UNL     1       9.891   1.324  13.306  1.00  0.00     0.019 C 
HETATM    6  C6  UNL     1       9.272   0.056  13.865  1.00  0.00     0.122 C 
HETATM    7  C7  UNL     1      10.384  -0.688  14.586  1.00  0.00     0.032 C 
HETATM    8  C8  UNL     1      11.475   0.383  14.751  1.00  0.00     0.008 C 
HETATM    9  C9  UNL     1      11.350   1.107  13.457  1.00  0.00    -0.003 C 
HETATM   10  C10 UNL     1      12.226   2.291  13.259  1.00  0.00     0.002 C 
HETATM   11  C11 UNL     1      13.616   1.962  13.700  1.00  0.00     0.033 C 
HETATM   12  C12 UNL     1      14.018   2.480  15.014  1.00  0.00    -0.018 C 
HETATM   13  C13 UNL     1      13.262   3.313  15.695  1.00  0.00    -0.012 C 
HETATM   14  C14 UNL     1      11.951   3.809  15.228  1.00  0.00     0.028 C 
HETATM   15  C15 UNL     1      11.955   5.251  15.675  1.00  0.00     0.016 C 
HETATM   16  C16 UNL     1      13.053   5.406  16.686  1.00  0.00     0.080 C 
HETATM   17  C17 UNL     1      13.435   3.994  17.027  1.00  0.00     0.253 C 
HETATM   18  O2  UNL     1      14.715   3.863  17.508  1.00  0.00    -0.190 OA
HETATM   19  O3  UNL     1      14.769   3.086  18.568  1.00  0.00    -0.194 OA
HETATM   20  C18 UNL     1      14.067   3.724  19.600  1.00  0.00     0.230 C 
HETATM   21  C19 UNL     1      14.894   4.914  20.021  1.00  0.00     0.076 C 
HETATM   22  C20 UNL     1      14.463   5.486  21.342  1.00  0.00     0.038 C 
HETATM   23  C21 UNL     1      14.460   4.385  22.397  1.00  0.00     0.183 C 
HETATM   24  C22 UNL     1      13.380   3.397  21.960  1.00  0.00     0.038 C 
HETATM   25  C23 UNL     1      13.882   2.728  20.711  1.00  0.00     0.076 C 
HETATM   26  O4  UNL     1      12.827   4.077  19.111  1.00  0.00    -0.194 OA
HETATM   27  O5  UNL     1      12.535   3.507  17.961  1.00  0.00    -0.190 OA
ENDROOT
BRANCH  23  28
HETATM   28  N1  UNL     1      15.730   3.680  22.311  1.00  0.00    -0.075 N 
ATOM     29  H13 UNL     1      16.114   3.671  21.366  1.00  0.00     0.274 HD
ATOM     30  H12 UNL     1      16.493   4.185  22.763  1.00  0.00     0.274 HD
ATOM     31  H11 UNL     1      15.595   2.744  22.693  1.00  0.00     0.274 HD
ENDBRANCH  23  28
BRANCH   6  32
HETATM   32  O1  UNL     1       8.874  -0.739  12.791  1.00  0.00    -0.395 OA
ATOM     33  H1  UNL     1       9.479  -0.590  12.074  1.00  0.00     0.210 HD
ENDBRANCH   6  32
TORSDOF 2
ENDMDL
MODEL 4
REMARK VINA RESULT: -7.395624040      4.746      7.537
REMARK  2 active torsions:
REMARK  status: ('A' for Active; 'I' for Inactive)
REMARK    1  A    between atoms: C6_6  and  O1_7 
REMARK    2  A    between atoms: C21_25  and  N1_26 
ROOT
HETATM    1  C1  UNL     1      10.443   3.154  13.146  1.00  0.00     0.016 C 
HETATM    2  C2  UNL     1      11.353   3.171  14.379  1.00  0.00    -0.032 C 
HETATM    3  C3  UNL     1      10.606   3.883  15.460  1.00  0.00     0.011 C 
HETATM    4  C4  UNL     1      11.279   3.780  16.803  1.00  0.00     0.008 C 
HETATM    5  C5  UNL     1      11.298   2.335  17.196  1.00  0.00     0.019 C 
HETATM    6  C6  UNL     1      12.100   2.086  18.460  1.00  0.00     0.122 C 
HETATM    7  C7  UNL     1      13.369   1.366  18.034  1.00  0.00     0.032 C 
HETATM    8  C8  UNL     1      13.417   1.603  16.515  1.00  0.00     0.008 C 
HETATM    9  C9  UNL     1      11.972   1.497  16.174  1.00  0.00    -0.003 C 
HETATM   10  C10 UNL     1      11.595   1.739  14.757  1.00  0.00     0.002 C 
HETATM   11  C11 UNL     1      12.541   1.011  13.857  1.00  0.00     0.033 C 
HETATM   12  C12 UNL     1      13.584   1.825  13.221  1.00  0.00    -0.018 C 
HETATM   13  C13 UNL     1      13.595   3.137  13.309  1.00  0.00    -0.012 C 
HETATM   14  C14 UNL     1      12.582   3.924  14.043  1.00  0.00     0.028 C 
HETATM   15  C15 UNL     1      12.382   5.129  13.157  1.00  0.00     0.016 C 
HETATM   16  C16 UNL     1      13.529   5.175  12.192  1.00  0.00     0.080 C 
HETATM   17  C17 UNL     1      14.516   4.190  12.753  1.00  0.00     0.253 C 
HETATM   18  O2  UNL     1      15.382   3.676  11.820  1.00  0.00    -0.190 OA
HETATM   19  O3  UNL     1      16.625   3.663  12.250  1.00  0.00    -0.194 OA
HETATM   20  C18 UNL     1      17.032   4.994  12.414  1.00  0.00     0.230 C 
HETATM   21  C19 UNL     1      17.168   5.583  11.031  1.00  0.00     0.076 C 
HETATM   22  C20 UNL     1      17.935   6.875  11.020  1.00  0.00     0.038 C 
HETATM   23  C21 UNL     1      19.288   6.670  11.694  1.00  0.00     0.183 C 
HETATM   24  C22 UNL     1      18.977   6.343  13.154  1.00  0.00     0.038 C 
HETATM   25  C23 UNL     1      18.333   4.985  13.168  1.00  0.00     0.076 C 
HETATM   26  O4  UNL     1      16.081   5.635  13.180  1.00  0.00    -0.194 OA
HETATM   27  O5  UNL     1      15.234   4.812  13.761  1.00  0.00    -0.190 OA
ENDROOT
BRANCH  23  28
HETATM   28  N1  UNL     1      19.897   5.480  11.120  1.00  0.00    -0.075 N 
ATOM     29  H13 UNL     1      20.774   5.678  10.637  1.00  0.00     0.274 HD
ATOM     30  H12 UNL     1      20.272   4.847  11.828  1.00  0.00     0.274 HD
ATOM     31  H11 UNL     1      19.206   5.034  10.517  1.00  0.00     0.274 HD
ENDBRANCH  23  28
BRANCH   6  32
HETATM   32  O1  UNL     1      11.377   1.204  19.263  1.00  0.00    -0.395 OA
ATOM     33  H1  UNL     1      11.924   0.961  20.000  1.00  0.00     0.210 HD
ENDBRANCH   6  32
TORSDOF 2
ENDMDL
MODEL 5
REMARK VINA RESULT: -7.060653144      1.822      2.481
REMARK  2 active torsions:
REMARK  status: ('A' for Active; 'I' for Inactive)
REMARK    1  A    between atoms: C6_6  and  O1_7 
REMARK    2  A    between atoms: C21_25  and  N1_26 
ROOT
HETATM    1  C1  UNL     1      14.994   2.606  14.771  1.00  0.00     0.016 C 
HETATM    2  C2  UNL     1      13.546   3.071  14.964  1.00  0.00    -0.032 C 
HETATM    3  C3  UNL     1      13.467   4.472  14.450  1.00  0.00     0.011 C 
HETATM    4  C4  UNL     1      12.054   4.984  14.361  1.00  0.00     0.008 C 
HETATM    5  C5  UNL     1      11.321   4.137  13.367  1.00  0.00     0.019 C 
HETATM    6  C6  UNL     1       9.838   4.455  13.312  1.00  0.00     0.122 C 
HETATM    7  C7  UNL     1       9.118   3.276  13.946  1.00  0.00     0.032 C 
HETATM    8  C8  UNL     1      10.240   2.537  14.692  1.00  0.00     0.008 C 
HETATM    9  C9  UNL     1      11.365   2.700  13.732  1.00  0.00    -0.003 C 
HETATM   10  C10 UNL     1      12.686   2.155  14.141  1.00  0.00     0.002 C 
HETATM   11  C11 UNL     1      12.505   0.789  14.719  1.00  0.00     0.033 C 
HETATM   12  C12 UNL     1      12.546   0.695  16.184  1.00  0.00    -0.018 C 
HETATM   13  C13 UNL     1      12.877   1.719  16.938  1.00  0.00    -0.012 C 
HETATM   14  C14 UNL     1      13.236   3.052  16.411  1.00  0.00     0.028 C 
HETATM   15  C15 UNL     1      14.362   3.484  17.319  1.00  0.00     0.016 C 
HETATM   16  C16 UNL     1      14.336   2.592  18.524  1.00  0.00     0.080 C 
HETATM   17  C17 UNL     1      13.012   1.889  18.428  1.00  0.00     0.253 C 
HETATM   18  O2  UNL     1      12.970   0.686  19.089  1.00  0.00    -0.190 OA
HETATM   19  O3  UNL     1      11.873   0.549  19.802  1.00  0.00    -0.194 OA
HETATM   20  C18 UNL     1      11.906   1.511  20.821  1.00  0.00     0.230 C 
HETATM   21  C19 UNL     1      12.983   1.085  21.789  1.00  0.00     0.076 C 
HETATM   22  C20 UNL     1      12.900   1.804  23.106  1.00  0.00     0.038 C 
HETATM   23  C21 UNL     1      11.502   1.635  23.691  1.00  0.00     0.183 C 
HETATM   24  C22 UNL     1      10.561   2.353  22.726  1.00  0.00     0.038 C 
HETATM   25  C23 UNL     1      10.543   1.550  21.456  1.00  0.00     0.076 C 
HETATM   26  O4  UNL     1      12.159   2.735  20.239  1.00  0.00    -0.194 OA
HETATM   27  O5  UNL     1      12.030   2.729  18.929  1.00  0.00    -0.190 OA
ENDROOT
BRANCH  23  28
HETATM   28  N1  UNL     1      11.161   0.221  23.633  1.00  0.00    -0.075 N 
ATOM     29  H13 UNL     1      11.294  -0.180  22.704  1.00  0.00     0.274 HD
ATOM     30  H12 UNL     1      11.828  -0.367  24.132  1.00  0.00     0.274 HD
ATOM     31  H11 UNL     1      10.206   0.115  23.975  1.00  0.00     0.274 HD
ENDBRANCH  23  28
BRANCH   6  32
HETATM   32  O1  UNL     1       9.455   4.499  11.972  1.00  0.00    -0.395 OA
ATOM     33  H1  UNL     1       8.591   4.112  11.900  1.00  0.00     0.210 HD
ENDBRANCH   6  32
TORSDOF 2
ENDMDL
