MODEL 1
REMARK VINA RESULT: -7.946599774      0.000      0.000
REMARK  2 active torsions:
REMARK  status: ('A' for Active; 'I' for Inactive)
REMARK    1  A    between atoms: C21_23  and  O3_24 
REMARK    2  A    between atoms: C23_27  and  O4_28 
ROOT
HETATM    1  C1  UNL     1       5.926   2.174  14.238  1.00  0.00     0.011 C 
HETATM    2  C2  UNL     1       6.768   2.533  13.068  1.00  0.00    -0.010 C 
HETATM    3  C3  UNL     1       7.122   3.981  12.962  1.00  0.00     0.005 C 
HETATM    4  C4  UNL     1       8.620   4.114  13.287  1.00  0.00     0.006 C 
HETATM    5  C5  UNL     1       8.878   2.814  13.948  1.00  0.00     0.003 C 
HETATM    6  C6  UNL     1       8.146   1.848  13.105  1.00  0.00    -0.036 C 
HETATM    7  C7  UNL     1       8.573   1.769  11.675  1.00  0.00     0.016 C 
HETATM    8  C8  UNL     1       8.091   0.500  13.755  1.00  0.00     0.010 C 
HETATM    9  C9  UNL     1       9.548   0.099  14.017  1.00  0.00     0.006 C 
HETATM   10  C10 UNL     1      10.208   1.093  14.917  1.00  0.00    -0.006 C 
HETATM   11  C11 UNL     1      11.513   0.628  15.440  1.00  0.00     0.011 C 
HETATM   12  C12 UNL     1      11.786   1.319  16.750  1.00  0.00     0.075 C 
HETATM   13  C13 UNL     1      12.726   2.459  16.469  1.00  0.00     0.230 C 
HETATM   14  C14 UNL     1      12.111   3.579  15.696  1.00  0.00     0.075 C 
HETATM   15  C15 UNL     1      10.683   3.442  15.375  1.00  0.00     0.015 C 
HETATM   16  C16 UNL     1      10.293   2.493  14.289  1.00  0.00    -0.036 C 
HETATM   17  C17 UNL     1      11.222   2.494  13.122  1.00  0.00     0.016 C 
HETATM   18  O1  UNL     1      13.227   2.871  17.726  1.00  0.00    -0.195 OA
HETATM   19  O2  UNL     1      14.534   3.014  17.698  1.00  0.00    -0.192 OA
HETATM   20  C18 UNL     1      15.146   1.768  17.549  1.00  0.00     0.255 C 
HETATM   21  C19 UNL     1      15.180   1.012  18.860  1.00  0.00     0.079 C 
HETATM   22  C20 UNL     1      15.804  -0.349  18.554  1.00  0.00     0.037 C 
HETATM   23  C21 UNL     1      17.255  -0.107  18.257  1.00  0.00     0.120 C 
HETATM   24  C22 UNL     1      17.571   1.319  17.915  1.00  0.00     0.069 C 
HETATM   25  C23 UNL     1      16.520   1.848  16.967  1.00  0.00     0.188 C 
HETATM   26  O5  UNL     1      14.345   1.015  16.671  1.00  0.00    -0.192 OA
HETATM   27  O6  UNL     1      13.842   1.902  15.809  1.00  0.00    -0.195 OA
ENDROOT
BRANCH  25  28
HETATM   28  O4  UNL     1      16.818   3.151  16.563  1.00  0.00    -0.390 OA
ATOM     29  H4  UNL     1      16.480   3.323  15.692  1.00  0.00     0.210 HD
ENDBRANCH  25  28
BRANCH  23  30
HETATM   30  O3  UNL     1      18.030  -0.550  19.346  1.00  0.00    -0.395 OA
ATOM     31  H3  UNL     1      18.628   0.141  19.604  1.00  0.00     0.210 HD
ENDBRANCH  23  30
TORSDOF 2
ENDMDL
MODEL 2
REMARK VINA RESULT: -7.298505016      4.498      6.225
REMARK  2 active torsions:
REMARK  status: ('A' for Active; 'I' for Inactive)
REMARK    1  A    between atoms: C21_23  and  O3_24 
REMARK    2  A    between atoms: C23_27  and  O4_28 
ROOT
HETATM    1  C1  UNL     1       9.420   1.172  11.985  1.00  0.00     0.011 C 
HETATM    2  C2  UNL     1       9.585   1.490  13.426  1.00  0.00    -0.010 C 
HETATM    3  C3  UNL     1      10.315   0.458  14.223  1.00  0.00     0.005 C 
HETATM    4  C4  UNL     1      11.694   1.042  14.580  1.00  0.00     0.006 C 
HETATM    5  C5  UNL     1      11.781   2.160  13.613  1.00  0.00     0.003 C 
HETATM    6  C6  UNL     1      10.431   2.756  13.653  1.00  0.00    -0.036 C 
HETATM    7  C7  UNL     1       9.984   3.282  14.979  1.00  0.00     0.016 C 
HETATM    8  C8  UNL     1      10.253   3.761  12.557  1.00  0.00     0.010 C 
HETATM    9  C9  UNL     1      11.378   4.787  12.740  1.00  0.00     0.006 C 
HETATM   10  C10 UNL     1      12.712   4.122  12.635  1.00  0.00    -0.006 C 
HETATM   11  C11 UNL     1      13.832   5.082  12.516  1.00  0.00     0.011 C 
HETATM   12  C12 UNL     1      14.975   4.409  11.801  1.00  0.00     0.075 C 
HETATM   13  C13 UNL     1      15.959   3.963  12.848  1.00  0.00     0.230 C 
HETATM   14  C14 UNL     1      15.473   2.837  13.699  1.00  0.00     0.075 C 
HETATM   15  C15 UNL     1      14.149   2.290  13.364  1.00  0.00     0.015 C 
HETATM   16  C16 UNL     1      12.943   3.085  13.746  1.00  0.00    -0.036 C 
HETATM   17  C17 UNL     1      13.052   3.749  15.076  1.00  0.00     0.016 C 
HETATM   18  O1  UNL     1      17.151   3.650  12.154  1.00  0.00    -0.195 OA
HETATM   19  O2  UNL     1      18.200   4.190  12.735  1.00  0.00    -0.192 OA
HETATM   20  C18 UNL     1      18.156   5.580  12.603  1.00  0.00     0.255 C 
HETATM   21  C19 UNL     1      18.603   6.013  11.223  1.00  0.00     0.079 C 
HETATM   22  C20 UNL     1      18.445   7.533  11.179  1.00  0.00     0.037 C 
HETATM   23  C21 UNL     1      19.499   8.106  12.080  1.00  0.00     0.120 C 
HETATM   24  C22 UNL     1      20.069   7.114  13.051  1.00  0.00     0.069 C 
HETATM   25  C23 UNL     1      18.944   6.301  13.647  1.00  0.00     0.188 C 
HETATM   26  O5  UNL     1      16.809   5.965  12.729  1.00  0.00    -0.192 OA
HETATM   27  O6  UNL     1      16.282   5.108  13.606  1.00  0.00    -0.195 OA
ENDROOT
BRANCH  25  28
HETATM   28  O4  UNL     1      19.424   5.414  14.614  1.00  0.00    -0.390 OA
ATOM     29  H4  UNL     1      19.080   5.628  15.473  1.00  0.00     0.210 HD
ENDBRANCH  25  28
BRANCH  23  30
HETATM   30  O3  UNL     1      20.514   8.686  11.294  1.00  0.00    -0.395 OA
ATOM     31  H3  UNL     1      21.325   8.212  11.435  1.00  0.00     0.210 HD
ENDBRANCH  23  30
TORSDOF 2
ENDMDL
MODEL 3
REMARK VINA RESULT: -7.193309217      4.460      6.213
REMARK  2 active torsions:
REMARK  status: ('A' for Active; 'I' for Inactive)
REMARK    1  A    between atoms: C21_23  and  O3_24 
REMARK    2  A    between atoms: C23_27  and  O4_28 
ROOT
HETATM    1  C1  UNL     1       8.907   1.934  13.149  1.00  0.00     0.011 C 
HETATM    2  C2  UNL     1       9.622   1.431  14.349  1.00  0.00    -0.010 C 
HETATM    3  C3  UNL     1      10.376   0.156  14.149  1.00  0.00     0.005 C 
HETATM    4  C4  UNL     1      11.876   0.500  14.172  1.00  0.00     0.006 C 
HETATM    5  C5  UNL     1      11.829   1.966  13.962  1.00  0.00     0.003 C 
HETATM    6  C6  UNL     1      10.716   2.401  14.829  1.00  0.00    -0.036 C 
HETATM    7  C7  UNL     1      10.869   2.114  16.288  1.00  0.00     0.016 C 
HETATM    8  C8  UNL     1      10.359   3.832  14.568  1.00  0.00     0.010 C 
HETATM    9  C9  UNL     1      11.649   4.634  14.783  1.00  0.00     0.006 C 
HETATM   10  C10 UNL     1      12.711   4.174  13.837  1.00  0.00    -0.006 C 
HETATM   11  C11 UNL     1      13.879   5.083  13.789  1.00  0.00     0.011 C 
HETATM   12  C12 UNL     1      14.551   4.939  12.448  1.00  0.00     0.075 C 
HETATM   13  C13 UNL     1      15.735   4.032  12.635  1.00  0.00     0.230 C 
HETATM   14  C14 UNL     1      15.375   2.609  12.909  1.00  0.00     0.075 C 
HETATM   15  C15 UNL     1      13.940   2.286  12.900  1.00  0.00     0.015 C 
HETATM   16  C16 UNL     1      13.116   2.710  14.072  1.00  0.00    -0.036 C 
HETATM   17  C17 UNL     1      13.806   2.556  15.385  1.00  0.00     0.016 C 
HETATM   18  O1  UNL     1      16.528   4.181  11.473  1.00  0.00    -0.195 OA
HETATM   19  O2  UNL     1      17.796   4.356  11.777  1.00  0.00    -0.192 OA
HETATM   20  C18 UNL     1      17.971   5.596  12.396  1.00  0.00     0.255 C 
HETATM   21  C19 UNL     1      17.980   6.719  11.381  1.00  0.00     0.079 C 
HETATM   22  C20 UNL     1      18.107   8.016  12.179  1.00  0.00     0.037 C 
HETATM   23  C21 UNL     1      19.497   8.047  12.743  1.00  0.00     0.120 C 
HETATM   24  C22 UNL     1      20.172   6.708  12.759  1.00  0.00     0.069 C 
HETATM   25  C23 UNL     1      19.195   5.665  13.249  1.00  0.00     0.188 C 
HETATM   26  O5  UNL     1      16.852   5.808  13.221  1.00  0.00    -0.192 OA
HETATM   27  O6  UNL     1      16.513   4.597  13.668  1.00  0.00    -0.195 OA
ENDROOT
BRANCH  25  28
HETATM   28  O4  UNL     1      19.807   4.413  13.351  1.00  0.00    -0.390 OA
ATOM     29  H4  UNL     1      20.679   4.490  13.721  1.00  0.00     0.210 HD
ENDBRANCH  25  28
BRANCH  23  30
HETATM   30  O3  UNL     1      20.262   8.992  12.032  1.00  0.00    -0.395 OA
ATOM     31  H3  UNL     1      21.175   8.729  12.050  1.00  0.00     0.210 HD
ENDBRANCH  23  30
TORSDOF 2
ENDMDL
MODEL 4
REMARK VINA RESULT: -7.131881346      1.760      2.082
REMARK  2 active torsions:
REMARK  status: ('A' for Active; 'I' for Inactive)
REMARK    1  A    between atoms: C21_23  and  O3_24 
REMARK    2  A    between atoms: C23_27  and  O4_28 
ROOT
HETATM    1  C1  UNL     1       6.696   1.545  13.812  1.00  0.00     0.011 C 
HETATM    2  C2  UNL     1       7.866   1.696  12.910  1.00  0.00    -0.010 C 
HETATM    3  C3  UNL     1       8.399   3.087  12.792  1.00  0.00     0.005 C 
HETATM    4  C4  UNL     1       9.751   3.127  13.525  1.00  0.00     0.006 C 
HETATM    5  C5  UNL     1       9.663   1.892  14.338  1.00  0.00     0.003 C 
HETATM    6  C6  UNL     1       9.091   0.904  13.402  1.00  0.00    -0.036 C 
HETATM    7  C7  UNL     1       9.889   0.628  12.169  1.00  0.00     0.016 C 
HETATM    8  C8  UNL     1       8.703  -0.353  14.118  1.00  0.00     0.010 C 
HETATM    9  C9  UNL     1       9.973  -0.846  14.822  1.00  0.00     0.006 C 
HETATM   10  C10 UNL     1      10.464   0.182  15.790  1.00  0.00    -0.006 C 
HETATM   11  C11 UNL     1      11.508  -0.332  16.704  1.00  0.00     0.011 C 
HETATM   12  C12 UNL     1      11.481   0.476  17.976  1.00  0.00     0.075 C 
HETATM   13  C13 UNL     1      12.587   1.491  17.885  1.00  0.00     0.230 C 
HETATM   14  C14 UNL     1      12.345   2.567  16.877  1.00  0.00     0.075 C 
HETATM   15  C15 UNL     1      11.057   2.518  16.169  1.00  0.00     0.015 C 
HETATM   16  C16 UNL     1      10.881   1.491  15.099  1.00  0.00    -0.036 C 
HETATM   17  C17 UNL     1      12.092   1.281  14.256  1.00  0.00     0.016 C 
HETATM   18  O1  UNL     1      12.760   1.997  19.195  1.00  0.00    -0.195 OA
HETATM   19  O2  UNL     1      14.030   2.023  19.535  1.00  0.00    -0.192 OA
HETATM   20  C18 UNL     1      14.513   0.720  19.673  1.00  0.00     0.255 C 
HETATM   21  C19 UNL     1      14.092   0.116  20.996  1.00  0.00     0.079 C 
HETATM   22  C20 UNL     1      14.616  -1.319  20.998  1.00  0.00     0.037 C 
HETATM   23  C21 UNL     1      16.110  -1.238  21.114  1.00  0.00     0.120 C 
HETATM   24  C22 UNL     1      16.670   0.109  20.762  1.00  0.00     0.069 C 
HETATM   25  C23 UNL     1      15.994   0.616  19.509  1.00  0.00     0.188 C 
HETATM   26  O5  UNL     1      13.908  -0.054  18.667  1.00  0.00    -0.192 OA
HETATM   27  O6  UNL     1      13.771   0.770  17.626  1.00  0.00    -0.195 OA
ENDROOT
BRANCH  25  28
HETATM   28  O4  UNL     1      16.540   1.835  19.103  1.00  0.00    -0.390 OA
ATOM     29  H4  UNL     1      17.392   1.710  18.700  1.00  0.00     0.210 HD
ENDBRANCH  25  28
BRANCH  23  30
HETATM   30  O3  UNL     1      16.494  -1.621  22.414  1.00  0.00    -0.395 OA
ATOM     31  H3  UNL     1      15.825  -1.347  23.030  1.00  0.00     0.210 HD
ENDBRANCH  23  30
TORSDOF 2
ENDMDL
MODEL 5
REMARK VINA RESULT: -7.106080681      2.887      8.109
REMARK  2 active torsions:
REMARK  status: ('A' for Active; 'I' for Inactive)
REMARK    1  A    between atoms: C21_23  and  O3_24 
REMARK    2  A    between atoms: C23_27  and  O4_28 
ROOT
HETATM    1  C1  UNL     1      16.301  -0.012  21.577  1.00  0.00     0.011 C 
HETATM    2  C2  UNL     1      15.493   1.161  21.996  1.00  0.00    -0.010 C 
HETATM    3  C3  UNL     1      16.034   2.488  21.572  1.00  0.00     0.005 C 
HETATM    4  C4  UNL     1      15.107   3.034  20.471  1.00  0.00     0.006 C 
HETATM    5  C5  UNL     1      14.383   1.801  20.081  1.00  0.00     0.003 C 
HETATM    6  C6  UNL     1      14.084   1.155  21.374  1.00  0.00    -0.036 C 
HETATM    7  C7  UNL     1      13.242   1.943  22.324  1.00  0.00     0.016 C 
HETATM    8  C8  UNL     1      13.560  -0.234  21.172  1.00  0.00     0.010 C 
HETATM    9  C9  UNL     1      12.334  -0.093  20.263  1.00  0.00     0.006 C 
HETATM   10  C10 UNL     1      12.721   0.520  18.956  1.00  0.00    -0.006 C 
HETATM   11  C11 UNL     1      11.658   0.425  17.931  1.00  0.00     0.011 C 
HETATM   12  C12 UNL     1      12.295   0.451  16.565  1.00  0.00     0.075 C 
HETATM   13  C13 UNL     1      12.163   1.853  16.037  1.00  0.00     0.230 C 
HETATM   14  C14 UNL     1      13.011   2.855  16.749  1.00  0.00     0.075 C 
HETATM   15  C15 UNL     1      13.885   2.332  17.810  1.00  0.00     0.015 C 
HETATM   16  C16 UNL     1      13.260   1.951  19.112  1.00  0.00    -0.036 C 
HETATM   17  C17 UNL     1      12.181   2.876  19.560  1.00  0.00     0.016 C 
HETATM   18  O1  UNL     1      12.451   1.776  14.654  1.00  0.00    -0.195 OA
HETATM   19  O2  UNL     1      11.554   2.421  13.941  1.00  0.00    -0.192 OA
HETATM   20  C18 UNL     1      10.326   1.759  14.007  1.00  0.00     0.255 C 
HETATM   21  C19 UNL     1      10.302   0.555  13.089  1.00  0.00     0.079 C 
HETATM   22  C20 UNL     1       8.947  -0.118  13.302  1.00  0.00     0.037 C 
HETATM   23  C21 UNL     1       7.911   0.790  12.709  1.00  0.00     0.120 C 
HETATM   24  C22 UNL     1       8.389   2.197  12.502  1.00  0.00     0.069 C 
HETATM   25  C23 UNL     1       9.158   2.645  13.722  1.00  0.00     0.188 C 
HETATM   26  O5  UNL     1      10.192   1.268  15.318  1.00  0.00    -0.192 OA
HETATM   27  O6  UNL     1      10.790   2.174  16.094  1.00  0.00    -0.195 OA
ENDROOT
BRANCH  25  28
HETATM   28  O4  UNL     1       9.557   3.978  13.602  1.00  0.00    -0.390 OA
ATOM     29  H4  UNL     1       9.060   4.423  12.926  1.00  0.00     0.210 HD
ENDBRANCH  25  28
BRANCH  23  30
HETATM   30  O3  UNL     1       7.442   0.232  11.504  1.00  0.00    -0.395 OA
ATOM     31  H3  UNL     1       8.042  -0.449  11.222  1.00  0.00     0.210 HD
ENDBRANCH  23  30
TORSDOF 2
ENDMDL
