MODEL 1
REMARK VINA RESULT: -7.913432899      0.000      0.000
REMARK  1 active torsions:
REMARK  status: ('A' for Active; 'I' for Inactive)
REMARK    1  A    between atoms: C14_19  and  O2_20 
ROOT
HETATM    1  C1  UNL     1       7.188   2.422  13.003  1.00  0.00     0.012 C 
HETATM    2  C2  UNL     1       8.552   2.663  12.445  1.00  0.00     0.010 C 
HETATM    3  C3  UNL     1       8.894   4.118  12.638  1.00  0.00     0.172 C 
HETATM    4  O1  UNL     1       9.244   4.434  13.919  1.00  0.00    -0.385 OA
HETATM    5  C4  UNL     1      10.211   3.652  14.490  1.00  0.00     0.126 C 
HETATM    6  C5  UNL     1      11.521   3.759  13.796  1.00  0.00     0.035 C 
HETATM    7  C6  UNL     1      12.492   2.676  14.079  1.00  0.00     0.045 C 
HETATM    8  C7  UNL     1      12.123   1.833  15.305  1.00  0.00     0.109 C 
HETATM    9  C8  UNL     1      13.195   0.816  15.491  1.00  0.00     0.118 C 
HETATM   10  S1  UNL     1      13.788   0.788  17.236  1.00  0.00    -0.123 SA
HETATM   11  C9  UNL     1      13.959   2.569  17.661  1.00  0.00     0.170 C 
HETATM   12  C10 UNL     1      12.986   2.940  18.760  1.00  0.00     0.286 C 
HETATM   13  N1  UNL     1      13.606   2.880  20.068  1.00  0.00    -0.061 N 
ATOM     14  H11 UNL     1      13.917   1.933  20.285  1.00  0.00     0.278 HD
ATOM     15  H12 UNL     1      12.915   2.998  20.809  1.00  0.00     0.278 HD
HETATM   16  C11 UNL     1      14.683   3.827  20.207  1.00  0.00     0.144 C 
HETATM   17  C12 UNL     1      15.689   3.291  21.220  1.00  0.00     0.048 C 
HETATM   18  C13 UNL     1      14.146   5.128  20.815  1.00  0.00     0.048 C 
HETATM   19  C14 UNL     1      15.348   4.152  18.886  1.00  0.00     0.157 C 
HETATM   20  C15 UNL     1      15.364   2.937  17.966  1.00  0.00     0.088 C 
HETATM   21  O3  UNL     1      13.469   3.206  16.492  1.00  0.00    -0.216 OA
HETATM   22  O4  UNL     1      12.242   2.745  16.382  1.00  0.00    -0.227 OA
HETATM   23  C16 UNL     1      10.733   1.330  15.278  1.00  0.00     0.035 C 
HETATM   24  C17 UNL     1      10.583  -0.122  14.876  1.00  0.00    -0.011 C 
HETATM   25  C18 UNL     1      10.608  -1.043  16.092  1.00  0.00     0.010 C 
HETATM   26  C19 UNL     1       9.166  -0.268  14.297  1.00  0.00     0.005 C 
HETATM   27  C20 UNL     1       9.106   0.348  12.944  1.00  0.00     0.006 C 
HETATM   28  C21 UNL     1       9.618   1.774  13.064  1.00  0.00    -0.002 C 
HETATM   29  C22 UNL     1       9.789   2.201  14.483  1.00  0.00     0.026 C 
ENDROOT
BRANCH  19  30
HETATM   30  O2  UNL     1      16.633   4.623  19.111  1.00  0.00    -0.393 OA
ATOM     31  H2  UNL     1      17.250   4.147  18.567  1.00  0.00     0.210 HD
ENDBRANCH  19  30
TORSDOF 1
ENDMDL
MODEL 2
REMARK VINA RESULT: -7.667479379      2.065      2.250
REMARK  1 active torsions:
REMARK  status: ('A' for Active; 'I' for Inactive)
REMARK    1  A    between atoms: C14_19  and  O2_20 
ROOT
HETATM    1  C1  UNL     1       7.455   3.694  12.826  1.00  0.00     0.012 C 
HETATM    2  C2  UNL     1       8.907   3.749  12.481  1.00  0.00     0.010 C 
HETATM    3  C3  UNL     1       9.538   4.872  13.264  1.00  0.00     0.172 C 
HETATM    4  O1  UNL     1       9.750   4.572  14.579  1.00  0.00    -0.385 OA
HETATM    5  C4  UNL     1      10.414   3.403  14.830  1.00  0.00     0.126 C 
HETATM    6  C5  UNL     1      11.805   3.405  14.304  1.00  0.00     0.035 C 
HETATM    7  C6  UNL     1      12.447   2.077  14.172  1.00  0.00     0.045 C 
HETATM    8  C7  UNL     1      11.712   0.967  14.931  1.00  0.00     0.109 C 
HETATM    9  C8  UNL     1      12.483  -0.294  14.741  1.00  0.00     0.118 C 
HETATM   10  S1  UNL     1      12.779  -1.140  16.352  1.00  0.00    -0.123 SA
HETATM   11  C9  UNL     1      13.285   0.229  17.470  1.00  0.00     0.170 C 
HETATM   12  C10 UNL     1      12.265   0.405  18.576  1.00  0.00     0.286 C 
HETATM   13  N1  UNL     1      12.647  -0.311  19.776  1.00  0.00    -0.061 N 
ATOM     14  H11 UNL     1      12.697  -1.316  19.606  1.00  0.00     0.278 HD
ATOM     15  H12 UNL     1      11.896  -0.300  20.467  1.00  0.00     0.278 HD
HETATM   16  C11 UNL     1      13.878   0.183  20.340  1.00  0.00     0.144 C 
HETATM   17  C12 UNL     1      14.568  -0.947  21.097  1.00  0.00     0.048 C 
HETATM   18  C13 UNL     1      13.565   1.250  21.396  1.00  0.00     0.048 C 
HETATM   19  C14 UNL     1      14.794   0.791  19.299  1.00  0.00     0.157 C 
HETATM   20  C15 UNL     1      14.673   0.060  17.967  1.00  0.00     0.088 C 
HETATM   21  O3  UNL     1      13.138   1.369  16.638  1.00  0.00    -0.216 OA
HETATM   22  O4  UNL     1      11.870   1.334  16.290  1.00  0.00    -0.227 OA
HETATM   23  C16 UNL     1      10.266   0.907  14.634  1.00  0.00     0.035 C 
HETATM   24  C17 UNL     1       9.851  -0.185  13.671  1.00  0.00    -0.011 C 
HETATM   25  C18 UNL     1       9.479  -1.467  14.409  1.00  0.00     0.010 C 
HETATM   26  C19 UNL     1       8.545   0.288  13.014  1.00  0.00     0.005 C 
HETATM   27  C20 UNL     1       8.834   1.362  12.025  1.00  0.00     0.006 C 
HETATM   28  C21 UNL     1       9.634   2.440  12.738  1.00  0.00    -0.002 C 
HETATM   29  C22 UNL     1       9.678   2.235  14.215  1.00  0.00     0.026 C 
ENDROOT
BRANCH  19  30
HETATM   30  O2  UNL     1      16.102   0.776  19.758  1.00  0.00    -0.393 OA
ATOM     31  H2  UNL     1      16.702   0.752  19.021  1.00  0.00     0.210 HD
ENDBRANCH  19  30
TORSDOF 1
ENDMDL
MODEL 3
REMARK VINA RESULT: -7.041615820      2.487      2.795
REMARK  1 active torsions:
REMARK  status: ('A' for Active; 'I' for Inactive)
REMARK    1  A    between atoms: C14_19  and  O2_20 
ROOT
HETATM    1  C1  UNL     1       9.310   3.269  12.757  1.00  0.00     0.012 C 
HETATM    2  C2  UNL     1      10.779   3.288  13.022  1.00  0.00     0.010 C 
HETATM    3  C3  UNL     1      11.126   4.600  13.679  1.00  0.00     0.172 C 
HETATM    4  O1  UNL     1      10.776   4.662  14.997  1.00  0.00    -0.385 OA
HETATM    5  C4  UNL     1      11.202   3.626  15.783  1.00  0.00     0.126 C 
HETATM    6  C5  UNL     1      12.683   3.545  15.877  1.00  0.00     0.035 C 
HETATM    7  C6  UNL     1      13.230   2.254  16.356  1.00  0.00     0.045 C 
HETATM    8  C7  UNL     1      12.177   1.353  17.012  1.00  0.00     0.109 C 
HETATM    9  C8  UNL     1      12.869   0.117  17.475  1.00  0.00     0.118 C 
HETATM   10  S1  UNL     1      12.440  -0.266  19.226  1.00  0.00    -0.123 SA
HETATM   11  C9  UNL     1      12.556   1.366  20.065  1.00  0.00     0.170 C 
HETATM   12  C10 UNL     1      11.197   1.786  20.584  1.00  0.00     0.286 C 
HETATM   13  N1  UNL     1      11.020   1.424  21.976  1.00  0.00    -0.061 N 
ATOM     14  H11 UNL     1      11.062   0.412  22.102  1.00  0.00     0.278 HD
ATOM     15  H12 UNL     1      10.059   1.586  22.279  1.00  0.00     0.278 HD
HETATM   16  C11 UNL     1      11.957   2.095  22.840  1.00  0.00     0.144 C 
HETATM   17  C12 UNL     1      12.208   1.229  24.070  1.00  0.00     0.048 C 
HETATM   18  C13 UNL     1      11.327   3.388  23.372  1.00  0.00     0.048 C 
HETATM   19  C14 UNL     1      13.252   2.445  22.137  1.00  0.00     0.157 C 
HETATM   20  C15 UNL     1      13.618   1.386  21.102  1.00  0.00     0.088 C 
HETATM   21  O3  UNL     1      12.833   2.242  18.984  1.00  0.00    -0.216 OA
HETATM   22  O4  UNL     1      11.808   2.069  18.178  1.00  0.00    -0.227 OA
HETATM   23  C16 UNL     1      10.967   1.162  16.186  1.00  0.00     0.035 C 
HETATM   24  C17 UNL     1      10.893  -0.159  15.450  1.00  0.00    -0.011 C 
HETATM   25  C18 UNL     1      10.168  -1.217  16.276  1.00  0.00     0.010 C 
HETATM   26  C19 UNL     1       9.991   0.075  14.227  1.00  0.00     0.005 C 
HETATM   27  C20 UNL     1      10.725   0.864  13.200  1.00  0.00     0.006 C 
HETATM   28  C21 UNL     1      11.250   2.121  13.873  1.00  0.00    -0.002 C 
HETATM   29  C22 UNL     1      10.690   2.310  15.243  1.00  0.00     0.026 C 
ENDROOT
BRANCH  19  30
HETATM   30  O2  UNL     1      14.266   2.601  23.070  1.00  0.00    -0.393 OA
ATOM     31  H2  UNL     1      14.605   3.487  23.031  1.00  0.00     0.210 HD
ENDBRANCH  19  30
TORSDOF 1
ENDMDL
MODEL 4
REMARK VINA RESULT: -6.936571535      1.615      1.800
REMARK  1 active torsions:
REMARK  status: ('A' for Active; 'I' for Inactive)
REMARK    1  A    between atoms: C14_19  and  O2_20 
ROOT
HETATM    1  C1  UNL     1       8.640   2.895  12.838  1.00  0.00     0.012 C 
HETATM    2  C2  UNL     1      10.131   2.941  12.765  1.00  0.00     0.010 C 
HETATM    3  C3  UNL     1      10.585   4.315  13.187  1.00  0.00     0.172 C 
HETATM    4  O1  UNL     1      10.536   4.519  14.536  1.00  0.00    -0.385 OA
HETATM    5  C4  UNL     1      11.148   3.572  15.310  1.00  0.00     0.126 C 
HETATM    6  C5  UNL     1      12.615   3.499  15.080  1.00  0.00     0.035 C 
HETATM    7  C6  UNL     1      13.283   2.266  15.558  1.00  0.00     0.045 C 
HETATM    8  C7  UNL     1      12.423   1.442  16.522  1.00  0.00     0.109 C 
HETATM    9  C8  UNL     1      13.228   0.262  16.946  1.00  0.00     0.118 C 
HETATM   10  S1  UNL     1      13.207   0.069  18.779  1.00  0.00    -0.123 SA
HETATM   11  C9  UNL     1      13.470   1.782  19.396  1.00  0.00     0.170 C 
HETATM   12  C10 UNL     1      12.250   2.256  20.158  1.00  0.00     0.286 C 
HETATM   13  N1  UNL     1      12.394   2.046  21.584  1.00  0.00    -0.061 N 
ATOM     14  H11 UNL     1      12.486   1.053  21.802  1.00  0.00     0.278 HD
ATOM     15  H12 UNL     1      11.522   2.240  22.075  1.00  0.00     0.278 HD
HETATM   16  C11 UNL     1      13.485   2.804  22.142  1.00  0.00     0.144 C 
HETATM   17  C12 UNL     1      14.022   2.075  23.369  1.00  0.00     0.048 C 
HETATM   18  C13 UNL     1      12.960   4.147  22.663  1.00  0.00     0.048 C 
HETATM   19  C14 UNL     1      14.583   3.075  21.135  1.00  0.00     0.157 C 
HETATM   20  C15 UNL     1      14.734   1.911  20.162  1.00  0.00     0.088 C 
HETATM   21  O3  UNL     1      13.480   2.536  18.194  1.00  0.00    -0.216 OA
HETATM   22  O4  UNL     1      12.306   2.279  17.659  1.00  0.00    -0.227 OA
HETATM   23  C16 UNL     1      11.064   1.166  16.011  1.00  0.00     0.035 C 
HETATM   24  C17 UNL     1      10.858  -0.227  15.453  1.00  0.00    -0.011 C 
HETATM   25  C18 UNL     1      10.359  -1.189  16.526  1.00  0.00     0.010 C 
HETATM   26  C19 UNL     1       9.703  -0.124  14.444  1.00  0.00     0.005 C 
HETATM   27  C20 UNL     1      10.172   0.549  13.203  1.00  0.00     0.006 C 
HETATM   28  C21 UNL     1      10.805   1.870  13.607  1.00  0.00    -0.002 C 
HETATM   29  C22 UNL     1      10.559   2.206  15.040  1.00  0.00     0.026 C 
ENDROOT
BRANCH  19  30
HETATM   30  O2  UNL     1      15.775   3.328  21.797  1.00  0.00    -0.393 OA
ATOM     31  H2  UNL     1      16.326   3.890  21.264  1.00  0.00     0.210 HD
ENDBRANCH  19  30
TORSDOF 1
ENDMDL
MODEL 5
REMARK VINA RESULT: -6.829764658      2.841      7.459
REMARK  1 active torsions:
REMARK  status: ('A' for Active; 'I' for Inactive)
REMARK    1  A    between atoms: C14_19  and  O2_20 
ROOT
HETATM    1  C1  UNL     1      12.206   2.087  23.631  1.00  0.00     0.012 C 
HETATM    2  C2  UNL     1      12.253   0.863  22.776  1.00  0.00     0.010 C 
HETATM    3  C3  UNL     1      10.838   0.463  22.443  1.00  0.00     0.172 C 
HETATM    4  O1  UNL     1      10.259   1.244  21.484  1.00  0.00    -0.385 OA
HETATM    5  C4  UNL     1      10.975   1.412  20.331  1.00  0.00     0.126 C 
HETATM    6  C5  UNL     1      11.177   0.140  19.588  1.00  0.00     0.035 C 
HETATM    7  C6  UNL     1      12.254   0.152  18.571  1.00  0.00     0.045 C 
HETATM    8  C7  UNL     1      12.731   1.562  18.204  1.00  0.00     0.109 C 
HETATM    9  C8  UNL     1      13.779   1.424  17.154  1.00  0.00     0.118 C 
HETATM   10  S1  UNL     1      13.444   2.547  15.731  1.00  0.00    -0.123 SA
HETATM   11  C9  UNL     1      11.641   2.339  15.434  1.00  0.00     0.170 C 
HETATM   12  C10 UNL     1      10.914   3.641  15.697  1.00  0.00     0.286 C 
HETATM   13  N1  UNL     1      10.719   4.402  14.480  1.00  0.00    -0.061 N 
ATOM     14  H11 UNL     1      11.612   4.665  14.062  1.00  0.00     0.278 HD
ATOM     15  H12 UNL     1      10.353   5.332  14.681  1.00  0.00     0.278 HD
HETATM   16  C11 UNL     1       9.885   3.710  13.530  1.00  0.00     0.144 C 
HETATM   17  C12 UNL     1      10.261   4.155  12.121  1.00  0.00     0.048 C 
HETATM   18  C13 UNL     1       8.426   4.144  13.719  1.00  0.00     0.048 C 
HETATM   19  C14 UNL     1       9.961   2.204  13.674  1.00  0.00     0.157 C 
HETATM   20  C15 UNL     1      11.359   1.764  14.095  1.00  0.00     0.088 C 
HETATM   21  O3  UNL     1      11.259   1.474  16.492  1.00  0.00    -0.216 OA
HETATM   22  O4  UNL     1      11.602   2.140  17.573  1.00  0.00    -0.227 OA
HETATM   23  C16 UNL     1      13.078   2.391  19.378  1.00  0.00     0.035 C 
HETATM   24  C17 UNL     1      14.560   2.520  19.658  1.00  0.00    -0.011 C 
HETATM   25  C18 UNL     1      15.155   3.738  18.960  1.00  0.00     0.010 C 
HETATM   26  C19 UNL     1      14.693   2.820  21.160  1.00  0.00     0.005 C 
HETATM   27  C20 UNL     1      14.422   1.588  21.949  1.00  0.00     0.006 C 
HETATM   28  C21 UNL     1      13.071   1.048  21.509  1.00  0.00    -0.002 C 
HETATM   29  C22 UNL     1      12.332   2.004  20.634  1.00  0.00     0.026 C 
ENDROOT
BRANCH  19  30
HETATM   30  O2  UNL     1       9.587   1.599  12.484  1.00  0.00    -0.393 OA
ATOM     31  H2  UNL     1       8.652   1.705  12.349  1.00  0.00     0.210 HD
ENDBRANCH  19  30
TORSDOF 1
ENDMDL
