MODEL 1
REMARK VINA RESULT: -7.754302795      0.000      0.000
REMARK  2 active torsions:
REMARK  status: ('A' for Active; 'I' for Inactive)
REMARK    1  A    between atoms: C7_8  and  O2_9 
REMARK    2  A    between atoms: N1_19  and  O4_21 
ROOT
HETATM    1  C1  UNL     1       8.716  -1.096  12.869  1.00  0.00     0.048 C 
HETATM    2  C2  UNL     1       8.632   0.383  12.550  1.00  0.00     0.079 C 
HETATM    3  C3  UNL     1       8.286   0.545  11.093  1.00  0.00     0.048 C 
HETATM    4  C4  UNL     1       7.705   1.120  13.461  1.00  0.00     0.209 C 
HETATM    5  O1  UNL     1       8.587   1.691  14.404  1.00  0.00    -0.351 OA
HETATM    6  C5  UNL     1       9.649   2.047  13.614  1.00  0.00     0.177 C 
HETATM    7  C6  UNL     1       9.434   3.384  12.917  1.00  0.00     0.103 C 
HETATM    8  C7  UNL     1      10.139   4.425  13.756  1.00  0.00     0.153 C 
HETATM    9  C8  UNL     1      10.609   3.667  14.995  1.00  0.00     0.164 C 
HETATM   10  O3  UNL     1      11.664   4.310  15.518  1.00  0.00    -0.377 OA
HETATM   11  C9  UNL     1      12.252   3.812  16.640  1.00  0.00     0.127 C 
HETATM   12  C10 UNL     1      11.357   3.747  17.851  1.00  0.00     0.033 C 
HETATM   13  C11 UNL     1      11.761   2.735  18.865  1.00  0.00     0.018 C 
HETATM   14  C12 UNL     1      13.211   2.445  18.959  1.00  0.00     0.004 C 
HETATM   15  C13 UNL     1      13.900   3.384  19.959  1.00  0.00     0.022 C 
HETATM   16  C14 UNL     1      13.380   1.079  19.514  1.00  0.00     0.019 C 
HETATM   17  N1  UNL     1      12.717   0.618  20.513  1.00  0.00    -0.277 N 
ATOM     18  H1  UNL     1      12.029   1.229  20.956  1.00  0.00     0.193 HD
HETATM   19  C15 UNL     1      14.408   0.324  18.763  1.00  0.00     0.056 C 
HETATM   20  C16 UNL     1      14.812   1.206  17.622  1.00  0.00     0.016 C 
HETATM   21  C17 UNL     1      13.977   2.464  17.694  1.00  0.00    -0.025 C 
HETATM   22  C18 UNL     1      14.953   3.640  17.638  1.00  0.00     0.016 C 
HETATM   23  C19 UNL     1      13.092   2.590  16.446  1.00  0.00     0.024 C 
HETATM   24  C20 UNL     1      12.440   1.337  16.116  1.00  0.00     0.009 C 
HETATM   25  C21 UNL     1      11.091   1.357  15.522  1.00  0.00     0.018 C 
HETATM   26  C22 UNL     1      10.917   2.316  14.385  1.00  0.00     0.041 C 
HETATM   27  C23 UNL     1      12.053   2.336  13.423  1.00  0.00     0.024 C 
HETATM   28  O5  UNL     1       9.880   1.017  12.737  1.00  0.00    -0.342 OA
ENDROOT
BRANCH   8  29
HETATM   29  O2  UNL     1      11.188   5.034  13.105  1.00  0.00    -0.393 OA
ATOM     30  H2  UNL     1      11.801   5.461  13.692  1.00  0.00     0.210 HD
ENDBRANCH   8  29
BRANCH  17  31
HETATM   31  O4  UNL     1      12.876  -0.637  21.018  1.00  0.00    -0.290 OA
ATOM     32  H4  UNL     1      13.721  -1.046  21.165  1.00  0.00     0.244 HD
ENDBRANCH  17  31
TORSDOF 2
ENDMDL
MODEL 2
REMARK VINA RESULT: -7.166885589      1.045      1.072
REMARK  2 active torsions:
REMARK  status: ('A' for Active; 'I' for Inactive)
REMARK    1  A    between atoms: C7_8  and  O2_9 
REMARK    2  A    between atoms: N1_19  and  O4_21 
ROOT
HETATM    1  C1  UNL     1       9.015  -0.934  13.488  1.00  0.00     0.048 C 
HETATM    2  C2  UNL     1       9.242   0.470  12.965  1.00  0.00     0.079 C 
HETATM    3  C3  UNL     1       8.925   0.495  11.493  1.00  0.00     0.048 C 
HETATM    4  C4  UNL     1       8.498   1.505  13.745  1.00  0.00     0.209 C 
HETATM    5  O1  UNL     1       9.488   2.004  14.619  1.00  0.00    -0.351 OA
HETATM    6  C5  UNL     1      10.594   2.016  13.810  1.00  0.00     0.177 C 
HETATM    7  C6  UNL     1      10.660   3.258  12.931  1.00  0.00     0.103 C 
HETATM    8  C7  UNL     1      11.575   4.234  13.632  1.00  0.00     0.153 C 
HETATM    9  C8  UNL     1      11.885   3.576  14.974  1.00  0.00     0.164 C 
HETATM   10  O3  UNL     1      13.056   4.050  15.426  1.00  0.00    -0.377 OA
HETATM   11  C9  UNL     1      13.536   3.602  16.619  1.00  0.00     0.127 C 
HETATM   12  C10 UNL     1      12.656   3.896  17.807  1.00  0.00     0.033 C 
HETATM   13  C11 UNL     1      12.846   2.974  18.960  1.00  0.00     0.018 C 
HETATM   14  C12 UNL     1      14.204   2.402  19.124  1.00  0.00     0.004 C 
HETATM   15  C13 UNL     1      15.083   3.307  20.000  1.00  0.00     0.022 C 
HETATM   16  C14 UNL     1      14.086   1.123  19.867  1.00  0.00     0.019 C 
HETATM   17  N1  UNL     1      13.349   0.955  20.906  1.00  0.00    -0.277 N 
ATOM     18  H1  UNL     1      12.809   1.752  21.244  1.00  0.00     0.193 HD
HETATM   19  C15 UNL     1      14.926   0.072  19.250  1.00  0.00     0.056 C 
HETATM   20  C16 UNL     1      15.498   0.681  18.006  1.00  0.00     0.016 C 
HETATM   21  C17 UNL     1      14.947   2.084  17.886  1.00  0.00    -0.025 C 
HETATM   22  C18 UNL     1      16.147   3.009  17.688  1.00  0.00     0.016 C 
HETATM   23  C19 UNL     1      14.097   2.216  16.613  1.00  0.00     0.024 C 
HETATM   24  C20 UNL     1      13.193   1.094  16.446  1.00  0.00     0.009 C 
HETATM   25  C21 UNL     1      11.874   1.313  15.826  1.00  0.00     0.018 C 
HETATM   26  C22 UNL     1      11.897   2.118  14.564  1.00  0.00     0.041 C 
HETATM   27  C23 UNL     1      13.004   1.766  13.633  1.00  0.00     0.024 C 
HETATM   28  O5  UNL     1      10.597   0.848  13.089  1.00  0.00    -0.342 OA
ENDROOT
BRANCH   8  29
HETATM   29  O2  UNL     1      12.723   4.513  12.926  1.00  0.00    -0.393 OA
ATOM     30  H2  UNL     1      13.350   3.800  12.926  1.00  0.00     0.210 HD
ENDBRANCH   8  29
BRANCH  17  31
HETATM   31  O4  UNL     1      13.245  -0.222  21.583  1.00  0.00    -0.290 OA
ATOM     32  H4  UNL     1      13.853  -0.502  22.257  1.00  0.00     0.244 HD
ENDBRANCH  17  31
TORSDOF 2
ENDMDL
MODEL 3
REMARK VINA RESULT: -7.117893322      1.569      1.923
REMARK  2 active torsions:
REMARK  status: ('A' for Active; 'I' for Inactive)
REMARK    1  A    between atoms: C7_8  and  O2_9 
REMARK    2  A    between atoms: N1_19  and  O4_21 
ROOT
HETATM    1  C1  UNL     1       7.542   0.836  13.711  1.00  0.00     0.048 C 
HETATM    2  C2  UNL     1       8.599   1.653  12.997  1.00  0.00     0.079 C 
HETATM    3  C3  UNL     1       8.512   1.374  11.520  1.00  0.00     0.048 C 
HETATM    4  C4  UNL     1       8.524   3.109  13.326  1.00  0.00     0.209 C 
HETATM    5  O1  UNL     1       9.522   3.254  14.315  1.00  0.00    -0.351 OA
HETATM    6  C5  UNL     1      10.503   2.420  13.846  1.00  0.00     0.177 C 
HETATM    7  C6  UNL     1      11.373   3.083  12.785  1.00  0.00     0.103 C 
HETATM    8  C7  UNL     1      12.607   3.588  13.496  1.00  0.00     0.153 C 
HETATM    9  C8  UNL     1      12.333   3.332  14.975  1.00  0.00     0.164 C 
HETATM   10  O3  UNL     1      13.505   3.228  15.619  1.00  0.00    -0.377 OA
HETATM   11  C9  UNL     1      13.505   3.000  16.962  1.00  0.00     0.127 C 
HETATM   12  C10 UNL     1      12.846   4.074  17.788  1.00  0.00     0.033 C 
HETATM   13  C11 UNL     1      12.340   3.614  19.110  1.00  0.00     0.018 C 
HETATM   14  C12 UNL     1      13.081   2.497  19.742  1.00  0.00     0.004 C 
HETATM   15  C13 UNL     1      14.226   3.021  20.621  1.00  0.00     0.022 C 
HETATM   16  C14 UNL     1      12.161   1.790  20.667  1.00  0.00     0.019 C 
HETATM   17  N1  UNL     1      11.362   2.379  21.482  1.00  0.00    -0.277 N 
ATOM     18  H1  UNL     1      11.358   3.399  21.498  1.00  0.00     0.193 HD
HETATM   19  C15 UNL     1      12.287   0.322  20.521  1.00  0.00     0.056 C 
HETATM   20  C16 UNL     1      13.232   0.103  19.379  1.00  0.00     0.016 C 
HETATM   21  C17 UNL     1      13.621   1.460  18.837  1.00  0.00    -0.025 C 
HETATM   22  C18 UNL     1      15.148   1.488  18.787  1.00  0.00     0.016 C 
HETATM   23  C19 UNL     1      13.148   1.610  17.384  1.00  0.00     0.024 C 
HETATM   24  C20 UNL     1      11.782   1.154  17.209  1.00  0.00     0.009 C 
HETATM   25  C21 UNL     1      10.912   1.828  16.229  1.00  0.00     0.018 C 
HETATM   26  C22 UNL     1      11.533   2.049  14.884  1.00  0.00     0.041 C 
HETATM   27  C23 UNL     1      12.314   0.890  14.373  1.00  0.00     0.024 C 
HETATM   28  O5  UNL     1       9.897   1.272  13.401  1.00  0.00    -0.342 OA
ENDROOT
BRANCH   8  29
HETATM   29  O2  UNL     1      13.768   2.975  13.082  1.00  0.00    -0.393 OA
ATOM     30  H2  UNL     1      13.713   2.026  13.075  1.00  0.00     0.210 HD
ENDBRANCH   8  29
BRANCH  17  31
HETATM   31  O4  UNL     1      10.519   1.723  22.329  1.00  0.00    -0.290 OA
ATOM     32  H4  UNL     1       9.597   1.930  22.425  1.00  0.00     0.244 HD
ENDBRANCH  17  31
TORSDOF 2
ENDMDL
MODEL 4
REMARK VINA RESULT: -6.934672003      2.396      4.118
REMARK  2 active torsions:
REMARK  status: ('A' for Active; 'I' for Inactive)
REMARK    1  A    between atoms: C7_8  and  O2_9 
REMARK    2  A    between atoms: N1_19  and  O4_21 
ROOT
HETATM    1  C1  UNL     1       8.561   2.576  14.042  1.00  0.00     0.048 C 
HETATM    2  C2  UNL     1       9.302   1.296  13.717  1.00  0.00     0.079 C 
HETATM    3  C3  UNL     1       8.424   0.434  12.848  1.00  0.00     0.048 C 
HETATM    4  C4  UNL     1      10.652   1.544  13.126  1.00  0.00     0.209 C 
HETATM    5  O1  UNL     1      11.509   1.392  14.237  1.00  0.00    -0.351 OA
HETATM    6  C5  UNL     1      10.924   0.345  14.901  1.00  0.00     0.177 C 
HETATM    7  C6  UNL     1      11.329  -1.007  14.328  1.00  0.00     0.103 C 
HETATM    8  C7  UNL     1      12.453  -1.522  15.196  1.00  0.00     0.153 C 
HETATM    9  C8  UNL     1      12.760  -0.373  16.152  1.00  0.00     0.164 C 
HETATM   10  O3  UNL     1      13.319  -0.874  17.263  1.00  0.00    -0.377 OA
HETATM   11  C9  UNL     1      13.682  -0.025  18.263  1.00  0.00     0.127 C 
HETATM   12  C10 UNL     1      14.724   0.995  17.882  1.00  0.00     0.033 C 
HETATM   13  C11 UNL     1      14.718   2.227  18.717  1.00  0.00     0.018 C 
HETATM   14  C12 UNL     1      14.271   2.065  20.121  1.00  0.00     0.004 C 
HETATM   15  C13 UNL     1      15.452   1.725  21.041  1.00  0.00     0.022 C 
HETATM   16  C14 UNL     1      13.755   3.371  20.601  1.00  0.00     0.019 C 
HETATM   17  N1  UNL     1      14.335   4.498  20.393  1.00  0.00    -0.277 N 
ATOM     18  H1  UNL     1      15.208   4.498  19.864  1.00  0.00     0.193 HD
HETATM   19  C15 UNL     1      12.488   3.199  21.346  1.00  0.00     0.056 C 
HETATM   20  C16 UNL     1      12.134   1.748  21.225  1.00  0.00     0.016 C 
HETATM   21  C17 UNL     1      13.189   1.088  20.366  1.00  0.00    -0.025 C 
HETATM   22  C18 UNL     1      13.687  -0.129  21.145  1.00  0.00     0.016 C 
HETATM   23  C19 UNL     1      12.560   0.536  19.078  1.00  0.00     0.024 C 
HETATM   24  C20 UNL     1      11.657   1.491  18.464  1.00  0.00     0.009 C 
HETATM   25  C21 UNL     1      11.542   1.539  16.996  1.00  0.00     0.018 C 
HETATM   26  C22 UNL     1      11.373   0.206  16.334  1.00  0.00     0.041 C 
HETATM   27  C23 UNL     1      10.428  -0.708  17.032  1.00  0.00     0.024 C 
HETATM   28  O5  UNL     1       9.566   0.548  14.885  1.00  0.00    -0.342 OA
ENDROOT
BRANCH   8  29
HETATM   29  O2  UNL     1      12.136  -2.676  15.876  1.00  0.00    -0.393 OA
ATOM     30  H2  UNL     1      12.873  -3.265  15.987  1.00  0.00     0.210 HD
ENDBRANCH   8  29
BRANCH  17  31
HETATM   31  O4  UNL     1      13.856   5.694  20.836  1.00  0.00    -0.290 OA
ATOM     32  H4  UNL     1      14.019   6.041  21.706  1.00  0.00     0.244 HD
ENDBRANCH  17  31
TORSDOF 2
ENDMDL
MODEL 5
REMARK VINA RESULT: -6.835058426      2.435      6.882
REMARK  2 active torsions:
REMARK  status: ('A' for Active; 'I' for Inactive)
REMARK    1  A    between atoms: C7_8  and  O2_9 
REMARK    2  A    between atoms: N1_19  and  O4_21 
ROOT
HETATM    1  C1  UNL     1      11.954   2.633  20.874  1.00  0.00     0.048 C 
HETATM    2  C2  UNL     1      13.243   2.443  20.102  1.00  0.00     0.079 C 
HETATM    3  C3  UNL     1      14.388   2.952  20.938  1.00  0.00     0.048 C 
HETATM    4  C4  UNL     1      13.435   1.036  19.635  1.00  0.00     0.209 C 
HETATM    5  O1  UNL     1      13.003   1.094  18.292  1.00  0.00    -0.351 OA
HETATM    6  C5  UNL     1      13.483   2.316  17.897  1.00  0.00     0.177 C 
HETATM    7  C6  UNL     1      14.948   2.262  17.486  1.00  0.00     0.103 C 
HETATM    8  C7  UNL     1      14.968   2.141  15.980  1.00  0.00     0.153 C 
HETATM    9  C8  UNL     1      13.502   1.976  15.587  1.00  0.00     0.164 C 
HETATM   10  O3  UNL     1      13.346   2.394  14.322  1.00  0.00    -0.377 OA
HETATM   11  C9  UNL     1      12.110   2.336  13.753  1.00  0.00     0.127 C 
HETATM   12  C10 UNL     1      11.524   0.951  13.647  1.00  0.00     0.033 C 
HETATM   13  C11 UNL     1      10.039   0.912  13.576  1.00  0.00     0.018 C 
HETATM   14  C12 UNL     1       9.382   2.081  12.943  1.00  0.00     0.004 C 
HETATM   15  C13 UNL     1       9.230   1.876  11.429  1.00  0.00     0.022 C 
HETATM   16  C14 UNL     1       7.999   2.183  13.472  1.00  0.00     0.019 C 
HETATM   17  N1  UNL     1       7.204   1.184  13.614  1.00  0.00    -0.277 N 
ATOM     18  H1  UNL     1       7.542   0.260  13.346  1.00  0.00     0.193 HD
HETATM   19  C15 UNL     1       7.665   3.584  13.813  1.00  0.00     0.056 C 
HETATM   20  C16 UNL     1       8.923   4.369  13.604  1.00  0.00     0.016 C 
HETATM   21  C17 UNL     1      10.004   3.401  13.177  1.00  0.00    -0.025 C 
HETATM   22  C18 UNL     1      10.623   3.973  11.902  1.00  0.00     0.016 C 
HETATM   23  C19 UNL     1      11.133   3.369  14.218  1.00  0.00     0.024 C 
HETATM   24  C20 UNL     1      10.619   3.289  15.572  1.00  0.00     0.009 C 
HETATM   25  C21 UNL     1      11.375   2.539  16.590  1.00  0.00     0.018 C 
HETATM   26  C22 UNL     1      12.841   2.843  16.637  1.00  0.00     0.041 C 
HETATM   27  C23 UNL     1      13.170   4.290  16.516  1.00  0.00     0.024 C 
HETATM   28  O5  UNL     1      13.244   3.207  18.914  1.00  0.00    -0.342 OA
ENDROOT
BRANCH   8  29
HETATM   29  O2  UNL     1      15.543   3.222  15.351  1.00  0.00    -0.393 OA
ATOM     30  H2  UNL     1      16.449   3.078  15.104  1.00  0.00     0.210 HD
ENDBRANCH   8  29
BRANCH  17  31
HETATM   31  O4  UNL     1       5.935   1.286  14.100  1.00  0.00    -0.290 OA
ATOM     32  H4  UNL     1       5.727   1.389  15.021  1.00  0.00     0.244 HD
ENDBRANCH  17  31
TORSDOF 2
ENDMDL
