MODEL 1
REMARK VINA RESULT: -8.858627698      0.000      0.000
REMARK  3 active torsions:
REMARK  status: ('A' for Active; 'I' for Inactive)
REMARK    1  A    between atoms: C7_7  and  O1_8 
REMARK    2  A    between atoms: C11_13  and  O2_14 
REMARK    3  A    between atoms: C18_24  and  O5_25 
ROOT
HETATM    1  C1  UNL     1      -8.860  -4.881  -7.333  1.00  0.00     0.039 C 
HETATM    2  C2  UNL     1     -10.126  -4.637  -8.169  1.00  0.00     0.118 C 
HETATM    3  C3  UNL     1      -9.836  -4.549  -9.619  1.00  0.00     0.032 C 
HETATM    4  C4  UNL     1     -10.885  -4.953 -10.563  1.00  0.00     0.008 C 
HETATM    5  C5  UNL     1     -12.173  -5.538 -10.122  1.00  0.00     0.004 C 
HETATM    6  C6  UNL     1     -13.145  -4.765  -9.280  1.00  0.00     0.073 C 
HETATM    7  C7  UNL     1     -14.096  -4.171 -10.250  1.00  0.00     0.172 C 
HETATM    8  C8  UNL     1     -14.952  -5.300 -10.704  1.00  0.00     0.074 C 
HETATM    9  C9  UNL     1     -14.132  -5.840 -11.822  1.00  0.00     0.005 C 
HETATM   10  C10 UNL     1     -14.319  -4.832 -12.899  1.00  0.00     0.071 C 
HETATM   11  C11 UNL     1     -15.247  -3.693 -12.605  1.00  0.00     0.065 C 
HETATM   12  C12 UNL     1     -15.347  -2.875 -11.462  1.00  0.00     0.170 C 
HETATM   13  O3  UNL     1     -14.966  -3.191 -10.133  1.00  0.00    -0.323 OA
HETATM   14  C13 UNL     1     -12.824  -6.240 -11.302  1.00  0.00    -0.039 C 
HETATM   15  C14 UNL     1     -11.916  -6.385 -12.512  1.00  0.00     0.015 C 
HETATM   16  C15 UNL     1     -12.995  -7.719 -10.846  1.00  0.00     0.015 C 
HETATM   17  C16 UNL     1     -12.874  -3.879  -8.246  1.00  0.00     0.088 A 
HETATM   18  C17 UNL     1     -12.835  -2.426  -8.162  1.00  0.00     0.178 A 
HETATM   19  O4  UNL     1     -14.058  -2.286  -7.549  1.00  0.00    -0.345 OA
HETATM   20  C18 UNL     1     -14.068  -3.622  -7.280  1.00  0.00     0.176 C 
HETATM   21  C19 UNL     1     -13.474  -4.043  -5.951  1.00  0.00     0.072 C 
HETATM   22  C20 UNL     1     -12.110  -3.452  -5.982  1.00  0.00     0.047 C 
HETATM   23  C21 UNL     1     -11.832  -3.428  -7.497  1.00  0.00     0.104 A 
HETATM   24  O6  UNL     1     -10.542  -3.338  -7.787  1.00  0.00    -0.371 OA
ENDROOT
BRANCH   7  25
HETATM   25  O1  UNL     1     -13.190  -3.580 -11.122  1.00  0.00    -0.365 OA
ATOM     26  H1  UNL     1     -13.649  -2.766 -11.294  1.00  0.00     0.213 HD
ENDBRANCH   7  25
BRANCH  20  27
HETATM   27  O5  UNL     1     -15.189  -4.361  -7.531  1.00  0.00    -0.364 OA
ATOM     28  H5  UNL     1     -15.090  -5.035  -8.194  1.00  0.00     0.213 HD
ENDBRANCH  20  27
BRANCH  11  29
HETATM   29  O2  UNL     1     -16.555  -4.071 -13.063  1.00  0.00    -0.363 OA
ATOM     30  H2  UNL     1     -16.985  -3.286 -13.382  1.00  0.00     0.217 HD
ENDBRANCH  11  29
TORSDOF 3
ENDMDL
MODEL 2
REMARK VINA RESULT: -8.446920864      1.010      1.072
REMARK  3 active torsions:
REMARK  status: ('A' for Active; 'I' for Inactive)
REMARK    1  A    between atoms: C7_7  and  O1_8 
REMARK    2  A    between atoms: C11_13  and  O2_14 
REMARK    3  A    between atoms: C18_24  and  O5_25 
ROOT
HETATM    1  C1  UNL     1      -7.651  -4.500  -7.730  1.00  0.00     0.039 C 
HETATM    2  C2  UNL     1      -9.014  -4.447  -8.437  1.00  0.00     0.118 C 
HETATM    3  C3  UNL     1      -8.885  -4.458  -9.914  1.00  0.00     0.032 C 
HETATM    4  C4  UNL     1      -9.979  -5.037 -10.703  1.00  0.00     0.008 C 
HETATM    5  C5  UNL     1     -11.148  -5.700 -10.079  1.00  0.00     0.004 C 
HETATM    6  C6  UNL     1     -12.103  -4.952  -9.196  1.00  0.00     0.073 C 
HETATM    7  C7  UNL     1     -13.204  -4.535 -10.096  1.00  0.00     0.172 C 
HETATM    8  C8  UNL     1     -13.983  -5.773 -10.367  1.00  0.00     0.074 C 
HETATM    9  C9  UNL     1     -13.231  -6.328 -11.525  1.00  0.00     0.005 C 
HETATM   10  C10 UNL     1     -13.628  -5.438 -12.647  1.00  0.00     0.071 C 
HETATM   11  C11 UNL     1     -14.633  -4.369 -12.339  1.00  0.00     0.065 C 
HETATM   12  C12 UNL     1     -14.698  -3.470 -11.257  1.00  0.00     0.170 C 
HETATM   13  O3  UNL     1     -14.152  -3.634  -9.958  1.00  0.00    -0.323 OA
HETATM   14  C13 UNL     1     -11.842  -6.558 -11.124  1.00  0.00    -0.039 C 
HETATM   15  C14 UNL     1     -11.053  -6.721 -12.413  1.00  0.00     0.015 C 
HETATM   16  C15 UNL     1     -11.814  -8.002 -10.542  1.00  0.00     0.015 C 
HETATM   17  C16 UNL     1     -11.819  -3.959  -8.268  1.00  0.00     0.088 A 
HETATM   18  C17 UNL     1     -11.920  -2.506  -8.298  1.00  0.00     0.178 A 
HETATM   19  O4  UNL     1     -13.082  -2.430  -7.566  1.00  0.00    -0.345 OA
HETATM   20  C18 UNL     1     -12.928  -3.733  -7.198  1.00  0.00     0.176 C 
HETATM   21  C19 UNL     1     -12.160  -3.981  -5.915  1.00  0.00     0.072 C 
HETATM   22  C20 UNL     1     -10.874  -3.271  -6.141  1.00  0.00     0.047 C 
HETATM   23  C21 UNL     1     -10.757  -3.350  -7.674  1.00  0.00     0.104 A 
HETATM   24  O6  UNL     1      -9.520  -3.165  -8.111  1.00  0.00    -0.371 OA
ENDROOT
BRANCH   7  25
HETATM   25  O1  UNL     1     -12.457  -3.938 -11.106  1.00  0.00    -0.365 OA
ATOM     26  H1  UNL     1     -12.715  -4.489 -11.835  1.00  0.00     0.213 HD
ENDBRANCH   7  25
BRANCH  20  27
HETATM   27  O5  UNL     1     -13.987  -4.592  -7.267  1.00  0.00    -0.364 OA
ATOM     28  H5  UNL     1     -14.110  -5.146  -6.505  1.00  0.00     0.213 HD
ENDBRANCH  20  27
BRANCH  11  29
HETATM   29  O2  UNL     1     -15.935  -4.906 -12.621  1.00  0.00    -0.363 OA
ATOM     30  H2  UNL     1     -16.568  -4.395 -12.129  1.00  0.00     0.217 HD
ENDBRANCH  11  29
TORSDOF 3
ENDMDL
MODEL 3
REMARK VINA RESULT: -7.847996404      2.674      4.895
REMARK  3 active torsions:
REMARK  status: ('A' for Active; 'I' for Inactive)
REMARK    1  A    between atoms: C7_7  and  O1_8 
REMARK    2  A    between atoms: C11_13  and  O2_14 
REMARK    3  A    between atoms: C18_24  and  O5_25 
ROOT
HETATM    1  C1  UNL     1      -7.123  -0.684  -7.270  1.00  0.00     0.039 C 
HETATM    2  C2  UNL     1      -8.530  -1.285  -7.410  1.00  0.00     0.118 C 
HETATM    3  C3  UNL     1      -9.526  -0.596  -6.556  1.00  0.00     0.032 C 
HETATM    4  C4  UNL     1     -10.925  -0.575  -6.999  1.00  0.00     0.008 C 
HETATM    5  C5  UNL     1     -11.356  -1.122  -8.308  1.00  0.00     0.004 C 
HETATM    6  C6  UNL     1     -11.210  -2.577  -8.643  1.00  0.00     0.073 C 
HETATM    7  C7  UNL     1     -12.522  -3.177  -8.304  1.00  0.00     0.172 C 
HETATM    8  C8  UNL     1     -13.449  -2.732  -9.379  1.00  0.00     0.074 C 
HETATM    9  C9  UNL     1     -13.896  -1.420  -8.837  1.00  0.00     0.005 C 
HETATM   10  C10 UNL     1     -14.824  -1.803  -7.741  1.00  0.00     0.071 C 
HETATM   11  C11 UNL     1     -15.076  -3.268  -7.550  1.00  0.00     0.065 C 
HETATM   12  C12 UNL     1     -14.172  -4.348  -7.514  1.00  0.00     0.170 C 
HETATM   13  O3  UNL     1     -12.890  -4.426  -8.118  1.00  0.00    -0.323 OA
HETATM   14  C13 UNL     1     -12.727  -0.561  -8.648  1.00  0.00    -0.039 C 
HETATM   15  C14 UNL     1     -13.177   0.567  -7.734  1.00  0.00     0.015 C 
HETATM   16  C15 UNL     1     -12.534   0.179 -10.004  1.00  0.00     0.015 C 
HETATM   17  C16 UNL     1     -10.171  -3.436  -8.311  1.00  0.00     0.088 A 
HETATM   18  C17 UNL     1     -10.007  -4.452  -7.280  1.00  0.00     0.178 A 
HETATM   19  O4  UNL     1     -10.226  -5.529  -8.107  1.00  0.00    -0.345 OA
HETATM   20  C18 UNL     1     -10.081  -4.717  -9.192  1.00  0.00     0.176 C 
HETATM   21  C19 UNL     1      -8.680  -4.595  -9.756  1.00  0.00     0.072 C 
HETATM   22  C20 UNL     1      -7.873  -4.169  -8.582  1.00  0.00     0.047 C 
HETATM   23  C21 UNL     1      -8.931  -3.418  -7.753  1.00  0.00     0.104 A 
HETATM   24  O6  UNL     1      -8.402  -2.587  -6.866  1.00  0.00    -0.371 OA
ENDROOT
BRANCH   7  25
HETATM   25  O1  UNL     1     -12.664  -2.694  -7.008  1.00  0.00    -0.365 OA
ATOM     26  H1  UNL     1     -13.311  -2.016  -7.165  1.00  0.00     0.213 HD
ENDBRANCH   7  25
BRANCH  20  27
HETATM   27  O5  UNL     1     -10.980  -4.782 -10.218  1.00  0.00    -0.364 OA
ATOM     28  H5  UNL     1     -10.707  -5.306 -10.963  1.00  0.00     0.213 HD
ENDBRANCH  20  27
BRANCH  11  29
HETATM   29  O2  UNL     1     -16.234  -3.613  -8.326  1.00  0.00    -0.363 OA
ATOM     30  H2  UNL     1     -16.079  -4.470  -8.707  1.00  0.00     0.217 HD
ENDBRANCH  11  29
TORSDOF 3
ENDMDL
MODEL 4
REMARK VINA RESULT: -7.837977970      1.419      5.100
REMARK  3 active torsions:
REMARK  status: ('A' for Active; 'I' for Inactive)
REMARK    1  A    between atoms: C7_7  and  O1_8 
REMARK    2  A    between atoms: C11_13  and  O2_14 
REMARK    3  A    between atoms: C18_24  and  O5_25 
ROOT
HETATM    1  C1  UNL     1     -11.027  -6.669 -13.066  1.00  0.00     0.039 C 
HETATM    2  C2  UNL     1     -11.415  -5.999 -11.738  1.00  0.00     0.118 C 
HETATM    3  C3  UNL     1     -10.610  -6.498 -10.598  1.00  0.00     0.032 C 
HETATM    4  C4  UNL     1     -10.376  -5.595  -9.465  1.00  0.00     0.008 C 
HETATM    5  C5  UNL     1     -10.823  -4.182  -9.466  1.00  0.00     0.004 C 
HETATM    6  C6  UNL     1     -12.276  -3.812  -9.537  1.00  0.00     0.073 C 
HETATM    7  C7  UNL     1     -12.688  -3.624  -8.126  1.00  0.00     0.172 C 
HETATM    8  C8  UNL     1     -12.089  -2.328  -7.709  1.00  0.00     0.074 C 
HETATM    9  C9  UNL     1     -10.739  -2.775  -7.267  1.00  0.00     0.005 C 
HETATM   10  C10 UNL     1     -11.010  -3.443  -5.968  1.00  0.00     0.071 C 
HETATM   11  C11 UNL     1     -12.428  -3.425  -5.481  1.00  0.00     0.065 C 
HETATM   12  C12 UNL     1     -13.627  -3.696  -6.169  1.00  0.00     0.170 C 
HETATM   13  O3  UNL     1     -13.875  -3.576  -7.560  1.00  0.00    -0.323 OA
HETATM   14  C13 UNL     1     -10.063  -3.425  -8.390  1.00  0.00    -0.039 C 
HETATM   15  C14 UNL     1      -8.904  -4.204  -7.788  1.00  0.00     0.015 C 
HETATM   16  C15 UNL     1      -9.326  -2.281  -9.147  1.00  0.00     0.015 C 
HETATM   17  C16 UNL     1     -13.284  -4.423 -10.270  1.00  0.00     0.088 A 
HETATM   18  C17 UNL     1     -14.338  -5.368  -9.925  1.00  0.00     0.178 A 
HETATM   19  O4  UNL     1     -15.352  -4.440  -9.883  1.00  0.00    -0.345 OA
HETATM   20  C18 UNL     1     -14.543  -3.537 -10.507  1.00  0.00     0.176 C 
HETATM   21  C19 UNL     1     -14.611  -3.512 -12.021  1.00  0.00     0.072 C 
HETATM   22  C20 UNL     1     -14.334  -4.922 -12.401  1.00  0.00     0.047 C 
HETATM   23  C21 UNL     1     -13.458  -5.381 -11.220  1.00  0.00     0.104 A 
HETATM   24  O6  UNL     1     -12.734  -6.456 -11.497  1.00  0.00    -0.371 OA
ENDROOT
BRANCH   7  25
HETATM   25  O1  UNL     1     -12.221  -4.820  -7.592  1.00  0.00    -0.365 OA
ATOM     26  H1  UNL     1     -11.850  -5.205  -8.377  1.00  0.00     0.213 HD
ENDBRANCH   7  25
BRANCH  20  27
HETATM   27  O5  UNL     1     -14.453  -2.260 -10.035  1.00  0.00    -0.364 OA
ATOM     28  H5  UNL     1     -15.062  -1.641 -10.421  1.00  0.00     0.213 HD
ENDBRANCH  20  27
BRANCH  11  29
HETATM   29  O2  UNL     1     -12.583  -2.269  -4.644  1.00  0.00    -0.363 OA
ATOM     30  H2  UNL     1     -13.189  -1.679  -5.079  1.00  0.00     0.217 HD
ENDBRANCH  11  29
TORSDOF 3
ENDMDL
MODEL 5
REMARK VINA RESULT: -7.755177907      2.200      4.255
REMARK  3 active torsions:
REMARK  status: ('A' for Active; 'I' for Inactive)
REMARK    1  A    between atoms: C7_7  and  O1_8 
REMARK    2  A    between atoms: C11_13  and  O2_14 
REMARK    3  A    between atoms: C18_24  and  O5_25 
ROOT
HETATM    1  C1  UNL     1     -13.765  -2.238  -4.673  1.00  0.00     0.039 C 
HETATM    2  C2  UNL     1     -13.175  -2.932  -5.910  1.00  0.00     0.118 C 
HETATM    3  C3  UNL     1     -14.071  -3.980  -6.451  1.00  0.00     0.032 C 
HETATM    4  C4  UNL     1     -14.009  -4.274  -7.888  1.00  0.00     0.008 C 
HETATM    5  C5  UNL     1     -13.166  -3.496  -8.825  1.00  0.00     0.004 C 
HETATM    6  C6  UNL     1     -11.671  -3.467  -8.706  1.00  0.00     0.073 C 
HETATM    7  C7  UNL     1     -11.197  -4.522  -9.634  1.00  0.00     0.172 C 
HETATM    8  C8  UNL     1     -11.381  -3.958 -10.998  1.00  0.00     0.074 C 
HETATM    9  C9  UNL     1     -12.794  -4.339 -11.269  1.00  0.00     0.005 C 
HETATM   10  C10 UNL     1     -12.710  -5.800 -11.527  1.00  0.00     0.071 C 
HETATM   11  C11 UNL     1     -11.342  -6.412 -11.507  1.00  0.00     0.065 C 
HETATM   12  C12 UNL     1     -10.287  -6.248 -10.587  1.00  0.00     0.170 C 
HETATM   13  O3  UNL     1     -10.039  -5.137  -9.741  1.00  0.00    -0.323 OA
HETATM   14  C13 UNL     1     -13.652  -3.743 -10.243  1.00  0.00    -0.039 C 
HETATM   15  C14 UNL     1     -14.978  -4.482 -10.323  1.00  0.00     0.015 C 
HETATM   16  C15 UNL     1     -14.032  -2.335 -10.789  1.00  0.00     0.015 C 
HETATM   17  C16 UNL     1     -10.899  -3.441  -7.552  1.00  0.00     0.088 A 
HETATM   18  C17 UNL     1     -10.165  -4.463  -6.818  1.00  0.00     0.178 A 
HETATM   19  O4  UNL     1      -8.922  -4.110  -7.288  1.00  0.00    -0.345 OA
HETATM   20  C18 UNL     1      -9.440  -2.938  -7.757  1.00  0.00     0.176 C 
HETATM   21  C19 UNL     1      -9.394  -1.758  -6.807  1.00  0.00     0.072 C 
HETATM   22  C20 UNL     1     -10.080  -2.268  -5.591  1.00  0.00     0.047 C 
HETATM   23  C21 UNL     1     -11.031  -3.312  -6.204  1.00  0.00     0.104 A 
HETATM   24  O6  UNL     1     -12.045  -3.623  -5.408  1.00  0.00    -0.371 OA
ENDROOT
BRANCH   7  25
HETATM   25  O1  UNL     1     -11.986  -5.580  -9.197  1.00  0.00    -0.365 OA
ATOM     26  H1  UNL     1     -12.173  -5.279  -8.316  1.00  0.00     0.213 HD
ENDBRANCH   7  25
BRANCH  20  27
HETATM   27  O5  UNL     1      -9.141  -2.517  -9.021  1.00  0.00    -0.364 OA
ATOM     28  H5  UNL     1      -9.886  -2.428  -9.604  1.00  0.00     0.213 HD
ENDBRANCH  20  27
BRANCH  11  29
HETATM   29  O2  UNL     1     -10.838  -6.390 -12.852  1.00  0.00    -0.363 OA
ATOM     30  H2  UNL     1     -11.553  -6.633 -13.429  1.00  0.00     0.217 HD
ENDBRANCH  11  29
TORSDOF 3
ENDMDL
