MODEL 1
REMARK VINA RESULT: -8.323503185      0.000      0.000
REMARK  4 active torsions:
REMARK  status: ('A' for Active; 'I' for Inactive)
REMARK    1  A    between atoms: C2_2  and  C4_4 
REMARK    2  A    between atoms: C8_9  and  O2_10 
REMARK    3  A    between atoms: C10_14  and  O4_15 
REMARK    4  A    between atoms: C16_22  and  O5_23 
ROOT
HETATM    1  C4  UNL     1     -11.642  -4.545 -11.174  1.00  0.00     0.133 C 
HETATM    2  O1  UNL     1     -12.929  -5.030 -11.632  1.00  0.00    -0.379 OA
HETATM    3  C5  UNL     1     -13.593  -5.515 -10.554  1.00  0.00     0.132 A 
HETATM    4  C6  UNL     1     -14.906  -4.882 -10.072  1.00  0.00     0.032 A 
HETATM    5  C7  UNL     1     -14.922  -3.425 -10.032  1.00  0.00     0.034 A 
HETATM    6  C8  UNL     1     -15.689  -2.347  -9.438  1.00  0.00     0.153 C 
HETATM    7  C9  UNL     1     -14.724  -1.172  -9.163  1.00  0.00     0.162 C 
HETATM    8  O3  UNL     1     -13.584  -1.485  -8.555  1.00  0.00    -0.343 OA
HETATM    9  C10 UNL     1     -12.362  -1.466  -9.046  1.00  0.00     0.198 C 
HETATM   10  C11 UNL     1     -12.136  -0.730 -10.337  1.00  0.00     0.073 C 
HETATM   11  C12 UNL     1     -13.343  -0.405 -11.124  1.00  0.00     0.017 C 
HETATM   12  C13 UNL     1     -14.608  -0.211 -10.309  1.00  0.00    -0.019 C 
HETATM   13  C14 UNL     1     -14.484   1.216  -9.734  1.00  0.00     0.017 C 
HETATM   14  C15 UNL     1     -15.751  -0.167 -11.255  1.00  0.00     0.017 C 
HETATM   15  C16 UNL     1     -11.652  -2.857  -9.118  1.00  0.00     0.138 C 
HETATM   16  C17 UNL     1     -11.823  -3.359  -7.709  1.00  0.00     0.013 C 
HETATM   17  C18 UNL     1     -12.853  -3.933  -7.097  1.00  0.00    -0.027 C 
HETATM   18  C19 UNL     1     -14.234  -4.281  -7.633  1.00  0.00     0.038 C 
HETATM   19  C20 UNL     1     -14.200  -4.152  -9.064  1.00  0.00    -0.018 A 
HETATM   20  C21 UNL     1     -12.931  -4.823  -9.446  1.00  0.00     0.035 A 
HETATM   21  C22 UNL     1     -12.155  -3.688 -10.137  1.00  0.00     0.066 C 
ENDROOT
BRANCH   1  22
HETATM   22  C2  UNL     1     -10.890  -5.766 -10.859  1.00  0.00     0.007 C 
HETATM   23  C1  UNL     1      -9.542  -5.592 -10.256  1.00  0.00     0.012 C 
HETATM   24  C3  UNL     1     -10.676  -6.515 -12.188  1.00  0.00     0.012 C 
ENDBRANCH   1  22
BRANCH  15  25
HETATM   25  O5  UNL     1     -10.285  -2.517  -9.246  1.00  0.00    -0.380 OA
ATOM     26  H5  UNL     1      -9.868  -3.354  -9.416  1.00  0.00     0.211 HD
ENDBRANCH  15  25
BRANCH   9  27
HETATM   27  O4  UNL     1     -11.548  -0.809  -8.084  1.00  0.00    -0.363 OA
ATOM     28  H4  UNL     1     -10.646  -0.987  -8.324  1.00  0.00     0.213 HD
ENDBRANCH   9  27
BRANCH   6  29
HETATM   29  O2  UNL     1     -16.516  -2.622  -8.365  1.00  0.00    -0.393 OA
ATOM     30  H2  UNL     1     -17.454  -2.510  -8.464  1.00  0.00     0.210 HD
ENDBRANCH   6  29
TORSDOF 4
ENDMDL
MODEL 2
REMARK VINA RESULT: -7.790563565      1.526      5.410
REMARK  4 active torsions:
REMARK  status: ('A' for Active; 'I' for Inactive)
REMARK    1  A    between atoms: C2_2  and  C4_4 
REMARK    2  A    between atoms: C8_9  and  O2_10 
REMARK    3  A    between atoms: C10_14  and  O4_15 
REMARK    4  A    between atoms: C16_22  and  O5_23 
ROOT
HETATM    1  C4  UNL     1     -13.523  -1.361 -11.011  1.00  0.00     0.133 C 
HETATM    2  O1  UNL     1     -12.106  -1.083 -10.877  1.00  0.00    -0.379 OA
HETATM    3  C5  UNL     1     -11.783  -1.223  -9.568  1.00  0.00     0.132 A 
HETATM    4  C6  UNL     1     -10.796  -2.302  -9.099  1.00  0.00     0.032 A 
HETATM    5  C7  UNL     1     -10.979  -3.620  -9.693  1.00  0.00     0.034 A 
HETATM    6  C8  UNL     1     -10.596  -4.998  -9.457  1.00  0.00     0.153 C 
HETATM    7  C9  UNL     1     -11.738  -5.904  -9.970  1.00  0.00     0.162 C 
HETATM    8  O3  UNL     1     -12.966  -5.563  -9.591  1.00  0.00    -0.343 OA
HETATM    9  C10 UNL     1     -13.947  -5.085 -10.329  1.00  0.00     0.198 C 
HETATM   10  C11 UNL     1     -13.823  -5.201 -11.822  1.00  0.00     0.073 C 
HETATM   11  C12 UNL     1     -12.474  -5.502 -12.344  1.00  0.00     0.017 C 
HETATM   12  C13 UNL     1     -11.587  -6.302 -11.409  1.00  0.00    -0.019 C 
HETATM   13  C14 UNL     1     -12.075  -7.758 -11.562  1.00  0.00     0.017 C 
HETATM   14  C15 UNL     1     -10.210  -6.277 -11.962  1.00  0.00     0.017 C 
HETATM   15  C16 UNL     1     -14.411  -3.638  -9.963  1.00  0.00     0.138 C 
HETATM   16  C17 UNL     1     -14.655  -3.762  -8.483  1.00  0.00     0.013 C 
HETATM   17  C18 UNL     1     -13.824  -3.741  -7.447  1.00  0.00    -0.027 C 
HETATM   18  C19 UNL     1     -12.310  -3.581  -7.416  1.00  0.00     0.038 C 
HETATM   19  C20 UNL     1     -11.884  -3.151  -8.719  1.00  0.00    -0.018 A 
HETATM   20  C21 UNL     1     -12.858  -2.088  -9.074  1.00  0.00     0.035 A 
HETATM   21  C22 UNL     1     -13.496  -2.643 -10.359  1.00  0.00     0.066 C 
ENDROOT
BRANCH   1  22
HETATM   22  C2  UNL     1     -14.176  -0.198 -10.395  1.00  0.00     0.007 C 
HETATM   23  C1  UNL     1     -15.660  -0.221 -10.315  1.00  0.00     0.012 C 
HETATM   24  C3  UNL     1     -13.807   1.028 -11.250  1.00  0.00     0.012 C 
ENDBRANCH   1  22
BRANCH  15  25
HETATM   25  O5  UNL     1     -15.689  -3.546 -10.561  1.00  0.00    -0.380 OA
ATOM     26  H5  UNL     1     -16.281  -3.713  -9.836  1.00  0.00     0.211 HD
ENDBRANCH  15  25
BRANCH   9  27
HETATM   27  O4  UNL     1     -15.111  -5.826  -9.984  1.00  0.00    -0.363 OA
ATOM     28  H4  UNL     1     -14.882  -6.353  -9.227  1.00  0.00     0.213 HD
ENDBRANCH   9  27
BRANCH   6  29
HETATM   29  O2  UNL     1     -10.145  -5.365  -8.203  1.00  0.00    -0.393 OA
ATOM     30  H2  UNL     1      -9.870  -4.689  -7.594  1.00  0.00     0.210 HD
ENDBRANCH   6  29
TORSDOF 4
ENDMDL
MODEL 3
REMARK VINA RESULT: -7.760307637      1.637      4.079
REMARK  4 active torsions:
REMARK  status: ('A' for Active; 'I' for Inactive)
REMARK    1  A    between atoms: C2_2  and  C4_4 
REMARK    2  A    between atoms: C8_9  and  O2_10 
REMARK    3  A    between atoms: C10_14  and  O4_15 
REMARK    4  A    between atoms: C16_22  and  O5_23 
ROOT
HETATM    1  C4  UNL     1     -11.968  -5.121 -10.013  1.00  0.00     0.133 C 
HETATM    2  O1  UNL     1     -10.819  -4.263  -9.799  1.00  0.00    -0.379 OA
HETATM    3  C5  UNL     1     -11.025  -3.120 -10.499  1.00  0.00     0.132 A 
HETATM    4  C6  UNL     1     -11.159  -1.763  -9.793  1.00  0.00     0.032 A 
HETATM    5  C7  UNL     1     -11.999  -1.756  -8.602  1.00  0.00     0.034 A 
HETATM    6  C8  UNL     1     -12.696  -0.812  -7.750  1.00  0.00     0.153 C 
HETATM    7  C9  UNL     1     -13.965  -1.509  -7.207  1.00  0.00     0.162 C 
HETATM    8  O3  UNL     1     -14.707  -2.148  -8.105  1.00  0.00    -0.343 OA
HETATM    9  C10 UNL     1     -14.894  -3.445  -8.239  1.00  0.00     0.198 C 
HETATM   10  C11 UNL     1     -14.492  -4.334  -7.097  1.00  0.00     0.073 C 
HETATM   11  C12 UNL     1     -13.599  -3.732  -6.083  1.00  0.00     0.017 C 
HETATM   12  C13 UNL     1     -13.743  -2.232  -5.911  1.00  0.00    -0.019 C 
HETATM   13  C14 UNL     1     -15.005  -2.060  -5.039  1.00  0.00     0.017 C 
HETATM   14  C15 UNL     1     -12.609  -1.764  -5.077  1.00  0.00     0.017 C 
HETATM   15  C16 UNL     1     -14.366  -4.058  -9.576  1.00  0.00     0.138 C 
HETATM   16  C17 UNL     1     -15.008  -3.158 -10.598  1.00  0.00     0.013 C 
HETATM   17  C18 UNL     1     -14.678  -1.949 -11.040  1.00  0.00    -0.027 C 
HETATM   18  C19 UNL     1     -13.510  -1.054 -10.646  1.00  0.00     0.038 C 
HETATM   19  C20 UNL     1     -12.586  -1.843  -9.881  1.00  0.00    -0.018 A 
HETATM   20  C21 UNL     1     -12.483  -3.109 -10.651  1.00  0.00     0.035 A 
HETATM   21  C22 UNL     1     -12.963  -4.154  -9.630  1.00  0.00     0.066 C 
ENDROOT
BRANCH   1  22
HETATM   22  C2  UNL     1     -11.827  -5.569 -11.405  1.00  0.00     0.007 C 
HETATM   23  C1  UNL     1     -12.830  -6.545 -11.904  1.00  0.00     0.012 C 
HETATM   24  C3  UNL     1     -10.456  -6.263 -11.515  1.00  0.00     0.012 C 
ENDBRANCH   1  22
BRANCH  15  25
HETATM   25  O5  UNL     1     -15.053  -5.292  -9.661  1.00  0.00    -0.380 OA
ATOM     26  H5  UNL     1     -15.268  -5.483  -8.755  1.00  0.00     0.211 HD
ENDBRANCH  15  25
BRANCH   9  27
HETATM   27  O4  UNL     1     -16.293  -3.638  -8.399  1.00  0.00    -0.363 OA
ATOM     28  H4  UNL     1     -16.700  -2.789  -8.275  1.00  0.00     0.213 HD
ENDBRANCH   9  27
BRANCH   6  29
HETATM   29  O2  UNL     1     -12.947   0.462  -8.223  1.00  0.00    -0.393 OA
ATOM     30  H2  UNL     1     -12.638   1.209  -7.723  1.00  0.00     0.210 HD
ENDBRANCH   6  29
TORSDOF 4
ENDMDL
MODEL 4
REMARK VINA RESULT: -7.503359095      1.524      4.341
REMARK  4 active torsions:
REMARK  status: ('A' for Active; 'I' for Inactive)
REMARK    1  A    between atoms: C2_2  and  C4_4 
REMARK    2  A    between atoms: C8_9  and  O2_10 
REMARK    3  A    between atoms: C10_14  and  O4_15 
REMARK    4  A    between atoms: C16_22  and  O5_23 
ROOT
HETATM    1  C4  UNL     1     -13.115  -5.642 -10.096  1.00  0.00     0.133 C 
HETATM    2  O1  UNL     1     -11.669  -5.626  -9.987  1.00  0.00    -0.379 OA
HETATM    3  C5  UNL     1     -11.222  -4.512 -10.616  1.00  0.00     0.132 A 
HETATM    4  C6  UNL     1     -10.488  -3.402  -9.850  1.00  0.00     0.032 A 
HETATM    5  C7  UNL     1     -11.076  -3.028  -8.570  1.00  0.00     0.034 A 
HETATM    6  C8  UNL     1     -11.028  -1.944  -7.608  1.00  0.00     0.153 C 
HETATM    7  C9  UNL     1     -12.420  -1.832  -6.947  1.00  0.00     0.162 C 
HETATM    8  O3  UNL     1     -13.460  -1.836  -7.775  1.00  0.00    -0.343 OA
HETATM    9  C10 UNL     1     -14.377  -2.769  -7.934  1.00  0.00     0.198 C 
HETATM   10  C11 UNL     1     -14.484  -3.834  -6.879  1.00  0.00     0.073 C 
HETATM   11  C12 UNL     1     -13.337  -3.958  -5.956  1.00  0.00     0.017 C 
HETATM   12  C13 UNL     1     -12.567  -2.674  -5.713  1.00  0.00    -0.019 C 
HETATM   13  C14 UNL     1     -13.424  -1.893  -4.694  1.00  0.00     0.017 C 
HETATM   14  C15 UNL     1     -11.314  -3.028  -5.000  1.00  0.00     0.017 C 
HETATM   15  C16 UNL     1     -14.405  -3.441  -9.345  1.00  0.00     0.138 C 
HETATM   16  C17 UNL     1     -14.475  -2.241 -10.252  1.00  0.00     0.013 C 
HETATM   17  C18 UNL     1     -13.536  -1.406 -10.684  1.00  0.00    -0.027 C 
HETATM   18  C19 UNL     1     -12.041  -1.390 -10.397  1.00  0.00     0.038 C 
HETATM   19  C20 UNL     1     -11.695  -2.637  -9.774  1.00  0.00    -0.018 A 
HETATM   20  C21 UNL     1     -12.406  -3.649 -10.597  1.00  0.00     0.035 A 
HETATM   21  C22 UNL     1     -13.329  -4.321  -9.565  1.00  0.00     0.066 C 
ENDROOT
BRANCH   1  22
HETATM   22  C2  UNL     1     -13.364  -5.951 -11.511  1.00  0.00     0.007 C 
HETATM   23  C1  UNL     1     -14.780  -5.951 -11.962  1.00  0.00     0.012 C 
HETATM   24  C3  UNL     1     -12.831  -7.374 -11.758  1.00  0.00     0.012 C 
ENDBRANCH   1  22
BRANCH  15  25
HETATM   25  O5  UNL     1     -15.685  -4.039  -9.394  1.00  0.00    -0.380 OA
ATOM     26  H5  UNL     1     -15.724  -4.398 -10.273  1.00  0.00     0.211 HD
ENDBRANCH  15  25
BRANCH   9  27
HETATM   27  O4  UNL     1     -15.634  -2.105  -7.937  1.00  0.00    -0.363 OA
ATOM     28  H4  UNL     1     -16.278  -2.744  -7.656  1.00  0.00     0.213 HD
ENDBRANCH   9  27
BRANCH   6  29
HETATM   29  O2  UNL     1     -10.523  -0.719  -8.002  1.00  0.00    -0.393 OA
ATOM     30  H2  UNL     1      -9.620  -0.505  -7.800  1.00  0.00     0.210 HD
ENDBRANCH   6  29
TORSDOF 4
ENDMDL
MODEL 5
REMARK VINA RESULT: -7.407827361      1.779      4.877
REMARK  4 active torsions:
REMARK  status: ('A' for Active; 'I' for Inactive)
REMARK    1  A    between atoms: C2_2  and  C4_4 
REMARK    2  A    between atoms: C8_9  and  O2_10 
REMARK    3  A    between atoms: C10_14  and  O4_15 
REMARK    4  A    between atoms: C16_22  and  O5_23 
ROOT
HETATM    1  C4  UNL     1     -14.253  -2.760  -7.146  1.00  0.00     0.133 C 
HETATM    2  O1  UNL     1     -15.661  -2.826  -7.484  1.00  0.00    -0.379 OA
HETATM    3  C5  UNL     1     -15.919  -1.830  -8.365  1.00  0.00     0.132 A 
HETATM    4  C6  UNL     1     -16.387  -2.129  -9.797  1.00  0.00     0.032 A 
HETATM    5  C7  UNL     1     -15.672  -3.201 -10.479  1.00  0.00     0.034 A 
HETATM    6  C8  UNL     1     -15.463  -3.706 -11.821  1.00  0.00     0.153 C 
HETATM    7  C9  UNL     1     -14.042  -4.312 -11.885  1.00  0.00     0.162 C 
HETATM    8  O3  UNL     1     -13.067  -3.563 -11.382  1.00  0.00    -0.343 OA
HETATM    9  C10 UNL     1     -12.355  -3.769 -10.293  1.00  0.00     0.198 C 
HETATM   10  C11 UNL     1     -12.398  -5.138  -9.676  1.00  0.00     0.073 C 
HETATM   11  C12 UNL     1     -13.498  -6.020 -10.118  1.00  0.00     0.017 C 
HETATM   12  C13 UNL     1     -13.995  -5.768 -11.529  1.00  0.00    -0.019 C 
HETATM   13  C14 UNL     1     -12.953  -6.455 -12.436  1.00  0.00     0.017 C 
HETATM   14  C15 UNL     1     -15.253  -6.535 -11.706  1.00  0.00     0.017 C 
HETATM   15  C16 UNL     1     -12.529  -2.695  -9.171  1.00  0.00     0.138 C 
HETATM   16  C17 UNL     1     -12.278  -1.419  -9.929  1.00  0.00     0.013 C 
HETATM   17  C18 UNL     1     -13.061  -0.695 -10.722  1.00  0.00    -0.027 C 
HETATM   18  C19 UNL     1     -14.509  -0.926 -11.134  1.00  0.00     0.038 C 
HETATM   19  C20 UNL     1     -15.053  -1.949 -10.285  1.00  0.00    -0.018 A 
HETATM   20  C21 UNL     1     -14.593  -1.561  -8.927  1.00  0.00     0.035 A 
HETATM   21  C22 UNL     1     -13.763  -2.784  -8.500  1.00  0.00     0.066 C 
ENDROOT
BRANCH   1  22
HETATM   22  C2  UNL     1     -14.140  -1.557  -6.310  1.00  0.00     0.007 C 
HETATM   23  C1  UNL     1     -12.799  -1.245  -5.752  1.00  0.00     0.012 C 
HETATM   24  C3  UNL     1     -15.074  -1.763  -5.103  1.00  0.00     0.012 C 
ENDBRANCH   1  22
BRANCH  15  25
HETATM   25  O5  UNL     1     -11.390  -2.891  -8.355  1.00  0.00    -0.380 OA
ATOM     26  H5  UNL     1     -11.307  -2.063  -7.895  1.00  0.00     0.211 HD
ENDBRANCH  15  25
BRANCH   9  27
HETATM   27  O4  UNL     1     -10.996  -3.553 -10.651  1.00  0.00    -0.363 OA
ATOM     28  H4  UNL     1     -10.611  -3.035  -9.953  1.00  0.00     0.213 HD
ENDBRANCH   9  27
BRANCH   6  29
HETATM   29  O2  UNL     1     -15.744  -2.888 -12.899  1.00  0.00    -0.393 OA
ATOM     30  H2  UNL     1     -16.213  -3.248 -13.643  1.00  0.00     0.210 HD
ENDBRANCH   6  29
TORSDOF 4
ENDMDL
