MODEL 1
REMARK VINA RESULT: -8.073531821      0.000      0.000
REMARK  3 active torsions:
REMARK  status: ('A' for Active; 'I' for Inactive)
REMARK    1  A    between atoms: C3_3  and  O1_4 
REMARK    2  A    between atoms: C12_17  and  O5_18 
REMARK    3  A    between atoms: C13_20  and  O6_21 
ROOT
HETATM    1  C1  UNL     1     -10.828  -3.031  -5.711  1.00  0.00     0.016 C 
HETATM    2  C2  UNL     1     -10.609  -3.868  -6.909  1.00  0.00     0.046 C 
HETATM    3  C3  UNL     1      -9.077  -4.064  -6.874  1.00  0.00     0.124 C 
HETATM    4  C4  UNL     1      -8.802  -4.496  -8.249  1.00  0.00     0.035 C 
HETATM    5  C5  UNL     1      -9.712  -3.514  -9.012  1.00  0.00     0.042 C 
HETATM    6  C6  UNL     1     -11.064  -3.597  -8.245  1.00  0.00     0.075 C 
HETATM    7  O2  UNL     1     -11.613  -4.751  -8.793  1.00  0.00    -0.373 OA
HETATM    8  C7  UNL     1     -12.807  -4.835  -9.328  1.00  0.00     0.136 C 
HETATM    9  C8  UNL     1     -12.716  -4.692 -10.841  1.00  0.00     0.065 C 
HETATM   10  C9  UNL     1     -13.291  -3.430 -11.361  1.00  0.00     0.138 C 
HETATM   11  O3  UNL     1     -14.462  -3.622 -12.111  1.00  0.00    -0.361 OA
HETATM   12  C10 UNL     1     -15.296  -4.583 -11.689  1.00  0.00     0.339 C 
HETATM   13  O4  UNL     1     -15.301  -4.971 -10.406  1.00  0.00    -0.358 OA
HETATM   14  C11 UNL     1     -15.205  -4.015  -9.425  1.00  0.00     0.166 C 
HETATM   15  C12 UNL     1     -15.793  -2.682  -9.824  1.00  0.00     0.177 C 
HETATM   16  C13 UNL     1     -14.911  -1.761 -10.551  1.00  0.00     0.161 C 
HETATM   17  C14 UNL     1     -13.493  -2.300 -10.435  1.00  0.00     0.020 C 
HETATM   18  C15 UNL     1     -12.500  -1.184 -10.642  1.00  0.00     0.016 C 
HETATM   19  C16 UNL     1     -11.299  -1.837  -9.992  1.00  0.00     0.013 C 
HETATM   20  C17 UNL     1     -11.824  -2.416  -8.659  1.00  0.00    -0.007 C 
HETATM   21  C18 UNL     1     -11.709  -1.186  -7.758  1.00  0.00     0.019 C 
HETATM   22  C19 UNL     1     -13.278  -2.572  -8.961  1.00  0.00     0.023 C 
HETATM   23  C20 UNL     1     -13.877  -3.930  -8.740  1.00  0.00     0.016 C 
HETATM   24  C21 UNL     1     -14.086  -4.314  -7.303  1.00  0.00     0.021 C 
ENDROOT
BRANCH   3  25
HETATM   25  O1  UNL     1      -8.446  -2.870  -6.561  1.00  0.00    -0.395 OA
ATOM     26  H1  UNL     1      -8.417  -2.750  -5.619  1.00  0.00     0.210 HD
ENDBRANCH   3  25
BRANCH  16  27
HETATM   27  O6  UNL     1     -14.880  -0.495  -9.939  1.00  0.00    -0.392 OA
ATOM     28  H6  UNL     1     -14.599  -0.556  -9.034  1.00  0.00     0.210 HD
ENDBRANCH  16  27
BRANCH  15  29
HETATM   29  O5  UNL     1     -16.359  -2.037  -8.714  1.00  0.00    -0.390 OA
ATOM     30  H5  UNL     1     -15.952  -1.191  -8.572  1.00  0.00     0.210 HD
ENDBRANCH  15  29
TORSDOF 3
ENDMDL
MODEL 2
REMARK VINA RESULT: -7.741145378      1.601      5.555
REMARK  3 active torsions:
REMARK  status: ('A' for Active; 'I' for Inactive)
REMARK    1  A    between atoms: C3_3  and  O1_4 
REMARK    2  A    between atoms: C12_17  and  O5_18 
REMARK    3  A    between atoms: C13_20  and  O6_21 
ROOT
HETATM    1  C1  UNL     1     -14.241  -2.297 -11.399  1.00  0.00     0.016 C 
HETATM    2  C2  UNL     1     -14.533  -2.784 -10.035  1.00  0.00     0.046 C 
HETATM    3  C3  UNL     1     -15.965  -2.247  -9.814  1.00  0.00     0.124 C 
HETATM    4  C4  UNL     1     -16.090  -2.332  -8.355  1.00  0.00     0.035 C 
HETATM    5  C5  UNL     1     -14.702  -1.803  -7.947  1.00  0.00     0.042 C 
HETATM    6  C6  UNL     1     -13.725  -2.596  -8.861  1.00  0.00     0.075 C 
HETATM    7  O2  UNL     1     -13.626  -3.798  -8.169  1.00  0.00    -0.373 OA
HETATM    8  C7  UNL     1     -12.501  -4.363  -7.800  1.00  0.00     0.136 C 
HETATM    9  C8  UNL     1     -12.187  -4.013  -6.352  1.00  0.00     0.065 C 
HETATM   10  C9  UNL     1     -11.023  -3.110  -6.192  1.00  0.00     0.138 C 
HETATM   11  O3  UNL     1      -9.918  -3.734  -5.589  1.00  0.00    -0.361 OA
HETATM   12  C10 UNL     1      -9.698  -5.015  -5.915  1.00  0.00     0.339 C 
HETATM   13  O4  UNL     1     -10.144  -5.513  -7.077  1.00  0.00    -0.358 OA
HETATM   14  C11 UNL     1     -10.028  -4.748  -8.212  1.00  0.00     0.166 C 
HETATM   15  C12 UNL     1      -8.849  -3.805  -8.185  1.00  0.00     0.177 C 
HETATM   16  C13 UNL     1      -9.061  -2.499  -7.549  1.00  0.00     0.161 C 
HETATM   17  C14 UNL     1     -10.559  -2.326  -7.350  1.00  0.00     0.020 C 
HETATM   18  C15 UNL     1     -10.898  -0.860  -7.242  1.00  0.00     0.016 C 
HETATM   19  C16 UNL     1     -12.373  -0.953  -7.569  1.00  0.00     0.013 C 
HETATM   20  C17 UNL     1     -12.458  -1.865  -8.812  1.00  0.00    -0.007 C 
HETATM   21  C18 UNL     1     -12.222  -0.842  -9.924  1.00  0.00     0.019 C 
HETATM   22  C19 UNL     1     -11.188  -2.642  -8.691  1.00  0.00     0.023 C 
HETATM   23  C20 UNL     1     -11.302  -4.139  -8.707  1.00  0.00     0.016 C 
HETATM   24  C21 UNL     1     -11.602  -4.746 -10.048  1.00  0.00     0.021 C 
ENDROOT
BRANCH   3  25
HETATM   25  O1  UNL     1     -16.067  -0.945 -10.276  1.00  0.00    -0.395 OA
ATOM     26  H1  UNL     1     -16.937  -0.785 -10.623  1.00  0.00     0.210 HD
ENDBRANCH   3  25
BRANCH  16  27
HETATM   27  O6  UNL     1      -8.673  -1.449  -8.399  1.00  0.00    -0.392 OA
ATOM     28  H6  UNL     1      -9.422  -1.070  -8.843  1.00  0.00     0.210 HD
ENDBRANCH  16  27
BRANCH  15  29
HETATM   29  O5  UNL     1      -8.317  -3.637  -9.472  1.00  0.00    -0.390 OA
ATOM     30  H5  UNL     1      -8.224  -2.715  -9.680  1.00  0.00     0.210 HD
ENDBRANCH  15  29
TORSDOF 3
ENDMDL
MODEL 3
REMARK VINA RESULT: -7.621207190      1.789      5.392
REMARK  3 active torsions:
REMARK  status: ('A' for Active; 'I' for Inactive)
REMARK    1  A    between atoms: C3_3  and  O1_4 
REMARK    2  A    between atoms: C12_17  and  O5_18 
REMARK    3  A    between atoms: C13_20  and  O6_21 
ROOT
HETATM    1  C1  UNL     1     -15.567  -1.401 -11.694  1.00  0.00     0.016 C 
HETATM    2  C2  UNL     1     -14.641  -2.552 -11.716  1.00  0.00     0.046 C 
HETATM    3  C3  UNL     1     -15.350  -3.501 -12.708  1.00  0.00     0.124 C 
HETATM    4  C4  UNL     1     -14.701  -4.782 -12.406  1.00  0.00     0.035 C 
HETATM    5  C5  UNL     1     -14.683  -4.703 -10.868  1.00  0.00     0.042 C 
HETATM    6  C6  UNL     1     -14.137  -3.275 -10.580  1.00  0.00     0.075 C 
HETATM    7  O2  UNL     1     -12.769  -3.476 -10.727  1.00  0.00    -0.373 OA
HETATM    8  C7  UNL     1     -11.863  -3.154  -9.836  1.00  0.00     0.136 C 
HETATM    9  C8  UNL     1     -11.502  -4.368  -8.990  1.00  0.00     0.065 C 
HETATM   10  C9  UNL     1     -11.966  -4.282  -7.586  1.00  0.00     0.138 C 
HETATM   11  O3  UNL     1     -10.916  -4.152  -6.663  1.00  0.00    -0.361 OA
HETATM   12  C10 UNL     1      -9.870  -3.404  -7.042  1.00  0.00     0.339 C 
HETATM   13  O4  UNL     1     -10.012  -2.448  -7.971  1.00  0.00    -0.358 OA
HETATM   14  C11 UNL     1     -11.129  -1.648  -7.931  1.00  0.00     0.166 C 
HETATM   15  C12 UNL     1     -11.681  -1.453  -6.539  1.00  0.00     0.177 C 
HETATM   16  C13 UNL     1     -12.618  -2.471  -6.050  1.00  0.00     0.161 C 
HETATM   17  C14 UNL     1     -13.031  -3.321  -7.241  1.00  0.00     0.020 C 
HETATM   18  C15 UNL     1     -14.356  -3.986  -6.964  1.00  0.00     0.016 C 
HETATM   19  C16 UNL     1     -14.745  -4.299  -8.393  1.00  0.00     0.013 C 
HETATM   20  C17 UNL     1     -14.473  -2.999  -9.183  1.00  0.00    -0.007 C 
HETATM   21  C18 UNL     1     -15.780  -2.245  -8.935  1.00  0.00     0.019 C 
HETATM   22  C19 UNL     1     -13.449  -2.342  -8.318  1.00  0.00     0.023 C 
HETATM   23  C20 UNL     1     -12.161  -1.937  -8.976  1.00  0.00     0.016 C 
HETATM   24  C21 UNL     1     -12.247  -0.734  -9.870  1.00  0.00     0.021 C 
ENDROOT
BRANCH   3  25
HETATM   25  O1  UNL     1     -16.712  -3.529 -12.457  1.00  0.00    -0.395 OA
ATOM     26  H1  UNL     1     -16.878  -3.796 -11.561  1.00  0.00     0.210 HD
ENDBRANCH   3  25
BRANCH  16  27
HETATM   27  O6  UNL     1     -13.807  -1.885  -5.579  1.00  0.00    -0.392 OA
ATOM     28  H6  UNL     1     -13.822  -1.852  -4.630  1.00  0.00     0.210 HD
ENDBRANCH  16  27
BRANCH  15  29
HETATM   29  O5  UNL     1     -12.239  -0.173  -6.401  1.00  0.00    -0.390 OA
ATOM     30  H5  UNL     1     -13.105  -0.140  -6.789  1.00  0.00     0.210 HD
ENDBRANCH  15  29
TORSDOF 3
ENDMDL
MODEL 4
REMARK VINA RESULT: -7.611992760      2.200      4.991
REMARK  3 active torsions:
REMARK  status: ('A' for Active; 'I' for Inactive)
REMARK    1  A    between atoms: C3_3  and  O1_4 
REMARK    2  A    between atoms: C12_17  and  O5_18 
REMARK    3  A    between atoms: C13_20  and  O6_21 
ROOT
HETATM    1  C1  UNL     1     -12.890   1.594  -9.207  1.00  0.00     0.016 C 
HETATM    2  C2  UNL     1     -13.680   0.965 -10.285  1.00  0.00     0.046 C 
HETATM    3  C3  UNL     1     -14.626   2.117 -10.690  1.00  0.00     0.124 C 
HETATM    4  C4  UNL     1     -15.676   1.396 -11.418  1.00  0.00     0.035 C 
HETATM    5  C5  UNL     1     -15.848   0.183 -10.484  1.00  0.00     0.042 C 
HETATM    6  C6  UNL     1     -14.387  -0.285 -10.219  1.00  0.00     0.075 C 
HETATM    7  O2  UNL     1     -14.130  -1.026 -11.366  1.00  0.00    -0.373 OA
HETATM    8  C7  UNL     1     -13.694  -2.262 -11.381  1.00  0.00     0.136 C 
HETATM    9  C8  UNL     1     -14.858  -3.229 -11.552  1.00  0.00     0.065 C 
HETATM   10  C9  UNL     1     -15.149  -4.039 -10.346  1.00  0.00     0.138 C 
HETATM   11  O3  UNL     1     -14.853  -5.402 -10.511  1.00  0.00    -0.361 OA
HETATM   12  C10 UNL     1     -13.768  -5.699 -11.240  1.00  0.00     0.339 C 
HETATM   13  O4  UNL     1     -12.765  -4.820 -11.365  1.00  0.00    -0.358 OA
HETATM   14  C11 UNL     1     -12.366  -4.110 -10.258  1.00  0.00     0.166 C 
HETATM   15  C12 UNL     1     -12.580  -4.849  -8.959  1.00  0.00     0.177 C 
HETATM   16  C13 UNL     1     -13.903  -4.723  -8.336  1.00  0.00     0.161 C 
HETATM   17  C14 UNL     1     -14.633  -3.590  -9.040  1.00  0.00     0.020 C 
HETATM   18  C15 UNL     1     -15.710  -3.035  -8.142  1.00  0.00     0.016 C 
HETATM   19  C16 UNL     1     -15.890  -1.694  -8.821  1.00  0.00     0.013 C 
HETATM   20  C17 UNL     1     -14.460  -1.156  -9.045  1.00  0.00    -0.007 C 
HETATM   21  C18 UNL     1     -14.196  -0.495  -7.692  1.00  0.00     0.019 C 
HETATM   22  C19 UNL     1     -13.669  -2.423  -9.046  1.00  0.00     0.023 C 
HETATM   23  C20 UNL     1     -12.786  -2.673 -10.234  1.00  0.00     0.016 C 
HETATM   24  C21 UNL     1     -11.538  -1.838 -10.294  1.00  0.00     0.021 C 
ENDROOT
BRANCH   3  25
HETATM   25  O1  UNL     1     -15.113   2.758  -9.562  1.00  0.00    -0.395 OA
ATOM     26  H1  UNL     1     -14.475   2.719  -8.859  1.00  0.00     0.210 HD
ENDBRANCH   3  25
BRANCH  16  27
HETATM   27  O6  UNL     1     -13.797  -4.321  -6.992  1.00  0.00    -0.392 OA
ATOM     28  H6  UNL     1     -13.443  -5.017  -6.451  1.00  0.00     0.210 HD
ENDBRANCH  16  27
BRANCH  15  29
HETATM   29  O5  UNL     1     -11.574  -4.528  -8.034  1.00  0.00    -0.390 OA
ATOM     30  H5  UNL     1     -10.723  -4.802  -8.354  1.00  0.00     0.210 HD
ENDBRANCH  15  29
TORSDOF 3
ENDMDL
MODEL 5
REMARK VINA RESULT: -7.579046925      1.739      5.245
REMARK  3 active torsions:
REMARK  status: ('A' for Active; 'I' for Inactive)
REMARK    1  A    between atoms: C3_3  and  O1_4 
REMARK    2  A    between atoms: C12_17  and  O5_18 
REMARK    3  A    between atoms: C13_20  and  O6_21 
ROOT
HETATM    1  C1  UNL     1     -15.507  -2.888 -12.232  1.00  0.00     0.016 C 
HETATM    2  C2  UNL     1     -14.374  -3.764 -11.868  1.00  0.00     0.046 C 
HETATM    3  C3  UNL     1     -14.793  -5.100 -12.521  1.00  0.00     0.124 C 
HETATM    4  C4  UNL     1     -13.933  -6.056 -11.815  1.00  0.00     0.035 C 
HETATM    5  C5  UNL     1     -14.065  -5.508 -10.381  1.00  0.00     0.042 C 
HETATM    6  C6  UNL     1     -13.838  -3.979 -10.552  1.00  0.00     0.075 C 
HETATM    7  O2  UNL     1     -12.450  -3.917 -10.600  1.00  0.00    -0.373 OA
HETATM    8  C7  UNL     1     -11.705  -3.151  -9.840  1.00  0.00     0.136 C 
HETATM    9  C8  UNL     1     -11.186  -3.940  -8.645  1.00  0.00     0.065 C 
HETATM   10  C9  UNL     1     -11.778  -3.529  -7.351  1.00  0.00     0.138 C 
HETATM   11  O3  UNL     1     -10.858  -2.901  -6.497  1.00  0.00    -0.361 OA
HETATM   12  C10 UNL     1      -9.952  -2.099  -7.073  1.00  0.00     0.339 C 
HETATM   13  O4  UNL     1     -10.198  -1.527  -8.260  1.00  0.00    -0.358 OA
HETATM   14  C11 UNL     1     -11.449  -1.013  -8.498  1.00  0.00     0.166 C 
HETATM   15  C12 UNL     1     -12.148  -0.523  -7.252  1.00  0.00     0.177 C 
HETATM   16  C13 UNL     1     -12.904  -1.518  -6.483  1.00  0.00     0.161 C 
HETATM   17  C14 UNL     1     -13.037  -2.761  -7.350  1.00  0.00     0.020 C 
HETATM   18  C15 UNL     1     -14.224  -3.577  -6.903  1.00  0.00     0.016 C 
HETATM   19  C16 UNL     1     -14.419  -4.388  -8.165  1.00  0.00     0.013 C 
HETATM   20  C17 UNL     1     -14.341  -3.366  -9.322  1.00  0.00    -0.007 C 
HETATM   21  C18 UNL     1     -15.788  -2.871  -9.353  1.00  0.00     0.019 C 
HETATM   22  C19 UNL     1     -13.545  -2.272  -8.690  1.00  0.00     0.023 C 
HETATM   23  C20 UNL     1     -12.310  -1.823  -9.417  1.00  0.00     0.016 C 
HETATM   24  C21 UNL     1     -12.554  -0.999 -10.649  1.00  0.00     0.021 C 
ENDROOT
BRANCH   3  25
HETATM   25  O1  UNL     1     -16.140  -5.341 -12.302  1.00  0.00    -0.395 OA
ATOM     26  H1  UNL     1     -16.534  -5.735 -13.072  1.00  0.00     0.210 HD
ENDBRANCH   3  25
BRANCH  16  27
HETATM   27  O6  UNL     1     -14.221  -1.086  -6.247  1.00  0.00    -0.392 OA
ATOM     28  H6  UNL     1     -14.849  -1.773  -6.436  1.00  0.00     0.210 HD
ENDBRANCH  16  27
BRANCH  15  29
HETATM   29  O5  UNL     1     -12.956   0.587  -7.539  1.00  0.00    -0.390 OA
ATOM     30  H5  UNL     1     -12.522   1.393  -7.290  1.00  0.00     0.210 HD
ENDBRANCH  15  29
TORSDOF 3
ENDMDL
