MODEL 1
REMARK VINA RESULT: -8.892195494      0.000      0.000
REMARK  6 active torsions:
REMARK  status: ('A' for Active; 'I' for Inactive)
REMARK    1  A    between atoms: C2_2  and  C3_3 
REMARK    2  A    between atoms: C3_3  and  C4_4 
REMARK    3  A    between atoms: C3_3  and  O1_6 
REMARK    4  A    between atoms: O1_6  and  N1_7 
REMARK    5  A    between atoms: C13_18  and  O2_19 
REMARK    6  A    between atoms: O2_19  and  O3_20 
ROOT
HETATM    1  N1  UNL     1     -27.672  -2.617  -8.044  1.00  0.00    -0.274 N 
ATOM      2  H1  UNL     1     -27.099  -1.870  -7.652  1.00  0.00     0.193 HD
HETATM    3  C6  UNL     1     -28.407  -3.315  -7.259  1.00  0.00     0.026 C 
HETATM    4  C7  UNL     1     -29.236  -4.393  -7.835  1.00  0.00     0.123 C 
HETATM    5  C8  UNL     1     -29.210  -5.629  -7.033  1.00  0.00     0.076 A 
HETATM    6  F1  UNL     1     -29.188  -6.798  -7.762  1.00  0.00    -0.306 F 
HETATM    7  C9  UNL     1     -29.207  -5.770  -5.734  1.00  0.00    -0.015 A 
HETATM    8  C10 UNL     1     -29.178  -7.225  -5.400  1.00  0.00     0.110 A 
HETATM    9 BR1  UNL     1     -29.244  -8.335  -6.959  1.00  0.00     0.019 Br
HETATM   10  C11 UNL     1     -30.440  -7.460  -4.557  1.00  0.00     0.024 C 
HETATM   11  C12 UNL     1     -30.161  -6.685  -3.262  1.00  0.00     0.038 C 
HETATM   12  C13 UNL     1     -30.266  -5.230  -3.554  1.00  0.00     0.178 C 
HETATM   13  C14 UNL     1     -29.228  -4.812  -4.606  1.00  0.00     0.079 C 
HETATM   14  C15 UNL     1     -27.893  -4.838  -3.887  1.00  0.00     0.029 C 
HETATM   15  C16 UNL     1     -29.477  -3.386  -5.027  1.00  0.00     0.265 C 
HETATM   16  F2  UNL     1     -30.678  -3.235  -5.685  1.00  0.00    -0.204 F 
HETATM   17  F3  UNL     1     -29.549  -2.629  -3.872  1.00  0.00    -0.204 F 
HETATM   18  C17 UNL     1     -28.307  -2.915  -5.833  1.00  0.00     0.103 C 
HETATM   19  C18 UNL     1     -28.126  -1.417  -5.688  1.00  0.00     0.022 C 
ENDROOT
BRANCH   1  20
HETATM   20  O1  UNL     1     -27.634  -2.846  -9.399  1.00  0.00    -0.275 OA
BRANCH  20  21
HETATM   21  C3  UNL     1     -27.053  -1.868 -10.240  1.00  0.00     0.151 C 
BRANCH  21  22
HETATM   22  C2  UNL     1     -28.053  -1.493 -11.282  1.00  0.00     0.030 C 
HETATM   23  C1  UNL     1     -27.865  -2.243 -12.580  1.00  0.00     0.007 C 
ENDBRANCH  21  22
BRANCH  21  24
HETATM   24  C4  UNL     1     -25.754  -2.376 -10.806  1.00  0.00     0.030 C 
HETATM   25  C5  UNL     1     -24.793  -1.276 -11.152  1.00  0.00     0.007 C 
ENDBRANCH  21  24
ENDBRANCH  20  21
ENDBRANCH   1  20
BRANCH  12  26
HETATM   26  O2  UNL     1     -31.555  -4.972  -4.017  1.00  0.00    -0.237 OA
BRANCH  26  27
HETATM   27  O3  UNL     1     -32.334  -4.868  -2.955  1.00  0.00    -0.250 OA
ATOM     28  H3  UNL     1     -33.173  -4.538  -3.256  1.00  0.00     0.253 HD
ENDBRANCH  26  27
ENDBRANCH  12  26
TORSDOF 6
ENDMDL
MODEL 2
REMARK VINA RESULT: -8.503030936      0.463      1.287
REMARK  6 active torsions:
REMARK  status: ('A' for Active; 'I' for Inactive)
REMARK    1  A    between atoms: C2_2  and  C3_3 
REMARK    2  A    between atoms: C3_3  and  C4_4 
REMARK    3  A    between atoms: C3_3  and  O1_6 
REMARK    4  A    between atoms: O1_6  and  N1_7 
REMARK    5  A    between atoms: C13_18  and  O2_19 
REMARK    6  A    between atoms: O2_19  and  O3_20 
ROOT
HETATM    1  N1  UNL     1     -28.044  -2.638  -8.353  1.00  0.00    -0.274 N 
ATOM      2  H1  UNL     1     -27.387  -1.924  -8.039  1.00  0.00     0.193 HD
HETATM    3  C6  UNL     1     -28.708  -3.301  -7.479  1.00  0.00     0.026 C 
HETATM    4  C7  UNL     1     -29.659  -4.331  -7.942  1.00  0.00     0.123 C 
HETATM    5  C8  UNL     1     -29.595  -5.571  -7.148  1.00  0.00     0.076 A 
HETATM    6  F1  UNL     1     -29.729  -6.736  -7.872  1.00  0.00    -0.306 F 
HETATM    7  C9  UNL     1     -29.433  -5.719  -5.860  1.00  0.00    -0.015 A 
HETATM    8  C10 UNL     1     -29.438  -7.174  -5.530  1.00  0.00     0.110 A 
HETATM    9 BR1  UNL     1     -29.761  -8.272  -7.066  1.00  0.00     0.019 Br
HETATM   10  C11 UNL     1     -30.592  -7.348  -4.532  1.00  0.00     0.024 C 
HETATM   11  C12 UNL     1     -30.109  -6.595  -3.285  1.00  0.00     0.038 C 
HETATM   12  C13 UNL     1     -30.173  -5.135  -3.563  1.00  0.00     0.178 C 
HETATM   13  C14 UNL     1     -29.259  -4.766  -4.740  1.00  0.00     0.079 C 
HETATM   14  C15 UNL     1     -27.846  -4.866  -4.198  1.00  0.00     0.029 C 
HETATM   15  C16 UNL     1     -29.485  -3.327  -5.128  1.00  0.00     0.265 C 
HETATM   16  F2  UNL     1     -30.751  -3.110  -5.627  1.00  0.00    -0.204 F 
HETATM   17  F3  UNL     1     -29.368  -2.574  -3.975  1.00  0.00    -0.204 F 
HETATM   18  C17 UNL     1     -28.405  -2.914  -6.078  1.00  0.00     0.103 C 
HETATM   19  C18 UNL     1     -28.129  -1.428  -5.960  1.00  0.00     0.022 C 
ENDROOT
BRANCH   1  20
HETATM   20  O1  UNL     1     -28.192  -2.862  -9.701  1.00  0.00    -0.275 OA
BRANCH  20  21
HETATM   21  C3  UNL     1     -27.135  -2.508 -10.572  1.00  0.00     0.151 C 
BRANCH  21  22
HETATM   22  C2  UNL     1     -26.027  -1.934  -9.753  1.00  0.00     0.030 C 
HETATM   23  C1  UNL     1     -24.716  -1.858 -10.501  1.00  0.00     0.007 C 
ENDBRANCH  21  22
BRANCH  21  24
HETATM   24  C4  UNL     1     -27.635  -1.578 -11.644  1.00  0.00     0.030 C 
HETATM   25  C5  UNL     1     -27.958  -2.282 -12.930  1.00  0.00     0.007 C 
ENDBRANCH  21  24
ENDBRANCH  20  21
ENDBRANCH   1  20
BRANCH  12  26
HETATM   26  O2  UNL     1     -31.496  -4.808  -3.857  1.00  0.00    -0.237 OA
BRANCH  26  27
HETATM   27  O3  UNL     1     -32.157  -4.803  -2.713  1.00  0.00    -0.250 OA
ATOM     28  H3  UNL     1     -31.858  -5.555  -2.215  1.00  0.00     0.253 HD
ENDBRANCH  26  27
ENDBRANCH  12  26
TORSDOF 6
ENDMDL
MODEL 3
REMARK VINA RESULT: -8.425269680      3.353      4.441
REMARK  6 active torsions:
REMARK  status: ('A' for Active; 'I' for Inactive)
REMARK    1  A    between atoms: C2_2  and  C3_3 
REMARK    2  A    between atoms: C3_3  and  C4_4 
REMARK    3  A    between atoms: C3_3  and  O1_6 
REMARK    4  A    between atoms: O1_6  and  N1_7 
REMARK    5  A    between atoms: C13_18  and  O2_19 
REMARK    6  A    between atoms: O2_19  and  O3_20 
ROOT
HETATM    1  N1  UNL     1     -28.212  -3.539  -3.978  1.00  0.00    -0.274 N 
ATOM      2  H1  UNL     1     -28.104  -3.415  -2.971  1.00  0.00     0.193 HD
HETATM    3  C6  UNL     1     -28.929  -4.509  -4.412  1.00  0.00     0.026 C 
HETATM    4  C7  UNL     1     -29.082  -4.680  -5.870  1.00  0.00     0.123 C 
HETATM    5  C8  UNL     1     -28.976  -6.086  -6.299  1.00  0.00     0.076 A 
HETATM    6  F1  UNL     1     -28.305  -6.286  -7.486  1.00  0.00    -0.306 F 
HETATM    7  C9  UNL     1     -29.428  -7.163  -5.714  1.00  0.00    -0.015 A 
HETATM    8  C10 UNL     1     -29.070  -8.354  -6.539  1.00  0.00     0.110 A 
HETATM    9 BR1  UNL     1     -28.174  -7.878  -8.163  1.00  0.00     0.019 Br
HETATM   10  C11 UNL     1     -30.413  -9.018  -6.878  1.00  0.00     0.024 C 
HETATM   11  C12 UNL     1     -30.916  -9.531  -5.522  1.00  0.00     0.038 C 
HETATM   12  C13 UNL     1     -31.357  -8.364  -4.711  1.00  0.00     0.178 C 
HETATM   13  C14 UNL     1     -30.186  -7.402  -4.465  1.00  0.00     0.079 C 
HETATM   14  C15 UNL     1     -29.298  -8.101  -3.454  1.00  0.00     0.029 C 
HETATM   15  C16 UNL     1     -30.693  -6.141  -3.813  1.00  0.00     0.265 C 
HETATM   16  F2  UNL     1     -31.528  -5.422  -4.640  1.00  0.00    -0.204 F 
HETATM   17  F3  UNL     1     -31.440  -6.524  -2.715  1.00  0.00    -0.204 F 
HETATM   18  C17 UNL     1     -29.518  -5.345  -3.336  1.00  0.00     0.103 C 
HETATM   19  C18 UNL     1     -29.894  -4.511  -2.127  1.00  0.00     0.022 C 
ENDROOT
BRANCH   1  20
HETATM   20  O1  UNL     1     -27.584  -2.661  -4.829  1.00  0.00    -0.275 OA
BRANCH  20  21
HETATM   21  C3  UNL     1     -27.631  -1.277  -4.538  1.00  0.00     0.151 C 
BRANCH  21  22
HETATM   22  C2  UNL     1     -28.304  -1.099  -3.219  1.00  0.00     0.030 C 
HETATM   23  C1  UNL     1     -28.350   0.343  -2.768  1.00  0.00     0.007 C 
ENDBRANCH  21  22
BRANCH  21  24
HETATM   24  C4  UNL     1     -28.301  -0.534  -5.662  1.00  0.00     0.030 C 
HETATM   25  C5  UNL     1     -29.774  -0.811  -5.755  1.00  0.00     0.007 C 
ENDBRANCH  21  24
ENDBRANCH  20  21
ENDBRANCH   1  20
BRANCH  12  26
HETATM   26  O2  UNL     1     -32.377  -7.716  -5.405  1.00  0.00    -0.237 OA
BRANCH  26  27
HETATM   27  O3  UNL     1     -33.503  -8.347  -5.117  1.00  0.00    -0.250 OA
ATOM     28  H3  UNL     1     -34.138  -7.684  -4.872  1.00  0.00     0.253 HD
ENDBRANCH  26  27
ENDBRANCH  12  26
TORSDOF 6
ENDMDL
MODEL 4
REMARK VINA RESULT: -8.411369233      3.009      4.595
REMARK  6 active torsions:
REMARK  status: ('A' for Active; 'I' for Inactive)
REMARK    1  A    between atoms: C2_2  and  C3_3 
REMARK    2  A    between atoms: C3_3  and  C4_4 
REMARK    3  A    between atoms: C3_3  and  O1_6 
REMARK    4  A    between atoms: O1_6  and  N1_7 
REMARK    5  A    between atoms: C13_18  and  O2_19 
REMARK    6  A    between atoms: O2_19  and  O3_20 
ROOT
HETATM    1  N1  UNL     1     -30.246  -3.994  -4.964  1.00  0.00    -0.274 N 
ATOM      2  H1  UNL     1     -30.306  -3.710  -3.986  1.00  0.00     0.193 HD
HETATM    3  C6  UNL     1     -30.367  -5.236  -5.261  1.00  0.00     0.026 C 
HETATM    4  C7  UNL     1     -30.280  -5.637  -6.678  1.00  0.00     0.123 C 
HETATM    5  C8  UNL     1     -29.475  -6.854  -6.883  1.00  0.00     0.076 A 
HETATM    6  F1  UNL     1     -28.680  -6.847  -8.009  1.00  0.00    -0.306 F 
HETATM    7  C9  UNL     1     -29.411  -7.934  -6.151  1.00  0.00    -0.015 A 
HETATM    8  C10 UNL     1     -28.450  -8.891  -6.774  1.00  0.00     0.110 A 
HETATM    9 BR1  UNL     1     -27.740  -8.243  -8.430  1.00  0.00     0.019 Br
HETATM   10  C11 UNL     1     -29.274 -10.161  -7.038  1.00  0.00     0.024 C 
HETATM   11  C12 UNL     1     -29.597 -10.683  -5.631  1.00  0.00     0.038 C 
HETATM   12  C13 UNL     1     -30.617  -9.788  -5.021  1.00  0.00     0.178 C 
HETATM   13  C14 UNL     1     -30.077  -8.355  -4.898  1.00  0.00     0.079 C 
HETATM   14  C15 UNL     1     -29.064  -8.403  -3.770  1.00  0.00     0.029 C 
HETATM   15  C16 UNL     1     -31.185  -7.431  -4.460  1.00  0.00     0.265 C 
HETATM   16  F2  UNL     1     -32.179  -7.318  -5.407  1.00  0.00    -0.204 F 
HETATM   17  F3  UNL     1     -31.759  -7.991  -3.334  1.00  0.00    -0.204 F 
HETATM   18  C17 UNL     1     -30.585  -6.112  -4.083  1.00  0.00     0.103 C 
HETATM   19  C18 UNL     1     -31.427  -5.425  -3.026  1.00  0.00     0.022 C 
ENDROOT
BRANCH   1  20
HETATM   20  O1  UNL     1     -30.036  -3.034  -5.926  1.00  0.00    -0.275 OA
BRANCH  20  21
HETATM   21  C3  UNL     1     -29.323  -1.863  -5.577  1.00  0.00     0.151 C 
BRANCH  21  22
HETATM   22  C2  UNL     1     -28.020  -1.874  -6.303  1.00  0.00     0.030 C 
HETATM   23  C1  UNL     1     -28.053  -2.704  -7.566  1.00  0.00     0.007 C 
ENDBRANCH  21  22
BRANCH  21  24
HETATM   24  C4  UNL     1     -29.179  -1.770  -4.082  1.00  0.00     0.030 C 
HETATM   25  C5  UNL     1     -28.432  -0.546  -3.637  1.00  0.00     0.007 C 
ENDBRANCH  21  24
ENDBRANCH  20  21
ENDBRANCH   1  20
BRANCH  12  26
HETATM   26  O2  UNL     1     -31.752  -9.809  -5.830  1.00  0.00    -0.237 OA
BRANCH  26  27
HETATM   27  O3  UNL     1     -32.658 -10.543  -5.206  1.00  0.00    -0.250 OA
ATOM     28  H3  UNL     1     -32.507 -10.438  -4.274  1.00  0.00     0.253 HD
ENDBRANCH  26  27
ENDBRANCH  12  26
TORSDOF 6
ENDMDL
MODEL 5
REMARK VINA RESULT: -8.190270521      2.990      4.607
REMARK  6 active torsions:
REMARK  status: ('A' for Active; 'I' for Inactive)
REMARK    1  A    between atoms: C2_2  and  C3_3 
REMARK    2  A    between atoms: C3_3  and  C4_4 
REMARK    3  A    between atoms: C3_3  and  O1_6 
REMARK    4  A    between atoms: O1_6  and  N1_7 
REMARK    5  A    between atoms: C13_18  and  O2_19 
REMARK    6  A    between atoms: O2_19  and  O3_20 
ROOT
HETATM    1  N1  UNL     1     -30.164  -4.140  -4.881  1.00  0.00    -0.274 N 
ATOM      2  H1  UNL     1     -30.212  -3.867  -3.899  1.00  0.00     0.193 HD
HETATM    3  C6  UNL     1     -30.328  -5.373  -5.193  1.00  0.00     0.026 C 
HETATM    4  C7  UNL     1     -30.260  -5.760  -6.616  1.00  0.00     0.123 C 
HETATM    5  C8  UNL     1     -29.496  -7.000  -6.839  1.00  0.00     0.076 A 
HETATM    6  F1  UNL     1     -28.705  -7.004  -7.968  1.00  0.00    -0.306 F 
HETATM    7  C9  UNL     1     -29.465  -8.090  -6.121  1.00  0.00    -0.015 A 
HETATM    8  C10 UNL     1     -28.538  -9.071  -6.759  1.00  0.00     0.110 A 
HETATM    9 BR1  UNL     1     -27.813  -8.425  -8.410  1.00  0.00     0.019 Br
HETATM   10  C11 UNL     1     -29.404 -10.309  -7.037  1.00  0.00     0.024 C 
HETATM   11  C12 UNL     1     -29.740 -10.838  -5.635  1.00  0.00     0.038 C 
HETATM   12  C13 UNL     1     -30.727  -9.917  -5.009  1.00  0.00     0.178 C 
HETATM   13  C14 UNL     1     -30.140  -8.505  -4.871  1.00  0.00     0.079 C 
HETATM   14  C15 UNL     1     -29.125  -8.601  -3.748  1.00  0.00     0.029 C 
HETATM   15  C16 UNL     1     -31.215  -7.551  -4.416  1.00  0.00     0.265 C 
HETATM   16  F2  UNL     1     -32.208  -7.392  -5.358  1.00  0.00    -0.204 F 
HETATM   17  F3  UNL     1     -31.803  -8.106  -3.295  1.00  0.00    -0.204 F 
HETATM   18  C17 UNL     1     -30.570  -6.257  -4.026  1.00  0.00     0.103 C 
HETATM   19  C18 UNL     1     -31.385  -5.556  -2.957  1.00  0.00     0.022 C 
ENDROOT
BRANCH   1  20
HETATM   20  O1  UNL     1     -29.926  -3.175  -5.831  1.00  0.00    -0.275 OA
BRANCH  20  21
HETATM   21  C3  UNL     1     -28.793  -2.341  -5.687  1.00  0.00     0.151 C 
BRANCH  21  22
HETATM   22  C2  UNL     1     -29.248  -1.022  -5.157  1.00  0.00     0.030 C 
HETATM   23  C1  UNL     1     -28.771  -0.754  -3.749  1.00  0.00     0.007 C 
ENDBRANCH  21  22
BRANCH  21  24
HETATM   24  C4  UNL     1     -28.053  -2.242  -6.993  1.00  0.00     0.030 C 
HETATM   25  C5  UNL     1     -28.411  -3.337  -7.957  1.00  0.00     0.007 C 
ENDBRANCH  21  24
ENDBRANCH  20  21
ENDBRANCH   1  20
BRANCH  12  26
HETATM   26  O2  UNL     1     -31.865  -9.891  -5.814  1.00  0.00    -0.237 OA
BRANCH  26  27
HETATM   27  O3  UNL     1     -32.787 -10.616  -5.204  1.00  0.00    -0.250 OA
ATOM     28  H3  UNL     1     -32.813 -10.328  -4.299  1.00  0.00     0.253 HD
ENDBRANCH  26  27
ENDBRANCH  12  26
TORSDOF 6
ENDMDL
