MODEL 1
REMARK VINA RESULT: -6.666730405      0.000      0.000
REMARK  6 active torsions:
REMARK  status: ('A' for Active; 'I' for Inactive)
REMARK    1  A    between atoms: O1_2  and  C2_3 
REMARK    2  A    between atoms: C4_5  and  C5_6 
REMARK    3  A    between atoms: C8_10  and  O2_11 
REMARK    4  A    between atoms: C11_16  and  O3_17 
REMARK    5  A    between atoms: C16_25  and  O4_26 
REMARK    6  A    between atoms: C18_28  and  O5_29 
ROOT
HETATM    1  C5  UNL     1     -31.054  -5.834  -5.780  1.00  0.00     0.057 C 
HETATM    2  C6  UNL     1     -31.392  -6.289  -4.402  1.00  0.00     0.056 C 
HETATM    3  C7  UNL     1     -30.319  -6.046  -3.383  1.00  0.00     0.226 C 
HETATM    4  F1  UNL     1     -30.822  -6.482  -2.167  1.00  0.00    -0.245 F 
HETATM    5  C8  UNL     1     -29.901  -4.605  -3.325  1.00  0.00     0.194 C 
HETATM    6 CL1  UNL     1     -28.505  -4.518  -2.216  1.00  0.00    -0.080 Cl
HETATM    7  C9  UNL     1     -29.547  -4.155  -4.682  1.00  0.00     0.006 A 
HETATM    8  C10 UNL     1     -28.645  -3.119  -4.800  1.00  0.00     0.050 A 
HETATM    9  C11 UNL     1     -28.262  -2.623  -6.020  1.00  0.00     0.089 A 
HETATM   10  C12 UNL     1     -28.778  -3.157  -7.175  1.00  0.00     0.089 A 
HETATM   11 CL2  UNL     1     -28.301  -2.536  -8.736  1.00  0.00    -0.080 Cl
HETATM   12  C13 UNL     1     -29.693  -4.207  -7.054  1.00  0.00     0.066 A 
HETATM   13 CL3  UNL     1     -30.324  -4.837  -8.568  1.00  0.00    -0.082 Cl
HETATM   14  C14 UNL     1     -30.080  -4.710  -5.823  1.00  0.00    -0.015 A 
ENDROOT
BRANCH   1  15
HETATM   15  C4  UNL     1     -30.648  -7.015  -6.559  1.00  0.00    -0.044 A 
HETATM   16  C3  UNL     1     -29.322  -7.300  -6.753  1.00  0.00     0.047 A 
HETATM   17  C2  UNL     1     -28.934  -8.437  -7.470  1.00  0.00     0.104 A 
HETATM   18  C18 UNL     1     -29.891  -9.279  -7.987  1.00  0.00     0.135 A 
HETATM   19  C16 UNL     1     -31.226  -9.005  -7.800  1.00  0.00     0.104 A 
HETATM   20  C15 UNL     1     -31.585  -7.871  -7.086  1.00  0.00     0.047 A 
BRANCH  17  21
HETATM   21  O1  UNL     1     -27.571  -8.685  -7.642  1.00  0.00    -0.353 OA
HETATM   22  C1  UNL     1     -26.812  -8.031  -8.626  1.00  0.00     0.210 C 
ENDBRANCH  17  21
BRANCH  18  23
HETATM   23  O5  UNL     1     -29.474 -10.404  -8.698  1.00  0.00    -0.351 OA
HETATM   24  C19 UNL     1     -29.359 -10.336 -10.119  1.00  0.00     0.210 C 
ENDBRANCH  18  23
BRANCH  19  25
HETATM   25  O4  UNL     1     -32.168  -9.869  -8.332  1.00  0.00    -0.353 OA
HETATM   26  C17 UNL     1     -32.739 -10.868  -7.509  1.00  0.00     0.210 C 
ENDBRANCH  19  25
ENDBRANCH   1  15
BRANCH   5  27
HETATM   27  O2  UNL     1     -30.892  -3.797  -2.751  1.00  0.00    -0.368 OA
ATOM     28  H2  UNL     1     -30.744  -3.662  -1.823  1.00  0.00     0.212 HD
ENDBRANCH   5  27
BRANCH   9  29
HETATM   29  O3  UNL     1     -27.352  -1.577  -6.152  1.00  0.00    -0.359 OA
ATOM     30  H3  UNL     1     -27.618  -0.692  -6.371  1.00  0.00     0.217 HD
ENDBRANCH   9  29
TORSDOF 6
ENDMDL
MODEL 2
REMARK VINA RESULT: -6.659679732      0.067      2.377
REMARK  6 active torsions:
REMARK  status: ('A' for Active; 'I' for Inactive)
REMARK    1  A    between atoms: O1_2  and  C2_3 
REMARK    2  A    between atoms: C4_5  and  C5_6 
REMARK    3  A    between atoms: C8_10  and  O2_11 
REMARK    4  A    between atoms: C11_16  and  O3_17 
REMARK    5  A    between atoms: C16_25  and  O4_26 
REMARK    6  A    between atoms: C18_28  and  O5_29 
ROOT
HETATM    1  C5  UNL     1     -31.051  -5.841  -5.754  1.00  0.00     0.057 C 
HETATM    2  C6  UNL     1     -31.405  -6.285  -4.376  1.00  0.00     0.056 C 
HETATM    3  C7  UNL     1     -30.346  -6.029  -3.346  1.00  0.00     0.226 C 
HETATM    4  F1  UNL     1     -30.863  -6.456  -2.133  1.00  0.00    -0.245 F 
HETATM    5  C8  UNL     1     -29.933  -4.586  -3.296  1.00  0.00     0.194 C 
HETATM    6 CL1  UNL     1     -28.553  -4.485  -2.170  1.00  0.00    -0.080 Cl
HETATM    7  C9  UNL     1     -29.564  -4.147  -4.653  1.00  0.00     0.006 A 
HETATM    8  C10 UNL     1     -28.664  -3.110  -4.768  1.00  0.00     0.050 A 
HETATM    9  C11 UNL     1     -28.267  -2.623  -5.988  1.00  0.00     0.089 A 
HETATM   10  C12 UNL     1     -28.766  -3.169  -7.145  1.00  0.00     0.089 A 
HETATM   11 CL2  UNL     1     -28.272  -2.561  -8.705  1.00  0.00    -0.080 Cl
HETATM   12  C13 UNL     1     -29.679  -4.221  -7.026  1.00  0.00     0.066 A 
HETATM   13 CL3  UNL     1     -30.289  -4.867  -8.542  1.00  0.00    -0.082 Cl
HETATM   14  C14 UNL     1     -30.081  -4.714  -5.795  1.00  0.00    -0.015 A 
ENDROOT
BRANCH   1  15
HETATM   15  C4  UNL     1     -30.632  -7.028  -6.518  1.00  0.00    -0.044 A 
HETATM   16  C3  UNL     1     -31.564  -7.893  -7.026  1.00  0.00     0.047 A 
HETATM   17  C2  UNL     1     -31.170  -9.007  -7.774  1.00  0.00     0.104 A 
HETATM   18  C18 UNL     1     -29.834  -9.239  -8.004  1.00  0.00     0.135 A 
HETATM   19  C16 UNL     1     -28.887  -8.378  -7.499  1.00  0.00     0.104 A 
HETATM   20  C15 UNL     1     -29.304  -7.281  -6.760  1.00  0.00     0.047 A 
BRANCH  17  21
HETATM   21  O1  UNL     1     -32.157  -9.861  -8.271  1.00  0.00    -0.353 OA
HETATM   22  C1  UNL     1     -32.739 -10.867  -7.483  1.00  0.00     0.210 C 
ENDBRANCH  17  21
BRANCH  18  23
HETATM   23  O5  UNL     1     -29.470 -10.357  -8.753  1.00  0.00    -0.351 OA
HETATM   24  C19 UNL     1     -29.348 -10.246 -10.171  1.00  0.00     0.210 C 
ENDBRANCH  18  23
BRANCH  19  25
HETATM   25  O4  UNL     1     -27.549  -8.634  -7.745  1.00  0.00    -0.353 OA
HETATM   26  C17 UNL     1     -26.853  -7.851  -8.694  1.00  0.00     0.210 C 
ENDBRANCH  19  25
ENDBRANCH   1  15
BRANCH   5  27
HETATM   27  O2  UNL     1     -30.935  -3.777  -2.742  1.00  0.00    -0.368 OA
ATOM     28  H2  UNL     1     -31.767  -3.892  -3.186  1.00  0.00     0.212 HD
ENDBRANCH   5  27
BRANCH   9  29
HETATM   29  O3  UNL     1     -27.358  -1.575  -6.118  1.00  0.00    -0.359 OA
ATOM     30  H3  UNL     1     -27.273  -1.068  -6.917  1.00  0.00     0.217 HD
ENDBRANCH   9  29
TORSDOF 6
ENDMDL
MODEL 3
REMARK VINA RESULT: -6.175889497      3.121      6.893
REMARK  6 active torsions:
REMARK  status: ('A' for Active; 'I' for Inactive)
REMARK    1  A    between atoms: O1_2  and  C2_3 
REMARK    2  A    between atoms: C4_5  and  C5_6 
REMARK    3  A    between atoms: C8_10  and  O2_11 
REMARK    4  A    between atoms: C11_16  and  O3_17 
REMARK    5  A    between atoms: C16_25  and  O4_26 
REMARK    6  A    between atoms: C18_28  and  O5_29 
ROOT
HETATM    1  C5  UNL     1     -29.419  -7.199  -7.375  1.00  0.00     0.057 C 
HETATM    2  C6  UNL     1     -28.483  -7.564  -8.476  1.00  0.00     0.056 C 
HETATM    3  C7  UNL     1     -27.345  -8.448  -8.061  1.00  0.00     0.226 C 
HETATM    4  F1  UNL     1     -26.617  -8.721  -9.208  1.00  0.00    -0.245 F 
HETATM    5  C8  UNL     1     -27.813  -9.706  -7.389  1.00  0.00     0.194 C 
HETATM    6 CL1  UNL     1     -26.355 -10.545  -6.795  1.00  0.00    -0.080 Cl
HETATM    7  C9  UNL     1     -28.724  -9.350  -6.287  1.00  0.00     0.006 A 
HETATM    8  C10 UNL     1     -28.825 -10.227  -5.229  1.00  0.00     0.050 A 
HETATM    9  C11 UNL     1     -29.655  -9.989  -4.163  1.00  0.00     0.089 A 
HETATM   10  C12 UNL     1     -30.418  -8.848  -4.123  1.00  0.00     0.089 A 
HETATM   11 CL2  UNL     1     -31.479  -8.529  -2.774  1.00  0.00    -0.080 Cl
HETATM   12  C13 UNL     1     -30.314  -7.959  -5.198  1.00  0.00     0.066 A 
HETATM   13 CL3  UNL     1     -31.325  -6.526  -5.092  1.00  0.00    -0.082 Cl
HETATM   14  C14 UNL     1     -29.477  -8.198  -6.275  1.00  0.00    -0.015 A 
ENDROOT
BRANCH   1  15
HETATM   15  C4  UNL     1     -29.088  -5.833  -6.935  1.00  0.00    -0.044 A 
HETATM   16  C3  UNL     1     -28.911  -5.554  -5.606  1.00  0.00     0.047 A 
HETATM   17  C2  UNL     1     -28.569  -4.263  -5.188  1.00  0.00     0.104 A 
HETATM   18  C18 UNL     1     -28.409  -3.262  -6.118  1.00  0.00     0.135 A 
HETATM   19  C16 UNL     1     -28.584  -3.530  -7.456  1.00  0.00     0.104 A 
HETATM   20  C15 UNL     1     -28.922  -4.817  -7.845  1.00  0.00     0.047 A 
BRANCH  17  21
HETATM   21  O1  UNL     1     -28.400  -4.027  -3.822  1.00  0.00    -0.353 OA
HETATM   22  C1  UNL     1     -29.487  -3.973  -2.934  1.00  0.00     0.210 C 
ENDBRANCH  17  21
BRANCH  18  23
HETATM   23  O5  UNL     1     -28.069  -1.986  -5.671  1.00  0.00    -0.351 OA
HETATM   24  C19 UNL     1     -29.101  -1.046  -5.373  1.00  0.00     0.210 C 
ENDBRANCH  18  23
BRANCH  19  25
HETATM   25  O4  UNL     1     -28.416  -2.504  -8.371  1.00  0.00    -0.353 OA
HETATM   26  C17 UNL     1     -27.307  -2.528  -9.248  1.00  0.00     0.210 C 
ENDBRANCH  19  25
ENDBRANCH   1  15
BRANCH   5  27
HETATM   27  O2  UNL     1     -28.416 -10.588  -8.296  1.00  0.00    -0.368 OA
ATOM     28  H2  UNL     1     -29.203 -10.218  -8.678  1.00  0.00     0.212 HD
ENDBRANCH   5  27
BRANCH   9  29
HETATM   29  O3  UNL     1     -29.766 -10.868  -3.088  1.00  0.00    -0.359 OA
ATOM     30  H3  UNL     1     -30.359 -10.715  -2.361  1.00  0.00     0.217 HD
ENDBRANCH   9  29
TORSDOF 6
ENDMDL
MODEL 4
REMARK VINA RESULT: -6.102623757      3.113      6.782
REMARK  6 active torsions:
REMARK  status: ('A' for Active; 'I' for Inactive)
REMARK    1  A    between atoms: O1_2  and  C2_3 
REMARK    2  A    between atoms: C4_5  and  C5_6 
REMARK    3  A    between atoms: C8_10  and  O2_11 
REMARK    4  A    between atoms: C11_16  and  O3_17 
REMARK    5  A    between atoms: C16_25  and  O4_26 
REMARK    6  A    between atoms: C18_28  and  O5_29 
ROOT
HETATM    1  C5  UNL     1     -29.388  -7.167  -7.382  1.00  0.00     0.057 C 
HETATM    2  C6  UNL     1     -28.452  -7.538  -8.480  1.00  0.00     0.056 C 
HETATM    3  C7  UNL     1     -27.331  -8.444  -8.066  1.00  0.00     0.226 C 
HETATM    4  F1  UNL     1     -26.601  -8.719  -9.212  1.00  0.00    -0.245 F 
HETATM    5  C8  UNL     1     -27.825  -9.701  -7.409  1.00  0.00     0.194 C 
HETATM    6 CL1  UNL     1     -26.385 -10.570  -6.813  1.00  0.00    -0.080 Cl
HETATM    7  C9  UNL     1     -28.736  -9.339  -6.309  1.00  0.00     0.006 A 
HETATM    8  C10 UNL     1     -28.858 -10.224  -5.260  1.00  0.00     0.050 A 
HETATM    9  C11 UNL     1     -29.691  -9.981  -4.196  1.00  0.00     0.089 A 
HETATM   10  C12 UNL     1     -30.435  -8.828  -4.151  1.00  0.00     0.089 A 
HETATM   11 CL2  UNL     1     -31.499  -8.504  -2.805  1.00  0.00    -0.080 Cl
HETATM   12  C13 UNL     1     -30.310  -7.931  -5.217  1.00  0.00     0.066 A 
HETATM   13 CL3  UNL     1     -31.297  -6.482  -5.104  1.00  0.00    -0.082 Cl
HETATM   14  C14 UNL     1     -29.470  -8.175  -6.291  1.00  0.00    -0.015 A 
ENDROOT
BRANCH   1  15
HETATM   15  C4  UNL     1     -29.037  -5.811  -6.927  1.00  0.00    -0.044 A 
HETATM   16  C3  UNL     1     -28.858  -4.798  -7.832  1.00  0.00     0.047 A 
HETATM   17  C2  UNL     1     -28.550  -3.503  -7.401  1.00  0.00     0.104 A 
HETATM   18  C18 UNL     1     -28.425  -3.241  -6.057  1.00  0.00     0.135 A 
HETATM   19  C16 UNL     1     -28.602  -4.249  -5.138  1.00  0.00     0.104 A 
HETATM   20  C15 UNL     1     -28.906  -5.524  -5.590  1.00  0.00     0.047 A 
BRANCH  17  21
HETATM   21  O1  UNL     1     -28.377  -2.504  -8.361  1.00  0.00    -0.353 OA
HETATM   22  C1  UNL     1     -27.325  -2.538  -9.292  1.00  0.00     0.210 C 
ENDBRANCH  17  21
BRANCH  18  23
HETATM   23  O5  UNL     1     -28.117  -1.941  -5.657  1.00  0.00    -0.351 OA
HETATM   24  C19 UNL     1     -29.173  -1.021  -5.379  1.00  0.00     0.210 C 
ENDBRANCH  18  23
BRANCH  19  25
HETATM   25  O4  UNL     1     -28.470  -3.958  -3.790  1.00  0.00    -0.353 OA
HETATM   26  C17 UNL     1     -29.617  -3.955  -2.964  1.00  0.00     0.210 C 
ENDBRANCH  19  25
ENDBRANCH   1  15
BRANCH   5  27
HETATM   27  O2  UNL     1     -28.436 -10.564  -8.328  1.00  0.00    -0.368 OA
ATOM     28  H2  UNL     1     -27.798 -10.993  -8.886  1.00  0.00     0.212 HD
ENDBRANCH   5  27
BRANCH   9  29
HETATM   29  O3  UNL     1     -29.823 -10.868  -3.130  1.00  0.00    -0.359 OA
ATOM     30  H3  UNL     1     -30.047 -10.582  -2.252  1.00  0.00     0.217 HD
ENDBRANCH   9  29
TORSDOF 6
ENDMDL
MODEL 5
REMARK VINA RESULT: -5.887274062      2.597      6.370
REMARK  6 active torsions:
REMARK  status: ('A' for Active; 'I' for Inactive)
REMARK    1  A    between atoms: O1_2  and  C2_3 
REMARK    2  A    between atoms: C4_5  and  C5_6 
REMARK    3  A    between atoms: C8_10  and  O2_11 
REMARK    4  A    between atoms: C11_16  and  O3_17 
REMARK    5  A    between atoms: C16_25  and  O4_26 
REMARK    6  A    between atoms: C18_28  and  O5_29 
ROOT
HETATM    1  C5  UNL     1     -29.656  -7.973  -5.694  1.00  0.00     0.057 C 
HETATM    2  C6  UNL     1     -30.867  -8.068  -4.831  1.00  0.00     0.056 C 
HETATM    3  C7  UNL     1     -32.152  -8.267  -5.577  1.00  0.00     0.226 C 
HETATM    4  F1  UNL     1     -33.151  -8.382  -4.623  1.00  0.00    -0.245 F 
HETATM    5  C8  UNL     1     -32.110  -9.465  -6.482  1.00  0.00     0.194 C 
HETATM    6 CL1  UNL     1     -33.623  -9.451  -7.426  1.00  0.00    -0.080 Cl
HETATM    7  C9  UNL     1     -30.924  -9.366  -7.351  1.00  0.00     0.006 A 
HETATM    8  C10 UNL     1     -30.972  -9.999  -8.574  1.00  0.00     0.050 A 
HETATM    9  C11 UNL     1     -29.914  -9.974  -9.448  1.00  0.00     0.089 A 
HETATM   10  C12 UNL     1     -28.762  -9.303  -9.118  1.00  0.00     0.089 A 
HETATM   11 CL2  UNL     1     -27.407  -9.262 -10.218  1.00  0.00    -0.080 Cl
HETATM   12  C13 UNL     1     -28.716  -8.662  -7.876  1.00  0.00     0.066 A 
HETATM   13 CL3  UNL     1     -27.210  -7.834  -7.510  1.00  0.00    -0.082 Cl
HETATM   14  C14 UNL     1     -29.783  -8.686  -6.993  1.00  0.00    -0.015 A 
ENDROOT
BRANCH   1  15
HETATM   15  C4  UNL     1     -29.301  -6.550  -5.818  1.00  0.00    -0.044 A 
HETATM   16  C3  UNL     1     -29.467  -5.891  -7.008  1.00  0.00     0.047 A 
HETATM   17  C2  UNL     1     -29.156  -4.532  -7.121  1.00  0.00     0.104 A 
HETATM   18  C18 UNL     1     -28.678  -3.847  -6.029  1.00  0.00     0.135 A 
HETATM   19  C16 UNL     1     -28.506  -4.495  -4.828  1.00  0.00     0.104 A 
HETATM   20  C15 UNL     1     -28.821  -5.843  -4.742  1.00  0.00     0.047 A 
BRANCH  17  21
HETATM   21  O1  UNL     1     -29.342  -3.905  -8.355  1.00  0.00    -0.353 OA
HETATM   22  C1  UNL     1     -28.292  -3.261  -9.030  1.00  0.00     0.210 C 
ENDBRANCH  17  21
BRANCH  18  23
HETATM   23  O5  UNL     1     -28.376  -2.493  -6.171  1.00  0.00    -0.351 OA
HETATM   24  C19 UNL     1     -29.328  -1.512  -5.760  1.00  0.00     0.210 C 
ENDBRANCH  18  23
BRANCH  19  25
HETATM   25  O4  UNL     1     -28.023  -3.782  -3.744  1.00  0.00    -0.353 OA
HETATM   26  C17 UNL     1     -28.867  -3.546  -2.634  1.00  0.00     0.210 C 
ENDBRANCH  19  25
ENDBRANCH   1  15
BRANCH   5  27
HETATM   27  O2  UNL     1     -32.125 -10.665  -5.758  1.00  0.00    -0.368 OA
ATOM     28  H2  UNL     1     -31.296 -11.126  -5.822  1.00  0.00     0.212 HD
ENDBRANCH   5  27
BRANCH   9  29
HETATM   29  O3  UNL     1     -29.949 -10.609 -10.687  1.00  0.00    -0.359 OA
ATOM     30  H3  UNL     1     -29.165 -10.797 -11.188  1.00  0.00     0.217 HD
ENDBRANCH   9  29
TORSDOF 6
ENDMDL
