MODEL 1
REMARK VINA RESULT: -7.177717454      0.000      0.000
REMARK  5 active torsions:
REMARK  status: ('A' for Active; 'I' for Inactive)
REMARK    1  A    between atoms: C2_2  and  C4_4 
REMARK    2  A    between atoms: C2_2  and  C8_13 
REMARK    3  A    between atoms: C6_7  and  C7_8 
REMARK    4  A    between atoms: C7_8  and  O1_9 
REMARK    5  A    between atoms: C13_22  and  C14_23 
ROOT
HETATM    1  C8  UNL     1     -29.834  -7.733  -5.382  1.00  0.00    -0.005 A 
HETATM    2  C9  UNL     1     -30.361  -6.887  -4.363  1.00  0.00     0.066 A 
HETATM    3 CL1  UNL     1     -31.138  -7.530  -2.931  1.00  0.00    -0.082 Cl
HETATM    4  C10 UNL     1     -30.275  -5.525  -4.495  1.00  0.00     0.079 A 
HETATM    5 CL2  UNL     1     -30.923  -4.490  -3.237  1.00  0.00    -0.081 Cl
HETATM    6  C11 UNL     1     -29.694  -4.934  -5.584  1.00  0.00     0.080 A 
HETATM    7 CL3  UNL     1     -29.601  -3.202  -5.719  1.00  0.00    -0.081 Cl
HETATM    8  C12 UNL     1     -29.200  -5.752  -6.542  1.00  0.00     0.072 A 
HETATM    9 CL4  UNL     1     -28.436  -5.086  -7.977  1.00  0.00    -0.081 Cl
HETATM   10  C13 UNL     1     -29.259  -7.164  -6.463  1.00  0.00     0.042 A 
ENDROOT
BRANCH   1  11
HETATM   11  C2  UNL     1     -30.001  -9.142  -5.081  1.00  0.00     0.025 C 
HETATM   12  C1  UNL     1     -30.134 -10.144  -6.202  1.00  0.00     0.027 C 
HETATM   13  C3  UNL     1     -31.163  -9.369  -4.098  1.00  0.00     0.027 C 
BRANCH  11  14
HETATM   14  C4  UNL     1     -28.730  -9.647  -4.385  1.00  0.00     0.029 A 
HETATM   15  C5  UNL     1     -28.696  -9.809  -3.031  1.00  0.00     0.077 A 
HETATM   16  S1  UNL     1     -27.086 -10.412  -2.802  1.00  0.00    -0.085 SA
HETATM   17  C6  UNL     1     -26.592 -10.408  -4.438  1.00  0.00     0.074 A 
HETATM   18  N1  UNL     1     -27.664  -9.955  -5.059  1.00  0.00    -0.354 N 
ATOM     19  H1  UNL     1     -27.655  -9.845  -6.074  1.00  0.00     0.166 HD
BRANCH  17  20
HETATM   20  C7  UNL     1     -25.262 -10.819  -5.034  1.00  0.00     0.229 C 
BRANCH  20  21
HETATM   21  O1  UNL     1     -25.084 -10.032  -6.194  1.00  0.00    -0.394 OA
ATOM     22  H1  UNL     1     -24.585 -10.562  -6.804  1.00  0.00     0.209 HD
ENDBRANCH  20  21
ENDBRANCH  17  20
ENDBRANCH  11  14
ENDBRANCH   1  11
BRANCH  10  23
HETATM   23  C14 UNL     1     -28.715  -7.893  -7.591  1.00  0.00     0.133 A 
HETATM   24  N2  UNL     1     -27.445  -8.299  -7.743  1.00  0.00    -0.336 N 
HETATM   25  C15 UNL     1     -27.358  -8.997  -8.877  1.00  0.00     0.199 A 
ATOM     26  H2  UNL     1     -26.676  -8.107  -7.101  1.00  0.00     0.168 HD
HETATM   27  N3  UNL     1     -28.562  -9.038  -9.448  1.00  0.00    -0.295 N 
HETATM   28  N4  UNL     1     -29.377  -8.359  -8.650  1.00  0.00    -0.284 N 
ATOM     29  H3  UNL     1     -28.807  -9.500 -10.323  1.00  0.00     0.187 HD
ATOM     30  H4  UNL     1     -30.372  -8.214  -8.823  1.00  0.00     0.188 HD
ENDBRANCH  10  23
TORSDOF 5
ENDMDL
MODEL 2
REMARK VINA RESULT: -7.027328174      1.066      1.066
REMARK  5 active torsions:
REMARK  status: ('A' for Active; 'I' for Inactive)
REMARK    1  A    between atoms: C2_2  and  C4_4 
REMARK    2  A    between atoms: C2_2  and  C8_13 
REMARK    3  A    between atoms: C6_7  and  C7_8 
REMARK    4  A    between atoms: C7_8  and  O1_9 
REMARK    5  A    between atoms: C13_22  and  C14_23 
ROOT
HETATM    1  C8  UNL     1     -30.091  -7.967  -5.783  1.00  0.00    -0.005 A 
HETATM    2  C9  UNL     1     -30.768  -7.178  -4.809  1.00  0.00     0.066 A 
HETATM    3 CL1  UNL     1     -31.750  -7.897  -3.548  1.00  0.00    -0.082 Cl
HETATM    4  C10 UNL     1     -30.668  -5.812  -4.848  1.00  0.00     0.079 A 
HETATM    5 CL2  UNL     1     -31.502  -4.846  -3.646  1.00  0.00    -0.081 Cl
HETATM    6  C11 UNL     1     -29.931  -5.162  -5.802  1.00  0.00     0.080 A 
HETATM    7 CL3  UNL     1     -29.825  -3.426  -5.823  1.00  0.00    -0.081 Cl
HETATM    8  C12 UNL     1     -29.296  -5.927  -6.720  1.00  0.00     0.072 A 
HETATM    9 CL4  UNL     1     -28.328  -5.185  -7.984  1.00  0.00    -0.081 Cl
HETATM   10  C13 UNL     1     -29.362  -7.341  -6.731  1.00  0.00     0.042 A 
ENDROOT
BRANCH   1  11
HETATM   11  C2  UNL     1     -30.297  -9.390  -5.591  1.00  0.00     0.025 C 
HETATM   12  C1  UNL     1     -29.964 -10.358  -6.700  1.00  0.00     0.027 C 
HETATM   13  C3  UNL     1     -31.727  -9.688  -5.111  1.00  0.00     0.027 C 
BRANCH  11  14
HETATM   14  C4  UNL     1     -29.351  -9.876  -4.484  1.00  0.00     0.029 A 
HETATM   15  C5  UNL     1     -29.837 -10.536  -3.394  1.00  0.00     0.077 A 
HETATM   16  S1  UNL     1     -28.377 -10.867  -2.519  1.00  0.00    -0.085 SA
HETATM   17  C6  UNL     1     -27.275 -10.142  -3.606  1.00  0.00     0.074 A 
HETATM   18  N1  UNL     1     -28.067  -9.695  -4.560  1.00  0.00    -0.354 N 
ATOM     19  H1  UNL     1     -27.670  -9.204  -5.362  1.00  0.00     0.166 HD
BRANCH  17  20
HETATM   20  C7  UNL     1     -25.768 -10.035  -3.506  1.00  0.00     0.229 C 
BRANCH  20  21
HETATM   21  O1  UNL     1     -25.499  -8.873  -2.749  1.00  0.00    -0.394 OA
ATOM     22  H1  UNL     1     -24.578  -8.909  -2.518  1.00  0.00     0.209 HD
ENDBRANCH  20  21
ENDBRANCH  17  20
ENDBRANCH  11  14
ENDBRANCH   1  11
BRANCH  10  23
HETATM   23  C14 UNL     1     -28.651  -8.007  -7.804  1.00  0.00     0.133 A 
HETATM   24  N2  UNL     1     -27.371  -8.411  -7.786  1.00  0.00    -0.336 N 
HETATM   25  C15 UNL     1     -27.113  -9.043  -8.932  1.00  0.00     0.199 A 
ATOM     26  H2  UNL     1     -26.709  -8.259  -7.026  1.00  0.00     0.168 HD
HETATM   27  N3  UNL     1     -28.217  -9.046  -9.679  1.00  0.00    -0.295 N 
HETATM   28  N4  UNL     1     -29.145  -8.409  -8.976  1.00  0.00    -0.284 N 
ATOM     29  H3  UNL     1     -28.326  -9.456 -10.606  1.00  0.00     0.187 HD
ATOM     30  H4  UNL     1     -30.104  -8.250  -9.287  1.00  0.00     0.188 HD
ENDBRANCH  10  23
TORSDOF 5
ENDMDL
MODEL 3
REMARK VINA RESULT: -7.006362155      2.571      3.348
REMARK  5 active torsions:
REMARK  status: ('A' for Active; 'I' for Inactive)
REMARK    1  A    between atoms: C2_2  and  C4_4 
REMARK    2  A    between atoms: C2_2  and  C8_13 
REMARK    3  A    between atoms: C6_7  and  C7_8 
REMARK    4  A    between atoms: C7_8  and  O1_9 
REMARK    5  A    between atoms: C13_22  and  C14_23 
ROOT
HETATM    1  C8  UNL     1     -29.527  -6.745  -5.228  1.00  0.00    -0.005 A 
HETATM    2  C9  UNL     1     -29.821  -5.718  -4.286  1.00  0.00     0.066 A 
HETATM    3 CL1  UNL     1     -30.498  -6.069  -2.708  1.00  0.00    -0.082 Cl
HETATM    4  C10 UNL     1     -29.583  -4.406  -4.608  1.00  0.00     0.079 A 
HETATM    5 CL2  UNL     1     -29.946  -3.148  -3.444  1.00  0.00    -0.081 Cl
HETATM    6  C11 UNL     1     -29.066  -4.037  -5.821  1.00  0.00     0.080 A 
HETATM    7 CL3  UNL     1     -28.776  -2.364  -6.197  1.00  0.00    -0.081 Cl
HETATM    8  C12 UNL     1     -28.793  -5.025  -6.704  1.00  0.00     0.072 A 
HETATM    9 CL4  UNL     1     -28.127  -4.649  -8.285  1.00  0.00    -0.081 Cl
HETATM   10  C13 UNL     1     -29.017  -6.395  -6.429  1.00  0.00     0.042 A 
ENDROOT
BRANCH   1  11
HETATM   11  C2  UNL     1     -29.830  -8.070  -4.724  1.00  0.00     0.025 C 
HETATM   12  C1  UNL     1     -30.188  -8.263  -3.271  1.00  0.00     0.027 C 
HETATM   13  C3  UNL     1     -28.717  -9.071  -5.078  1.00  0.00     0.027 C 
BRANCH  11  14
HETATM   14  C4  UNL     1     -31.108  -8.573  -5.410  1.00  0.00     0.029 A 
HETATM   15  C5  UNL     1     -32.330  -8.083  -5.051  1.00  0.00     0.077 A 
HETATM   16  S1  UNL     1     -33.373  -8.948  -6.132  1.00  0.00    -0.085 SA
HETATM   17  C6  UNL     1     -32.176  -9.857  -6.948  1.00  0.00     0.074 A 
HETATM   18  N1  UNL     1     -31.065  -9.458  -6.360  1.00  0.00    -0.354 N 
ATOM     19  H1  UNL     1     -30.168  -9.846  -6.653  1.00  0.00     0.166 HD
BRANCH  17  20
HETATM   20  C7  UNL     1     -32.341 -10.867  -8.063  1.00  0.00     0.229 C 
BRANCH  20  21
HETATM   21  O1  UNL     1     -31.673 -10.333  -9.187  1.00  0.00    -0.394 OA
ATOM     22  H1  UNL     1     -32.283 -10.387  -9.914  1.00  0.00     0.209 HD
ENDBRANCH  20  21
ENDBRANCH  17  20
ENDBRANCH  11  14
ENDBRANCH   1  11
BRANCH  10  23
HETATM   23  C14 UNL     1     -28.703  -7.323  -7.497  1.00  0.00     0.133 A 
HETATM   24  N2  UNL     1     -27.500  -7.852  -7.769  1.00  0.00    -0.336 N 
HETATM   25  C15 UNL     1     -27.637  -8.712  -8.781  1.00  0.00     0.199 A 
ATOM     26  H2  UNL     1     -26.629  -7.634  -7.285  1.00  0.00     0.168 HD
HETATM   27  N3  UNL     1     -28.916  -8.735  -9.153  1.00  0.00    -0.295 N 
HETATM   28  N4  UNL     1     -29.552  -7.881  -8.360  1.00  0.00    -0.284 N 
ATOM     29  H3  UNL     1     -29.325  -9.297  -9.900  1.00  0.00     0.187 HD
ATOM     30  H4  UNL     1     -30.551  -7.680  -8.405  1.00  0.00     0.188 HD
ENDBRANCH  10  23
TORSDOF 5
ENDMDL
MODEL 4
REMARK VINA RESULT: -6.909579823      1.599      2.149
REMARK  5 active torsions:
REMARK  status: ('A' for Active; 'I' for Inactive)
REMARK    1  A    between atoms: C2_2  and  C4_4 
REMARK    2  A    between atoms: C2_2  and  C8_13 
REMARK    3  A    between atoms: C6_7  and  C7_8 
REMARK    4  A    between atoms: C7_8  and  O1_9 
REMARK    5  A    between atoms: C13_22  and  C14_23 
ROOT
HETATM    1  C8  UNL     1     -30.227  -6.267  -4.951  1.00  0.00    -0.005 A 
HETATM    2  C9  UNL     1     -30.238  -5.011  -4.281  1.00  0.00     0.066 A 
HETATM    3 CL1  UNL     1     -31.094  -4.769  -2.772  1.00  0.00    -0.082 Cl
HETATM    4  C10 UNL     1     -29.572  -3.942  -4.823  1.00  0.00     0.079 A 
HETATM    5 CL2  UNL     1     -29.587  -2.398  -3.992  1.00  0.00    -0.081 Cl
HETATM    6  C11 UNL     1     -28.884  -4.034  -6.003  1.00  0.00     0.080 A 
HETATM    7 CL3  UNL     1     -28.049  -2.659  -6.663  1.00  0.00    -0.081 Cl
HETATM    8  C12 UNL     1     -28.886  -5.235  -6.627  1.00  0.00     0.072 A 
HETATM    9 CL4  UNL     1     -28.032  -5.452  -8.147  1.00  0.00    -0.081 Cl
HETATM   10  C13 UNL     1     -29.554  -6.373  -6.118  1.00  0.00     0.042 A 
ENDROOT
BRANCH   1  11
HETATM   11  C2  UNL     1     -30.972  -7.288  -4.240  1.00  0.00     0.025 C 
HETATM   12  C1  UNL     1     -32.247  -7.841  -4.827  1.00  0.00     0.027 C 
HETATM   13  C3  UNL     1     -31.261  -6.859  -2.791  1.00  0.00     0.027 C 
BRANCH  11  14
HETATM   14  C4  UNL     1     -30.111  -8.556  -4.160  1.00  0.00     0.029 A 
HETATM   15  C5  UNL     1     -30.579  -9.746  -4.634  1.00  0.00     0.077 A 
HETATM   16  S1  UNL     1     -29.228 -10.789  -4.328  1.00  0.00    -0.085 SA
HETATM   17  C6  UNL     1     -28.184  -9.631  -3.625  1.00  0.00     0.074 A 
HETATM   18  N1  UNL     1     -28.912  -8.532  -3.662  1.00  0.00    -0.354 N 
ATOM     19  H1  UNL     1     -28.531  -7.658  -3.297  1.00  0.00     0.166 HD
BRANCH  17  20
HETATM   20  C7  UNL     1     -26.779  -9.813  -3.092  1.00  0.00     0.229 C 
BRANCH  20  21
HETATM   21  O1  UNL     1     -25.944  -9.989  -4.219  1.00  0.00    -0.394 OA
ATOM     22  H1  UNL     1     -26.420 -10.549  -4.821  1.00  0.00     0.209 HD
ENDBRANCH  20  21
ENDBRANCH  17  20
ENDBRANCH  11  14
ENDBRANCH   1  11
BRANCH  10  23
HETATM   23  C14 UNL     1     -29.485  -7.574  -6.927  1.00  0.00     0.133 A 
HETATM   24  N2  UNL     1     -30.442  -8.044  -7.744  1.00  0.00    -0.336 N 
HETATM   25  C15 UNL     1     -29.971  -9.128  -8.363  1.00  0.00     0.199 A 
ATOM     26  H2  UNL     1     -31.370  -7.641  -7.869  1.00  0.00     0.168 HD
HETATM   27  N3  UNL     1     -28.725  -9.351  -7.948  1.00  0.00    -0.295 N 
HETATM   28  N4  UNL     1     -28.445  -8.394  -7.072  1.00  0.00    -0.284 N 
ATOM     29  H3  UNL     1     -28.108 -10.108  -8.246  1.00  0.00     0.187 HD
ATOM     30  H4  UNL     1     -27.557  -8.299  -6.579  1.00  0.00     0.188 HD
ENDBRANCH  10  23
TORSDOF 5
ENDMDL
MODEL 5
REMARK VINA RESULT: -6.730673631      3.721      5.071
REMARK  5 active torsions:
REMARK  status: ('A' for Active; 'I' for Inactive)
REMARK    1  A    between atoms: C2_2  and  C4_4 
REMARK    2  A    between atoms: C2_2  and  C8_13 
REMARK    3  A    between atoms: C6_7  and  C7_8 
REMARK    4  A    between atoms: C7_8  and  O1_9 
REMARK    5  A    between atoms: C13_22  and  C14_23 
ROOT
HETATM    1  C8  UNL     1     -28.875 -10.131  -5.168  1.00  0.00    -0.005 A 
HETATM    2  C9  UNL     1     -27.467 -10.346  -5.145  1.00  0.00     0.066 A 
HETATM    3 CL1  UNL     1     -26.549 -10.344  -3.653  1.00  0.00    -0.082 Cl
HETATM    4  C10 UNL     1     -26.789 -10.553  -6.319  1.00  0.00     0.079 A 
HETATM    5 CL2  UNL     1     -25.057 -10.819  -6.285  1.00  0.00    -0.081 Cl
HETATM    6  C11 UNL     1     -27.421 -10.562  -7.534  1.00  0.00     0.080 A 
HETATM    7 CL3  UNL     1     -26.531 -10.828  -9.004  1.00  0.00    -0.081 Cl
HETATM    8  C12 UNL     1     -28.758 -10.355  -7.536  1.00  0.00     0.072 A 
HETATM    9 CL4  UNL     1     -29.657 -10.348  -9.045  1.00  0.00    -0.081 Cl
HETATM   10  C13 UNL     1     -29.512 -10.135  -6.358  1.00  0.00     0.042 A 
ENDROOT
BRANCH   1  11
HETATM   11  C2  UNL     1     -29.432  -9.937  -3.843  1.00  0.00     0.025 C 
HETATM   12  C1  UNL     1     -28.580 -10.179  -2.621  1.00  0.00     0.027 C 
HETATM   13  C3  UNL     1     -30.746 -10.718  -3.670  1.00  0.00     0.027 C 
BRANCH  11  14
HETATM   14  C4  UNL     1     -29.777  -8.451  -3.670  1.00  0.00     0.029 A 
HETATM   15  C5  UNL     1     -31.071  -8.052  -3.502  1.00  0.00     0.077 A 
HETATM   16  S1  UNL     1     -30.877  -6.338  -3.330  1.00  0.00    -0.085 SA
HETATM   17  C6  UNL     1     -29.176  -6.270  -3.486  1.00  0.00     0.074 A 
HETATM   18  N1  UNL     1     -28.855  -7.538  -3.658  1.00  0.00    -0.354 N 
ATOM     19  H1  UNL     1     -27.877  -7.801  -3.782  1.00  0.00     0.166 HD
BRANCH  17  20
HETATM   20  C7  UNL     1     -28.261  -5.064  -3.440  1.00  0.00     0.229 C 
BRANCH  20  21
HETATM   21  O1  UNL     1     -26.959  -5.560  -3.203  1.00  0.00    -0.394 OA
ATOM     22  H1  UNL     1     -26.658  -5.151  -2.401  1.00  0.00     0.209 HD
ENDBRANCH  20  21
ENDBRANCH  17  20
ENDBRANCH  11  14
ENDBRANCH   1  11
BRANCH  10  23
HETATM   23  C14 UNL     1     -30.930  -9.896  -6.539  1.00  0.00     0.133 A 
HETATM   24  N2  UNL     1     -31.521  -8.708  -6.744  1.00  0.00    -0.336 N 
HETATM   25  C15 UNL     1     -32.826  -8.913  -6.933  1.00  0.00     0.199 A 
ATOM     26  H2  UNL     1     -31.051  -7.802  -6.752  1.00  0.00     0.168 HD
HETATM   27  N3  UNL     1     -33.070 -10.220  -6.851  1.00  0.00    -0.295 N 
HETATM   28  N4  UNL     1     -31.902 -10.805  -6.610  1.00  0.00    -0.284 N 
ATOM     29  H3  UNL     1     -33.974 -10.681  -6.954  1.00  0.00     0.187 HD
ATOM     30  H4  UNL     1     -31.768 -11.809  -6.496  1.00  0.00     0.188 HD
ENDBRANCH  10  23
TORSDOF 5
ENDMDL
