MODEL 1
REMARK VINA RESULT: -8.263485477      0.000      0.000
REMARK  8 active torsions:
REMARK  status: ('A' for Active; 'I' for Inactive)
REMARK    1  A    between atoms: O1_2  and  C2_3 
REMARK    2  A    between atoms: C5_6  and  C6_7 
REMARK    3  A    between atoms: C6_7  and  N1_8 
REMARK    4  A    between atoms: N1_8  and  N2_9 
REMARK    5  A    between atoms: N2_9  and  C7_11 
REMARK    6  A    between atoms: C8_13  and  C9_14 
REMARK    7  A    between atoms: C12_21  and  C13_22 
REMARK    8  A    between atoms: C16_26  and  O2_27 
ROOT
HETATM    1  C7  UNL     1     -28.656  -3.754  -6.457  1.00  0.00     0.113 A 
HETATM    2  S1  UNL     1     -29.144  -5.363  -6.954  1.00  0.00    -0.070 SA
HETATM    3  C8  UNL     1     -29.807  -6.301  -5.713  1.00  0.00     0.041 A 
HETATM    4  C10 UNL     1     -29.867  -5.682  -4.484  1.00  0.00     0.072 A 
HETATM    5 CL3  UNL     1     -30.531  -6.651  -3.154  1.00  0.00    -0.081 Cl
HETATM    6  C11 UNL     1     -29.454  -4.418  -4.218  1.00  0.00     0.068 A 
HETATM    7 CL4  UNL     1     -29.821  -3.817  -2.574  1.00  0.00    -0.082 Cl
HETATM    8  C12 UNL     1     -28.884  -3.511  -5.143  1.00  0.00     0.035 A 
ENDROOT
BRANCH   1   9
HETATM    9  N2  UNL     1     -27.999  -3.079  -7.301  1.00  0.00    -0.229 N 
ATOM     10  H2  UNL     1     -27.183  -2.677  -6.840  1.00  0.00     0.202 HD
BRANCH   9  11
HETATM   11  N1  UNL     1     -27.997  -2.731  -8.499  1.00  0.00    -0.337 NA
BRANCH  11  12
HETATM   12  C6  UNL     1     -28.081  -2.392  -9.655  1.00  0.00     0.220 C 
BRANCH  12  13
HETATM   13  C5  UNL     1     -26.991  -2.106 -10.587  1.00  0.00    -0.003 A 
HETATM   14  C4  UNL     1     -27.229  -1.618 -11.880  1.00  0.00     0.017 A 
HETATM   15  C3  UNL     1     -26.229  -1.379 -12.781  1.00  0.00     0.040 A 
HETATM   16  C2  UNL     1     -24.931  -1.612 -12.445  1.00  0.00     0.101 A 
HETATM   17  C16 UNL     1     -24.635  -2.096 -11.160  1.00  0.00     0.099 A 
HETATM   18  C15 UNL     1     -25.670  -2.327 -10.277  1.00  0.00     0.053 A 
BRANCH  16  19
HETATM   19  O1  UNL     1     -23.907  -1.383 -13.334  1.00  0.00    -0.353 OA
HETATM   20  C1  UNL     1     -23.309  -0.149 -13.586  1.00  0.00     0.210 C 
ENDBRANCH  16  19
BRANCH  17  21
HETATM   21  O2  UNL     1     -23.312  -2.312 -10.878  1.00  0.00    -0.358 OA
ATOM     22  H2  UNL     1     -23.122  -2.819 -10.097  1.00  0.00     0.217 HD
ENDBRANCH  17  21
ENDBRANCH  12  13
ENDBRANCH  11  12
ENDBRANCH   9  11
ENDBRANCH   1   9
BRANCH   8  23
HETATM   23  C13 UNL     1     -28.496  -2.180  -4.530  1.00  0.00     0.203 C 
HETATM   24  C14 UNL     1     -29.379  -1.162  -5.265  1.00  0.00     0.050 C 
HETATM   25  F1  UNL     1     -27.184  -1.910  -4.962  1.00  0.00    -0.245 F 
ENDBRANCH   8  23
BRANCH   3  26
HETATM   26  C9  UNL     1     -30.356  -7.700  -5.837  1.00  0.00     0.220 C 
HETATM   27 CL1  UNL     1     -28.973  -8.853  -5.633  1.00  0.00    -0.102 Cl
HETATM   28 CL2  UNL     1     -30.984  -7.960  -7.483  1.00  0.00    -0.102 Cl
ENDBRANCH   3  26
TORSDOF 8
ENDMDL
MODEL 2
REMARK VINA RESULT: -8.261531403      1.191      1.658
REMARK  8 active torsions:
REMARK  status: ('A' for Active; 'I' for Inactive)
REMARK    1  A    between atoms: O1_2  and  C2_3 
REMARK    2  A    between atoms: C5_6  and  C6_7 
REMARK    3  A    between atoms: C6_7  and  N1_8 
REMARK    4  A    between atoms: N1_8  and  N2_9 
REMARK    5  A    between atoms: N2_9  and  C7_11 
REMARK    6  A    between atoms: C8_13  and  C9_14 
REMARK    7  A    between atoms: C12_21  and  C13_22 
REMARK    8  A    between atoms: C16_26  and  O2_27 
ROOT
HETATM    1  C7  UNL     1     -28.418  -3.278  -7.191  1.00  0.00     0.113 A 
HETATM    2  S1  UNL     1     -28.687  -4.929  -7.715  1.00  0.00    -0.070 SA
HETATM    3  C8  UNL     1     -29.012  -6.011  -6.457  1.00  0.00     0.041 A 
HETATM    4  C10 UNL     1     -29.012  -5.454  -5.196  1.00  0.00     0.072 A 
HETATM    5 CL3  UNL     1     -29.321  -6.570  -3.852  1.00  0.00    -0.081 Cl
HETATM    6  C11 UNL     1     -28.788  -4.147  -4.912  1.00  0.00     0.068 A 
HETATM    7 CL4  UNL     1     -29.030  -3.677  -3.204  1.00  0.00    -0.082 Cl
HETATM    8  C12 UNL     1     -28.507  -3.123  -5.848  1.00  0.00     0.035 A 
ENDROOT
BRANCH   1   9
HETATM    9  N2  UNL     1     -28.001  -2.468  -8.071  1.00  0.00    -0.229 N 
ATOM     10  H2  UNL     1     -27.686  -1.615  -7.612  1.00  0.00     0.202 HD
BRANCH   9  11
HETATM   11  N1  UNL     1     -27.841  -2.348  -9.303  1.00  0.00    -0.337 NA
BRANCH  11  12
HETATM   12  C6  UNL     1     -27.727  -2.155 -10.490  1.00  0.00     0.220 C 
BRANCH  12  13
HETATM   13  C5  UNL     1     -26.505  -1.869 -11.238  1.00  0.00    -0.003 A 
HETATM   14  C4  UNL     1     -25.283  -1.619 -10.596  1.00  0.00     0.017 A 
HETATM   15  C3  UNL     1     -24.135  -1.314 -11.273  1.00  0.00     0.040 A 
HETATM   16  C2  UNL     1     -24.138  -1.240 -12.632  1.00  0.00     0.101 A 
HETATM   17  C16 UNL     1     -25.334  -1.486 -13.326  1.00  0.00     0.099 A 
HETATM   18  C15 UNL     1     -26.474  -1.791 -12.610  1.00  0.00     0.053 A 
BRANCH  16  19
HETATM   19  O1  UNL     1     -22.998  -0.930 -13.336  1.00  0.00    -0.353 OA
HETATM   20  C1  UNL     1     -21.692  -1.065 -12.868  1.00  0.00     0.210 C 
ENDBRANCH  16  19
BRANCH  17  21
HETATM   21  O2  UNL     1     -25.277  -1.397 -14.692  1.00  0.00    -0.358 OA
ATOM     22  H2  UNL     1     -25.952  -0.876 -15.112  1.00  0.00     0.217 HD
ENDBRANCH  17  21
ENDBRANCH  12  13
ENDBRANCH  11  12
ENDBRANCH   9  11
ENDBRANCH   1   9
BRANCH   8  23
HETATM   23  C13 UNL     1     -28.272  -1.767  -5.213  1.00  0.00     0.203 C 
HETATM   24  C14 UNL     1     -29.587  -1.012  -5.455  1.00  0.00     0.050 C 
HETATM   25  F1  UNL     1     -27.319  -1.112  -6.014  1.00  0.00    -0.245 F 
ENDBRANCH   8  23
BRANCH   3  26
HETATM   26  C9  UNL     1     -29.328  -7.479  -6.590  1.00  0.00     0.220 C 
HETATM   27 CL1  UNL     1     -28.122  -8.198  -7.735  1.00  0.00    -0.102 Cl
HETATM   28 CL2  UNL     1     -30.924  -7.687  -7.353  1.00  0.00    -0.102 Cl
ENDBRANCH   3  26
TORSDOF 8
ENDMDL
MODEL 3
REMARK VINA RESULT: -8.119474989      0.667      1.335
REMARK  8 active torsions:
REMARK  status: ('A' for Active; 'I' for Inactive)
REMARK    1  A    between atoms: O1_2  and  C2_3 
REMARK    2  A    between atoms: C5_6  and  C6_7 
REMARK    3  A    between atoms: C6_7  and  N1_8 
REMARK    4  A    between atoms: N1_8  and  N2_9 
REMARK    5  A    between atoms: N2_9  and  C7_11 
REMARK    6  A    between atoms: C8_13  and  C9_14 
REMARK    7  A    between atoms: C12_21  and  C13_22 
REMARK    8  A    between atoms: C16_26  and  O2_27 
ROOT
HETATM    1  C7  UNL     1     -28.641  -3.664  -6.705  1.00  0.00     0.113 A 
HETATM    2  S1  UNL     1     -29.127  -5.289  -7.150  1.00  0.00    -0.070 SA
HETATM    3  C8  UNL     1     -29.838  -6.169  -5.894  1.00  0.00     0.041 A 
HETATM    4  C10 UNL     1     -29.931  -5.498  -4.693  1.00  0.00     0.072 A 
HETATM    5 CL3  UNL     1     -30.646  -6.406  -3.347  1.00  0.00    -0.081 Cl
HETATM    6  C11 UNL     1     -29.516  -4.227  -4.467  1.00  0.00     0.068 A 
HETATM    7 CL4  UNL     1     -29.930  -3.555  -2.863  1.00  0.00    -0.082 Cl
HETATM    8  C12 UNL     1     -28.908  -3.364  -5.411  1.00  0.00     0.035 A 
ENDROOT
BRANCH   1   9
HETATM    9  N2  UNL     1     -27.951  -3.029  -7.555  1.00  0.00    -0.229 N 
ATOM     10  H2  UNL     1     -27.085  -2.721  -7.113  1.00  0.00     0.202 HD
BRANCH   9  11
HETATM   11  N1  UNL     1     -27.956  -2.648  -8.743  1.00  0.00    -0.337 NA
BRANCH  11  12
HETATM   12  C6  UNL     1     -28.046  -2.266  -9.885  1.00  0.00     0.220 C 
BRANCH  12  13
HETATM   13  C5  UNL     1     -26.961  -1.984 -10.824  1.00  0.00    -0.003 A 
HETATM   14  C4  UNL     1     -25.645  -1.766 -10.392  1.00  0.00     0.017 A 
HETATM   15  C3  UNL     1     -24.622  -1.465 -11.247  1.00  0.00     0.040 A 
HETATM   16  C2  UNL     1     -24.851  -1.365 -12.585  1.00  0.00     0.101 A 
HETATM   17  C16 UNL     1     -26.151  -1.579 -13.073  1.00  0.00     0.099 A 
HETATM   18  C15 UNL     1     -27.160  -1.880 -12.180  1.00  0.00     0.053 A 
BRANCH  16  19
HETATM   19  O1  UNL     1     -23.840  -1.059 -13.466  1.00  0.00    -0.353 OA
HETATM   20  C1  UNL     1     -23.118   0.133 -13.493  1.00  0.00     0.210 C 
ENDBRANCH  16  19
BRANCH  17  21
HETATM   21  O2  UNL     1     -26.323  -1.465 -14.427  1.00  0.00    -0.358 OA
ATOM     22  H2  UNL     1     -26.059  -0.641 -14.820  1.00  0.00     0.217 HD
ENDBRANCH  17  21
ENDBRANCH  12  13
ENDBRANCH  11  12
ENDBRANCH   9  11
ENDBRANCH   1   9
BRANCH   8  23
HETATM   23  C13 UNL     1     -28.529  -2.012  -4.841  1.00  0.00     0.203 C 
HETATM   24  C14 UNL     1     -29.526  -1.043  -5.492  1.00  0.00     0.050 C 
HETATM   25  F1  UNL     1     -27.278  -1.682  -5.397  1.00  0.00    -0.245 F 
ENDBRANCH   8  23
BRANCH   3  26
HETATM   26  C9  UNL     1     -30.395  -7.567  -5.977  1.00  0.00     0.220 C 
HETATM   27 CL1  UNL     1     -29.090  -8.710  -5.455  1.00  0.00    -0.102 Cl
HETATM   28 CL2  UNL     1     -30.764  -7.972  -7.671  1.00  0.00    -0.102 Cl
ENDBRANCH   3  26
TORSDOF 8
ENDMDL
MODEL 4
REMARK VINA RESULT: -7.995747887      1.254      1.766
REMARK  8 active torsions:
REMARK  status: ('A' for Active; 'I' for Inactive)
REMARK    1  A    between atoms: O1_2  and  C2_3 
REMARK    2  A    between atoms: C5_6  and  C6_7 
REMARK    3  A    between atoms: C6_7  and  N1_8 
REMARK    4  A    between atoms: N1_8  and  N2_9 
REMARK    5  A    between atoms: N2_9  and  C7_11 
REMARK    6  A    between atoms: C8_13  and  C9_14 
REMARK    7  A    between atoms: C12_21  and  C13_22 
REMARK    8  A    between atoms: C16_26  and  O2_27 
ROOT
HETATM    1  C7  UNL     1     -28.427  -3.353  -7.347  1.00  0.00     0.113 A 
HETATM    2  S1  UNL     1     -28.993  -5.002  -7.531  1.00  0.00    -0.070 SA
HETATM    3  C8  UNL     1     -29.783  -5.620  -6.171  1.00  0.00     0.041 A 
HETATM    4  C10 UNL     1     -29.868  -4.752  -5.103  1.00  0.00     0.072 A 
HETATM    5 CL3  UNL     1     -30.666  -5.382  -3.649  1.00  0.00    -0.081 Cl
HETATM    6  C11 UNL     1     -29.386  -3.485  -5.078  1.00  0.00     0.068 A 
HETATM    7 CL4  UNL     1     -29.800  -2.532  -3.622  1.00  0.00    -0.082 Cl
HETATM    8  C12 UNL     1     -28.708  -2.826  -6.131  1.00  0.00     0.035 A 
ENDROOT
BRANCH   1   9
HETATM    9  N2  UNL     1     -27.681  -2.907  -8.268  1.00  0.00    -0.229 N 
ATOM     10  H2  UNL     1     -26.719  -2.880  -7.929  1.00  0.00     0.202 HD
BRANCH   9  11
HETATM   11  N1  UNL     1     -27.707  -2.490  -9.443  1.00  0.00    -0.337 NA
BRANCH  11  12
HETATM   12  C6  UNL     1     -27.647  -2.077 -10.576  1.00  0.00     0.220 C 
BRANCH  12  13
HETATM   13  C5  UNL     1     -26.450  -1.750 -11.349  1.00  0.00    -0.003 A 
HETATM   14  C4  UNL     1     -25.243  -1.392 -10.731  1.00  0.00     0.017 A 
HETATM   15  C3  UNL     1     -24.121  -1.048 -11.432  1.00  0.00     0.040 A 
HETATM   16  C2  UNL     1     -24.137  -1.040 -12.793  1.00  0.00     0.101 A 
HETATM   17  C16 UNL     1     -25.318  -1.395 -13.463  1.00  0.00     0.099 A 
HETATM   18  C15 UNL     1     -26.432  -1.736 -12.723  1.00  0.00     0.053 A 
BRANCH  16  19
HETATM   19  O1  UNL     1     -23.023  -0.693 -13.521  1.00  0.00    -0.353 OA
HETATM   20  C1  UNL     1     -21.704  -0.765 -13.074  1.00  0.00     0.210 C 
ENDBRANCH  16  19
BRANCH  17  21
HETATM   21  O2  UNL     1     -25.276  -1.369 -14.832  1.00  0.00    -0.358 OA
ATOM     22  H2  UNL     1     -24.652  -1.952 -15.249  1.00  0.00     0.217 HD
ENDBRANCH  17  21
ENDBRANCH  12  13
ENDBRANCH  11  12
ENDBRANCH   9  11
ENDBRANCH   1   9
BRANCH   8  23
HETATM   23  C13 UNL     1     -28.266  -1.419  -5.782  1.00  0.00     0.203 C 
HETATM   24  C14 UNL     1     -27.405  -1.602  -4.524  1.00  0.00     0.050 C 
HETATM   25  F1  UNL     1     -29.417  -0.737  -5.344  1.00  0.00    -0.245 F 
ENDBRANCH   8  23
BRANCH   3  26
HETATM   26  C9  UNL     1     -30.418  -6.981  -6.038  1.00  0.00     0.220 C 
HETATM   27 CL1  UNL     1     -29.208  -8.075  -5.249  1.00  0.00    -0.102 Cl
HETATM   28 CL2  UNL     1     -30.728  -7.664  -7.653  1.00  0.00    -0.102 Cl
ENDBRANCH   3  26
TORSDOF 8
ENDMDL
MODEL 5
REMARK VINA RESULT: -7.764143974      9.620     12.823
REMARK  8 active torsions:
REMARK  status: ('A' for Active; 'I' for Inactive)
REMARK    1  A    between atoms: O1_2  and  C2_3 
REMARK    2  A    between atoms: C5_6  and  C6_7 
REMARK    3  A    between atoms: C6_7  and  N1_8 
REMARK    4  A    between atoms: N1_8  and  N2_9 
REMARK    5  A    between atoms: N2_9  and  C7_11 
REMARK    6  A    between atoms: C8_13  and  C9_14 
REMARK    7  A    between atoms: C12_21  and  C13_22 
REMARK    8  A    between atoms: C16_26  and  O2_27 
ROOT
HETATM    1  C7  UNL     1     -19.049   0.275 -13.976  1.00  0.00     0.113 A 
HETATM    2  S1  UNL     1     -17.559  -0.599 -13.676  1.00  0.00    -0.070 SA
HETATM    3  C8  UNL     1     -16.164   0.219 -14.170  1.00  0.00     0.041 A 
HETATM    4  C10 UNL     1     -16.385   1.451 -14.748  1.00  0.00     0.072 A 
HETATM    5 CL3  UNL     1     -14.943   2.321 -15.304  1.00  0.00    -0.081 Cl
HETATM    6  C11 UNL     1     -17.598   2.029 -14.928  1.00  0.00     0.068 A 
HETATM    7 CL4  UNL     1     -17.567   3.710 -15.538  1.00  0.00    -0.082 Cl
HETATM    8  C12 UNL     1     -18.851   1.478 -14.567  1.00  0.00     0.035 A 
ENDROOT
BRANCH   1   9
HETATM    9  N2  UNL     1     -20.125  -0.364 -13.785  1.00  0.00    -0.229 N 
ATOM     10  H2  UNL     1     -20.495  -0.664 -14.686  1.00  0.00     0.202 HD
BRANCH   9  11
HETATM   11  N1  UNL     1     -20.892  -0.755 -12.882  1.00  0.00    -0.337 NA
BRANCH  11  12
HETATM   12  C6  UNL     1     -21.582  -1.202 -11.997  1.00  0.00     0.220 C 
BRANCH  12  13
HETATM   13  C5  UNL     1     -23.028  -1.419 -12.010  1.00  0.00    -0.003 A 
HETATM   14  C4  UNL     1     -23.819  -1.078 -13.117  1.00  0.00     0.017 A 
HETATM   15  C3  UNL     1     -25.176  -1.238 -13.139  1.00  0.00     0.040 A 
HETATM   16  C2  UNL     1     -25.825  -1.748 -12.056  1.00  0.00     0.101 A 
HETATM   17  C16 UNL     1     -25.081  -2.111 -10.923  1.00  0.00     0.099 A 
HETATM   18  C15 UNL     1     -23.712  -1.935 -10.936  1.00  0.00     0.053 A 
BRANCH  16  19
HETATM   19  O1  UNL     1     -27.191  -1.915 -12.052  1.00  0.00    -0.353 OA
HETATM   20  C1  UNL     1     -27.963  -2.327 -13.137  1.00  0.00     0.210 C 
ENDBRANCH  16  19
BRANCH  17  21
HETATM   21  O2  UNL     1     -25.787  -2.619  -9.864  1.00  0.00    -0.358 OA
ATOM     22  H2  UNL     1     -25.280  -3.034  -9.176  1.00  0.00     0.217 HD
ENDBRANCH  17  21
ENDBRANCH  12  13
ENDBRANCH  11  12
ENDBRANCH   9  11
ENDBRANCH   1   9
BRANCH   8  23
HETATM   23  C13 UNL     1     -20.030   2.359 -14.930  1.00  0.00     0.203 C 
HETATM   24  C14 UNL     1     -20.517   2.901 -13.579  1.00  0.00     0.050 C 
HETATM   25  F1  UNL     1     -21.051   1.497 -15.370  1.00  0.00    -0.245 F 
ENDBRANCH   8  23
BRANCH   3  26
HETATM   26  C9  UNL     1     -14.740  -0.249 -14.008  1.00  0.00     0.220 C 
HETATM   27 CL1  UNL     1     -14.788  -1.912 -13.289  1.00  0.00    -0.102 Cl
HETATM   28 CL2  UNL     1     -13.897   0.781 -12.825  1.00  0.00    -0.102 Cl
ENDBRANCH   3  26
TORSDOF 8
ENDMDL
