MODEL 1
REMARK VINA RESULT: -7.365513473      0.000      0.000
REMARK  5 active torsions:
REMARK  status: ('A' for Active; 'I' for Inactive)
REMARK    1  A    between atoms: C1_2  and  C2_4 
REMARK    2  A    between atoms: C2_4  and  C3_5 
REMARK    3  A    between atoms: C3_5  and  C4_7 
REMARK    4  A    between atoms: C8_14  and  C9_15 
REMARK    5  A    between atoms: C14_22  and  O4_23 
ROOT
HETATM    1  C4  UNL     1     -28.251  -9.261  -8.109  1.00  0.00     0.121 A 
HETATM    2  N1  UNL     1     -29.012  -9.349  -7.036  1.00  0.00    -0.349 N 
ATOM      3  H1  UNL     1     -29.210 -10.264  -6.632  1.00  0.00     0.166 HD
HETATM    4  C5  UNL     1     -29.510  -8.282  -6.488  1.00  0.00     0.042 A 
HETATM    5  C6  UNL     1     -29.217  -7.073  -7.072  1.00  0.00     0.009 A 
HETATM    6  S1  UNL     1     -28.219  -7.563  -8.384  1.00  0.00    -0.071 SA
HETATM    7  C7  UNL     1     -29.696  -5.709  -6.709  1.00  0.00     0.058 C 
HETATM    8  C8  UNL     1     -29.788  -5.470  -5.229  1.00  0.00     0.028 C 
HETATM    9  C15 UNL     1     -31.072  -5.980  -4.740  1.00  0.00     0.011 C 
HETATM   10  C16 UNL     1     -31.486  -7.311  -5.383  1.00  0.00     0.027 C 
HETATM   11  C17 UNL     1     -30.377  -8.365  -5.245  1.00  0.00     0.133 C 
HETATM   12 CL3  UNL     1     -31.140  -9.927  -5.046  1.00  0.00    -0.118 Cl
ENDROOT
BRANCH   8  13
HETATM   13  C9  UNL     1     -29.298  -4.165  -4.848  1.00  0.00     0.003 A 
HETATM   14  C10 UNL     1     -28.232  -3.954  -3.982  1.00  0.00     0.043 A 
HETATM   15 CL1  UNL     1     -27.486  -5.330  -3.193  1.00  0.00    -0.084 Cl
HETATM   16  C11 UNL     1     -27.765  -2.687  -3.738  1.00  0.00     0.026 A 
HETATM   17  C12 UNL     1     -28.330  -1.579  -4.336  1.00  0.00     0.028 A 
HETATM   18  C13 UNL     1     -29.386  -1.761  -5.199  1.00  0.00     0.067 A 
HETATM   19 CL2  UNL     1     -30.078  -0.316  -5.923  1.00  0.00    -0.081 Cl
HETATM   20  C14 UNL     1     -29.868  -3.035  -5.460  1.00  0.00     0.095 A 
BRANCH  20  21
HETATM   21  O4  UNL     1     -30.913  -3.069  -6.361  1.00  0.00    -0.358 OA
ATOM     22  H4  UNL     1     -31.098  -3.790  -6.951  1.00  0.00     0.217 HD
ENDBRANCH  20  21
ENDBRANCH   8  13
BRANCH   1  23
HETATM   23  C3  UNL     1     -27.650 -10.345  -8.863  1.00  0.00     0.192 C 
HETATM   24  O3  UNL     1     -26.567 -10.853  -8.446  1.00  0.00    -0.290 OA
BRANCH  23  25
HETATM   25  C2  UNL     1     -28.262 -10.868 -10.082  1.00  0.00     0.199 C 
BRANCH  25  26
HETATM   26  C1  UNL     1     -27.708 -10.246 -11.323  1.00  0.00     0.180 C 
HETATM   27  O1  UNL     1     -26.625  -9.628 -11.303  1.00  0.00    -0.648 OA
HETATM   28  O2  UNL     1     -28.420 -10.364 -12.505  1.00  0.00    -0.648 OA
ENDBRANCH  25  26
ENDBRANCH  23  25
ENDBRANCH   1  23
TORSDOF 5
ENDMDL
MODEL 2
REMARK VINA RESULT: -7.270133682      1.660      1.931
REMARK  5 active torsions:
REMARK  status: ('A' for Active; 'I' for Inactive)
REMARK    1  A    between atoms: C1_2  and  C2_4 
REMARK    2  A    between atoms: C2_4  and  C3_5 
REMARK    3  A    between atoms: C3_5  and  C4_7 
REMARK    4  A    between atoms: C8_14  and  C9_15 
REMARK    5  A    between atoms: C14_22  and  O4_23 
ROOT
HETATM    1  C4  UNL     1     -28.116  -8.972  -7.569  1.00  0.00     0.121 A 
HETATM    2  N1  UNL     1     -28.716  -8.816  -6.406  1.00  0.00    -0.349 N 
ATOM      3  H1  UNL     1     -28.837  -9.619  -5.789  1.00  0.00     0.166 HD
HETATM    4  C5  UNL     1     -29.155  -7.651  -6.038  1.00  0.00     0.042 A 
HETATM    5  C6  UNL     1     -28.973  -6.601  -6.906  1.00  0.00     0.009 A 
HETATM    6  S1  UNL     1     -28.159  -7.375  -8.208  1.00  0.00    -0.071 SA
HETATM    7  C7  UNL     1     -29.425  -5.186  -6.783  1.00  0.00     0.058 C 
HETATM    8  C8  UNL     1     -29.313  -4.630  -5.392  1.00  0.00     0.028 C 
HETATM    9  C15 UNL     1     -30.505  -5.007  -4.628  1.00  0.00     0.011 C 
HETATM   10  C16 UNL     1     -30.977  -6.443  -4.901  1.00  0.00     0.027 C 
HETATM   11  C17 UNL     1     -29.837  -7.452  -4.696  1.00  0.00     0.133 C 
HETATM   12 CL3  UNL     1     -30.531  -8.925  -4.057  1.00  0.00    -0.118 Cl
ENDROOT
BRANCH   8  13
HETATM   13  C9  UNL     1     -28.803  -3.277  -5.378  1.00  0.00     0.003 A 
HETATM   14  C10 UNL     1     -28.405  -2.582  -6.514  1.00  0.00     0.043 A 
HETATM   15 CL1  UNL     1     -28.399  -3.404  -8.062  1.00  0.00    -0.084 Cl
HETATM   16  C11 UNL     1     -28.016  -1.269  -6.434  1.00  0.00     0.026 A 
HETATM   17  C12 UNL     1     -28.001  -0.590  -5.232  1.00  0.00     0.028 A 
HETATM   18  C13 UNL     1     -28.392  -1.255  -4.093  1.00  0.00     0.067 A 
HETATM   19 CL2  UNL     1     -28.343  -0.349  -2.587  1.00  0.00    -0.081 Cl
HETATM   20  C14 UNL     1     -28.792  -2.582  -4.157  1.00  0.00     0.095 A 
BRANCH  20  21
HETATM   21  O4  UNL     1     -29.178  -3.113  -2.943  1.00  0.00    -0.358 OA
ATOM     22  H4  UNL     1     -29.818  -2.723  -2.359  1.00  0.00     0.217 HD
ENDBRANCH  20  21
ENDBRANCH   8  13
BRANCH   1  23
HETATM   23  C3  UNL     1     -27.604 -10.200  -8.148  1.00  0.00     0.192 C 
HETATM   24  O3  UNL     1     -26.546 -10.706  -7.669  1.00  0.00    -0.290 OA
BRANCH  23  25
HETATM   25  C2  UNL     1     -28.278 -10.868  -9.258  1.00  0.00     0.199 C 
BRANCH  25  26
HETATM   26  C1  UNL     1     -27.876 -10.326 -10.592  1.00  0.00     0.180 C 
HETATM   27  O1  UNL     1     -26.790  -9.731 -10.743  1.00  0.00    -0.648 OA
HETATM   28  O2  UNL     1     -28.732 -10.495 -11.667  1.00  0.00    -0.648 OA
ENDBRANCH  25  26
ENDBRANCH  23  25
ENDBRANCH   1  23
TORSDOF 5
ENDMDL
MODEL 3
REMARK VINA RESULT: -7.228294542      2.962      7.969
REMARK  5 active torsions:
REMARK  status: ('A' for Active; 'I' for Inactive)
REMARK    1  A    between atoms: C1_2  and  C2_4 
REMARK    2  A    between atoms: C2_4  and  C3_5 
REMARK    3  A    between atoms: C3_5  and  C4_7 
REMARK    4  A    between atoms: C8_14  and  C9_15 
REMARK    5  A    between atoms: C14_22  and  O4_23 
ROOT
HETATM    1  C4  UNL     1     -29.441  -2.623  -5.518  1.00  0.00     0.121 A 
HETATM    2  N1  UNL     1     -30.254  -3.360  -4.788  1.00  0.00    -0.349 N 
ATOM      3  H1  UNL     1     -30.904  -2.907  -4.145  1.00  0.00     0.166 HD
HETATM    4  C5  UNL     1     -30.236  -4.655  -4.878  1.00  0.00     0.042 A 
HETATM    5  C6  UNL     1     -29.340  -5.217  -5.755  1.00  0.00     0.009 A 
HETATM    6  S1  UNL     1     -28.580  -3.819  -6.407  1.00  0.00    -0.071 SA
HETATM    7  C7  UNL     1     -29.052  -6.656  -6.016  1.00  0.00     0.058 C 
HETATM    8  C8  UNL     1     -30.274  -7.531  -6.017  1.00  0.00     0.028 C 
HETATM    9  C15 UNL     1     -30.590  -7.913  -4.638  1.00  0.00     0.011 C 
HETATM   10  C16 UNL     1     -30.399  -6.772  -3.628  1.00  0.00     0.027 C 
HETATM   11  C17 UNL     1     -31.175  -5.517  -4.054  1.00  0.00     0.133 C 
HETATM   12 CL3  UNL     1     -31.742  -4.717  -2.604  1.00  0.00    -0.118 Cl
ENDROOT
BRANCH   8  13
HETATM   13  C9  UNL     1     -30.256  -8.504  -7.086  1.00  0.00     0.003 A 
HETATM   14  C10 UNL     1     -31.393  -9.110  -7.607  1.00  0.00     0.043 A 
HETATM   15 CL1  UNL     1     -32.950  -8.786  -6.869  1.00  0.00    -0.084 Cl
HETATM   16  C11 UNL     1     -31.307  -9.957  -8.683  1.00  0.00     0.026 A 
HETATM   17  C12 UNL     1     -30.099 -10.241  -9.287  1.00  0.00     0.028 A 
HETATM   18  C13 UNL     1     -28.959  -9.651  -8.791  1.00  0.00     0.067 A 
HETATM   19 CL2  UNL     1     -27.445 -10.057  -9.588  1.00  0.00    -0.081 Cl
HETATM   20  C14 UNL     1     -29.028  -8.790  -7.706  1.00  0.00     0.095 A 
BRANCH  20  21
HETATM   21  O4  UNL     1     -27.812  -8.256  -7.332  1.00  0.00    -0.358 OA
ATOM     22  H4  UNL     1     -27.067  -8.761  -7.030  1.00  0.00     0.217 HD
ENDBRANCH  20  21
ENDBRANCH   8  13
BRANCH   1  23
HETATM   23  C3  UNL     1     -29.303  -1.179  -5.514  1.00  0.00     0.192 C 
HETATM   24  O3  UNL     1     -30.163  -0.482  -6.130  1.00  0.00    -0.290 OA
BRANCH  23  25
HETATM   25  C2  UNL     1     -28.209  -0.511  -4.814  1.00  0.00     0.199 C 
BRANCH  25  26
HETATM   26  C1  UNL     1     -28.300  -0.649  -3.328  1.00  0.00     0.180 C 
HETATM   27  O1  UNL     1     -28.190  -1.763  -2.779  1.00  0.00    -0.648 OA
HETATM   28  O2  UNL     1     -28.512   0.486  -2.564  1.00  0.00    -0.648 OA
ENDBRANCH  25  26
ENDBRANCH  23  25
ENDBRANCH   1  23
TORSDOF 5
ENDMDL
MODEL 4
REMARK VINA RESULT: -7.073537068     13.339     14.841
REMARK  5 active torsions:
REMARK  status: ('A' for Active; 'I' for Inactive)
REMARK    1  A    between atoms: C1_2  and  C2_4 
REMARK    2  A    between atoms: C2_4  and  C3_5 
REMARK    3  A    between atoms: C3_5  and  C4_7 
REMARK    4  A    between atoms: C8_14  and  C9_15 
REMARK    5  A    between atoms: C14_22  and  O4_23 
ROOT
HETATM    1  C4  UNL     1     -22.264  -0.907 -12.595  1.00  0.00     0.121 A 
HETATM    2  N1  UNL     1     -22.160   0.394 -12.781  1.00  0.00    -0.349 N 
ATOM      3  H1  UNL     1     -22.865   1.017 -12.386  1.00  0.00     0.166 HD
HETATM    4  C5  UNL     1     -21.172   0.890 -13.461  1.00  0.00     0.042 A 
HETATM    5  C6  UNL     1     -20.251   0.009 -13.976  1.00  0.00     0.009 A 
HETATM    6  S1  UNL     1     -20.878  -1.495 -13.427  1.00  0.00    -0.071 SA
HETATM    7  C7  UNL     1     -19.068   0.279 -14.841  1.00  0.00     0.058 C 
HETATM    8  C8  UNL     1     -18.321   1.531 -14.477  1.00  0.00     0.028 C 
HETATM    9  C15 UNL     1     -18.969   2.679 -15.118  1.00  0.00     0.011 C 
HETATM   10  C16 UNL     1     -20.502   2.604 -15.099  1.00  0.00     0.027 C 
HETATM   11  C17 UNL     1     -21.031   2.386 -13.673  1.00  0.00     0.133 C 
HETATM   12 CL3  UNL     1     -22.550   3.243 -13.526  1.00  0.00    -0.118 Cl
ENDROOT
BRANCH   8  13
HETATM   13  C9  UNL     1     -16.887   1.350 -14.519  1.00  0.00     0.003 A 
HETATM   14  C10 UNL     1     -16.006   2.250 -15.107  1.00  0.00     0.043 A 
HETATM   15 CL1  UNL     1     -16.645   3.642 -15.960  1.00  0.00    -0.084 Cl
HETATM   16  C11 UNL     1     -14.650   2.057 -15.030  1.00  0.00     0.026 A 
HETATM   17  C12 UNL     1     -14.109   0.970 -14.372  1.00  0.00     0.028 A 
HETATM   18  C13 UNL     1     -14.961   0.066 -13.780  1.00  0.00     0.067 A 
HETATM   19 CL2  UNL     1     -14.221  -1.307 -12.968  1.00  0.00    -0.081 Cl
HETATM   20  C14 UNL     1     -16.334   0.248 -13.846  1.00  0.00     0.095 A 
BRANCH  20  21
HETATM   21  O4  UNL     1     -17.063  -0.723 -13.190  1.00  0.00    -0.358 OA
ATOM     22  H4  UNL     1     -17.711  -1.285 -13.599  1.00  0.00     0.217 HD
ENDBRANCH  20  21
ENDBRANCH   8  13
BRANCH   1  23
HETATM   23  C3  UNL     1     -23.315  -1.625 -11.899  1.00  0.00     0.192 C 
HETATM   24  O3  UNL     1     -23.083  -2.801 -11.490  1.00  0.00    -0.290 OA
BRANCH  23  25
HETATM   25  C2  UNL     1     -24.624  -1.027 -11.654  1.00  0.00     0.199 C 
BRANCH  25  26
HETATM   26  C1  UNL     1     -25.670  -1.505 -12.609  1.00  0.00     0.180 C 
HETATM   27  O1  UNL     1     -26.799  -1.848 -12.206  1.00  0.00    -0.648 OA
HETATM   28  O2  UNL     1     -25.365  -1.563 -13.958  1.00  0.00    -0.648 OA
ENDBRANCH  25  26
ENDBRANCH  23  25
ENDBRANCH   1  23
TORSDOF 5
ENDMDL
MODEL 5
REMARK VINA RESULT: -7.044936193      2.931      3.451
REMARK  5 active torsions:
REMARK  status: ('A' for Active; 'I' for Inactive)
REMARK    1  A    between atoms: C1_2  and  C2_4 
REMARK    2  A    between atoms: C2_4  and  C3_5 
REMARK    3  A    between atoms: C3_5  and  C4_7 
REMARK    4  A    between atoms: C8_14  and  C9_15 
REMARK    5  A    between atoms: C14_22  and  O4_23 
ROOT
HETATM    1  C4  UNL     1     -30.031  -8.998  -7.229  1.00  0.00     0.121 A 
HETATM    2  N1  UNL     1     -29.477  -8.943  -6.034  1.00  0.00    -0.349 N 
ATOM      3  H1  UNL     1     -29.078  -9.788  -5.625  1.00  0.00     0.166 HD
HETATM    4  C5  UNL     1     -29.433  -7.826  -5.374  1.00  0.00     0.042 A 
HETATM    5  C6  UNL     1     -29.987  -6.717  -5.966  1.00  0.00     0.009 A 
HETATM    6  S1  UNL     1     -30.532  -7.368  -7.462  1.00  0.00    -0.071 SA
HETATM    7  C7  UNL     1     -30.141  -5.336  -5.426  1.00  0.00     0.058 C 
HETATM    8  C8  UNL     1     -28.963  -4.862  -4.624  1.00  0.00     0.028 C 
HETATM    9  C15 UNL     1     -29.097  -5.345  -3.246  1.00  0.00     0.011 C 
HETATM   10  C16 UNL     1     -29.629  -6.782  -3.151  1.00  0.00     0.027 C 
HETATM   11  C17 UNL     1     -28.787  -7.744  -4.003  1.00  0.00     0.133 C 
HETATM   12 CL3  UNL     1     -28.735  -9.287  -3.179  1.00  0.00    -0.118 Cl
ENDROOT
BRANCH   8  13
HETATM   13  C9  UNL     1     -28.614  -3.490  -4.914  1.00  0.00     0.003 A 
HETATM   14  C10 UNL     1     -28.350  -3.006  -6.190  1.00  0.00     0.043 A 
HETATM   15 CL1  UNL     1     -28.316  -4.124  -7.539  1.00  0.00    -0.084 Cl
HETATM   16  C11 UNL     1     -28.113  -1.671  -6.399  1.00  0.00     0.026 A 
HETATM   17  C12 UNL     1     -28.126  -0.761  -5.361  1.00  0.00     0.028 A 
HETATM   18  C13 UNL     1     -28.386  -1.215  -4.089  1.00  0.00     0.067 A 
HETATM   19 CL2  UNL     1     -28.377  -0.018  -2.802  1.00  0.00    -0.081 Cl
HETATM   20  C14 UNL     1     -28.631  -2.561  -3.859  1.00  0.00     0.095 A 
BRANCH  20  21
HETATM   21  O4  UNL     1     -28.900  -2.868  -2.542  1.00  0.00    -0.358 OA
ATOM     22  H4  UNL     1     -29.677  -3.321  -2.237  1.00  0.00     0.217 HD
ENDBRANCH  20  21
ENDBRANCH   8  13
BRANCH   1  23
HETATM   23  C3  UNL     1     -30.198 -10.161  -8.080  1.00  0.00     0.192 C 
HETATM   24  O3  UNL     1     -29.201 -10.584  -8.738  1.00  0.00    -0.290 OA
BRANCH  23  25
HETATM   25  C2  UNL     1     -31.476 -10.857  -8.191  1.00  0.00     0.199 C 
BRANCH  25  26
HETATM   26  C1  UNL     1     -32.515 -10.317  -7.261  1.00  0.00     0.180 C 
HETATM   27  O1  UNL     1     -33.267  -9.385  -7.610  1.00  0.00    -0.648 OA
HETATM   28  O2  UNL     1     -32.630 -10.868  -5.996  1.00  0.00    -0.648 OA
ENDBRANCH  25  26
ENDBRANCH  23  25
ENDBRANCH   1  23
TORSDOF 5
ENDMDL
