MODEL 1
REMARK VINA RESULT: -7.136111966      0.000      0.000
REMARK  7 active torsions:
REMARK  status: ('A' for Active; 'I' for Inactive)
REMARK    1  A    between atoms: C2_2  and  C3_3 
REMARK    2  A    between atoms: C3_3  and  O1_4 
REMARK    3  A    between atoms: O1_4  and  C4_5 
REMARK    4  A    between atoms: C4_5  and  C5_6 
REMARK    5  A    between atoms: C5_6  and  C6_7 
REMARK    6  A    between atoms: C10_14  and  C11_15 
REMARK    7  A    between atoms: C12_16  and  C13_17 
ROOT
HETATM    1  C6  UNL     1       9.530  12.217   6.976  1.00  0.00     0.033 A 
HETATM    2  N1  UNL     1      10.644  12.686   6.388  1.00  0.00    -0.326 N 
ATOM      3  H1  UNL     1      11.353  13.116   6.983  1.00  0.00     0.169 HD
HETATM    4  C7  UNL     1      10.884  12.626   5.065  1.00  0.00     0.245 A 
HETATM    5  O2  UNL     1      11.976  13.103   4.604  1.00  0.00    -0.268 OA
HETATM    6  C8  UNL     1       9.962  12.059   4.224  1.00  0.00     0.076 A 
HETATM    7  C9  UNL     1       8.800  11.559   4.770  1.00  0.00     0.028 A 
HETATM    8  C10 UNL     1       8.589  11.640   6.147  1.00  0.00     0.041 A 
ENDROOT
BRANCH   8   9
HETATM    9  C11 UNL     1       7.378  11.108   6.703  1.00  0.00    -0.058 C 
HETATM   10  C12 UNL     1       6.356  10.659   7.196  1.00  0.00    -0.043 C 
BRANCH  10  11
HETATM   11  C13 UNL     1       5.146  10.153   7.783  1.00  0.00     0.086 A 
HETATM   12  C14 UNL     1       4.329  10.986   8.520  1.00  0.00     0.039 A 
HETATM   13  C15 UNL     1       3.170  10.538   9.092  1.00  0.00     0.004 A 
HETATM   14  C16 UNL     1       2.850   9.203   8.899  1.00  0.00     0.017 A 
HETATM   15  C17 UNL     1       3.678   8.374   8.155  1.00  0.00     0.089 A 
HETATM   16  N2  UNL     1       4.809   8.862   7.612  1.00  0.00    -0.359 N 
ATOM     17  H2  UNL     1       5.415   8.248   7.066  1.00  0.00     0.166 HD
ENDBRANCH  10  11
ENDBRANCH   8   9
BRANCH   1  18
HETATM   18  C5  UNL     1       9.358  12.339   8.442  1.00  0.00     0.084 C 
BRANCH  18  19
HETATM   19  C4  UNL     1      10.128  11.275   9.208  1.00  0.00     0.174 C 
BRANCH  19  20
HETATM   20  O1  UNL     1       9.319  10.160   9.277  1.00  0.00    -0.387 OA
BRANCH  20  21
HETATM   21  C3  UNL     1       9.823   9.076   8.594  1.00  0.00     0.194 C 
BRANCH  21  22
HETATM   22  C2  UNL     1      11.104   9.514   7.941  1.00  0.00    -0.011 C 
HETATM   23  C1  UNL     1      11.297   9.220   6.662  1.00  0.00     0.009 C 
ENDBRANCH  21  22
ENDBRANCH  20  21
ENDBRANCH  19  20
ENDBRANCH  18  19
ENDBRANCH   1  18
TORSDOF 7
ENDMDL
MODEL 2
REMARK VINA RESULT: -6.829571145      0.710      1.069
REMARK  7 active torsions:
REMARK  status: ('A' for Active; 'I' for Inactive)
REMARK    1  A    between atoms: C2_2  and  C3_3 
REMARK    2  A    between atoms: C3_3  and  O1_4 
REMARK    3  A    between atoms: O1_4  and  C4_5 
REMARK    4  A    between atoms: C4_5  and  C5_6 
REMARK    5  A    between atoms: C5_6  and  C6_7 
REMARK    6  A    between atoms: C10_14  and  C11_15 
REMARK    7  A    between atoms: C12_16  and  C13_17 
ROOT
HETATM    1  C6  UNL     1       9.382  12.105   7.009  1.00  0.00     0.033 A 
HETATM    2  N1  UNL     1      10.529  12.584   6.497  1.00  0.00    -0.326 N 
ATOM      3  H1  UNL     1      11.213  12.977   7.144  1.00  0.00     0.169 HD
HETATM    4  C7  UNL     1      10.834  12.578   5.187  1.00  0.00     0.245 A 
HETATM    5  O2  UNL     1      11.954  13.058   4.801  1.00  0.00    -0.268 OA
HETATM    6  C8  UNL     1       9.949  12.060   4.277  1.00  0.00     0.076 A 
HETATM    7  C9  UNL     1       8.755  11.554   4.743  1.00  0.00     0.028 A 
HETATM    8  C10 UNL     1       8.476  11.579   6.110  1.00  0.00     0.041 A 
ENDROOT
BRANCH   8   9
HETATM    9  C11 UNL     1       7.233  11.041   6.582  1.00  0.00    -0.058 C 
HETATM   10  C12 UNL     1       6.165  10.602   6.976  1.00  0.00    -0.043 C 
BRANCH  10  11
HETATM   11  C13 UNL     1       4.901  10.079   7.417  1.00  0.00     0.086 A 
HETATM   12  C14 UNL     1       4.779   8.748   7.758  1.00  0.00     0.039 A 
HETATM   13  C15 UNL     1       3.591   8.217   8.182  1.00  0.00     0.004 A 
HETATM   14  C16 UNL     1       2.510   9.080   8.254  1.00  0.00     0.017 A 
HETATM   15  C17 UNL     1       2.642  10.417   7.910  1.00  0.00     0.089 A 
HETATM   16  N2  UNL     1       3.833  10.893   7.498  1.00  0.00    -0.359 N 
ATOM     17  H2  UNL     1       3.925  11.877   7.245  1.00  0.00     0.166 HD
ENDBRANCH  10  11
ENDBRANCH   8   9
BRANCH   1  18
HETATM   18  C5  UNL     1       9.139  12.167   8.468  1.00  0.00     0.084 C 
BRANCH  18  19
HETATM   19  C4  UNL     1       9.907  11.100   9.231  1.00  0.00     0.174 C 
BRANCH  19  20
HETATM   20  O1  UNL     1       9.112   9.973   9.262  1.00  0.00    -0.387 OA
BRANCH  20  21
HETATM   21  C3  UNL     1       9.619   8.926   8.524  1.00  0.00     0.194 C 
BRANCH  21  22
HETATM   22  C2  UNL     1      10.941   9.371   7.965  1.00  0.00    -0.011 C 
HETATM   23  C1  UNL     1      11.192   9.154   6.681  1.00  0.00     0.009 C 
ENDBRANCH  21  22
ENDBRANCH  20  21
ENDBRANCH  19  20
ENDBRANCH  18  19
ENDBRANCH   1  18
TORSDOF 7
ENDMDL
MODEL 3
REMARK VINA RESULT: -6.364639662      1.224      1.351
REMARK  7 active torsions:
REMARK  status: ('A' for Active; 'I' for Inactive)
REMARK    1  A    between atoms: C2_2  and  C3_3 
REMARK    2  A    between atoms: C3_3  and  O1_4 
REMARK    3  A    between atoms: O1_4  and  C4_5 
REMARK    4  A    between atoms: C4_5  and  C5_6 
REMARK    5  A    between atoms: C5_6  and  C6_7 
REMARK    6  A    between atoms: C10_14  and  C11_15 
REMARK    7  A    between atoms: C12_16  and  C13_17 
ROOT
HETATM    1  C6  UNL     1       8.997  11.520   7.051  1.00  0.00     0.033 A 
HETATM    2  N1  UNL     1      10.107  12.084   6.544  1.00  0.00    -0.326 N 
ATOM      3  H1  UNL     1      10.840  12.365   7.195  1.00  0.00     0.169 HD
HETATM    4  C7  UNL     1      10.313  12.301   5.232  1.00  0.00     0.245 A 
HETATM    5  O2  UNL     1      11.405  12.845   4.850  1.00  0.00    -0.268 OA
HETATM    6  C8  UNL     1       9.359  11.940   4.316  1.00  0.00     0.076 A 
HETATM    7  C9  UNL     1       8.199  11.356   4.778  1.00  0.00     0.028 A 
HETATM    8  C10 UNL     1       8.023  11.148   6.146  1.00  0.00     0.041 A 
ENDROOT
BRANCH   8   9
HETATM    9  C11 UNL     1       6.814  10.532   6.612  1.00  0.00    -0.058 C 
HETATM   10  C12 UNL     1       5.782  10.026   7.021  1.00  0.00    -0.043 C 
BRANCH  10  11
HETATM   11  C13 UNL     1       4.554   9.444   7.489  1.00  0.00     0.086 A 
HETATM   12  C14 UNL     1       3.388  10.182   7.481  1.00  0.00     0.039 A 
HETATM   13  C15 UNL     1       2.201   9.660   7.919  1.00  0.00     0.004 A 
HETATM   14  C16 UNL     1       2.222   8.351   8.374  1.00  0.00     0.017 A 
HETATM   15  C17 UNL     1       3.399   7.618   8.378  1.00  0.00     0.089 A 
HETATM   16  N2  UNL     1       4.543   8.176   7.937  1.00  0.00    -0.359 N 
ATOM     17  H2  UNL     1       5.406   7.633   7.943  1.00  0.00     0.166 HD
ENDBRANCH  10  11
ENDBRANCH   8   9
BRANCH   1  18
HETATM   18  C5  UNL     1       8.863  11.333   8.514  1.00  0.00     0.084 C 
BRANCH  18  19
HETATM   19  C4  UNL     1       9.326   9.958   8.969  1.00  0.00     0.174 C 
BRANCH  19  20
HETATM   20  O1  UNL     1      10.445   9.641   8.226  1.00  0.00    -0.387 OA
BRANCH  20  21
HETATM   21  C3  UNL     1      11.585  10.283   8.656  1.00  0.00     0.194 C 
BRANCH  21  22
HETATM   22  C2  UNL     1      12.466  10.486   7.456  1.00  0.00    -0.011 C 
HETATM   23  C1  UNL     1      13.290  11.525   7.444  1.00  0.00     0.009 C 
ENDBRANCH  21  22
ENDBRANCH  20  21
ENDBRANCH  19  20
ENDBRANCH  18  19
ENDBRANCH   1  18
TORSDOF 7
ENDMDL
MODEL 4
REMARK VINA RESULT: -6.278378520      1.916      3.000
REMARK  7 active torsions:
REMARK  status: ('A' for Active; 'I' for Inactive)
REMARK    1  A    between atoms: C2_2  and  C3_3 
REMARK    2  A    between atoms: C3_3  and  O1_4 
REMARK    3  A    between atoms: O1_4  and  C4_5 
REMARK    4  A    between atoms: C4_5  and  C5_6 
REMARK    5  A    between atoms: C5_6  and  C6_7 
REMARK    6  A    between atoms: C10_14  and  C11_15 
REMARK    7  A    between atoms: C12_16  and  C13_17 
ROOT
HETATM    1  C6  UNL     1       7.784  10.183   7.751  1.00  0.00     0.033 A 
HETATM    2  N1  UNL     1       8.752  11.042   7.390  1.00  0.00    -0.326 N 
ATOM      3  H1  UNL     1       9.718  10.791   7.602  1.00  0.00     0.169 HD
HETATM    4  C7  UNL     1       8.530  12.214   6.767  1.00  0.00     0.245 A 
HETATM    5  O2  UNL     1       9.521  12.963   6.466  1.00  0.00    -0.268 OA
HETATM    6  C8  UNL     1       7.250  12.598   6.460  1.00  0.00     0.076 A 
HETATM    7  C9  UNL     1       6.216  11.756   6.805  1.00  0.00     0.028 A 
HETATM    8  C10 UNL     1       6.487  10.549   7.450  1.00  0.00     0.041 A 
ENDROOT
BRANCH   8   9
HETATM    9  C11 UNL     1       5.401   9.679   7.796  1.00  0.00    -0.058 C 
HETATM   10  C12 UNL     1       4.475   8.933   8.069  1.00  0.00    -0.043 C 
BRANCH  10  11
HETATM   11  C13 UNL     1       3.399   8.035   8.388  1.00  0.00     0.086 A 
HETATM   12  C14 UNL     1       3.659   6.710   8.673  1.00  0.00     0.039 A 
HETATM   13  C15 UNL     1       2.660   5.828   8.980  1.00  0.00     0.004 A 
HETATM   14  C16 UNL     1       1.367   6.326   8.994  1.00  0.00     0.017 A 
HETATM   15  C17 UNL     1       1.115   7.660   8.707  1.00  0.00     0.089 A 
HETATM   16  N2  UNL     1       2.133   8.489   8.409  1.00  0.00    -0.359 N 
ATOM     17  H2  UNL     1       1.943   9.470   8.198  1.00  0.00     0.166 HD
ENDBRANCH  10  11
ENDBRANCH   8   9
BRANCH   1  18
HETATM   18  C5  UNL     1       8.134   8.920   8.441  1.00  0.00     0.084 C 
BRANCH  18  19
HETATM   19  C4  UNL     1       9.453   9.016   9.193  1.00  0.00     0.174 C 
BRANCH  19  20
HETATM   20  O1  UNL     1      10.454   9.089   8.246  1.00  0.00    -0.387 OA
BRANCH  20  21
HETATM   21  C3  UNL     1      11.373  10.083   8.499  1.00  0.00     0.194 C 
BRANCH  21  22
HETATM   22  C2  UNL     1      12.052  10.408   7.198  1.00  0.00    -0.011 C 
HETATM   23  C1  UNL     1      12.829  11.481   7.140  1.00  0.00     0.009 C 
ENDBRANCH  21  22
ENDBRANCH  20  21
ENDBRANCH  19  20
ENDBRANCH  18  19
ENDBRANCH   1  18
TORSDOF 7
ENDMDL
MODEL 5
REMARK VINA RESULT: -6.234087967      1.234      1.603
REMARK  7 active torsions:
REMARK  status: ('A' for Active; 'I' for Inactive)
REMARK    1  A    between atoms: C2_2  and  C3_3 
REMARK    2  A    between atoms: C3_3  and  O1_4 
REMARK    3  A    between atoms: O1_4  and  C4_5 
REMARK    4  A    between atoms: C4_5  and  C5_6 
REMARK    5  A    between atoms: C5_6  and  C6_7 
REMARK    6  A    between atoms: C10_14  and  C11_15 
REMARK    7  A    between atoms: C12_16  and  C13_17 
ROOT
HETATM    1  C6  UNL     1       8.979  11.585   7.023  1.00  0.00     0.033 A 
HETATM    2  N1  UNL     1      10.104  12.129   6.530  1.00  0.00    -0.326 N 
ATOM      3  H1  UNL     1      10.827  12.414   7.191  1.00  0.00     0.169 HD
HETATM    4  C7  UNL     1      10.338  12.324   5.219  1.00  0.00     0.245 A 
HETATM    5  O2  UNL     1      11.443  12.851   4.850  1.00  0.00    -0.268 OA
HETATM    6  C8  UNL     1       9.398  11.959   4.290  1.00  0.00     0.076 A 
HETATM    7  C9  UNL     1       8.224  11.393   4.738  1.00  0.00     0.028 A 
HETATM    8  C10 UNL     1       8.019  11.209   6.105  1.00  0.00     0.041 A 
ENDROOT
BRANCH   8   9
HETATM    9  C11 UNL     1       6.795  10.612   6.557  1.00  0.00    -0.058 C 
HETATM   10  C12 UNL     1       5.762  10.104   6.961  1.00  0.00    -0.043 C 
BRANCH  10  11
HETATM   11  C13 UNL     1       4.537   9.529   7.447  1.00  0.00     0.086 A 
HETATM   12  C14 UNL     1       4.529   8.254   7.974  1.00  0.00     0.039 A 
HETATM   13  C15 UNL     1       3.382   7.676   8.445  1.00  0.00     0.004 A 
HETATM   14  C16 UNL     1       2.222   8.430   8.368  1.00  0.00     0.017 A 
HETATM   15  C17 UNL     1       2.241   9.712   7.837  1.00  0.00     0.089 A 
HETATM   16  N2  UNL     1       3.395  10.237   7.385  1.00  0.00    -0.359 N 
ATOM     17  H2  UNL     1       3.404  11.180   6.994  1.00  0.00     0.166 HD
ENDBRANCH  10  11
ENDBRANCH   8   9
BRANCH   1  18
HETATM   18  C5  UNL     1       8.815  11.422   8.486  1.00  0.00     0.084 C 
BRANCH  18  19
HETATM   19  C4  UNL     1       9.265  10.053   8.972  1.00  0.00     0.174 C 
BRANCH  19  20
HETATM   20  O1  UNL     1      10.370   9.701   8.224  1.00  0.00    -0.387 OA
BRANCH  20  21
HETATM   21  C3  UNL     1      11.535  10.296   8.659  1.00  0.00     0.194 C 
BRANCH  21  22
HETATM   22  C2  UNL     1      12.425  10.466   7.461  1.00  0.00    -0.011 C 
HETATM   23  C1  UNL     1      13.276  11.484   7.442  1.00  0.00     0.009 C 
ENDBRANCH  21  22
ENDBRANCH  20  21
ENDBRANCH  19  20
ENDBRANCH  18  19
ENDBRANCH   1  18
TORSDOF 7
ENDMDL
