MODEL 1
REMARK VINA RESULT: -7.114268801      0.000      0.000
REMARK  6 active torsions:
REMARK  status: ('A' for Active; 'I' for Inactive)
REMARK    1  A    between atoms: N1_1  and  C1_5 
REMARK    2  A    between atoms: C1_5  and  C2_6 
REMARK    3  A    between atoms: C2_6  and  N2_7 
REMARK    4  A    between atoms: N2_7  and  C3_8 
REMARK    5  A    between atoms: N2_7  and  S1_14 
REMARK    6  A    between atoms: S1_14  and  C9_17 
ROOT
HETATM    1  N2  UNL     1       7.066  10.671   7.307  1.00  0.00    -0.270 N 
ENDROOT
BRANCH   1   2
HETATM    2  C2  UNL     1       7.343  11.542   6.202  1.00  0.00     0.169 C 
BRANCH   2   3
HETATM    3  C1  UNL     1       8.162  10.930   5.111  1.00  0.00     0.250 C 
BRANCH   3   4
HETATM    4  N1  UNL     1       8.998  11.987   4.543  1.00  0.00    -0.078 N 
ATOM      5  H13 UNL     1       8.499  12.869   4.425  1.00  0.00     0.274 HD
ATOM      6  H12 UNL     1       9.710  12.324   5.191  1.00  0.00     0.274 HD
ATOM      7  H11 UNL     1       9.390  11.633   3.670  1.00  0.00     0.274 HD
ENDBRANCH   3   4
ENDBRANCH   2   3
ENDBRANCH   1   2
BRANCH   1   8
HETATM    8  C3  UNL     1       5.728  10.371   7.642  1.00  0.00     0.045 A 
HETATM    9  C4  UNL     1       4.949  11.419   8.121  1.00  0.00     0.030 A 
HETATM   10  C5  UNL     1       3.631  11.217   8.472  1.00  0.00     0.002 A 
HETATM   11  C6  UNL     1       3.058   9.952   8.352  1.00  0.00     0.000 A 
HETATM   12  C7  UNL     1       3.819   8.902   7.877  1.00  0.00     0.002 A 
HETATM   13  C8  UNL     1       5.143   9.149   7.534  1.00  0.00     0.030 A 
ENDBRANCH   1   8
BRANCH   1  14
HETATM   14  S1  UNL     1       8.334   9.988   8.229  1.00  0.00     0.265 S 
HETATM   15  O1  UNL     1       8.370   8.488   8.131  1.00  0.00    -0.200 OA
HETATM   16  O2  UNL     1       8.126  10.307   9.701  1.00  0.00    -0.200 OA
BRANCH  14  17
HETATM   17  C9  UNL     1       9.916  10.562   7.799  1.00  0.00     0.080 A 
HETATM   18  C10 UNL     1      10.317  11.855   7.965  1.00  0.00     0.025 A 
HETATM   19  C11 UNL     1      11.574  12.254   7.604  1.00  0.00     0.002 A 
HETATM   20  C12 UNL     1      12.438  11.341   7.070  1.00  0.00     0.000 A 
HETATM   21  C13 UNL     1      12.073  10.041   6.889  1.00  0.00     0.002 A 
HETATM   22  C14 UNL     1      10.805   9.656   7.257  1.00  0.00     0.025 A 
ENDBRANCH  14  17
ENDBRANCH   1  14
TORSDOF 6
ENDMDL
MODEL 2
REMARK VINA RESULT: -6.976349939      0.078      1.090
REMARK  6 active torsions:
REMARK  status: ('A' for Active; 'I' for Inactive)
REMARK    1  A    between atoms: N1_1  and  C1_5 
REMARK    2  A    between atoms: C1_5  and  C2_6 
REMARK    3  A    between atoms: C2_6  and  N2_7 
REMARK    4  A    between atoms: N2_7  and  C3_8 
REMARK    5  A    between atoms: N2_7  and  S1_14 
REMARK    6  A    between atoms: S1_14  and  C9_17 
ROOT
HETATM    1  N2  UNL     1       7.133  10.660   7.289  1.00  0.00    -0.270 N 
ENDROOT
BRANCH   1   2
HETATM    2  C2  UNL     1       7.420  11.533   6.189  1.00  0.00     0.169 C 
BRANCH   2   3
HETATM    3  C1  UNL     1       8.215  10.910   5.086  1.00  0.00     0.250 C 
BRANCH   3   4
HETATM    4  N1  UNL     1       9.060  11.955   4.508  1.00  0.00    -0.078 N 
ATOM      5  H13 UNL     1       9.290  12.694   5.173  1.00  0.00     0.274 HD
ATOM      6  H12 UNL     1      10.013  11.641   4.325  1.00  0.00     0.274 HD
ATOM      7  H11 UNL     1       8.588  12.304   3.673  1.00  0.00     0.274 HD
ENDBRANCH   3   4
ENDBRANCH   2   3
ENDBRANCH   1   2
BRANCH   1   8
HETATM    8  C3  UNL     1       5.791  10.365   7.615  1.00  0.00     0.045 A 
HETATM    9  C4  UNL     1       5.015  11.414   8.096  1.00  0.00     0.030 A 
HETATM   10  C5  UNL     1       3.693  11.217   8.438  1.00  0.00     0.002 A 
HETATM   11  C6  UNL     1       3.115   9.956   8.307  1.00  0.00     0.000 A 
HETATM   12  C7  UNL     1       3.874   8.905   7.830  1.00  0.00     0.002 A 
HETATM   13  C8  UNL     1       5.201   9.146   7.497  1.00  0.00     0.030 A 
ENDBRANCH   1   8
BRANCH   1  14
HETATM   14  S1  UNL     1       8.392   9.969   8.218  1.00  0.00     0.265 S 
HETATM   15  O1  UNL     1       8.379   8.467   8.172  1.00  0.00    -0.200 OA
HETATM   16  O2  UNL     1       8.215  10.346   9.681  1.00  0.00    -0.200 OA
BRANCH  14  17
HETATM   17  C9  UNL     1       9.984  10.477   7.747  1.00  0.00     0.080 A 
HETATM   18  C10 UNL     1      10.905   9.640   7.186  1.00  0.00     0.025 A 
HETATM   19  C11 UNL     1      12.148  10.094   6.838  1.00  0.00     0.002 A 
HETATM   20  C12 UNL     1      12.468  11.403   7.056  1.00  0.00     0.000 A 
HETATM   21  C13 UNL     1      11.575  12.268   7.613  1.00  0.00     0.002 A 
HETATM   22  C14 UNL     1      10.329  11.797   7.958  1.00  0.00     0.025 A 
ENDBRANCH  14  17
ENDBRANCH   1  14
TORSDOF 6
ENDMDL
MODEL 3
REMARK VINA RESULT: -6.968110097      0.113      1.092
REMARK  6 active torsions:
REMARK  status: ('A' for Active; 'I' for Inactive)
REMARK    1  A    between atoms: N1_1  and  C1_5 
REMARK    2  A    between atoms: C1_5  and  C2_6 
REMARK    3  A    between atoms: C2_6  and  N2_7 
REMARK    4  A    between atoms: N2_7  and  C3_8 
REMARK    5  A    between atoms: N2_7  and  S1_14 
REMARK    6  A    between atoms: S1_14  and  C9_17 
ROOT
HETATM    1  N2  UNL     1       7.073  10.739   7.326  1.00  0.00    -0.270 N 
ENDROOT
BRANCH   1   2
HETATM    2  C2  UNL     1       7.363  11.631   6.242  1.00  0.00     0.169 C 
BRANCH   2   3
HETATM    3  C1  UNL     1       8.210  11.046   5.157  1.00  0.00     0.250 C 
BRANCH   3   4
HETATM    4  N1  UNL     1       9.032  12.125   4.610  1.00  0.00    -0.078 N 
ATOM      5  H13 UNL     1       8.523  13.004   4.514  1.00  0.00     0.274 HD
ATOM      6  H12 UNL     1       9.743  12.455   5.264  1.00  0.00     0.274 HD
ATOM      7  H11 UNL     1       9.425  11.795   3.728  1.00  0.00     0.274 HD
ENDBRANCH   3   4
ENDBRANCH   2   3
ENDBRANCH   1   2
BRANCH   1   8
HETATM    8  C3  UNL     1       5.731  10.483   7.680  1.00  0.00     0.045 A 
HETATM    9  C4  UNL     1       5.267   9.186   7.492  1.00  0.00     0.030 A 
HETATM   10  C5  UNL     1       3.969   8.846   7.812  1.00  0.00     0.002 A 
HETATM   11  C6  UNL     1       3.099   9.803   8.330  1.00  0.00     0.000 A 
HETATM   12  C7  UNL     1       3.547  11.096   8.522  1.00  0.00     0.002 A 
HETATM   13  C8  UNL     1       4.861  11.397   8.187  1.00  0.00     0.030 A 
ENDBRANCH   1   8
BRANCH   1  14
HETATM   14  S1  UNL     1       8.331   9.976   8.200  1.00  0.00     0.265 S 
HETATM   15  O1  UNL     1       8.323   8.483   8.029  1.00  0.00    -0.200 OA
HETATM   16  O2  UNL     1       8.146  10.230   9.688  1.00  0.00    -0.200 OA
BRANCH  14  17
HETATM   17  C9  UNL     1       9.923  10.526   7.780  1.00  0.00     0.080 A 
HETATM   18  C10 UNL     1      10.364  11.798   8.005  1.00  0.00     0.025 A 
HETATM   19  C11 UNL     1      11.628  12.178   7.649  1.00  0.00     0.002 A 
HETATM   20  C12 UNL     1      12.460  11.270   7.061  1.00  0.00     0.000 A 
HETATM   21  C13 UNL     1      12.056   9.990   6.820  1.00  0.00     0.002 A 
HETATM   22  C14 UNL     1      10.781   9.624   7.183  1.00  0.00     0.025 A 
ENDBRANCH  14  17
ENDBRANCH   1  14
TORSDOF 6
ENDMDL
MODEL 4
REMARK VINA RESULT: -6.747267966      0.831      5.862
REMARK  6 active torsions:
REMARK  status: ('A' for Active; 'I' for Inactive)
REMARK    1  A    between atoms: N1_1  and  C1_5 
REMARK    2  A    between atoms: C1_5  and  C2_6 
REMARK    3  A    between atoms: C2_6  and  N2_7 
REMARK    4  A    between atoms: N2_7  and  C3_8 
REMARK    5  A    between atoms: N2_7  and  S1_14 
REMARK    6  A    between atoms: S1_14  and  C9_17 
ROOT
HETATM    1  N2  UNL     1       8.806  10.749   6.684  1.00  0.00    -0.270 N 
ENDROOT
BRANCH   1   2
HETATM    2  C2  UNL     1       8.169  11.067   5.441  1.00  0.00     0.169 C 
BRANCH   2   3
HETATM    3  C1  UNL     1       9.101  11.236   4.283  1.00  0.00     0.250 C 
BRANCH   3   4
HETATM    4  N1  UNL     1       9.061  12.644   3.888  1.00  0.00    -0.078 N 
ATOM      5  H13 UNL     1       8.200  13.113   4.173  1.00  0.00     0.274 HD
ATOM      6  H12 UNL     1       9.710  13.225   4.419  1.00  0.00     0.274 HD
ATOM      7  H11 UNL     1       9.222  12.685   2.882  1.00  0.00     0.274 HD
ENDBRANCH   3   4
ENDBRANCH   2   3
ENDBRANCH   1   2
BRANCH   1   8
HETATM    8  C3  UNL     1      10.189  10.989   6.842  1.00  0.00     0.045 A 
HETATM    9  C4  UNL     1      11.022   9.876   6.863  1.00  0.00     0.030 A 
HETATM   10  C5  UNL     1      12.385  10.016   7.013  1.00  0.00     0.002 A 
HETATM   11  C6  UNL     1      12.951  11.282   7.147  1.00  0.00     0.000 A 
HETATM   12  C7  UNL     1      12.135  12.397   7.128  1.00  0.00     0.002 A 
HETATM   13  C8  UNL     1      10.767  12.212   6.975  1.00  0.00     0.030 A 
ENDBRANCH   1   8
BRANCH   1  14
HETATM   14  S1  UNL     1       7.917  10.083   7.985  1.00  0.00     0.265 S 
HETATM   15  O1  UNL     1       8.317  10.667   9.311  1.00  0.00    -0.200 OA
HETATM   16  O2  UNL     1       8.196   8.591   8.083  1.00  0.00    -0.200 OA
BRANCH  14  17
HETATM   17  C9  UNL     1       6.197  10.275   7.843  1.00  0.00     0.080 A 
HETATM   18  C10 UNL     1       5.566  11.482   7.933  1.00  0.00     0.025 A 
HETATM   19  C11 UNL     1       4.206  11.574   7.819  1.00  0.00     0.002 A 
HETATM   20  C12 UNL     1       3.473  10.441   7.610  1.00  0.00     0.000 A 
HETATM   21  C13 UNL     1       4.068   9.219   7.516  1.00  0.00     0.002 A 
HETATM   22  C14 UNL     1       5.437   9.143   7.633  1.00  0.00     0.025 A 
ENDBRANCH  14  17
ENDBRANCH   1  14
TORSDOF 6
ENDMDL
MODEL 5
REMARK VINA RESULT: -6.694493853      0.835      5.766
REMARK  6 active torsions:
REMARK  status: ('A' for Active; 'I' for Inactive)
REMARK    1  A    between atoms: N1_1  and  C1_5 
REMARK    2  A    between atoms: C1_5  and  C2_6 
REMARK    3  A    between atoms: C2_6  and  N2_7 
REMARK    4  A    between atoms: N2_7  and  C3_8 
REMARK    5  A    between atoms: N2_7  and  S1_14 
REMARK    6  A    between atoms: S1_14  and  C9_17 
ROOT
HETATM    1  N2  UNL     1       8.827  10.704   6.690  1.00  0.00    -0.270 N 
ENDROOT
BRANCH   1   2
HETATM    2  C2  UNL     1       8.188  11.070   5.461  1.00  0.00     0.169 C 
BRANCH   2   3
HETATM    3  C1  UNL     1       9.111  11.209   4.292  1.00  0.00     0.250 C 
BRANCH   3   4
HETATM    4  N1  UNL     1       9.107  12.617   3.894  1.00  0.00    -0.078 N 
ATOM      5  H13 UNL     1       8.585  12.786   3.034  1.00  0.00     0.274 HD
ATOM      6  H12 UNL     1       8.543  13.203   4.509  1.00  0.00     0.274 HD
ATOM      7  H11 UNL     1      10.079  12.922   3.836  1.00  0.00     0.274 HD
ENDBRANCH   3   4
ENDBRANCH   2   3
ENDBRANCH   1   2
BRANCH   1   8
HETATM    8  C3  UNL     1      10.223  10.870   6.829  1.00  0.00     0.045 A 
HETATM    9  C4  UNL     1      10.688  12.171   6.987  1.00  0.00     0.030 A 
HETATM   10  C5  UNL     1      12.036  12.428   7.130  1.00  0.00     0.002 A 
HETATM   11  C6  UNL     1      12.955  11.380   7.118  1.00  0.00     0.000 A 
HETATM   12  C7  UNL     1      12.506  10.083   6.963  1.00  0.00     0.002 A 
HETATM   13  C8  UNL     1      11.141   9.869   6.822  1.00  0.00     0.030 A 
ENDBRANCH   1   8
BRANCH   1  14
HETATM   14  S1  UNL     1       7.925  10.066   7.996  1.00  0.00     0.265 S 
HETATM   15  O1  UNL     1       8.322  10.669   9.314  1.00  0.00    -0.200 OA
HETATM   16  O2  UNL     1       8.191   8.574   8.121  1.00  0.00    -0.200 OA
BRANCH  14  17
HETATM   17  C9  UNL     1       6.208  10.270   7.841  1.00  0.00     0.080 A 
HETATM   18  C10 UNL     1       5.586  11.483   7.906  1.00  0.00     0.025 A 
HETATM   19  C11 UNL     1       4.228  11.585   7.782  1.00  0.00     0.002 A 
HETATM   20  C12 UNL     1       3.487  10.455   7.589  1.00  0.00     0.000 A 
HETATM   21  C13 UNL     1       4.072   9.226   7.518  1.00  0.00     0.002 A 
HETATM   22  C14 UNL     1       5.439   9.141   7.646  1.00  0.00     0.025 A 
ENDBRANCH  14  17
ENDBRANCH   1  14
TORSDOF 6
ENDMDL
