MODEL 1
REMARK VINA RESULT: -8.695709539      0.000      0.000
REMARK  5 active torsions:
REMARK  status: ('A' for Active; 'I' for Inactive)
REMARK    1  A    between atoms: C4_5  and  N2_6 
REMARK    2  A    between atoms: C7_11  and  C8_12 
REMARK    3  A    between atoms: C8_12  and  C9_13 
REMARK    4  A    between atoms: C8_12  and  N3_20 
REMARK    5  A    between atoms: C9_13  and  C10_14 
ROOT
HETATM    1  N1  UNL     1       8.913   8.956   8.429  1.00  0.00    -0.191 NA
HETATM    2  C1  UNL     1       7.966   9.606   8.165  1.00  0.00     0.100 C 
HETATM    3  C2  UNL     1       6.791  10.371   7.855  1.00  0.00     0.055 A 
HETATM    4  C3  UNL     1       5.558  10.045   8.406  1.00  0.00     0.059 A 
HETATM    5  C4  UNL     1       4.399  10.732   8.138  1.00  0.00     0.104 A 
HETATM    6  C5  UNL     1       4.507  11.791   7.273  1.00  0.00     0.037 A 
HETATM    7  C6  UNL     1       5.729  12.141   6.705  1.00  0.00     0.013 A 
HETATM    8  C7  UNL     1       6.884  11.451   6.977  1.00  0.00    -0.013 A 
ENDROOT
BRANCH   8   9
HETATM    9  C8  UNL     1       8.166  11.833   6.378  1.00  0.00     0.137 C 
BRANCH   9  10
HETATM   10  C9  UNL     1       9.066  12.370   7.467  1.00  0.00     0.070 C 
BRANCH  10  11
HETATM   11  C10 UNL     1      10.499  12.030   7.295  1.00  0.00    -0.056 A 
HETATM   12  C11 UNL     1      11.149  11.167   8.150  1.00  0.00     0.007 A 
HETATM   13  C12 UNL     1      12.481  10.831   7.988  1.00  0.00     0.001 A 
HETATM   14  C13 UNL     1      13.217  11.355   6.947  1.00  0.00     0.000 A 
HETATM   15  C14 UNL     1      12.586  12.215   6.086  1.00  0.00     0.001 A 
HETATM   16  C15 UNL     1      11.244  12.547   6.259  1.00  0.00     0.007 A 
ENDBRANCH  10  11
ENDBRANCH   9  10
BRANCH   9  17
HETATM   17  N3  UNL     1       8.864  10.800   5.733  1.00  0.00    -0.333 N 
HETATM   18  N4  UNL     1       8.881  10.739   4.496  1.00  0.00    -0.349 N 
ATOM     19  H42 UNL     1       8.382  11.449   3.960  1.00  0.00     0.176 HD
ATOM     20  H41 UNL     1       9.389   9.989   4.028  1.00  0.00     0.176 HD
ATOM     21  H3  UNL     1       9.359  10.099   6.284  1.00  0.00     0.180 HD
ENDBRANCH   9  17
ENDBRANCH   8   9
BRANCH   5  22
HETATM   22  N2  UNL     1       3.168  10.344   8.738  1.00  0.00    -0.116 N 
HETATM   23  O1  UNL     1       3.114  10.136   9.966  1.00  0.00    -0.532 OA
HETATM   24  O2  UNL     1       2.018  10.183   8.026  1.00  0.00    -0.532 OA
ENDBRANCH   5  22
TORSDOF 5
ENDMDL
MODEL 2
REMARK VINA RESULT: -8.671206094      0.038      1.026
REMARK  5 active torsions:
REMARK  status: ('A' for Active; 'I' for Inactive)
REMARK    1  A    between atoms: C4_5  and  N2_6 
REMARK    2  A    between atoms: C7_11  and  C8_12 
REMARK    3  A    between atoms: C8_12  and  C9_13 
REMARK    4  A    between atoms: C8_12  and  N3_20 
REMARK    5  A    between atoms: C9_13  and  C10_14 
ROOT
HETATM    1  N1  UNL     1       8.946   8.946   8.419  1.00  0.00    -0.191 NA
HETATM    2  C1  UNL     1       7.994   9.592   8.157  1.00  0.00     0.100 C 
HETATM    3  C2  UNL     1       6.816  10.351   7.850  1.00  0.00     0.055 A 
HETATM    4  C3  UNL     1       5.586  10.021   8.408  1.00  0.00     0.059 A 
HETATM    5  C4  UNL     1       4.423  10.704   8.143  1.00  0.00     0.104 A 
HETATM    6  C5  UNL     1       4.523  11.760   7.275  1.00  0.00     0.037 A 
HETATM    7  C6  UNL     1       5.741  12.114   6.701  1.00  0.00     0.013 A 
HETATM    8  C7  UNL     1       6.900  11.429   6.969  1.00  0.00    -0.013 A 
ENDROOT
BRANCH   8   9
HETATM    9  C8  UNL     1       8.178  11.816   6.364  1.00  0.00     0.137 C 
BRANCH   9  10
HETATM   10  C9  UNL     1       9.078  12.364   7.447  1.00  0.00     0.070 C 
BRANCH  10  11
HETATM   11  C10 UNL     1      10.509  12.010   7.286  1.00  0.00    -0.056 A 
HETATM   12  C11 UNL     1      11.281  12.542   6.275  1.00  0.00     0.007 A 
HETATM   13  C12 UNL     1      12.620  12.232   6.128  1.00  0.00     0.001 A 
HETATM   14  C13 UNL     1      13.242  11.366   7.001  1.00  0.00     0.000 A 
HETATM   15  C14 UNL     1      12.490  10.828   8.014  1.00  0.00     0.001 A 
HETATM   16  C15 UNL     1      11.141  11.147   8.152  1.00  0.00     0.007 A 
ENDBRANCH  10  11
ENDBRANCH   9  10
BRANCH   9  17
HETATM   17  N3  UNL     1       8.880  10.783   5.723  1.00  0.00    -0.333 N 
HETATM   18  N4  UNL     1       8.911  10.728   4.486  1.00  0.00    -0.349 N 
ATOM     19  H42 UNL     1       8.422  11.442   3.947  1.00  0.00     0.176 HD
ATOM     20  H41 UNL     1       9.422   9.978   4.020  1.00  0.00     0.176 HD
ATOM     21  H3  UNL     1       9.365  10.077   6.277  1.00  0.00     0.180 HD
ENDBRANCH   9  17
ENDBRANCH   8   9
BRANCH   5  22
HETATM   22  N2  UNL     1       3.196  10.312   8.749  1.00  0.00    -0.116 N 
HETATM   23  O1  UNL     1       3.154  10.084   9.974  1.00  0.00    -0.532 OA
HETATM   24  O2  UNL     1       2.038  10.168   8.047  1.00  0.00    -0.532 OA
ENDBRANCH   5  22
TORSDOF 5
ENDMDL
MODEL 3
REMARK VINA RESULT: -8.661922273      1.667      2.560
REMARK  5 active torsions:
REMARK  status: ('A' for Active; 'I' for Inactive)
REMARK    1  A    between atoms: C4_5  and  N2_6 
REMARK    2  A    between atoms: C7_11  and  C8_12 
REMARK    3  A    between atoms: C8_12  and  C9_13 
REMARK    4  A    between atoms: C8_12  and  N3_20 
REMARK    5  A    between atoms: C9_13  and  C10_14 
ROOT
HETATM    1  N1  UNL     1       5.384  13.630   6.878  1.00  0.00    -0.191 NA
HETATM    2  C1  UNL     1       5.260  12.473   7.067  1.00  0.00     0.100 C 
HETATM    3  C2  UNL     1       5.078  11.071   7.314  1.00  0.00     0.055 A 
HETATM    4  C3  UNL     1       3.819  10.551   7.592  1.00  0.00     0.059 A 
HETATM    5  C4  UNL     1       3.585   9.221   7.846  1.00  0.00     0.104 A 
HETATM    6  C5  UNL     1       4.680   8.395   7.816  1.00  0.00     0.037 A 
HETATM    7  C6  UNL     1       5.952   8.887   7.541  1.00  0.00     0.013 A 
HETATM    8  C7  UNL     1       6.180  10.217   7.287  1.00  0.00    -0.013 A 
ENDROOT
BRANCH   8   9
HETATM    9  C8  UNL     1       7.524  10.723   6.991  1.00  0.00     0.137 C 
BRANCH   9  10
HETATM   10  C9  UNL     1       8.530   9.889   7.750  1.00  0.00     0.070 C 
BRANCH  10  11
HETATM   11  C10 UNL     1       9.934  10.340   7.597  1.00  0.00    -0.056 A 
HETATM   12  C11 UNL     1      10.886   9.559   6.978  1.00  0.00     0.007 A 
HETATM   13  C12 UNL     1      12.193   9.979   6.815  1.00  0.00     0.001 A 
HETATM   14  C13 UNL     1      12.598  11.214   7.272  1.00  0.00     0.000 A 
HETATM   15  C14 UNL     1      11.664  12.005   7.890  1.00  0.00     0.001 A 
HETATM   16  C15 UNL     1      10.350  11.573   8.050  1.00  0.00     0.007 A 
ENDBRANCH  10  11
ENDBRANCH   9  10
BRANCH   9  17
HETATM   17  N3  UNL     1       7.897  10.695   5.638  1.00  0.00    -0.333 N 
HETATM   18  N4  UNL     1       8.262  11.735   5.073  1.00  0.00    -0.349 N 
ATOM     19  H42 UNL     1       8.286  12.604   5.606  1.00  0.00     0.176 HD
ATOM     20  H41 UNL     1       8.533  11.714   4.090  1.00  0.00     0.176 HD
ATOM     21  H3  UNL     1       7.867   9.817   5.120  1.00  0.00     0.180 HD
ENDBRANCH   9  17
ENDBRANCH   8   9
BRANCH   5  22
HETATM   22  N2  UNL     1       2.269   8.755   8.124  1.00  0.00    -0.116 N 
HETATM   23  O1  UNL     1       1.332   9.569   8.232  1.00  0.00    -0.532 OA
HETATM   24  O2  UNL     1       1.971   7.435   8.282  1.00  0.00    -0.532 OA
ENDBRANCH   5  22
TORSDOF 5
ENDMDL
MODEL 4
REMARK VINA RESULT: -8.306623782      4.097      6.772
REMARK  5 active torsions:
REMARK  status: ('A' for Active; 'I' for Inactive)
REMARK    1  A    between atoms: C4_5  and  N2_6 
REMARK    2  A    between atoms: C7_11  and  C8_12 
REMARK    3  A    between atoms: C8_12  and  C9_13 
REMARK    4  A    between atoms: C8_12  and  N3_20 
REMARK    5  A    between atoms: C9_13  and  C10_14 
ROOT
HETATM    1  N1  UNL     1       9.250   8.342   8.802  1.00  0.00    -0.191 NA
HETATM    2  C1  UNL     1       9.777   9.223   8.223  1.00  0.00     0.100 C 
HETATM    3  C2  UNL     1      10.445  10.297   7.544  1.00  0.00     0.055 A 
HETATM    4  C3  UNL     1      11.771  10.607   7.823  1.00  0.00     0.059 A 
HETATM    5  C4  UNL     1      12.458  11.629   7.214  1.00  0.00     0.104 A 
HETATM    6  C5  UNL     1      11.761  12.361   6.287  1.00  0.00     0.037 A 
HETATM    7  C6  UNL     1      10.433  12.075   5.987  1.00  0.00     0.013 A 
HETATM    8  C7  UNL     1       9.751  11.052   6.598  1.00  0.00    -0.013 A 
ENDROOT
BRANCH   8   9
HETATM    9  C8  UNL     1       8.354  10.755   6.269  1.00  0.00     0.137 C 
BRANCH   9  10
HETATM   10  C9  UNL     1       7.462  11.608   7.141  1.00  0.00     0.070 C 
BRANCH  10  11
HETATM   11  C10 UNL     1       6.151  10.992   7.458  1.00  0.00    -0.056 A 
HETATM   12  C11 UNL     1       5.971   9.626   7.461  1.00  0.00     0.007 A 
HETATM   13  C12 UNL     1       4.756   9.042   7.772  1.00  0.00     0.001 A 
HETATM   14  C13 UNL     1       3.665   9.818   8.096  1.00  0.00     0.000 A 
HETATM   15  C14 UNL     1       3.826  11.180   8.100  1.00  0.00     0.001 A 
HETATM   16  C15 UNL     1       5.054  11.758   7.784  1.00  0.00     0.007 A 
ENDBRANCH  10  11
ENDBRANCH   9  10
BRANCH   9  17
HETATM   17  N3  UNL     1       7.983  10.994   4.936  1.00  0.00    -0.333 N 
HETATM   18  N4  UNL     1       8.805  10.831   4.024  1.00  0.00    -0.349 N 
ATOM     19  H42 UNL     1       9.748  10.521   4.258  1.00  0.00     0.176 HD
ATOM     20  H41 UNL     1       8.535  11.003   3.056  1.00  0.00     0.176 HD
ATOM     21  H3  UNL     1       7.035  11.302   4.719  1.00  0.00     0.180 HD
ENDBRANCH   9  17
ENDBRANCH   8   9
BRANCH   5  22
HETATM   22  N2  UNL     1      13.817  11.891   7.548  1.00  0.00    -0.116 N 
HETATM   23  O1  UNL     1      14.343  12.968   7.206  1.00  0.00    -0.532 OA
HETATM   24  O2  UNL     1      14.592  11.007   8.236  1.00  0.00    -0.532 OA
ENDBRANCH   5  22
TORSDOF 5
ENDMDL
MODEL 5
REMARK VINA RESULT: -8.177267679      4.084      6.799
REMARK  5 active torsions:
REMARK  status: ('A' for Active; 'I' for Inactive)
REMARK    1  A    between atoms: C4_5  and  N2_6 
REMARK    2  A    between atoms: C7_11  and  C8_12 
REMARK    3  A    between atoms: C8_12  and  C9_13 
REMARK    4  A    between atoms: C8_12  and  N3_20 
REMARK    5  A    between atoms: C9_13  and  C10_14 
ROOT
HETATM    1  N1  UNL     1       9.054   8.767   9.274  1.00  0.00    -0.191 NA
HETATM    2  C1  UNL     1       9.626   9.515   8.565  1.00  0.00     0.100 C 
HETATM    3  C2  UNL     1      10.347  10.431   7.728  1.00  0.00     0.055 A 
HETATM    4  C3  UNL     1      11.677  10.743   7.986  1.00  0.00     0.059 A 
HETATM    5  C4  UNL     1      12.414  11.620   7.228  1.00  0.00     0.104 A 
HETATM    6  C5  UNL     1      11.765  12.200   6.167  1.00  0.00     0.037 A 
HETATM    7  C6  UNL     1      10.435  11.907   5.884  1.00  0.00     0.013 A 
HETATM    8  C7  UNL     1       9.703  11.030   6.645  1.00  0.00    -0.013 A 
ENDROOT
BRANCH   8   9
HETATM    9  C8  UNL     1       8.303  10.725   6.333  1.00  0.00     0.137 C 
BRANCH   9  10
HETATM   10  C9  UNL     1       7.417  11.600   7.188  1.00  0.00     0.070 C 
BRANCH  10  11
HETATM   11  C10 UNL     1       6.109  10.992   7.532  1.00  0.00    -0.056 A 
HETATM   12  C11 UNL     1       5.017  11.759   7.874  1.00  0.00     0.007 A 
HETATM   13  C12 UNL     1       3.789  11.201   8.179  1.00  0.00     0.001 A 
HETATM   14  C13 UNL     1       3.610   9.835   8.151  1.00  0.00     0.000 A 
HETATM   15  C14 UNL     1       4.686   9.056   7.812  1.00  0.00     0.001 A 
HETATM   16  C15 UNL     1       5.919   9.628   7.507  1.00  0.00     0.007 A 
ENDBRANCH  10  11
ENDBRANCH   9  10
BRANCH   9  17
HETATM   17  N3  UNL     1       7.924  10.927   4.997  1.00  0.00    -0.333 N 
HETATM   18  N4  UNL     1       8.769  10.862   4.094  1.00  0.00    -0.349 N 
ATOM     19  H42 UNL     1       9.739  10.659   4.339  1.00  0.00     0.176 HD
ATOM     20  H41 UNL     1       8.493  11.008   3.123  1.00  0.00     0.176 HD
ATOM     21  H3  UNL     1       6.950  11.128   4.769  1.00  0.00     0.180 HD
ENDBRANCH   9  17
ENDBRANCH   8   9
BRANCH   5  22
HETATM   22  N2  UNL     1      13.774  11.894   7.549  1.00  0.00    -0.116 N 
HETATM   23  O1  UNL     1      14.284  12.980   7.213  1.00  0.00    -0.532 OA
HETATM   24  O2  UNL     1      14.566  11.011   8.219  1.00  0.00    -0.532 OA
ENDBRANCH   5  22
TORSDOF 5
ENDMDL
