MODEL 1
REMARK VINA RESULT: -6.025807865      0.000      0.000
REMARK  5 active torsions:
REMARK  status: ('A' for Active; 'I' for Inactive)
REMARK    1  A    between atoms: C2_2  and  C3_3 
REMARK    2  A    between atoms: C3_3  and  C4_4 
REMARK    3  A    between atoms: C5_5  and  C6_6 
REMARK       I    between atoms: C6_6  and  N1_8 
REMARK    4  A    between atoms: N1_8  and  C7_9 
REMARK    5  A    between atoms: N1_8  and  C10_12 
ROOT
HETATM    1  C4  UNL     1     -31.926  24.328  20.499  1.00  0.00    -0.012 A 
HETATM    2  C5  UNL     1     -32.665  23.166  20.674  1.00  0.00     0.082 A 
HETATM    3  S1  UNL     1     -33.246  23.315  22.263  1.00  0.00    -0.068 SA
HETATM    4  C13 UNL     1     -32.582  24.808  22.688  1.00  0.00     0.109 A 
HETATM    5  N2  UNL     1     -32.710  25.524  23.944  1.00  0.00    -0.093 NA
HETATM    6  C14 UNL     1     -31.893  25.172  21.548  1.00  0.00     0.083 A 
HETATM    7  C15 UNL     1     -31.236  26.505  21.589  1.00  0.00     0.102 C 
HETATM    8  N3  UNL     1     -30.744  27.577  21.651  1.00  0.00    -0.191 NA
ENDROOT
BRANCH   1   9
HETATM    9  C3  UNL     1     -31.181  24.502  19.205  1.00  0.00     0.041 C 
BRANCH   9  10
HETATM   10  C2  UNL     1     -31.731  25.434  18.196  1.00  0.00     0.000 C 
HETATM   11  C1  UNL     1     -30.792  25.958  17.167  1.00  0.00     0.005 C 
ENDBRANCH   9  10
ENDBRANCH   1   9
BRANCH   2  12
HETATM   12  C6  UNL     1     -32.991  22.127  19.688  1.00  0.00     0.262 C 
HETATM   13  O1  UNL     1     -33.895  22.449  18.821  1.00  0.00    -0.267 OA
HETATM   14  N1  UNL     1     -32.447  20.851  19.575  1.00  0.00    -0.340 N 
BRANCH  14  15
HETATM   15  C7  UNL     1     -31.435  20.171  20.331  1.00  0.00     0.079 C 
HETATM   16  C8  UNL     1     -30.150  20.928  20.505  1.00  0.00     0.032 C 
HETATM   17  C9  UNL     1     -31.933  19.503  21.604  1.00  0.00     0.032 C 
ENDBRANCH  14  15
BRANCH  14  18
HETATM   18  C10 UNL     1     -33.060  20.032  18.483  1.00  0.00     0.079 C 
HETATM   19  C11 UNL     1     -32.001  19.375  17.634  1.00  0.00     0.032 C 
HETATM   20  C12 UNL     1     -34.018  19.026  18.981  1.00  0.00     0.032 C 
ENDBRANCH  14  18
ENDBRANCH   2  12
TORSDOF 5
ENDMDL
MODEL 2
REMARK VINA RESULT: -5.641024517      2.249      5.774
REMARK  5 active torsions:
REMARK  status: ('A' for Active; 'I' for Inactive)
REMARK    1  A    between atoms: C2_2  and  C3_3 
REMARK    2  A    between atoms: C3_3  and  C4_4 
REMARK    3  A    between atoms: C5_5  and  C6_6 
REMARK       I    between atoms: C6_6  and  N1_8 
REMARK    4  A    between atoms: N1_8  and  C7_9 
REMARK    5  A    between atoms: N1_8  and  C10_12 
ROOT
HETATM    1  C4  UNL     1     -32.124  22.204  20.585  1.00  0.00    -0.012 A 
HETATM    2  C5  UNL     1     -31.079  23.096  20.778  1.00  0.00     0.082 A 
HETATM    3  S1  UNL     1     -29.827  22.104  21.353  1.00  0.00    -0.068 SA
HETATM    4  C13 UNL     1     -30.601  20.604  21.341  1.00  0.00     0.109 A 
HETATM    5  N2  UNL     1     -30.063  19.311  21.724  1.00  0.00    -0.093 NA
HETATM    6  C14 UNL     1     -31.863  20.915  20.877  1.00  0.00     0.083 A 
HETATM    7  C15 UNL     1     -32.785  19.764  20.692  1.00  0.00     0.102 C 
HETATM    8  N3  UNL     1     -33.483  18.822  20.538  1.00  0.00    -0.191 NA
ENDROOT
BRANCH   1   9
HETATM    9  C3  UNL     1     -33.452  22.756  20.147  1.00  0.00     0.041 C 
BRANCH   9  10
HETATM   10  C2  UNL     1     -33.574  23.291  18.772  1.00  0.00     0.000 C 
HETATM   11  C1  UNL     1     -33.924  24.730  18.629  1.00  0.00     0.005 C 
ENDBRANCH   9  10
ENDBRANCH   1   9
BRANCH   2  12
HETATM   12  C6  UNL     1     -31.014  24.524  20.433  1.00  0.00     0.262 C 
HETATM   13  O1  UNL     1     -30.434  24.797  19.311  1.00  0.00    -0.267 OA
HETATM   14  N1  UNL     1     -31.499  25.604  21.164  1.00  0.00    -0.340 N 
BRANCH  14  15
HETATM   15  C7  UNL     1     -32.195  25.679  22.415  1.00  0.00     0.079 C 
HETATM   16  C8  UNL     1     -33.567  25.068  22.421  1.00  0.00     0.032 C 
HETATM   17  C9  UNL     1     -31.357  25.320  23.634  1.00  0.00     0.032 C 
ENDBRANCH  14  15
BRANCH  14  18
HETATM   18  C10 UNL     1     -31.204  26.931  20.538  1.00  0.00     0.079 C 
HETATM   19  C11 UNL     1     -32.462  27.746  20.371  1.00  0.00     0.032 C 
HETATM   20  C12 UNL     1     -30.184  27.704  21.272  1.00  0.00     0.032 C 
ENDBRANCH  14  18
ENDBRANCH   2  12
TORSDOF 5
ENDMDL
MODEL 3
REMARK VINA RESULT: -5.553195379      2.261      6.060
REMARK  5 active torsions:
REMARK  status: ('A' for Active; 'I' for Inactive)
REMARK    1  A    between atoms: C2_2  and  C3_3 
REMARK    2  A    between atoms: C3_3  and  C4_4 
REMARK    3  A    between atoms: C5_5  and  C6_6 
REMARK       I    between atoms: C6_6  and  N1_8 
REMARK    4  A    between atoms: N1_8  and  C7_9 
REMARK    5  A    between atoms: N1_8  and  C10_12 
ROOT
HETATM    1  C4  UNL     1     -32.023  22.380  21.036  1.00  0.00    -0.012 A 
HETATM    2  C5  UNL     1     -31.057  23.311  21.391  1.00  0.00     0.082 A 
HETATM    3  S1  UNL     1     -29.625  22.399  21.393  1.00  0.00    -0.068 SA
HETATM    4  C13 UNL     1     -30.229  20.887  20.949  1.00  0.00     0.109 A 
HETATM    5  N2  UNL     1     -29.499  19.646  20.763  1.00  0.00    -0.093 NA
HETATM    6  C14 UNL     1     -31.581  21.128  20.806  1.00  0.00     0.083 A 
HETATM    7  C15 UNL     1     -32.397  19.974  20.347  1.00  0.00     0.102 C 
HETATM    8  N3  UNL     1     -33.011  19.040  19.962  1.00  0.00    -0.191 NA
ENDROOT
BRANCH   1   9
HETATM    9  C3  UNL     1     -33.459  22.824  21.013  1.00  0.00     0.041 C 
BRANCH   9  10
HETATM   10  C2  UNL     1     -34.279  22.619  22.227  1.00  0.00     0.000 C 
HETATM   11  C1  UNL     1     -34.237  23.681  23.267  1.00  0.00     0.005 C 
ENDBRANCH   9  10
ENDBRANCH   1   9
BRANCH   2  12
HETATM   12  C6  UNL     1     -31.205  24.761  21.579  1.00  0.00     0.262 C 
HETATM   13  O1  UNL     1     -31.201  25.165  22.807  1.00  0.00    -0.267 OA
HETATM   14  N1  UNL     1     -31.345  25.742  20.601  1.00  0.00    -0.340 N 
BRANCH  14  15
HETATM   15  C7  UNL     1     -31.376  25.669  19.169  1.00  0.00     0.079 C 
HETATM   16  C8  UNL     1     -30.094  25.228  18.524  1.00  0.00     0.032 C 
HETATM   17  C9  UNL     1     -32.617  25.003  18.592  1.00  0.00     0.032 C 
ENDBRANCH  14  15
BRANCH  14  18
HETATM   18  C10 UNL     1     -31.533  27.118  21.156  1.00  0.00     0.079 C 
HETATM   19  C11 UNL     1     -30.255  27.916  21.079  1.00  0.00     0.032 C 
HETATM   20  C12 UNL     1     -32.639  27.856  20.515  1.00  0.00     0.032 C 
ENDBRANCH  14  18
ENDBRANCH   2  12
TORSDOF 5
ENDMDL
MODEL 4
REMARK VINA RESULT: -5.500262539      2.290      6.102
REMARK  5 active torsions:
REMARK  status: ('A' for Active; 'I' for Inactive)
REMARK    1  A    between atoms: C2_2  and  C3_3 
REMARK    2  A    between atoms: C3_3  and  C4_4 
REMARK    3  A    between atoms: C5_5  and  C6_6 
REMARK       I    between atoms: C6_6  and  N1_8 
REMARK    4  A    between atoms: N1_8  and  C7_9 
REMARK    5  A    between atoms: N1_8  and  C10_12 
ROOT
HETATM    1  C4  UNL     1     -32.317  21.485  21.179  1.00  0.00    -0.012 A 
HETATM    2  C5  UNL     1     -31.379  22.350  20.633  1.00  0.00     0.082 A 
HETATM    3  S1  UNL     1     -30.843  21.517  19.254  1.00  0.00    -0.068 SA
HETATM    4  C13 UNL     1     -31.785  20.120  19.361  1.00  0.00     0.109 A 
HETATM    5  N2  UNL     1     -31.809  18.981  18.462  1.00  0.00    -0.093 NA
HETATM    6  C14 UNL     1     -32.521  20.334  20.509  1.00  0.00     0.083 A 
HETATM    7  C15 UNL     1     -33.514  19.281  20.845  1.00  0.00     0.102 C 
HETATM    8  N3  UNL     1     -34.307  18.434  21.070  1.00  0.00    -0.191 NA
ENDROOT
BRANCH   1   9
HETATM    9  C3  UNL     1     -32.955  21.869  22.485  1.00  0.00     0.041 C 
BRANCH   9  10
HETATM   10  C2  UNL     1     -34.107  22.798  22.460  1.00  0.00     0.000 C 
HETATM   11  C1  UNL     1     -33.881  24.179  22.962  1.00  0.00     0.005 C 
ENDBRANCH   9  10
ENDBRANCH   1   9
BRANCH   2  12
HETATM   12  C6  UNL     1     -31.033  23.716  21.053  1.00  0.00     0.262 C 
HETATM   13  O1  UNL     1     -30.305  23.800  22.119  1.00  0.00    -0.267 OA
HETATM   14  N1  UNL     1     -31.392  24.916  20.447  1.00  0.00    -0.340 N 
BRANCH  14  15
HETATM   15  C7  UNL     1     -32.161  25.202  19.271  1.00  0.00     0.079 C 
HETATM   16  C8  UNL     1     -31.367  25.330  18.003  1.00  0.00     0.032 C 
HETATM   17  C9  UNL     1     -33.429  24.374  19.122  1.00  0.00     0.032 C 
ENDBRANCH  14  15
BRANCH  14  18
HETATM   18  C10 UNL     1     -30.913  26.126  21.185  1.00  0.00     0.079 C 
HETATM   19  C11 UNL     1     -29.728  26.753  20.492  1.00  0.00     0.032 C 
HETATM   20  C12 UNL     1     -31.972  27.130  21.402  1.00  0.00     0.032 C 
ENDBRANCH  14  18
ENDBRANCH   2  12
TORSDOF 5
ENDMDL
MODEL 5
REMARK VINA RESULT: -5.476226790      2.570      6.466
REMARK  5 active torsions:
REMARK  status: ('A' for Active; 'I' for Inactive)
REMARK    1  A    between atoms: C2_2  and  C3_3 
REMARK    2  A    between atoms: C3_3  and  C4_4 
REMARK    3  A    between atoms: C5_5  and  C6_6 
REMARK       I    between atoms: C6_6  and  N1_8 
REMARK    4  A    between atoms: N1_8  and  C7_9 
REMARK    5  A    between atoms: N1_8  and  C10_12 
ROOT
HETATM    1  C4  UNL     1     -30.786  19.899  20.096  1.00  0.00    -0.012 A 
HETATM    2  C5  UNL     1     -31.875  20.752  20.205  1.00  0.00     0.082 A 
HETATM    3  S1  UNL     1     -32.740  20.459  18.774  1.00  0.00    -0.068 SA
HETATM    4  C13 UNL     1     -31.758  19.285  18.063  1.00  0.00     0.109 A 
HETATM    5  N2  UNL     1     -31.947  18.600  16.797  1.00  0.00    -0.093 NA
HETATM    6  C14 UNL     1     -30.738  19.141  18.983  1.00  0.00     0.083 A 
HETATM    7  C15 UNL     1     -29.721  18.105  18.663  1.00  0.00     0.102 C 
HETATM    8  N3  UNL     1     -28.943  17.260  18.386  1.00  0.00    -0.191 NA
ENDROOT
BRANCH   1   9
HETATM    9  C3  UNL     1     -29.738  19.949  21.172  1.00  0.00     0.041 C 
BRANCH   9  10
HETATM   10  C2  UNL     1     -29.755  18.905  22.221  1.00  0.00     0.000 C 
HETATM   11  C1  UNL     1     -28.619  17.945  22.247  1.00  0.00     0.005 C 
ENDBRANCH   9  10
ENDBRANCH   1   9
BRANCH   2  12
HETATM   12  C6  UNL     1     -32.269  21.598  21.341  1.00  0.00     0.262 C 
HETATM   13  O1  UNL     1     -32.579  20.962  22.424  1.00  0.00    -0.267 OA
HETATM   14  N1  UNL     1     -32.346  22.986  21.390  1.00  0.00    -0.340 N 
BRANCH  14  15
HETATM   15  C7  UNL     1     -32.069  23.995  20.410  1.00  0.00     0.079 C 
HETATM   16  C8  UNL     1     -30.673  23.982  19.855  1.00  0.00     0.032 C 
HETATM   17  C9  UNL     1     -33.150  24.171  19.353  1.00  0.00     0.032 C 
ENDBRANCH  14  15
BRANCH  14  18
HETATM   18  C10 UNL     1     -32.845  23.512  22.699  1.00  0.00     0.079 C 
HETATM   19  C11 UNL     1     -32.309  24.897  22.969  1.00  0.00     0.032 C 
HETATM   20  C12 UNL     1     -34.317  23.500  22.806  1.00  0.00     0.032 C 
ENDBRANCH  14  18
ENDBRANCH   2  12
TORSDOF 5
ENDMDL
