MODEL 1
REMARK VINA RESULT: -12.324165964      0.000      0.000
REMARK  7 active torsions:
REMARK  status: ('A' for Active; 'I' for Inactive)
REMARK    1  A    between atoms: C3_3  and  N1_4 
REMARK    2  A    between atoms: N1_4  and  C4_6 
REMARK    3  A    between atoms: C4_6  and  C5_7 
REMARK    4  A    between atoms: C14_16  and  N2_17 
REMARK       I    between atoms: N2_17  and  C15_19 
REMARK       I    between atoms: C15_19  and  N3_21 
REMARK    5  A    between atoms: N3_21  and  C16_23 
REMARK    6  A    between atoms: C19_26  and  C20_27 
REMARK    7  A    between atoms: C20_27  and  C21_29 
ROOT
HETATM    1  N2  UNL     1     -15.531  24.951  -5.199  1.00  0.00    -0.308 N 
ATOM      2  H2  UNL     1     -15.988  25.435  -5.972  1.00  0.00     0.170 HD
HETATM    3  C15 UNL     1     -15.649  25.534  -3.915  1.00  0.00     0.325 C 
HETATM    4  O1  UNL     1     -15.157  25.108  -2.852  1.00  0.00    -0.247 OA
HETATM    5  N3  UNL     1     -16.420  26.751  -3.771  1.00  0.00    -0.309 N 
ATOM      6  H3  UNL     1     -16.865  27.185  -4.580  1.00  0.00     0.170 HD
ENDROOT
BRANCH   1   7
HETATM    7  C14 UNL     1     -14.844  23.776  -5.499  1.00  0.00     0.044 A 
HETATM    8  C2  UNL     1     -13.693  23.850  -6.325  1.00  0.00    -0.009 A 
HETATM    9  C1  UNL     1     -13.277  25.140  -6.886  1.00  0.00     0.053 C 
HETATM   10  C3  UNL     1     -12.953  22.746  -6.661  1.00  0.00     0.036 A 
HETATM   11  C11 UNL     1     -13.370  21.529  -6.162  1.00  0.00     0.030 A 
HETATM   12  C12 UNL     1     -14.483  21.426  -5.359  1.00  0.00     0.005 A 
HETATM   13  C13 UNL     1     -15.212  22.544  -5.032  1.00  0.00     0.030 A 
BRANCH  10  14
HETATM   14  N1  UNL     1     -11.803  22.816  -7.462  1.00  0.00    -0.385 N 
ATOM     15  H1  UNL     1     -11.951  22.838  -8.471  1.00  0.00     0.160 HD
BRANCH  14  16
HETATM   16  C4  UNL     1     -10.446  22.860  -7.011  1.00  0.00     0.158 C 
BRANCH  16  17
HETATM   17  C5  UNL     1      -9.995  21.575  -6.467  1.00  0.00    -0.041 A 
HETATM   18  C6  UNL     1      -9.844  21.480  -5.086  1.00  0.00     0.009 A 
HETATM   19  C7  UNL     1      -9.447  20.305  -4.530  1.00  0.00     0.001 A 
HETATM   20  C8  UNL     1      -9.184  19.196  -5.272  1.00  0.00     0.000 A 
HETATM   21  C9  UNL     1      -9.334  19.292  -6.652  1.00  0.00     0.001 A 
HETATM   22  C10 UNL     1      -9.739  20.477  -7.246  1.00  0.00     0.009 A 
ENDBRANCH  16  17
ENDBRANCH  14  16
ENDBRANCH  10  14
ENDBRANCH   1   7
BRANCH   5  23
HETATM   23  C16 UNL     1     -16.543  27.330  -2.472  1.00  0.00     0.036 A 
HETATM   24  C17 UNL     1     -16.537  28.731  -2.366  1.00  0.00     0.030 A 
HETATM   25  C18 UNL     1     -16.641  29.328  -1.138  1.00  0.00     0.018 A 
HETATM   26  C19 UNL     1     -16.753  28.607   0.027  1.00  0.00     0.015 A 
HETATM   27  C27 UNL     1     -16.757  27.233  -0.091  1.00  0.00     0.018 A 
HETATM   28  C28 UNL     1     -16.655  26.614  -1.307  1.00  0.00     0.030 A 
BRANCH  26  29
HETATM   29  C20 UNL     1     -16.870  29.190   1.346  1.00  0.00     0.192 C 
HETATM   30  O2  UNL     1     -17.766  30.104   1.490  1.00  0.00    -0.287 OA
BRANCH  29  31
HETATM   31  C21 UNL     1     -16.106  28.881   2.526  1.00  0.00     0.015 A 
HETATM   32  C22 UNL     1     -15.037  28.030   2.520  1.00  0.00     0.015 A 
HETATM   33  C23 UNL     1     -14.280  27.770   3.665  1.00  0.00     0.001 A 
HETATM   34  C24 UNL     1     -14.597  28.372   4.848  1.00  0.00     0.000 A 
HETATM   35  C25 UNL     1     -15.666  29.233   4.898  1.00  0.00     0.001 A 
HETATM   36  C26 UNL     1     -16.402  29.480   3.763  1.00  0.00     0.015 A 
ENDBRANCH  29  31
ENDBRANCH  26  29
ENDBRANCH   5  23
TORSDOF 7
ENDMDL
MODEL 2
REMARK VINA RESULT: -11.749433091      0.954      1.993
REMARK  7 active torsions:
REMARK  status: ('A' for Active; 'I' for Inactive)
REMARK    1  A    between atoms: C3_3  and  N1_4 
REMARK    2  A    between atoms: N1_4  and  C4_6 
REMARK    3  A    between atoms: C4_6  and  C5_7 
REMARK    4  A    between atoms: C14_16  and  N2_17 
REMARK       I    between atoms: N2_17  and  C15_19 
REMARK       I    between atoms: C15_19  and  N3_21 
REMARK    5  A    between atoms: N3_21  and  C16_23 
REMARK    6  A    between atoms: C19_26  and  C20_27 
REMARK    7  A    between atoms: C20_27  and  C21_29 
ROOT
HETATM    1  N2  UNL     1     -15.599  25.301  -5.518  1.00  0.00    -0.308 N 
ATOM      2  H2  UNL     1     -16.451  25.359  -6.075  1.00  0.00     0.170 HD
HETATM    3  C15 UNL     1     -15.597  25.967  -4.270  1.00  0.00     0.325 C 
HETATM    4  O1  UNL     1     -14.656  26.026  -3.454  1.00  0.00    -0.247 OA
HETATM    5  N3  UNL     1     -16.795  26.665  -3.852  1.00  0.00    -0.309 N 
ATOM      6  H3  UNL     1     -17.623  26.681  -4.447  1.00  0.00     0.170 HD
ENDROOT
BRANCH   1   7
HETATM    7  C14 UNL     1     -14.538  24.571  -6.053  1.00  0.00     0.044 A 
HETATM    8  C2  UNL     1     -14.457  23.182  -5.777  1.00  0.00    -0.009 A 
HETATM    9  C1  UNL     1     -15.450  22.551  -4.901  1.00  0.00     0.053 C 
HETATM   10  C3  UNL     1     -13.454  22.388  -6.272  1.00  0.00     0.036 A 
HETATM   11  C11 UNL     1     -12.501  22.993  -7.064  1.00  0.00     0.030 A 
HETATM   12  C12 UNL     1     -12.553  24.339  -7.349  1.00  0.00     0.005 A 
HETATM   13  C13 UNL     1     -13.566  25.118  -6.844  1.00  0.00     0.030 A 
BRANCH  10  14
HETATM   14  N1  UNL     1     -13.380  21.010  -6.017  1.00  0.00    -0.385 N 
ATOM     15  H1  UNL     1     -13.947  20.404  -6.609  1.00  0.00     0.160 HD
BRANCH  14  16
HETATM   16  C4  UNL     1     -12.589  20.367  -5.012  1.00  0.00     0.158 C 
BRANCH  16  17
HETATM   17  C5  UNL     1     -11.252  20.011  -5.497  1.00  0.00    -0.041 A 
HETATM   18  C6  UNL     1     -11.113  19.728  -6.853  1.00  0.00     0.009 A 
HETATM   19  C7  UNL     1      -9.890  19.411  -7.355  1.00  0.00     0.001 A 
HETATM   20  C8  UNL     1      -8.773  19.355  -6.581  1.00  0.00     0.000 A 
HETATM   21  C9  UNL     1      -8.912  19.637  -5.226  1.00  0.00     0.001 A 
HETATM   22  C10 UNL     1     -10.147  19.964  -4.686  1.00  0.00     0.009 A 
ENDBRANCH  16  17
ENDBRANCH  14  16
ENDBRANCH  10  14
ENDBRANCH   1   7
BRANCH   5  23
HETATM   23  C16 UNL     1     -16.790  27.330  -2.589  1.00  0.00     0.036 A 
HETATM   24  C17 UNL     1     -16.876  26.546  -1.426  1.00  0.00     0.030 A 
HETATM   25  C18 UNL     1     -16.887  27.143  -0.193  1.00  0.00     0.018 A 
HETATM   26  C19 UNL     1     -16.816  28.507  -0.032  1.00  0.00     0.015 A 
HETATM   27  C27 UNL     1     -16.733  29.264  -1.182  1.00  0.00     0.018 A 
HETATM   28  C28 UNL     1     -16.720  28.690  -2.423  1.00  0.00     0.030 A 
BRANCH  26  29
HETATM   29  C20 UNL     1     -16.820  29.185   1.246  1.00  0.00     0.192 C 
HETATM   30  O2  UNL     1     -17.588  30.215   1.344  1.00  0.00    -0.287 OA
BRANCH  29  31
HETATM   31  C21 UNL     1     -16.067  28.858   2.428  1.00  0.00     0.015 A 
HETATM   32  C22 UNL     1     -15.012  27.990   2.424  1.00  0.00     0.015 A 
HETATM   33  C23 UNL     1     -14.266  27.712   3.572  1.00  0.00     0.001 A 
HETATM   34  C24 UNL     1     -14.580  28.314   4.756  1.00  0.00     0.000 A 
HETATM   35  C25 UNL     1     -15.635  29.192   4.804  1.00  0.00     0.001 A 
HETATM   36  C26 UNL     1     -16.360  29.456   3.667  1.00  0.00     0.015 A 
ENDBRANCH  29  31
ENDBRANCH  26  29
ENDBRANCH   5  23
TORSDOF 7
ENDMDL
MODEL 3
REMARK VINA RESULT: -11.538194619      1.167      1.590
REMARK  7 active torsions:
REMARK  status: ('A' for Active; 'I' for Inactive)
REMARK    1  A    between atoms: C3_3  and  N1_4 
REMARK    2  A    between atoms: N1_4  and  C4_6 
REMARK    3  A    between atoms: C4_6  and  C5_7 
REMARK    4  A    between atoms: C14_16  and  N2_17 
REMARK       I    between atoms: N2_17  and  C15_19 
REMARK       I    between atoms: C15_19  and  N3_21 
REMARK    5  A    between atoms: N3_21  and  C16_23 
REMARK    6  A    between atoms: C19_26  and  C20_27 
REMARK    7  A    between atoms: C20_27  and  C21_29 
ROOT
HETATM    1  N2  UNL     1     -15.310  25.960  -5.956  1.00  0.00    -0.308 N 
ATOM      2  H2  UNL     1     -15.014  26.748  -6.532  1.00  0.00     0.170 HD
HETATM    3  C15 UNL     1     -15.668  26.239  -4.616  1.00  0.00     0.325 C 
HETATM    4  O1  UNL     1     -16.042  25.419  -3.755  1.00  0.00    -0.247 OA
HETATM    5  N3  UNL     1     -15.616  27.611  -4.153  1.00  0.00    -0.309 N 
ATOM      6  H3  UNL     1     -15.322  28.361  -4.778  1.00  0.00     0.170 HD
ENDROOT
BRANCH   1   7
HETATM    7  C14 UNL     1     -15.326  24.702  -6.558  1.00  0.00     0.044 A 
HETATM    8  C2  UNL     1     -14.164  23.893  -6.479  1.00  0.00    -0.009 A 
HETATM    9  C1  UNL     1     -12.959  24.406  -5.819  1.00  0.00     0.053 C 
HETATM   10  C3  UNL     1     -14.098  22.640  -7.032  1.00  0.00     0.036 A 
HETATM   11  C11 UNL     1     -15.221  22.177  -7.686  1.00  0.00     0.030 A 
HETATM   12  C12 UNL     1     -16.363  22.939  -7.779  1.00  0.00     0.005 A 
HETATM   13  C13 UNL     1     -16.411  24.193  -7.217  1.00  0.00     0.030 A 
BRANCH  10  14
HETATM   14  N1  UNL     1     -12.957  21.828  -6.942  1.00  0.00    -0.385 N 
ATOM     15  H1  UNL     1     -12.333  21.826  -7.749  1.00  0.00     0.160 HD
BRANCH  14  16
HETATM   16  C4  UNL     1     -12.577  21.005  -5.836  1.00  0.00     0.158 C 
BRANCH  16  17
HETATM   17  C5  UNL     1     -11.273  20.365  -6.037  1.00  0.00    -0.041 A 
HETATM   18  C6  UNL     1     -10.751  20.361  -7.328  1.00  0.00     0.009 A 
HETATM   19  C7  UNL     1      -9.537  19.797  -7.564  1.00  0.00     0.001 A 
HETATM   20  C8  UNL     1      -8.792  19.224  -6.580  1.00  0.00     0.000 A 
HETATM   21  C9  UNL     1      -9.315  19.227  -5.291  1.00  0.00     0.001 A 
HETATM   22  C10 UNL     1     -10.550  19.796  -5.021  1.00  0.00     0.009 A 
ENDBRANCH  16  17
ENDBRANCH  14  16
ENDBRANCH  10  14
ENDBRANCH   1   7
BRANCH   5  23
HETATM   23  C16 UNL     1     -15.986  27.888  -2.803  1.00  0.00     0.036 A 
HETATM   24  C17 UNL     1     -16.297  29.214  -2.459  1.00  0.00     0.030 A 
HETATM   25  C18 UNL     1     -16.647  29.527  -1.171  1.00  0.00     0.018 A 
HETATM   26  C19 UNL     1     -16.708  28.584  -0.173  1.00  0.00     0.015 A 
HETATM   27  C27 UNL     1     -16.399  27.287  -0.524  1.00  0.00     0.018 A 
HETATM   28  C28 UNL     1     -16.048  26.950  -1.803  1.00  0.00     0.030 A 
BRANCH  26  29
HETATM   29  C20 UNL     1     -17.074  28.863   1.199  1.00  0.00     0.192 C 
HETATM   30  O2  UNL     1     -18.267  29.311   1.392  1.00  0.00    -0.287 OA
BRANCH  29  31
HETATM   31  C21 UNL     1     -16.272  28.706   2.383  1.00  0.00     0.015 A 
HETATM   32  C22 UNL     1     -15.122  27.969   2.412  1.00  0.00     0.015 A 
HETATM   33  C23 UNL     1     -14.332  27.859   3.559  1.00  0.00     0.001 A 
HETATM   34  C24 UNL     1     -14.698  28.498   4.708  1.00  0.00     0.000 A 
HETATM   35  C25 UNL     1     -15.849  29.248   4.722  1.00  0.00     0.001 A 
HETATM   36  C26 UNL     1     -16.616  29.348   3.586  1.00  0.00     0.015 A 
ENDBRANCH  29  31
ENDBRANCH  26  29
ENDBRANCH   5  23
TORSDOF 7
ENDMDL
MODEL 4
REMARK VINA RESULT: -11.289656447      0.886      1.590
REMARK  7 active torsions:
REMARK  status: ('A' for Active; 'I' for Inactive)
REMARK    1  A    between atoms: C3_3  and  N1_4 
REMARK    2  A    between atoms: N1_4  and  C4_6 
REMARK    3  A    between atoms: C4_6  and  C5_7 
REMARK    4  A    between atoms: C14_16  and  N2_17 
REMARK       I    between atoms: N2_17  and  C15_19 
REMARK       I    between atoms: C15_19  and  N3_21 
REMARK    5  A    between atoms: N3_21  and  C16_23 
REMARK    6  A    between atoms: C19_26  and  C20_27 
REMARK    7  A    between atoms: C20_27  and  C21_29 
ROOT
HETATM    1  N2  UNL     1     -15.910  24.935  -5.125  1.00  0.00    -0.308 N 
ATOM      2  H2  UNL     1     -16.820  24.543  -5.367  1.00  0.00     0.170 HD
HETATM    3  C15 UNL     1     -15.841  25.733  -3.959  1.00  0.00     0.325 C 
HETATM    4  O1  UNL     1     -14.833  26.309  -3.505  1.00  0.00    -0.247 OA
HETATM    5  N3  UNL     1     -17.043  25.925  -3.175  1.00  0.00    -0.309 N 
ATOM      6  H3  UNL     1     -17.925  25.499  -3.460  1.00  0.00     0.170 HD
ENDROOT
BRANCH   1   7
HETATM    7  C14 UNL     1     -14.844  24.638  -5.973  1.00  0.00     0.044 A 
HETATM    8  C2  UNL     1     -14.367  23.303  -6.029  1.00  0.00    -0.009 A 
HETATM    9  C1  UNL     1     -14.962  22.278  -5.166  1.00  0.00     0.053 C 
HETATM   10  C3  UNL     1     -13.331  22.923  -6.843  1.00  0.00     0.036 A 
HETATM   11  C11 UNL     1     -12.749  23.899  -7.625  1.00  0.00     0.030 A 
HETATM   12  C12 UNL     1     -13.190  25.202  -7.592  1.00  0.00     0.005 A 
HETATM   13  C13 UNL     1     -14.230  25.565  -6.770  1.00  0.00     0.030 A 
BRANCH  10  14
HETATM   14  N1  UNL     1     -12.868  21.600  -6.916  1.00  0.00    -0.385 N 
ATOM     15  H1  UNL     1     -13.520  20.871  -6.628  1.00  0.00     0.160 HD
BRANCH  14  16
HETATM   16  C4  UNL     1     -11.575  21.168  -7.352  1.00  0.00     0.158 C 
BRANCH  16  17
HETATM   17  C5  UNL     1     -10.747  20.677  -6.246  1.00  0.00    -0.041 A 
HETATM   18  C6  UNL     1     -10.152  21.626  -5.417  1.00  0.00     0.009 A 
HETATM   19  C7  UNL     1      -9.390  21.222  -4.367  1.00  0.00     0.001 A 
HETATM   20  C8  UNL     1      -9.176  19.909  -4.080  1.00  0.00     0.000 A 
HETATM   21  C9  UNL     1      -9.769  18.963  -4.908  1.00  0.00     0.001 A 
HETATM   22  C10 UNL     1     -10.553  19.345  -5.986  1.00  0.00     0.009 A 
ENDBRANCH  16  17
ENDBRANCH  14  16
ENDBRANCH  10  14
ENDBRANCH   1   7
BRANCH   5  23
HETATM   23  C16 UNL     1     -16.966  26.725  -1.995  1.00  0.00     0.036 A 
HETATM   24  C17 UNL     1     -17.016  28.122  -2.135  1.00  0.00     0.030 A 
HETATM   25  C18 UNL     1     -16.934  28.927  -1.030  1.00  0.00     0.018 A 
HETATM   26  C19 UNL     1     -16.801  28.425   0.242  1.00  0.00     0.015 A 
HETATM   27  C27 UNL     1     -16.753  27.052   0.365  1.00  0.00     0.018 A 
HETATM   28  C28 UNL     1     -16.833  26.227  -0.724  1.00  0.00     0.030 A 
BRANCH  26  29
HETATM   29  C20 UNL     1     -16.715  29.231   1.440  1.00  0.00     0.192 C 
HETATM   30  O2  UNL     1     -17.335  30.361   1.414  1.00  0.00    -0.287 OA
BRANCH  29  31
HETATM   31  C21 UNL     1     -16.017  28.936   2.663  1.00  0.00     0.015 A 
HETATM   32  C22 UNL     1     -14.918  28.127   2.717  1.00  0.00     0.015 A 
HETATM   33  C23 UNL     1     -14.226  27.880   3.906  1.00  0.00     0.001 A 
HETATM   34  C24 UNL     1     -14.643  28.453   5.073  1.00  0.00     0.000 A 
HETATM   35  C25 UNL     1     -15.746  29.271   5.062  1.00  0.00     0.001 A 
HETATM   36  C26 UNL     1     -16.416  29.506   3.885  1.00  0.00     0.015 A 
ENDBRANCH  29  31
ENDBRANCH  26  29
ENDBRANCH   5  23
TORSDOF 7
ENDMDL
MODEL 5
REMARK VINA RESULT: -11.248098422      1.967     10.974
REMARK  7 active torsions:
REMARK  status: ('A' for Active; 'I' for Inactive)
REMARK    1  A    between atoms: C3_3  and  N1_4 
REMARK    2  A    between atoms: N1_4  and  C4_6 
REMARK    3  A    between atoms: C4_6  and  C5_7 
REMARK    4  A    between atoms: C14_16  and  N2_17 
REMARK       I    between atoms: N2_17  and  C15_19 
REMARK       I    between atoms: C15_19  and  N3_21 
REMARK    5  A    between atoms: N3_21  and  C16_23 
REMARK    6  A    between atoms: C19_26  and  C20_27 
REMARK    7  A    between atoms: C20_27  and  C21_29 
ROOT
HETATM    1  N2  UNL     1     -16.825  26.922  -2.253  1.00  0.00    -0.308 N 
ATOM      2  H2  UNL     1     -17.784  26.942  -2.598  1.00  0.00     0.170 HD
HETATM    3  C15 UNL     1     -15.939  26.003  -2.862  1.00  0.00     0.325 C 
HETATM    4  O1  UNL     1     -14.739  25.819  -2.577  1.00  0.00    -0.247 OA
HETATM    5  N3  UNL     1     -16.432  25.172  -3.941  1.00  0.00    -0.309 N 
ATOM      6  H3  UNL     1     -17.401  25.243  -4.252  1.00  0.00     0.170 HD
ENDROOT
BRANCH   1   7
HETATM    7  C14 UNL     1     -16.502  27.803  -1.221  1.00  0.00     0.044 A 
HETATM    8  C2  UNL     1     -16.382  27.295   0.098  1.00  0.00    -0.009 A 
HETATM    9  C1  UNL     1     -16.648  25.877   0.362  1.00  0.00     0.053 C 
HETATM   10  C3  UNL     1     -16.056  28.088   1.168  1.00  0.00     0.036 A 
HETATM   11  C11 UNL     1     -15.845  29.429   0.920  1.00  0.00     0.030 A 
HETATM   12  C12 UNL     1     -15.954  29.951  -0.348  1.00  0.00     0.005 A 
HETATM   13  C13 UNL     1     -16.281  29.140  -1.409  1.00  0.00     0.030 A 
BRANCH  10  14
HETATM   14  N1  UNL     1     -15.919  27.588   2.471  1.00  0.00    -0.385 N 
ATOM     15  H1  UNL     1     -16.735  27.125   2.871  1.00  0.00     0.160 HD
BRANCH  14  16
HETATM   16  C4  UNL     1     -14.753  27.658   3.297  1.00  0.00     0.158 C 
BRANCH  16  17
HETATM   17  C5  UNL     1     -15.047  28.178   4.637  1.00  0.00    -0.041 A 
HETATM   18  C6  UNL     1     -15.630  29.440   4.723  1.00  0.00     0.009 A 
HETATM   19  C7  UNL     1     -15.939  29.959   5.940  1.00  0.00     0.001 A 
HETATM   20  C8  UNL     1     -15.701  29.292   7.102  1.00  0.00     0.000 A 
HETATM   21  C9  UNL     1     -15.118  28.033   7.016  1.00  0.00     0.001 A 
HETATM   22  C10 UNL     1     -14.793  27.477   5.788  1.00  0.00     0.009 A 
ENDBRANCH  16  17
ENDBRANCH  14  16
ENDBRANCH  10  14
ENDBRANCH   1   7
BRANCH   5  23
HETATM   23  C16 UNL     1     -15.532  24.252  -4.558  1.00  0.00     0.036 A 
HETATM   24  C17 UNL     1     -15.673  22.886  -4.264  1.00  0.00     0.030 A 
HETATM   25  C18 UNL     1     -14.823  21.969  -4.825  1.00  0.00     0.018 A 
HETATM   26  C19 UNL     1     -13.812  22.329  -5.684  1.00  0.00     0.015 A 
HETATM   27  C27 UNL     1     -13.684  23.674  -5.963  1.00  0.00     0.018 A 
HETATM   28  C28 UNL     1     -14.521  24.607  -5.415  1.00  0.00     0.030 A 
BRANCH  26  29
HETATM   29  C20 UNL     1     -12.892  21.401  -6.305  1.00  0.00     0.192 C 
HETATM   30  O2  UNL     1     -13.287  20.854  -7.403  1.00  0.00    -0.287 OA
BRANCH  29  31
HETATM   31  C21 UNL     1     -11.586  21.004  -5.849  1.00  0.00     0.015 A 
HETATM   32  C22 UNL     1     -11.368  19.884  -5.098  1.00  0.00     0.015 A 
HETATM   33  C23 UNL     1     -10.090  19.488  -4.696  1.00  0.00     0.001 A 
HETATM   34  C24 UNL     1      -9.000  20.230  -5.051  1.00  0.00     0.000 A 
HETATM   35  C25 UNL     1      -9.176  21.365  -5.803  1.00  0.00     0.001 A 
HETATM   36  C26 UNL     1     -10.440  21.741  -6.192  1.00  0.00     0.015 A 
ENDBRANCH  29  31
ENDBRANCH  26  29
ENDBRANCH   5  23
TORSDOF 7
ENDMDL
