MODEL 1
REMARK VINA RESULT: -10.998425428      0.000      0.000
REMARK  7 active torsions:
REMARK  status: ('A' for Active; 'I' for Inactive)
REMARK       I    between atoms: C1_2  and  N1_3 
REMARK       I    between atoms: C1_2  and  N2_12 
REMARK    1  A    between atoms: N1_3  and  C2_5 
REMARK    2  A    between atoms: C2_5  and  C3_6 
REMARK    3  A    between atoms: N2_12  and  C9_14 
REMARK    4  A    between atoms: C11_16  and  N3_17 
REMARK       I    between atoms: N3_17  and  C12_19 
REMARK    5  A    between atoms: C12_19  and  C13_21 
REMARK    6  A    between atoms: C21_29  and  O3_30 
REMARK    7  A    between atoms: O3_30  and  C22_31 
ROOT
HETATM    1  C9  UNL     1     -16.643  26.844  -1.921  1.00  0.00     0.072 A 
HETATM    2  C10 UNL     1     -16.280  26.947  -0.617  1.00  0.00     0.062 A 
HETATM    3  C11 UNL     1     -15.936  28.162   0.007  1.00  0.00     0.037 A 
HETATM    4  C19 UNL     1     -15.988  29.279  -0.792  1.00  0.00     0.032 A 
HETATM    5  C20 UNL     1     -16.352  29.218  -2.122  1.00  0.00     0.042 A 
HETATM    6  C21 UNL     1     -16.670  28.032  -2.666  1.00  0.00     0.103 A 
ENDROOT
BRANCH   1   7
HETATM    7  N2  UNL     1     -16.965  25.624  -2.522  1.00  0.00    -0.306 N 
HETATM    8  C1  UNL     1     -16.104  24.604  -2.894  1.00  0.00     0.321 C 
HETATM    9  O1  UNL     1     -14.876  24.607  -2.741  1.00  0.00    -0.247 OA
HETATM   10  N1  UNL     1     -16.687  23.429  -3.520  1.00  0.00    -0.339 N 
ATOM     11  H1  UNL     1     -17.692  23.363  -3.680  1.00  0.00     0.164 HD
ATOM     12  H2  UNL     1     -17.956  25.466  -2.711  1.00  0.00     0.171 HD
BRANCH  10  13
HETATM   13  C2  UNL     1     -15.806  22.363  -3.906  1.00  0.00     0.162 C 
BRANCH  13  14
HETATM   14  C3  UNL     1     -15.744  22.293  -5.390  1.00  0.00    -0.040 A 
HETATM   15  C4  UNL     1     -16.849  22.190  -6.173  1.00  0.00     0.009 A 
HETATM   16  C5  UNL     1     -16.739  22.132  -7.566  1.00  0.00     0.001 A 
HETATM   17  C6  UNL     1     -15.490  22.182  -8.139  1.00  0.00     0.000 A 
HETATM   18  C7  UNL     1     -14.383  22.286  -7.347  1.00  0.00     0.001 A 
HETATM   19  C8  UNL     1     -14.492  22.342  -5.986  1.00  0.00     0.009 A 
ENDBRANCH  13  14
ENDBRANCH  10  13
ENDBRANCH   1   7
BRANCH   6  20
HETATM   20  O3  UNL     1     -17.032  27.964  -3.983  1.00  0.00    -0.309 OA
BRANCH  20  21
HETATM   21  C22 UNL     1     -16.252  27.274  -4.916  1.00  0.00     0.076 A 
HETATM   22  C23 UNL     1     -14.888  27.420  -4.901  1.00  0.00     0.037 A 
HETATM   23  C24 UNL     1     -14.147  26.728  -5.832  1.00  0.00     0.003 A 
HETATM   24  C25 UNL     1     -14.744  25.907  -6.761  1.00  0.00     0.000 A 
HETATM   25  C26 UNL     1     -16.130  25.779  -6.752  1.00  0.00     0.003 A 
HETATM   26  C27 UNL     1     -16.881  26.468  -5.824  1.00  0.00     0.037 A 
ENDBRANCH  20  21
ENDBRANCH   6  20
BRANCH   3  27
HETATM   27  N3  UNL     1     -15.597  28.167   1.384  1.00  0.00    -0.323 N 
HETATM   28  C12 UNL     1     -16.288  28.888   2.365  1.00  0.00     0.256 C 
HETATM   29  O2  UNL     1     -17.274  29.605   2.084  1.00  0.00    -0.267 OA
ATOM     30  H3  UNL     1     -14.796  27.607   1.680  1.00  0.00     0.169 HD
BRANCH  28  31
HETATM   31  C13 UNL     1     -15.841  28.801   3.775  1.00  0.00     0.032 A 
HETATM   32  C14 UNL     1     -16.302  29.742   4.683  1.00  0.00     0.017 A 
HETATM   33  C15 UNL     1     -15.939  29.729   6.016  1.00  0.00     0.001 A 
HETATM   34  C16 UNL     1     -15.094  28.756   6.473  1.00  0.00     0.000 A 
HETATM   35  C17 UNL     1     -14.626  27.816   5.593  1.00  0.00     0.001 A 
HETATM   36  C18 UNL     1     -14.994  27.832   4.244  1.00  0.00     0.017 A 
ENDBRANCH  28  31
ENDBRANCH   3  27
TORSDOF 7
ENDMDL
MODEL 2
REMARK VINA RESULT: -9.799521290      2.988      9.517
REMARK  7 active torsions:
REMARK  status: ('A' for Active; 'I' for Inactive)
REMARK       I    between atoms: C1_2  and  N1_3 
REMARK       I    between atoms: C1_2  and  N2_12 
REMARK    1  A    between atoms: N1_3  and  C2_5 
REMARK    2  A    between atoms: C2_5  and  C3_6 
REMARK    3  A    between atoms: N2_12  and  C9_14 
REMARK    4  A    between atoms: C11_16  and  N3_17 
REMARK       I    between atoms: N3_17  and  C12_19 
REMARK    5  A    between atoms: C12_19  and  C13_21 
REMARK    6  A    between atoms: C21_29  and  O3_30 
REMARK    7  A    between atoms: O3_30  and  C22_31 
ROOT
HETATM    1  C9  UNL     1     -15.439  23.779  -4.938  1.00  0.00     0.072 A 
HETATM    2  C10 UNL     1     -14.455  22.897  -5.248  1.00  0.00     0.062 A 
HETATM    3  C11 UNL     1     -14.109  22.541  -6.566  1.00  0.00     0.037 A 
HETATM    4  C19 UNL     1     -14.839  23.148  -7.559  1.00  0.00     0.032 A 
HETATM    5  C20 UNL     1     -15.848  24.050  -7.287  1.00  0.00     0.042 A 
HETATM    6  C21 UNL     1     -16.136  24.353  -6.012  1.00  0.00     0.103 A 
ENDROOT
BRANCH   1   7
HETATM    7  N2  UNL     1     -15.774  24.106  -3.621  1.00  0.00    -0.306 N 
HETATM    8  C1  UNL     1     -15.093  24.944  -2.751  1.00  0.00     0.321 C 
HETATM    9  O1  UNL     1     -14.052  25.560  -3.012  1.00  0.00    -0.247 OA
HETATM   10  N1  UNL     1     -15.642  25.115  -1.416  1.00  0.00    -0.339 N 
ATOM     11  H1  UNL     1     -16.495  24.633  -1.134  1.00  0.00     0.164 HD
ATOM     12  H2  UNL     1     -16.624  23.676  -3.255  1.00  0.00     0.171 HD
BRANCH  10  13
HETATM   13  C2  UNL     1     -14.948  25.983  -0.507  1.00  0.00     0.162 C 
BRANCH  13  14
HETATM   14  C3  UNL     1     -15.937  26.825   0.216  1.00  0.00    -0.040 A 
HETATM   15  C4  UNL     1     -16.817  26.322   1.120  1.00  0.00     0.009 A 
HETATM   16  C5  UNL     1     -17.725  27.156   1.779  1.00  0.00     0.001 A 
HETATM   17  C6  UNL     1     -17.717  28.503   1.501  1.00  0.00     0.000 A 
HETATM   18  C7  UNL     1     -16.829  29.003   0.592  1.00  0.00     0.001 A 
HETATM   19  C8  UNL     1     -15.943  28.186  -0.052  1.00  0.00     0.009 A 
ENDBRANCH  13  14
ENDBRANCH  10  13
ENDBRANCH   1   7
BRANCH   6  20
HETATM   20  O3  UNL     1     -17.133  25.246  -5.734  1.00  0.00    -0.309 OA
BRANCH  20  21
HETATM   21  C22 UNL     1     -16.865  26.457  -5.088  1.00  0.00     0.076 A 
HETATM   22  C23 UNL     1     -17.457  26.730  -3.882  1.00  0.00     0.037 A 
HETATM   23  C24 UNL     1     -17.174  27.931  -3.271  1.00  0.00     0.003 A 
HETATM   24  C25 UNL     1     -16.320  28.845  -3.844  1.00  0.00     0.000 A 
HETATM   25  C26 UNL     1     -15.733  28.541  -5.069  1.00  0.00     0.003 A 
HETATM   26  C27 UNL     1     -16.011  27.341  -5.689  1.00  0.00     0.037 A 
ENDBRANCH  20  21
ENDBRANCH   6  20
BRANCH   3  27
HETATM   27  N3  UNL     1     -13.045  21.628  -6.785  1.00  0.00    -0.323 N 
HETATM   28  C12 UNL     1     -11.690  21.981  -6.778  1.00  0.00     0.256 C 
HETATM   29  O2  UNL     1     -11.316  23.159  -6.582  1.00  0.00    -0.267 OA
ATOM     30  H3  UNL     1     -13.282  20.651  -6.958  1.00  0.00     0.169 HD
BRANCH  28  31
HETATM   31  C13 UNL     1     -10.670  20.932  -7.009  1.00  0.00     0.032 A 
HETATM   32  C14 UNL     1     -10.168  20.235  -5.920  1.00  0.00     0.017 A 
HETATM   33  C15 UNL     1      -9.220  19.238  -6.048  1.00  0.00     0.001 A 
HETATM   34  C16 UNL     1      -8.750  18.913  -7.291  1.00  0.00     0.000 A 
HETATM   35  C17 UNL     1      -9.232  19.590  -8.380  1.00  0.00     0.001 A 
HETATM   36  C18 UNL     1     -10.191  20.599  -8.248  1.00  0.00     0.017 A 
ENDBRANCH  28  31
ENDBRANCH   3  27
TORSDOF 7
ENDMDL
MODEL 3
REMARK VINA RESULT: -9.787053470      2.961      9.494
REMARK  7 active torsions:
REMARK  status: ('A' for Active; 'I' for Inactive)
REMARK       I    between atoms: C1_2  and  N1_3 
REMARK       I    between atoms: C1_2  and  N2_12 
REMARK    1  A    between atoms: N1_3  and  C2_5 
REMARK    2  A    between atoms: C2_5  and  C3_6 
REMARK    3  A    between atoms: N2_12  and  C9_14 
REMARK    4  A    between atoms: C11_16  and  N3_17 
REMARK       I    between atoms: N3_17  and  C12_19 
REMARK    5  A    between atoms: C12_19  and  C13_21 
REMARK    6  A    between atoms: C21_29  and  O3_30 
REMARK    7  A    between atoms: O3_30  and  C22_31 
ROOT
HETATM    1  C9  UNL     1     -15.461  23.806  -4.907  1.00  0.00     0.072 A 
HETATM    2  C10 UNL     1     -14.480  22.920  -5.217  1.00  0.00     0.062 A 
HETATM    3  C11 UNL     1     -14.133  22.566  -6.536  1.00  0.00     0.037 A 
HETATM    4  C19 UNL     1     -14.857  23.180  -7.529  1.00  0.00     0.032 A 
HETATM    5  C20 UNL     1     -15.862  24.085  -7.257  1.00  0.00     0.042 A 
HETATM    6  C21 UNL     1     -16.152  24.386  -5.981  1.00  0.00     0.103 A 
ENDROOT
BRANCH   1   7
HETATM    7  N2  UNL     1     -15.798  24.131  -3.590  1.00  0.00    -0.306 N 
HETATM    8  C1  UNL     1     -15.111  24.956  -2.713  1.00  0.00     0.321 C 
HETATM    9  O1  UNL     1     -14.061  25.561  -2.967  1.00  0.00    -0.247 OA
HETATM   10  N1  UNL     1     -15.663  25.127  -1.380  1.00  0.00    -0.339 N 
ATOM     11  H1  UNL     1     -16.523  24.653  -1.104  1.00  0.00     0.164 HD
ATOM     12  H2  UNL     1     -16.654  23.709  -3.229  1.00  0.00     0.171 HD
BRANCH  10  13
HETATM   13  C2  UNL     1     -14.963  25.983  -0.464  1.00  0.00     0.162 C 
BRANCH  13  14
HETATM   14  C3  UNL     1     -15.945  26.836   0.256  1.00  0.00    -0.040 A 
HETATM   15  C4  UNL     1     -16.822  26.345   1.170  1.00  0.00     0.009 A 
HETATM   16  C5  UNL     1     -17.723  27.190   1.826  1.00  0.00     0.001 A 
HETATM   17  C6  UNL     1     -17.712  28.533   1.534  1.00  0.00     0.000 A 
HETATM   18  C7  UNL     1     -16.828  29.021   0.614  1.00  0.00     0.001 A 
HETATM   19  C8  UNL     1     -15.948  28.194  -0.026  1.00  0.00     0.009 A 
ENDBRANCH  13  14
ENDBRANCH  10  13
ENDBRANCH   1   7
BRANCH   6  20
HETATM   20  O3  UNL     1     -17.146  25.283  -5.703  1.00  0.00    -0.309 OA
BRANCH  20  21
HETATM   21  C22 UNL     1     -16.873  26.493  -5.056  1.00  0.00     0.076 A 
HETATM   22  C23 UNL     1     -16.022  27.398  -5.639  1.00  0.00     0.037 A 
HETATM   23  C24 UNL     1     -15.772  28.579  -4.979  1.00  0.00     0.003 A 
HETATM   24  C25 UNL     1     -16.352  28.860  -3.763  1.00  0.00     0.000 A 
HETATM   25  C26 UNL     1     -17.211  27.923  -3.196  1.00  0.00     0.003 A 
HETATM   26  C27 UNL     1     -17.468  26.737  -3.849  1.00  0.00     0.037 A 
ENDBRANCH  20  21
ENDBRANCH   6  20
BRANCH   3  27
HETATM   27  N3  UNL     1     -13.072  21.649  -6.754  1.00  0.00    -0.323 N 
HETATM   28  C12 UNL     1     -11.716  21.962  -6.604  1.00  0.00     0.256 C 
HETATM   29  O2  UNL     1     -11.336  23.105  -6.267  1.00  0.00    -0.267 OA
ATOM     30  H3  UNL     1     -13.314  20.700  -7.039  1.00  0.00     0.169 HD
BRANCH  28  31
HETATM   31  C13 UNL     1     -10.701  20.911  -6.852  1.00  0.00     0.032 A 
HETATM   32  C14 UNL     1     -10.243  20.714  -8.146  1.00  0.00     0.017 A 
HETATM   33  C15 UNL     1      -9.294  19.761  -8.462  1.00  0.00     0.001 A 
HETATM   34  C16 UNL     1      -8.776  18.974  -7.470  1.00  0.00     0.000 A 
HETATM   35  C17 UNL     1      -9.215  19.151  -6.184  1.00  0.00     0.001 A 
HETATM   36  C18 UNL     1     -10.176  20.117  -5.867  1.00  0.00     0.017 A 
ENDBRANCH  28  31
ENDBRANCH   3  27
TORSDOF 7
ENDMDL
MODEL 4
REMARK VINA RESULT: -9.639496681      2.912      4.631
REMARK  7 active torsions:
REMARK  status: ('A' for Active; 'I' for Inactive)
REMARK       I    between atoms: C1_2  and  N1_3 
REMARK       I    between atoms: C1_2  and  N2_12 
REMARK    1  A    between atoms: N1_3  and  C2_5 
REMARK    2  A    between atoms: C2_5  and  C3_6 
REMARK    3  A    between atoms: N2_12  and  C9_14 
REMARK    4  A    between atoms: C11_16  and  N3_17 
REMARK       I    between atoms: N3_17  and  C12_19 
REMARK    5  A    between atoms: C12_19  and  C13_21 
REMARK    6  A    between atoms: C21_29  and  O3_30 
REMARK    7  A    between atoms: O3_30  and  C22_31 
ROOT
HETATM    1  C9  UNL     1     -15.098  25.406  -4.665  1.00  0.00     0.072 A 
HETATM    2  C10 UNL     1     -15.137  26.055  -3.474  1.00  0.00     0.062 A 
HETATM    3  C11 UNL     1     -16.033  27.102  -3.182  1.00  0.00     0.037 A 
HETATM    4  C19 UNL     1     -16.897  27.448  -4.193  1.00  0.00     0.032 A 
HETATM    5  C20 UNL     1     -16.890  26.814  -5.419  1.00  0.00     0.042 A 
HETATM    6  C21 UNL     1     -16.014  25.821  -5.643  1.00  0.00     0.103 A 
ENDROOT
BRANCH   1   7
HETATM    7  N2  UNL     1     -14.190  24.379  -4.937  1.00  0.00    -0.306 N 
HETATM    8  C1  UNL     1     -13.140  24.388  -5.842  1.00  0.00     0.321 C 
HETATM    9  O1  UNL     1     -12.826  25.338  -6.571  1.00  0.00    -0.247 OA
HETATM   10  N1  UNL     1     -12.338  23.181  -5.952  1.00  0.00    -0.339 N 
ATOM     11  H1  UNL     1     -12.546  22.359  -5.385  1.00  0.00     0.164 HD
ATOM     12  H2  UNL     1     -14.314  23.517  -4.405  1.00  0.00     0.171 HD
BRANCH  10  13
HETATM   13  C2  UNL     1     -11.246  23.178  -6.884  1.00  0.00     0.162 C 
BRANCH  13  14
HETATM   14  C3  UNL     1     -10.516  21.887  -6.779  1.00  0.00    -0.040 A 
HETATM   15  C4  UNL     1     -10.246  21.100  -7.853  1.00  0.00     0.009 A 
HETATM   16  C5  UNL     1      -9.551  19.896  -7.704  1.00  0.00     0.001 A 
HETATM   17  C6  UNL     1      -9.140  19.514  -6.448  1.00  0.00     0.000 A 
HETATM   18  C7  UNL     1      -9.415  20.309  -5.372  1.00  0.00     0.001 A 
HETATM   19  C8  UNL     1     -10.095  21.485  -5.520  1.00  0.00     0.009 A 
ENDBRANCH  13  14
ENDBRANCH  10  13
ENDBRANCH   1   7
BRANCH   6  20
HETATM   20  O3  UNL     1     -16.001  25.187  -6.855  1.00  0.00    -0.309 OA
BRANCH  20  21
HETATM   21  C22 UNL     1     -16.265  23.818  -6.960  1.00  0.00     0.076 A 
HETATM   22  C23 UNL     1     -15.679  23.088  -7.963  1.00  0.00     0.037 A 
HETATM   23  C24 UNL     1     -15.959  21.743  -8.041  1.00  0.00     0.003 A 
HETATM   24  C25 UNL     1     -16.804  21.131  -7.145  1.00  0.00     0.000 A 
HETATM   25  C26 UNL     1     -17.385  21.897  -6.138  1.00  0.00     0.003 A 
HETATM   26  C27 UNL     1     -17.111  23.245  -6.051  1.00  0.00     0.037 A 
ENDBRANCH  20  21
ENDBRANCH   6  20
BRANCH   3  27
HETATM   27  N3  UNL     1     -16.012  27.699  -1.895  1.00  0.00    -0.323 N 
HETATM   28  C12 UNL     1     -16.382  27.042  -0.715  1.00  0.00     0.256 C 
HETATM   29  O2  UNL     1     -16.775  25.854  -0.716  1.00  0.00    -0.267 OA
ATOM     30  H3  UNL     1     -15.707  28.670  -1.824  1.00  0.00     0.169 HD
BRANCH  28  31
HETATM   31  C13 UNL     1     -16.305  27.772   0.572  1.00  0.00     0.032 A 
HETATM   32  C14 UNL     1     -16.636  27.104   1.741  1.00  0.00     0.017 A 
HETATM   33  C15 UNL     1     -16.586  27.709   2.983  1.00  0.00     0.001 A 
HETATM   34  C16 UNL     1     -16.194  29.016   3.078  1.00  0.00     0.000 A 
HETATM   35  C17 UNL     1     -15.863  29.694   1.935  1.00  0.00     0.001 A 
HETATM   36  C18 UNL     1     -15.915  29.081   0.680  1.00  0.00     0.017 A 
ENDBRANCH  28  31
ENDBRANCH   3  27
TORSDOF 7
ENDMDL
MODEL 5
REMARK VINA RESULT: -9.638894709      2.909      4.644
REMARK  7 active torsions:
REMARK  status: ('A' for Active; 'I' for Inactive)
REMARK       I    between atoms: C1_2  and  N1_3 
REMARK       I    between atoms: C1_2  and  N2_12 
REMARK    1  A    between atoms: N1_3  and  C2_5 
REMARK    2  A    between atoms: C2_5  and  C3_6 
REMARK    3  A    between atoms: N2_12  and  C9_14 
REMARK    4  A    between atoms: C11_16  and  N3_17 
REMARK       I    between atoms: N3_17  and  C12_19 
REMARK    5  A    between atoms: C12_19  and  C13_21 
REMARK    6  A    between atoms: C21_29  and  O3_30 
REMARK    7  A    between atoms: O3_30  and  C22_31 
ROOT
HETATM    1  C9  UNL     1     -15.087  25.421  -4.639  1.00  0.00     0.072 A 
HETATM    2  C10 UNL     1     -15.132  26.073  -3.450  1.00  0.00     0.062 A 
HETATM    3  C11 UNL     1     -16.043  27.106  -3.157  1.00  0.00     0.037 A 
HETATM    4  C19 UNL     1     -16.916  27.436  -4.166  1.00  0.00     0.032 A 
HETATM    5  C20 UNL     1     -16.903  26.798  -5.390  1.00  0.00     0.042 A 
HETATM    6  C21 UNL     1     -16.012  25.820  -5.615  1.00  0.00     0.103 A 
ENDROOT
BRANCH   1   7
HETATM    7  N2  UNL     1     -14.163  24.408  -4.912  1.00  0.00    -0.306 N 
HETATM    8  C1  UNL     1     -13.137  24.419  -5.844  1.00  0.00     0.321 C 
HETATM    9  O1  UNL     1     -12.862  25.359  -6.601  1.00  0.00    -0.247 OA
HETATM   10  N1  UNL     1     -12.312  23.227  -5.948  1.00  0.00    -0.339 N 
ATOM     11  H1  UNL     1     -12.488  22.414  -5.358  1.00  0.00     0.164 HD
ATOM     12  H2  UNL     1     -14.256  23.556  -4.358  1.00  0.00     0.171 HD
BRANCH  10  13
HETATM   13  C2  UNL     1     -11.244  23.227  -6.907  1.00  0.00     0.162 C 
BRANCH  13  14
HETATM   14  C3  UNL     1     -10.503  21.941  -6.814  1.00  0.00    -0.040 A 
HETATM   15  C4  UNL     1     -10.056  21.427  -5.639  1.00  0.00     0.009 A 
HETATM   16  C5  UNL     1      -9.368  20.210  -5.603  1.00  0.00     0.001 A 
HETATM   17  C6  UNL     1      -9.147  19.534  -6.779  1.00  0.00     0.000 A 
HETATM   18  C7  UNL     1      -9.599  20.055  -7.958  1.00  0.00     0.001 A 
HETATM   19  C8  UNL     1     -10.271  21.245  -7.991  1.00  0.00     0.009 A 
ENDBRANCH  13  14
ENDBRANCH  10  13
ENDBRANCH   1   7
BRANCH   6  20
HETATM   20  O3  UNL     1     -15.994  25.183  -6.825  1.00  0.00    -0.309 OA
BRANCH  20  21
HETATM   21  C22 UNL     1     -16.268  23.816  -6.930  1.00  0.00     0.076 A 
HETATM   22  C23 UNL     1     -17.119  23.223  -6.033  1.00  0.00     0.037 A 
HETATM   23  C24 UNL     1     -17.369  21.876  -6.162  1.00  0.00     0.003 A 
HETATM   24  C25 UNL     1     -16.788  21.128  -7.160  1.00  0.00     0.000 A 
HETATM   25  C26 UNL     1     -15.929  21.757  -8.056  1.00  0.00     0.003 A 
HETATM   26  C27 UNL     1     -15.672  23.106  -7.936  1.00  0.00     0.037 A 
ENDBRANCH  20  21
ENDBRANCH   6  20
BRANCH   3  27
HETATM   27  N3  UNL     1     -16.027  27.706  -1.871  1.00  0.00    -0.323 N 
HETATM   28  C12 UNL     1     -16.375  27.044  -0.688  1.00  0.00     0.256 C 
HETATM   29  O2  UNL     1     -16.743  25.849  -0.684  1.00  0.00    -0.267 OA
ATOM     30  H3  UNL     1     -15.742  28.683  -1.805  1.00  0.00     0.169 HD
BRANCH  28  31
HETATM   31  C13 UNL     1     -16.306  27.779   0.597  1.00  0.00     0.032 A 
HETATM   32  C14 UNL     1     -16.636  27.113   1.768  1.00  0.00     0.017 A 
HETATM   33  C15 UNL     1     -16.592  27.721   3.007  1.00  0.00     0.001 A 
HETATM   34  C16 UNL     1     -16.209  29.032   3.099  1.00  0.00     0.000 A 
HETATM   35  C17 UNL     1     -15.879  29.708   1.955  1.00  0.00     0.001 A 
HETATM   36  C18 UNL     1     -15.924  29.090   0.702  1.00  0.00     0.017 A 
ENDBRANCH  28  31
ENDBRANCH   3  27
TORSDOF 7
ENDMDL
