MODEL 1
REMARK VINA RESULT: -11.193855449      0.000      0.000
REMARK  7 active torsions:
REMARK  status: ('A' for Active; 'I' for Inactive)
REMARK       I    between atoms: C1_2  and  N1_3 
REMARK    1  A    between atoms: C1_2  and  C15_21 
REMARK    2  A    between atoms: N1_3  and  C2_4 
REMARK    3  A    between atoms: C6_8  and  C7_9 
REMARK    4  A    between atoms: C20_26  and  N4_27 
REMARK    5  A    between atoms: N4_27  and  C21_29 
REMARK    6  A    between atoms: C21_29  and  C22_30 
REMARK    7  A    between atoms: C22_30  and  C23_31 
ROOT
HETATM    1  O1  UNL     1     -12.590  23.764  -8.485  1.00  0.00    -0.251 OA
HETATM    2  C1  UNL     1     -12.766  23.925  -7.233  1.00  0.00     0.328 C 
HETATM    3  N1  UNL     1     -13.420  24.936  -6.650  1.00  0.00    -0.366 NA
ENDROOT
BRANCH   2   4
HETATM    4  C15 UNL     1     -12.164  22.830  -6.402  1.00  0.00     0.073 A 
HETATM    5  C16 UNL     1     -10.860  22.973  -6.030  1.00  0.00     0.020 A 
HETATM    6  C17 UNL     1     -10.220  21.923  -5.405  1.00  0.00     0.001 A 
HETATM    7  C18 UNL     1     -10.859  20.739  -5.145  1.00  0.00     0.002 A 
HETATM    8  C19 UNL     1     -12.179  20.607  -5.524  1.00  0.00     0.030 A 
HETATM    9  C20 UNL     1     -12.836  21.669  -6.158  1.00  0.00     0.044 A 
BRANCH   9  10
HETATM   10  N4  UNL     1     -14.209  21.547  -6.407  1.00  0.00    -0.389 N 
ATOM     11  H4  UNL     1     -14.564  21.324  -7.337  1.00  0.00     0.159 HD
BRANCH  10  12
HETATM   12  C21 UNL     1     -15.119  21.754  -5.264  1.00  0.00     0.124 C 
BRANCH  12  13
HETATM   13  C22 UNL     1     -16.522  21.995  -5.782  1.00  0.00     0.058 C 
BRANCH  13  14
HETATM   14  C23 UNL     1     -17.207  23.107  -5.127  1.00  0.00    -0.057 A 
HETATM   15  C24 UNL     1     -17.631  23.142  -3.825  1.00  0.00     0.007 A 
HETATM   16  C25 UNL     1     -18.271  24.276  -3.343  1.00  0.00     0.001 A 
HETATM   17  C26 UNL     1     -18.490  25.373  -4.155  1.00  0.00     0.000 A 
HETATM   18  C27 UNL     1     -18.073  25.359  -5.470  1.00  0.00     0.001 A 
HETATM   19  C28 UNL     1     -17.440  24.232  -5.933  1.00  0.00     0.007 A 
ENDBRANCH  13  14
ENDBRANCH  12  13
ENDBRANCH  10  12
ENDBRANCH   9  10
ENDBRANCH   2   4
BRANCH   3  20
HETATM   20  C2  UNL     1     -14.086  25.963  -6.056  1.00  0.00     0.112 A 
HETATM   21  C3  UNL     1     -14.428  27.092  -6.861  1.00  0.00     0.045 A 
HETATM   22  C4  UNL     1     -15.124  28.154  -6.390  1.00  0.00     0.004 A 
HETATM   23  C5  UNL     1     -15.522  28.149  -5.068  1.00  0.00     0.015 A 
HETATM   24  C6  UNL     1     -15.229  27.099  -4.234  1.00  0.00     0.011 A 
HETATM   25  C14 UNL     1     -14.524  26.042  -4.748  1.00  0.00     0.060 A 
BRANCH  24  26
HETATM   26  C7  UNL     1     -15.655  27.155  -2.846  1.00  0.00     0.116 A 
HETATM   27  N2  UNL     1     -15.658  26.126  -1.957  1.00  0.00    -0.340 N 
HETATM   28  C8  UNL     1     -16.138  26.571  -0.777  1.00  0.00     0.060 A 
ATOM     29  H2  UNL     1     -15.349  25.174  -2.151  1.00  0.00     0.167 HD
HETATM   30  C9  UNL     1     -16.345  25.957   0.423  1.00  0.00     0.032 A 
HETATM   31  C13 UNL     1     -16.431  27.911  -0.972  1.00  0.00     0.060 A 
HETATM   32  C10 UNL     1     -16.857  26.656   1.492  1.00  0.00     0.002 A 
HETATM   33  C11 UNL     1     -17.143  27.991   1.277  1.00  0.00     0.002 A 
HETATM   34  C12 UNL     1     -16.938  28.621   0.067  1.00  0.00     0.032 A 
HETATM   35  N3  UNL     1     -16.130  28.248  -2.228  1.00  0.00    -0.340 N 
ATOM     36  H3  UNL     1     -16.241  29.172  -2.645  1.00  0.00     0.167 HD
ENDBRANCH  24  26
ENDBRANCH   3  20
TORSDOF 7
ENDMDL
MODEL 2
REMARK VINA RESULT: -11.177145630      0.088      1.296
REMARK  7 active torsions:
REMARK  status: ('A' for Active; 'I' for Inactive)
REMARK       I    between atoms: C1_2  and  N1_3 
REMARK    1  A    between atoms: C1_2  and  C15_21 
REMARK    2  A    between atoms: N1_3  and  C2_4 
REMARK    3  A    between atoms: C6_8  and  C7_9 
REMARK    4  A    between atoms: C20_26  and  N4_27 
REMARK    5  A    between atoms: N4_27  and  C21_29 
REMARK    6  A    between atoms: C21_29  and  C22_30 
REMARK    7  A    between atoms: C22_30  and  C23_31 
ROOT
HETATM    1  O1  UNL     1     -12.603  23.730  -8.445  1.00  0.00    -0.251 OA
HETATM    2  C1  UNL     1     -12.757  23.909  -7.193  1.00  0.00     0.328 C 
HETATM    3  N1  UNL     1     -13.400  24.929  -6.613  1.00  0.00    -0.366 NA
ENDROOT
BRANCH   2   4
HETATM    4  C15 UNL     1     -12.142  22.825  -6.356  1.00  0.00     0.073 A 
HETATM    5  C16 UNL     1     -10.832  22.973  -6.007  1.00  0.00     0.020 A 
HETATM    6  C17 UNL     1     -10.183  21.932  -5.378  1.00  0.00     0.001 A 
HETATM    7  C18 UNL     1     -10.817  20.752  -5.092  1.00  0.00     0.002 A 
HETATM    8  C19 UNL     1     -12.143  20.615  -5.447  1.00  0.00     0.030 A 
HETATM    9  C20 UNL     1     -12.810  21.668  -6.085  1.00  0.00     0.044 A 
BRANCH   9  10
HETATM   10  N4  UNL     1     -14.187  21.543  -6.311  1.00  0.00    -0.389 N 
ATOM     11  H4  UNL     1     -14.554  21.242  -7.214  1.00  0.00     0.159 HD
BRANCH  10  12
HETATM   12  C21 UNL     1     -15.083  21.865  -5.183  1.00  0.00     0.124 C 
BRANCH  12  13
HETATM   13  C22 UNL     1     -16.500  22.006  -5.698  1.00  0.00     0.058 C 
BRANCH  13  14
HETATM   14  C23 UNL     1     -17.161  23.237  -5.273  1.00  0.00    -0.057 A 
HETATM   15  C24 UNL     1     -17.369  24.351  -6.042  1.00  0.00     0.007 A 
HETATM   16  C25 UNL     1     -18.017  25.451  -5.495  1.00  0.00     0.001 A 
HETATM   17  C26 UNL     1     -18.456  25.443  -4.185  1.00  0.00     0.000 A 
HETATM   18  C27 UNL     1     -18.256  24.332  -3.390  1.00  0.00     0.001 A 
HETATM   19  C28 UNL     1     -17.616  23.251  -3.945  1.00  0.00     0.007 A 
ENDBRANCH  13  14
ENDBRANCH  12  13
ENDBRANCH  10  12
ENDBRANCH   9  10
ENDBRANCH   2   4
BRANCH   3  20
HETATM   20  C2  UNL     1     -14.054  25.966  -6.023  1.00  0.00     0.112 A 
HETATM   21  C3  UNL     1     -14.362  27.106  -6.826  1.00  0.00     0.045 A 
HETATM   22  C4  UNL     1     -15.043  28.179  -6.358  1.00  0.00     0.004 A 
HETATM   23  C5  UNL     1     -15.461  28.175  -5.043  1.00  0.00     0.015 A 
HETATM   24  C6  UNL     1     -15.201  27.113  -4.211  1.00  0.00     0.011 A 
HETATM   25  C14 UNL     1     -14.509  26.045  -4.721  1.00  0.00     0.060 A 
BRANCH  24  26
HETATM   26  C7  UNL     1     -15.647  27.170  -2.829  1.00  0.00     0.116 A 
HETATM   27  N2  UNL     1     -16.162  28.254  -2.188  1.00  0.00    -0.340 N 
HETATM   28  C8  UNL     1     -16.442  27.912  -0.912  1.00  0.00     0.060 A 
ATOM     29  H2  UNL     1     -16.311  29.173  -2.602  1.00  0.00     0.167 HD
HETATM   30  C9  UNL     1     -16.964  28.613   0.134  1.00  0.00     0.032 A 
HETATM   31  C13 UNL     1     -16.081  26.580  -0.792  1.00  0.00     0.060 A 
HETATM   32  C10 UNL     1     -17.153  28.014   1.358  1.00  0.00     0.002 A 
HETATM   33  C11 UNL     1     -16.787  26.685   1.457  1.00  0.00     0.002 A 
HETATM   34  C12 UNL     1     -16.256  25.967   0.406  1.00  0.00     0.032 A 
HETATM   35  N3  UNL     1     -15.605  26.147  -1.962  1.00  0.00    -0.340 N 
ATOM     36  H3  UNL     1     -15.269  25.205  -2.160  1.00  0.00     0.167 HD
ENDBRANCH  24  26
ENDBRANCH   3  20
TORSDOF 7
ENDMDL
MODEL 3
REMARK VINA RESULT: -11.109663346      1.276      1.635
REMARK  7 active torsions:
REMARK  status: ('A' for Active; 'I' for Inactive)
REMARK       I    between atoms: C1_2  and  N1_3 
REMARK    1  A    between atoms: C1_2  and  C15_21 
REMARK    2  A    between atoms: N1_3  and  C2_4 
REMARK    3  A    between atoms: C6_8  and  C7_9 
REMARK    4  A    between atoms: C20_26  and  N4_27 
REMARK    5  A    between atoms: N4_27  and  C21_29 
REMARK    6  A    between atoms: C21_29  and  C22_30 
REMARK    7  A    between atoms: C22_30  and  C23_31 
ROOT
HETATM    1  O1  UNL     1      -9.835  23.402  -7.067  1.00  0.00    -0.251 OA
HETATM    2  C1  UNL     1     -10.853  23.120  -6.354  1.00  0.00     0.328 C 
HETATM    3  N1  UNL     1     -11.942  23.882  -6.194  1.00  0.00    -0.366 NA
ENDROOT
BRANCH   2   4
HETATM    4  C15 UNL     1     -10.752  21.787  -5.672  1.00  0.00     0.073 A 
HETATM    5  C16 UNL     1      -9.581  21.501  -5.033  1.00  0.00     0.020 A 
HETATM    6  C17 UNL     1      -9.383  20.231  -4.531  1.00  0.00     0.001 A 
HETATM    7  C18 UNL     1     -10.330  19.249  -4.655  1.00  0.00     0.002 A 
HETATM    8  C19 UNL     1     -11.511  19.552  -5.300  1.00  0.00     0.030 A 
HETATM    9  C20 UNL     1     -11.721  20.839  -5.812  1.00  0.00     0.044 A 
BRANCH   9  10
HETATM   10  N4  UNL     1     -12.980  21.147  -6.342  1.00  0.00    -0.389 N 
ATOM     11  H4  UNL     1     -13.112  21.315  -7.339  1.00  0.00     0.159 HD
BRANCH  10  12
HETATM   12  C21 UNL     1     -14.108  21.215  -5.393  1.00  0.00     0.124 C 
BRANCH  12  13
HETATM   13  C22 UNL     1     -15.333  21.742  -6.112  1.00  0.00     0.058 C 
BRANCH  13  14
HETATM   14  C23 UNL     1     -16.253  22.475  -5.246  1.00  0.00    -0.057 A 
HETATM   15  C24 UNL     1     -16.173  22.579  -3.883  1.00  0.00     0.007 A 
HETATM   16  C25 UNL     1     -17.127  23.316  -3.194  1.00  0.00     0.001 A 
HETATM   17  C26 UNL     1     -18.160  23.948  -3.859  1.00  0.00     0.000 A 
HETATM   18  C27 UNL     1     -18.261  23.857  -5.233  1.00  0.00     0.001 A 
HETATM   19  C28 UNL     1     -17.310  23.126  -5.901  1.00  0.00     0.007 A 
ENDBRANCH  13  14
ENDBRANCH  12  13
ENDBRANCH  10  12
ENDBRANCH   9  10
ENDBRANCH   2   4
BRANCH   3  20
HETATM   20  C2  UNL     1     -13.049  24.655  -6.031  1.00  0.00     0.112 A 
HETATM   21  C3  UNL     1     -13.821  24.969  -7.190  1.00  0.00     0.045 A 
HETATM   22  C4  UNL     1     -14.963  25.696  -7.145  1.00  0.00     0.004 A 
HETATM   23  C5  UNL     1     -15.404  26.159  -5.922  1.00  0.00     0.015 A 
HETATM   24  C6  UNL     1     -14.713  25.897  -4.765  1.00  0.00     0.011 A 
HETATM   25  C14 UNL     1     -13.562  25.157  -4.851  1.00  0.00     0.060 A 
BRANCH  24  26
HETATM   26  C7  UNL     1     -15.212  26.426  -3.506  1.00  0.00     0.116 A 
HETATM   27  N2  UNL     1     -15.157  25.815  -2.292  1.00  0.00    -0.340 N 
HETATM   28  C8  UNL     1     -15.737  26.617  -1.374  1.00  0.00     0.060 A 
ATOM     29  H2  UNL     1     -14.744  24.901  -2.106  1.00  0.00     0.167 HD
HETATM   30  C9  UNL     1     -15.942  26.483  -0.033  1.00  0.00     0.032 A 
HETATM   31  C13 UNL     1     -16.152  27.743  -2.068  1.00  0.00     0.060 A 
HETATM   32  C10 UNL     1     -16.573  27.472   0.685  1.00  0.00     0.002 A 
HETATM   33  C11 UNL     1     -16.979  28.586  -0.025  1.00  0.00     0.002 A 
HETATM   34  C12 UNL     1     -16.779  28.731  -1.382  1.00  0.00     0.032 A 
HETATM   35  N3  UNL     1     -15.823  27.611  -3.355  1.00  0.00    -0.340 N 
ATOM     36  H3  UNL     1     -16.006  28.291  -4.093  1.00  0.00     0.167 HD
ENDBRANCH  24  26
ENDBRANCH   3  20
TORSDOF 7
ENDMDL
MODEL 4
REMARK VINA RESULT: -10.820844371      2.310      7.769
REMARK  7 active torsions:
REMARK  status: ('A' for Active; 'I' for Inactive)
REMARK       I    between atoms: C1_2  and  N1_3 
REMARK    1  A    between atoms: C1_2  and  C15_21 
REMARK    2  A    between atoms: N1_3  and  C2_4 
REMARK    3  A    between atoms: C6_8  and  C7_9 
REMARK    4  A    between atoms: C20_26  and  N4_27 
REMARK    5  A    between atoms: N4_27  and  C21_29 
REMARK    6  A    between atoms: C21_29  and  C22_30 
REMARK    7  A    between atoms: C22_30  and  C23_31 
ROOT
HETATM    1  O1  UNL     1     -18.792  24.155  -2.814  1.00  0.00    -0.251 OA
HETATM    2  C1  UNL     1     -17.671  24.432  -3.351  1.00  0.00     0.328 C 
HETATM    3  N1  UNL     1     -17.048  23.718  -4.296  1.00  0.00    -0.366 NA
ENDROOT
BRANCH   2   4
HETATM    4  C15 UNL     1     -17.059  25.700  -2.831  1.00  0.00     0.073 A 
HETATM    5  C16 UNL     1     -16.664  25.713  -1.526  1.00  0.00     0.020 A 
HETATM    6  C17 UNL     1     -16.246  26.901  -0.963  1.00  0.00     0.001 A 
HETATM    7  C18 UNL     1     -16.215  28.069  -1.678  1.00  0.00     0.002 A 
HETATM    8  C19 UNL     1     -16.614  28.042  -2.998  1.00  0.00     0.030 A 
HETATM    9  C20 UNL     1     -17.039  26.841  -3.578  1.00  0.00     0.044 A 
BRANCH   9  10
HETATM   10  N4  UNL     1     -17.310  26.825  -4.952  1.00  0.00    -0.389 N 
ATOM     11  H4  UNL     1     -18.132  26.353  -5.328  1.00  0.00     0.159 HD
BRANCH  10  12
HETATM   12  C21 UNL     1     -16.353  27.523  -5.832  1.00  0.00     0.124 C 
BRANCH  12  13
HETATM   13  C22 UNL     1     -15.798  26.542  -6.844  1.00  0.00     0.058 C 
BRANCH  13  14
HETATM   14  C23 UNL     1     -14.575  25.874  -6.406  1.00  0.00    -0.057 A 
HETATM   15  C24 UNL     1     -14.071  25.862  -5.133  1.00  0.00     0.007 A 
HETATM   16  C25 UNL     1     -12.891  25.179  -4.869  1.00  0.00     0.001 A 
HETATM   17  C26 UNL     1     -12.214  24.509  -5.870  1.00  0.00     0.000 A 
HETATM   18  C27 UNL     1     -12.703  24.507  -7.161  1.00  0.00     0.001 A 
HETATM   19  C28 UNL     1     -13.871  25.186  -7.407  1.00  0.00     0.007 A 
ENDBRANCH  13  14
ENDBRANCH  12  13
ENDBRANCH  10  12
ENDBRANCH   9  10
ENDBRANCH   2   4
BRANCH   3  20
HETATM   20  C2  UNL     1     -16.415  22.993  -5.257  1.00  0.00     0.112 A 
HETATM   21  C3  UNL     1     -17.085  22.806  -6.504  1.00  0.00     0.045 A 
HETATM   22  C4  UNL     1     -16.538  22.138  -7.547  1.00  0.00     0.004 A 
HETATM   23  C5  UNL     1     -15.271  21.608  -7.400  1.00  0.00     0.015 A 
HETATM   24  C6  UNL     1     -14.567  21.747  -6.230  1.00  0.00     0.011 A 
HETATM   25  C14 UNL     1     -15.154  22.431  -5.198  1.00  0.00     0.060 A 
BRANCH  24  26
HETATM   26  C7  UNL     1     -13.245  21.151  -6.124  1.00  0.00     0.116 A 
HETATM   27  N2  UNL     1     -12.680  20.628  -5.002  1.00  0.00    -0.340 N 
HETATM   28  C8  UNL     1     -11.440  20.188  -5.305  1.00  0.00     0.060 A 
ATOM     29  H2  UNL     1     -13.121  20.577  -4.085  1.00  0.00     0.167 HD
HETATM   30  C9  UNL     1     -10.469  19.590  -4.558  1.00  0.00     0.032 A 
HETATM   31  C13 UNL     1     -11.263  20.460  -6.652  1.00  0.00     0.060 A 
HETATM   32  C10 UNL     1      -9.267  19.232  -5.122  1.00  0.00     0.002 A 
HETATM   33  C11 UNL     1      -9.110  19.512  -6.467  1.00  0.00     0.002 A 
HETATM   34  C12 UNL     1     -10.085  20.118  -7.231  1.00  0.00     0.032 A 
HETATM   35  N3  UNL     1     -12.365  21.040  -7.131  1.00  0.00    -0.340 N 
ATOM     36  H3  UNL     1     -12.513  21.345  -8.093  1.00  0.00     0.167 HD
ENDBRANCH  24  26
ENDBRANCH   3  20
TORSDOF 7
ENDMDL
MODEL 5
REMARK VINA RESULT: -10.729329333      1.575      3.308
REMARK  7 active torsions:
REMARK  status: ('A' for Active; 'I' for Inactive)
REMARK       I    between atoms: C1_2  and  N1_3 
REMARK    1  A    between atoms: C1_2  and  C15_21 
REMARK    2  A    between atoms: N1_3  and  C2_4 
REMARK    3  A    between atoms: C6_8  and  C7_9 
REMARK    4  A    between atoms: C20_26  and  N4_27 
REMARK    5  A    between atoms: N4_27  and  C21_29 
REMARK    6  A    between atoms: C21_29  and  C22_30 
REMARK    7  A    between atoms: C22_30  and  C23_31 
ROOT
HETATM    1  O1  UNL     1     -13.341  19.661  -4.693  1.00  0.00    -0.251 OA
HETATM    2  C1  UNL     1     -13.338  20.897  -5.001  1.00  0.00     0.328 C 
HETATM    3  N1  UNL     1     -14.327  21.770  -4.777  1.00  0.00    -0.366 NA
ENDROOT
BRANCH   2   4
HETATM    4  C15 UNL     1     -12.066  21.343  -5.660  1.00  0.00     0.073 A 
HETATM    5  C16 UNL     1     -10.895  20.898  -5.122  1.00  0.00     0.020 A 
HETATM    6  C17 UNL     1      -9.702  21.406  -5.594  1.00  0.00     0.001 A 
HETATM    7  C18 UNL     1      -9.661  22.347  -6.589  1.00  0.00     0.002 A 
HETATM    8  C19 UNL     1     -10.852  22.787  -7.127  1.00  0.00     0.030 A 
HETATM    9  C20 UNL     1     -12.067  22.275  -6.655  1.00  0.00     0.044 A 
BRANCH   9  10
HETATM   10  N4  UNL     1     -13.246  22.647  -7.314  1.00  0.00    -0.389 N 
ATOM     11  H4  UNL     1     -13.974  21.965  -7.527  1.00  0.00     0.159 HD
BRANCH  10  12
HETATM   12  C21 UNL     1     -13.387  24.068  -7.687  1.00  0.00     0.124 C 
BRANCH  12  13
HETATM   13  C22 UNL     1     -13.265  24.923  -6.443  1.00  0.00     0.058 C 
BRANCH  13  14
HETATM   14  C23 UNL     1     -14.353  25.885  -6.283  1.00  0.00    -0.057 A 
HETATM   15  C24 UNL     1     -15.613  25.776  -6.807  1.00  0.00     0.007 A 
HETATM   16  C25 UNL     1     -16.545  26.777  -6.566  1.00  0.00     0.001 A 
HETATM   17  C26 UNL     1     -16.224  27.884  -5.804  1.00  0.00     0.000 A 
HETATM   18  C27 UNL     1     -14.959  28.016  -5.266  1.00  0.00     0.001 A 
HETATM   19  C28 UNL     1     -14.049  27.018  -5.512  1.00  0.00     0.007 A 
ENDBRANCH  13  14
ENDBRANCH  12  13
ENDBRANCH  10  12
ENDBRANCH   9  10
ENDBRANCH   2   4
BRANCH   3  20
HETATM   20  C2  UNL     1     -15.332  22.658  -4.550  1.00  0.00     0.112 A 
HETATM   21  C3  UNL     1     -16.554  22.483  -5.267  1.00  0.00     0.045 A 
HETATM   22  C4  UNL     1     -17.635  23.280  -5.094  1.00  0.00     0.004 A 
HETATM   23  C5  UNL     1     -17.556  24.314  -4.183  1.00  0.00     0.015 A 
HETATM   24  C6  UNL     1     -16.413  24.543  -3.457  1.00  0.00     0.011 A 
HETATM   25  C14 UNL     1     -15.340  23.715  -3.660  1.00  0.00     0.060 A 
BRANCH  24  26
HETATM   26  C7  UNL     1     -16.377  25.659  -2.525  1.00  0.00     0.116 A 
HETATM   27  N2  UNL     1     -15.862  25.645  -1.266  1.00  0.00    -0.340 N 
HETATM   28  C8  UNL     1     -16.031  26.866  -0.715  1.00  0.00     0.060 A 
ATOM     29  H2  UNL     1     -15.422  24.845  -0.814  1.00  0.00     0.167 HD
HETATM   30  C9  UNL     1     -15.700  27.378   0.505  1.00  0.00     0.032 A 
HETATM   31  C13 UNL     1     -16.669  27.629  -1.680  1.00  0.00     0.060 A 
HETATM   32  C10 UNL     1     -15.991  28.684   0.822  1.00  0.00     0.002 A 
HETATM   33  C11 UNL     1     -16.627  29.429  -0.154  1.00  0.00     0.002 A 
HETATM   34  C12 UNL     1     -16.967  28.921  -1.390  1.00  0.00     0.032 A 
HETATM   35  N3  UNL     1     -16.867  26.883  -2.768  1.00  0.00    -0.340 N 
ATOM     36  H3  UNL     1     -17.314  27.191  -3.633  1.00  0.00     0.167 HD
ENDBRANCH  24  26
ENDBRANCH   3  20
TORSDOF 7
ENDMDL
