MODEL 1
REMARK VINA RESULT: -8.008148232      0.000      0.000
REMARK  7 active torsions:
REMARK  status: ('A' for Active; 'I' for Inactive)
REMARK    1  A    between atoms: O1_2  and  C2_3 
REMARK    2  A    between atoms: C5_8  and  N2_9 
REMARK    3  A    between atoms: N2_9  and  N3_11 
REMARK    4  A    between atoms: N3_11  and  N4_12 
REMARK    5  A    between atoms: C8_17  and  N5_18 
REMARK    6  A    between atoms: N5_18  and  C9_20 
REMARK    7  A    between atoms: C17_29  and  O2_30 
ROOT
HETATM    1  C2  UNL     1       3.446 -14.086  13.076  1.00  0.00     0.103 A 
HETATM    2  C3  UNL     1       4.485 -13.467  12.416  1.00  0.00     0.070 A 
HETATM    3  C4  UNL     1       4.479 -12.091  12.283  1.00  0.00     0.049 A 
HETATM    4  N1  UNL     1       5.495 -11.497  11.638  1.00  0.00    -0.339 N 
ATOM      5  H1  UNL     1       6.251 -12.067  11.259  1.00  0.00     0.167 HD
HETATM    6  C5  UNL     1       5.532 -10.167  11.484  1.00  0.00     0.141 A 
HETATM    7  C6  UNL     1       4.531  -9.375  11.983  1.00  0.00     0.012 A 
HETATM    8  C7  UNL     1       4.518  -7.897  11.843  1.00  0.00     0.055 C 
HETATM    9  C8  UNL     1       3.416  -9.928  12.681  1.00  0.00     0.055 A 
HETATM   10  C15 UNL     1       3.438 -11.302  12.805  1.00  0.00     0.021 A 
HETATM   11  C16 UNL     1       2.412 -11.952  13.461  1.00  0.00     0.055 A 
HETATM   12  C17 UNL     1       2.399 -13.323  13.605  1.00  0.00     0.102 A 
ENDROOT
BRANCH   9  13
HETATM   13  N5  UNL     1       2.588  -9.189  13.085  1.00  0.00    -0.354 N 
ATOM     14  H5  UNL     1       2.825  -8.314  12.619  1.00  0.00     0.166 HD
BRANCH  13  15
HETATM   15  C9  UNL     1       1.478  -8.841  13.833  1.00  0.00     0.046 A 
HETATM   16  C10 UNL     1       1.538  -8.415  15.172  1.00  0.00     0.080 A 
HETATM   17  S1  UNL     1      -0.068  -8.145  15.587  1.00  0.00    -0.104 SA
HETATM   18  C11 UNL     1      -0.822  -8.551  14.127  1.00  0.00    -0.013 A 
HETATM   19  C12 UNL     1      -2.301  -8.525  13.821  1.00  0.00     0.057 C 
HETATM   20  C13 UNL     1       0.209  -8.898  13.317  1.00  0.00    -0.022 A 
HETATM   21  C14 UNL     1      -0.105  -9.333  11.881  1.00  0.00     0.052 C 
ENDBRANCH  13  15
ENDBRANCH   9  13
BRANCH   6  22
HETATM   22  N2  UNL     1       6.625  -9.586  10.796  1.00  0.00    -0.199 N 
ATOM     23  H2  UNL     1       6.818  -8.595  10.939  1.00  0.00     0.205 HD
BRANCH  22  24
HETATM   24  N3  UNL     1       7.350 -10.220  10.035  1.00  0.00    -0.242 NA
BRANCH  24  25
HETATM   25  N4  UNL     1       8.306 -10.585   9.356  1.00  0.00    -0.260 N 
ATOM     26  H42 UNL     1       8.372  -9.714   8.828  1.00  0.00     0.193 HD
ATOM     27  H41 UNL     1       9.065 -11.137   8.958  1.00  0.00     0.193 HD
ENDBRANCH  24  25
ENDBRANCH  22  24
ENDBRANCH   6  22
BRANCH  12  28
HETATM   28  O2  UNL     1       1.348 -13.913  14.269  1.00  0.00    -0.353 OA
HETATM   29  C18 UNL     1       1.378 -13.999  15.674  1.00  0.00     0.210 C 
ENDBRANCH  12  28
BRANCH   1  30
HETATM   30  O1  UNL     1       3.363 -15.458  13.260  1.00  0.00    -0.353 OA
HETATM   31  C1  UNL     1       4.181 -16.118  14.219  1.00  0.00     0.210 C 
ENDBRANCH   1  30
TORSDOF 7
ENDMDL
MODEL 2
REMARK VINA RESULT: -7.787207099      3.771      7.019
REMARK  7 active torsions:
REMARK  status: ('A' for Active; 'I' for Inactive)
REMARK    1  A    between atoms: O1_2  and  C2_3 
REMARK    2  A    between atoms: C5_8  and  N2_9 
REMARK    3  A    between atoms: N2_9  and  N3_11 
REMARK    4  A    between atoms: N3_11  and  N4_12 
REMARK    5  A    between atoms: C8_17  and  N5_18 
REMARK    6  A    between atoms: N5_18  and  C9_20 
REMARK    7  A    between atoms: C17_29  and  O2_30 
ROOT
HETATM    1  C2  UNL     1       0.138  -9.327  14.603  1.00  0.00     0.103 A 
HETATM    2  C3  UNL     1       0.274 -10.471  15.358  1.00  0.00     0.070 A 
HETATM    3  C4  UNL     1       1.216 -11.414  14.993  1.00  0.00     0.049 A 
HETATM    4  N1  UNL     1       1.341 -12.526  15.734  1.00  0.00    -0.339 N 
ATOM      5  H1  UNL     1       0.744 -12.656  16.551  1.00  0.00     0.167 HD
HETATM    6  C5  UNL     1       2.240 -13.469  15.419  1.00  0.00     0.141 A 
HETATM    7  C6  UNL     1       3.057 -13.323  14.329  1.00  0.00     0.012 A 
HETATM    8  C7  UNL     1       4.069 -14.332  13.930  1.00  0.00     0.055 C 
HETATM    9  C8  UNL     1       2.986 -12.171  13.489  1.00  0.00     0.055 A 
HETATM   10  C15 UNL     1       2.042 -11.238  13.868  1.00  0.00     0.021 A 
HETATM   11  C16 UNL     1       1.880 -10.082  13.133  1.00  0.00     0.055 A 
HETATM   12  C17 UNL     1       0.948  -9.128  13.479  1.00  0.00     0.102 A 
ENDROOT
BRANCH   9  13
HETATM   13  N5  UNL     1       3.719 -12.107  12.566  1.00  0.00    -0.354 N 
ATOM     14  H5  UNL     1       3.354 -12.828  11.943  1.00  0.00     0.166 HD
BRANCH  13  15
HETATM   15  C9  UNL     1       4.792 -11.608  11.850  1.00  0.00     0.046 A 
HETATM   16  C10 UNL     1       5.193 -10.261  11.878  1.00  0.00     0.080 A 
HETATM   17  S1  UNL     1       6.510 -10.205  10.834  1.00  0.00    -0.104 SA
HETATM   18  C11 UNL     1       6.577 -11.827  10.359  1.00  0.00    -0.013 A 
HETATM   19  C12 UNL     1       7.560 -12.462   9.403  1.00  0.00     0.057 C 
HETATM   20  C13 UNL     1       5.552 -12.405  11.033  1.00  0.00    -0.022 A 
HETATM   21  C14 UNL     1       5.306 -13.906  10.842  1.00  0.00     0.052 C 
ENDBRANCH  13  15
ENDBRANCH   9  13
BRANCH   6  22
HETATM   22  N2  UNL     1       2.335 -14.625  16.232  1.00  0.00    -0.199 N 
ATOM     23  H2  UNL     1       3.161 -14.740  16.818  1.00  0.00     0.205 HD
BRANCH  22  24
HETATM   24  N3  UNL     1       1.469 -15.494  16.263  1.00  0.00    -0.242 NA
BRANCH  24  25
HETATM   25  N4  UNL     1       0.403 -16.085  16.410  1.00  0.00    -0.260 N 
ATOM     26  H42 UNL     1      -0.174 -15.267  16.216  1.00  0.00     0.193 HD
ATOM     27  H41 UNL     1      -0.296 -16.806  16.588  1.00  0.00     0.193 HD
ENDBRANCH  24  25
ENDBRANCH  22  24
ENDBRANCH   6  22
BRANCH  12  28
HETATM   28  O2  UNL     1       0.834  -7.995  12.706  1.00  0.00    -0.353 OA
HETATM   29  C18 UNL     1      -0.046  -7.994  11.607  1.00  0.00     0.210 C 
ENDBRANCH  12  28
BRANCH   1  30
HETATM   30  O1  UNL     1      -0.777  -8.323  14.889  1.00  0.00    -0.353 OA
HETATM   31  C1  UNL     1      -2.170  -8.601  14.957  1.00  0.00     0.210 C 
ENDBRANCH   1  30
TORSDOF 7
ENDMDL
MODEL 3
REMARK VINA RESULT: -7.746649838      1.171      1.513
REMARK  7 active torsions:
REMARK  status: ('A' for Active; 'I' for Inactive)
REMARK    1  A    between atoms: O1_2  and  C2_3 
REMARK    2  A    between atoms: C5_8  and  N2_9 
REMARK    3  A    between atoms: N2_9  and  N3_11 
REMARK    4  A    between atoms: N3_11  and  N4_12 
REMARK    5  A    between atoms: C8_17  and  N5_18 
REMARK    6  A    between atoms: N5_18  and  C9_20 
REMARK    7  A    between atoms: C17_29  and  O2_30 
ROOT
HETATM    1  C2  UNL     1       4.168 -14.826  12.770  1.00  0.00     0.103 A 
HETATM    2  C3  UNL     1       5.178 -14.131  12.141  1.00  0.00     0.070 A 
HETATM    3  C4  UNL     1       5.082 -12.757  12.023  1.00  0.00     0.049 A 
HETATM    4  N1  UNL     1       6.070 -12.088  11.408  1.00  0.00    -0.339 N 
ATOM      5  H1  UNL     1       6.871 -12.601  11.041  1.00  0.00     0.167 HD
HETATM    6  C5  UNL     1       6.021 -10.756  11.269  1.00  0.00     0.141 A 
HETATM    7  C6  UNL     1       4.958 -10.039  11.753  1.00  0.00     0.012 A 
HETATM    8  C7  UNL     1       4.848  -8.565  11.629  1.00  0.00     0.055 C 
HETATM    9  C8  UNL     1       3.867 -10.675  12.419  1.00  0.00     0.055 A 
HETATM   10  C15 UNL     1       3.978 -12.046  12.529  1.00  0.00     0.021 A 
HETATM   11  C16 UNL     1       2.984 -12.772  13.153  1.00  0.00     0.055 A 
HETATM   12  C17 UNL     1       3.060 -14.141  13.282  1.00  0.00     0.102 A 
ENDROOT
BRANCH   9  13
HETATM   13  N5  UNL     1       2.982  -9.999  12.811  1.00  0.00    -0.354 N 
ATOM     14  H5  UNL     1       3.403  -9.524  13.610  1.00  0.00     0.166 HD
BRANCH  13  15
HETATM   15  C9  UNL     1       1.697  -9.486  12.800  1.00  0.00     0.046 A 
HETATM   16  C10 UNL     1       1.137  -8.800  11.708  1.00  0.00     0.080 A 
HETATM   17  S1  UNL     1      -0.408  -8.391  12.231  1.00  0.00    -0.104 SA
HETATM   18  C11 UNL     1      -0.377  -9.057  13.787  1.00  0.00    -0.013 A 
HETATM   19  C12 UNL     1      -1.484  -9.037  14.814  1.00  0.00     0.057 C 
HETATM   20  C13 UNL     1       0.862  -9.601  13.881  1.00  0.00    -0.022 A 
HETATM   21  C14 UNL     1       1.251 -10.308  15.184  1.00  0.00     0.052 C 
ENDBRANCH  13  15
ENDBRANCH   9  13
BRANCH   6  22
HETATM   22  N2  UNL     1       7.087 -10.095  10.613  1.00  0.00    -0.199 N 
ATOM     23  H2  UNL     1       7.316  -9.143  10.896  1.00  0.00     0.205 HD
BRANCH  22  24
HETATM   24  N3  UNL     1       7.749 -10.615   9.720  1.00  0.00    -0.242 NA
BRANCH  24  25
HETATM   25  N4  UNL     1       8.651 -10.885   8.932  1.00  0.00    -0.260 N 
ATOM     26  H42 UNL     1       8.226 -11.755   8.611  1.00  0.00     0.193 HD
ATOM     27  H41 UNL     1       9.511 -10.849   8.385  1.00  0.00     0.193 HD
ENDBRANCH  24  25
ENDBRANCH  22  24
ENDBRANCH   6  22
BRANCH  12  28
HETATM   28  O2  UNL     1       2.036 -14.809  13.915  1.00  0.00    -0.353 OA
HETATM   29  C18 UNL     1       1.917 -14.725  15.315  1.00  0.00     0.210 C 
ENDBRANCH  12  28
BRANCH   1  30
HETATM   30  O1  UNL     1       4.174 -16.203  12.937  1.00  0.00    -0.353 OA
HETATM   31  C1  UNL     1       4.991 -16.816  13.927  1.00  0.00     0.210 C 
ENDBRANCH   1  30
TORSDOF 7
ENDMDL
MODEL 4
REMARK VINA RESULT: -7.698177766      3.128      6.123
REMARK  7 active torsions:
REMARK  status: ('A' for Active; 'I' for Inactive)
REMARK    1  A    between atoms: O1_2  and  C2_3 
REMARK    2  A    between atoms: C5_8  and  N2_9 
REMARK    3  A    between atoms: N2_9  and  N3_11 
REMARK    4  A    between atoms: N3_11  and  N4_12 
REMARK    5  A    between atoms: C8_17  and  N5_18 
REMARK    6  A    between atoms: N5_18  and  C9_20 
REMARK    7  A    between atoms: C17_29  and  O2_30 
ROOT
HETATM    1  C2  UNL     1       2.250 -14.263  14.230  1.00  0.00     0.103 A 
HETATM    2  C3  UNL     1       1.832 -12.952  14.171  1.00  0.00     0.070 A 
HETATM    3  C4  UNL     1       2.584 -12.033  13.464  1.00  0.00     0.049 A 
HETATM    4  N1  UNL     1       2.170 -10.757  13.412  1.00  0.00    -0.339 N 
ATOM      5  H1  UNL     1       1.311 -10.488  13.892  1.00  0.00     0.167 HD
HETATM    6  C5  UNL     1       2.867  -9.831  12.740  1.00  0.00     0.141 A 
HETATM    7  C6  UNL     1       4.024 -10.162  12.085  1.00  0.00     0.012 A 
HETATM    8  C7  UNL     1       4.837  -9.181  11.326  1.00  0.00     0.055 C 
HETATM    9  C8  UNL     1       4.532 -11.496  12.091  1.00  0.00     0.055 A 
HETATM   10  C15 UNL     1       3.769 -12.401  12.801  1.00  0.00     0.021 A 
HETATM   11  C16 UNL     1       4.160 -13.722  12.880  1.00  0.00     0.055 A 
HETATM   12  C17 UNL     1       3.425 -14.654  13.579  1.00  0.00     0.102 A 
ENDROOT
BRANCH   9  13
HETATM   13  N5  UNL     1       5.535 -11.714  11.507  1.00  0.00    -0.354 N 
ATOM     14  H5  UNL     1       6.132 -10.937  11.793  1.00  0.00     0.166 HD
BRANCH  13  15
HETATM   15  C9  UNL     1       6.358 -12.426  10.654  1.00  0.00     0.046 A 
HETATM   16  C10 UNL     1       6.336 -13.827  10.534  1.00  0.00     0.080 A 
HETATM   17  S1  UNL     1       7.528 -14.158   9.395  1.00  0.00    -0.104 SA
HETATM   18  C11 UNL     1       8.059 -12.587   9.061  1.00  0.00    -0.013 A 
HETATM   19  C12 UNL     1       9.146 -12.173   8.096  1.00  0.00     0.057 C 
HETATM   20  C13 UNL     1       7.285 -11.808   9.856  1.00  0.00    -0.022 A 
HETATM   21  C14 UNL     1       7.493 -10.289   9.816  1.00  0.00     0.052 C 
ENDBRANCH  13  15
ENDBRANCH   9  13
BRANCH   6  22
HETATM   22  N2  UNL     1       2.389  -8.498  12.714  1.00  0.00    -0.199 N 
ATOM     23  H2  UNL     1       2.601  -7.922  11.900  1.00  0.00     0.205 HD
BRANCH  22  24
HETATM   24  N3  UNL     1       1.733  -8.004  13.626  1.00  0.00    -0.242 NA
BRANCH  24  25
HETATM   25  N4  UNL     1       1.363  -7.621  14.733  1.00  0.00    -0.260 N 
ATOM     26  H42 UNL     1       2.302  -7.584  15.128  1.00  0.00     0.193 HD
ATOM     27  H41 UNL     1       0.786  -7.319  15.517  1.00  0.00     0.193 HD
ENDBRANCH  24  25
ENDBRANCH  22  24
ENDBRANCH   6  22
BRANCH  12  28
HETATM   28  O2  UNL     1       3.866 -15.957  13.620  1.00  0.00    -0.353 OA
HETATM   29  C18 UNL     1       5.231 -16.232  13.406  1.00  0.00     0.210 C 
ENDBRANCH  12  28
BRANCH   1  30
HETATM   30  O1  UNL     1       1.563 -15.257  14.913  1.00  0.00    -0.353 OA
HETATM   31  C1  UNL     1       0.478 -15.947  14.304  1.00  0.00     0.210 C 
ENDBRANCH   1  30
TORSDOF 7
ENDMDL
MODEL 5
REMARK VINA RESULT: -7.673115341      2.827      5.866
REMARK  7 active torsions:
REMARK  status: ('A' for Active; 'I' for Inactive)
REMARK    1  A    between atoms: O1_2  and  C2_3 
REMARK    2  A    between atoms: C5_8  and  N2_9 
REMARK    3  A    between atoms: N2_9  and  N3_11 
REMARK    4  A    between atoms: N3_11  and  N4_12 
REMARK    5  A    between atoms: C8_17  and  N5_18 
REMARK    6  A    between atoms: N5_18  and  C9_20 
REMARK    7  A    between atoms: C17_29  and  O2_30 
ROOT
HETATM    1  C2  UNL     1       2.187 -14.624  15.424  1.00  0.00     0.103 A 
HETATM    2  C3  UNL     1       1.434 -13.528  15.785  1.00  0.00     0.070 A 
HETATM    3  C4  UNL     1       1.586 -12.344  15.088  1.00  0.00     0.049 A 
HETATM    4  N1  UNL     1       0.850 -11.281  15.447  1.00  0.00    -0.339 N 
ATOM      5  H1  UNL     1       0.193 -11.364  16.222  1.00  0.00     0.167 HD
HETATM    6  C5  UNL     1       0.963 -10.112  14.802  1.00  0.00     0.141 A 
HETATM    7  C6  UNL     1       1.836  -9.970  13.756  1.00  0.00     0.012 A 
HETATM    8  C7  UNL     1       2.006  -8.701  13.004  1.00  0.00     0.055 C 
HETATM    9  C8  UNL     1       2.656 -11.051  13.312  1.00  0.00     0.055 A 
HETATM   10  C15 UNL     1       2.491 -12.226  14.018  1.00  0.00     0.021 A 
HETATM   11  C16 UNL     1       3.230 -13.342  13.682  1.00  0.00     0.055 A 
HETATM   12  C17 UNL     1       3.094 -14.532  14.362  1.00  0.00     0.102 A 
ENDROOT
BRANCH   9  13
HETATM   13  N5  UNL     1       3.388 -10.862  12.405  1.00  0.00    -0.354 N 
ATOM     14  H5  UNL     1       2.761 -10.903  11.602  1.00  0.00     0.166 HD
BRANCH  13  15
HETATM   15  C9  UNL     1       4.615 -10.615  11.816  1.00  0.00     0.046 A 
HETATM   16  C10 UNL     1       5.285  -9.381  11.890  1.00  0.00     0.080 A 
HETATM   17  S1  UNL     1       6.692  -9.627  11.003  1.00  0.00    -0.104 SA
HETATM   18  C11 UNL     1       6.468 -11.238  10.536  1.00  0.00    -0.013 A 
HETATM   19  C12 UNL     1       7.394 -12.087   9.697  1.00  0.00     0.057 C 
HETATM   20  C13 UNL     1       5.275 -11.572  11.090  1.00  0.00    -0.022 A 
HETATM   21  C14 UNL     1       4.741 -12.992  10.871  1.00  0.00     0.052 C 
ENDBRANCH  13  15
ENDBRANCH   9  13
BRANCH   6  22
HETATM   22  N2  UNL     1       0.164  -9.019  15.217  1.00  0.00    -0.199 N 
ATOM     23  H2  UNL     1       0.625  -8.137  15.439  1.00  0.00     0.205 HD
BRANCH  22  24
HETATM   24  N3  UNL     1      -1.057  -9.084  15.321  1.00  0.00    -0.242 NA
BRANCH  24  25
HETATM   25  N4  UNL     1      -2.191  -9.250  15.763  1.00  0.00    -0.260 N 
ATOM     26  H42 UNL     1      -1.982  -8.856  16.681  1.00  0.00     0.193 HD
ATOM     27  H41 UNL     1      -3.175  -9.501  15.854  1.00  0.00     0.193 HD
ENDBRANCH  24  25
ENDBRANCH  22  24
ENDBRANCH   6  22
BRANCH  12  28
HETATM   28  O2  UNL     1       3.859 -15.611  13.980  1.00  0.00    -0.353 OA
HETATM   29  C18 UNL     1       3.542 -16.298  12.792  1.00  0.00     0.210 C 
ENDBRANCH  12  28
BRANCH   1  30
HETATM   30  O1  UNL     1       2.105 -15.854  16.061  1.00  0.00    -0.353 OA
HETATM   31  C1  UNL     1       1.024 -16.741  15.802  1.00  0.00     0.210 C 
ENDBRANCH   1  30
TORSDOF 7
ENDMDL
