MODEL 1
REMARK VINA RESULT: -7.933162445      0.000      0.000
REMARK  4 active torsions:
REMARK  status: ('A' for Active; 'I' for Inactive)
REMARK    1  A    between atoms: S1_2  and  C2_3 
REMARK    2  A    between atoms: C2_3  and  N1_4 
REMARK       I    between atoms: N1_4  and  C3_6 
REMARK    3  A    between atoms: C3_6  and  C4_8 
REMARK    4  A    between atoms: C6_10  and  C7_11 
ROOT
HETATM    1  C4  UNL     1      -0.531  -9.108  14.646  1.00  0.00     0.073 A 
HETATM    2  C5  UNL     1       0.586  -9.883  14.546  1.00  0.00     0.038 A 
HETATM    3  C6  UNL     1       1.205  -9.937  13.356  1.00  0.00    -0.011 A 
HETATM    4  C16 UNL     1       0.649  -9.198  12.337  1.00  0.00     0.063 A 
HETATM    5  S4  UNL     1      -0.699  -8.468  13.079  1.00  0.00    -0.096 SA
ENDROOT
BRANCH   3   6
HETATM    6  C7  UNL     1       2.444 -10.748  13.105  1.00  0.00     0.016 A 
HETATM    7  C8  UNL     1       3.574 -10.369  12.441  1.00  0.00     0.028 A 
HETATM    8  C9  UNL     1       4.567 -11.275  12.336  1.00  0.00    -0.034 A 
HETATM    9  C10 UNL     1       4.345 -12.502  12.913  1.00  0.00    -0.008 A 
HETATM   10  C15 UNL     1       5.926 -11.145  11.663  1.00  0.00     0.114 C 
HETATM   11  S2  UNL     1       2.782 -12.345  13.568  1.00  0.00    -0.093 SA
HETATM   12  C11 UNL     1       5.368 -13.610  12.873  1.00  0.00     0.066 C 
HETATM   13  C12 UNL     1       5.666 -14.037  11.455  1.00  0.00     0.005 C 
HETATM   14  C13 UNL     1       4.553 -14.833  10.860  1.00  0.00     0.027 C 
HETATM   15  C14 UNL     1       6.969 -14.821  11.485  1.00  0.00     0.027 C 
HETATM   16  S3  UNL     1       6.018 -12.522  10.481  1.00  0.00    -0.155 SA
ENDBRANCH   3   6
BRANCH   1  17
HETATM   17  C3  UNL     1      -1.371  -8.886  15.829  1.00  0.00     0.259 C 
HETATM   18  N1  UNL     1      -2.749  -9.137  15.790  1.00  0.00    -0.348 N 
ATOM     19  H1  UNL     1      -3.162  -9.478  14.923  1.00  0.00     0.163 HD
HETATM   20  O1  UNL     1      -0.832  -8.471  16.863  1.00  0.00    -0.267 OA
BRANCH  18  21
HETATM   21  C2  UNL     1      -3.609  -8.930  16.940  1.00  0.00     0.196 C 
BRANCH  21  22
HETATM   22  S1  UNL     1      -3.901  -7.164  17.235  1.00  0.00    -0.154 SA
HETATM   23  C1  UNL     1      -3.248  -6.781  18.883  1.00  0.00     0.091 C 
ENDBRANCH  21  22
ENDBRANCH  18  21
ENDBRANCH   1  17
TORSDOF 4
ENDMDL
MODEL 2
REMARK VINA RESULT: -7.552884327      1.371      1.487
REMARK  4 active torsions:
REMARK  status: ('A' for Active; 'I' for Inactive)
REMARK    1  A    between atoms: S1_2  and  C2_3 
REMARK    2  A    between atoms: C2_3  and  N1_4 
REMARK       I    between atoms: N1_4  and  C3_6 
REMARK    3  A    between atoms: C3_6  and  C4_8 
REMARK    4  A    between atoms: C6_10  and  C7_11 
ROOT
HETATM    1  C4  UNL     1      -0.426  -8.893  14.764  1.00  0.00     0.073 A 
HETATM    2  C5  UNL     1       0.512  -9.881  14.797  1.00  0.00     0.038 A 
HETATM    3  C6  UNL     1       1.013 -10.306  13.627  1.00  0.00    -0.011 A 
HETATM    4  C16 UNL     1       0.530  -9.697  12.490  1.00  0.00     0.063 A 
HETATM    5  S4  UNL     1      -0.592  -8.572  13.101  1.00  0.00    -0.096 SA
ENDROOT
BRANCH   3   6
HETATM    6  C7  UNL     1       2.052 -11.385  13.516  1.00  0.00     0.016 A 
HETATM    7  C8  UNL     1       3.201 -11.371  12.781  1.00  0.00     0.028 A 
HETATM    8  C9  UNL     1       3.988 -12.464  12.834  1.00  0.00    -0.034 A 
HETATM    9  C10 UNL     1       3.554 -13.497  13.631  1.00  0.00    -0.008 A 
HETATM   10  C15 UNL     1       5.311 -12.738  12.133  1.00  0.00     0.114 C 
HETATM   11  S2  UNL     1       2.088 -12.909  14.263  1.00  0.00    -0.093 SA
HETATM   12  C11 UNL     1       4.332 -14.780  13.784  1.00  0.00     0.066 C 
HETATM   13  C12 UNL     1       4.470 -15.504  12.467  1.00  0.00     0.005 C 
HETATM   14  C13 UNL     1       3.193 -16.150  12.041  1.00  0.00     0.027 C 
HETATM   15  C14 UNL     1       5.591 -16.521  12.626  1.00  0.00     0.027 C 
HETATM   16  S3  UNL     1       5.069 -14.293  11.226  1.00  0.00    -0.155 SA
ENDBRANCH   3   6
BRANCH   1  17
HETATM   17  C3  UNL     1      -1.114  -8.264  15.898  1.00  0.00     0.259 C 
HETATM   18  N1  UNL     1      -2.247  -7.465  15.699  1.00  0.00    -0.348 N 
ATOM     19  H1  UNL     1      -2.589  -7.324  14.749  1.00  0.00     0.163 HD
HETATM   20  O1  UNL     1      -0.669  -8.459  17.037  1.00  0.00    -0.267 OA
BRANCH  18  21
HETATM   21  C2  UNL     1      -2.952  -6.829  16.797  1.00  0.00     0.196 C 
BRANCH  21  22
HETATM   22  S1  UNL     1      -4.533  -7.655  17.132  1.00  0.00    -0.154 SA
HETATM   23  C1  UNL     1      -4.303  -8.673  18.615  1.00  0.00     0.091 C 
ENDBRANCH  21  22
ENDBRANCH  18  21
ENDBRANCH   1  17
TORSDOF 4
ENDMDL
MODEL 3
REMARK VINA RESULT: -7.392958357      1.907      2.088
REMARK  4 active torsions:
REMARK  status: ('A' for Active; 'I' for Inactive)
REMARK    1  A    between atoms: S1_2  and  C2_3 
REMARK    2  A    between atoms: C2_3  and  N1_4 
REMARK       I    between atoms: N1_4  and  C3_6 
REMARK    3  A    between atoms: C3_6  and  C4_8 
REMARK    4  A    between atoms: C6_10  and  C7_11 
ROOT
HETATM    1  C4  UNL     1      -0.155  -9.251  13.963  1.00  0.00     0.073 A 
HETATM    2  C5  UNL     1       0.589 -10.372  14.180  1.00  0.00     0.038 A 
HETATM    3  C6  UNL     1       1.636 -10.595  13.371  1.00  0.00    -0.011 A 
HETATM    4  C16 UNL     1       1.865  -9.660  12.386  1.00  0.00     0.063 A 
HETATM    5  S4  UNL     1       0.620  -8.525  12.633  1.00  0.00    -0.096 SA
ENDROOT
BRANCH   3   6
HETATM    6  C7  UNL     1       2.540 -11.787  13.497  1.00  0.00     0.016 A 
HETATM    7  C8  UNL     1       3.698 -12.037  12.822  1.00  0.00     0.028 A 
HETATM    8  C9  UNL     1       4.347 -13.186  13.102  1.00  0.00    -0.034 A 
HETATM    9  C10 UNL     1       3.775 -14.001  14.049  1.00  0.00    -0.008 A 
HETATM   10  C15 UNL     1       5.642 -13.731  12.518  1.00  0.00     0.114 C 
HETATM   11  S2  UNL     1       2.376 -13.144  14.504  1.00  0.00    -0.093 SA
HETATM   12  C11 UNL     1       4.390 -15.315  14.461  1.00  0.00     0.066 C 
HETATM   13  C12 UNL     1       4.468 -16.277  13.300  1.00  0.00     0.005 C 
HETATM   14  C13 UNL     1       3.133 -16.839  12.941  1.00  0.00     0.027 C 
HETATM   15  C14 UNL     1       5.456 -17.369  13.685  1.00  0.00     0.027 C 
HETATM   16  S3  UNL     1       5.235 -15.387  11.891  1.00  0.00    -0.155 SA
ENDBRANCH   3   6
BRANCH   1  17
HETATM   17  C3  UNL     1      -1.333  -8.792  14.708  1.00  0.00     0.259 C 
HETATM   18  N1  UNL     1      -1.391  -8.901  16.103  1.00  0.00    -0.348 N 
ATOM     19  H1  UNL     1      -0.597  -9.307  16.597  1.00  0.00     0.163 HD
HETATM   20  O1  UNL     1      -2.277  -8.304  14.071  1.00  0.00    -0.267 OA
BRANCH  18  21
HETATM   21  C2  UNL     1      -2.539  -8.456  16.871  1.00  0.00     0.196 C 
BRANCH  21  22
HETATM   22  S1  UNL     1      -2.153  -6.967  17.833  1.00  0.00    -0.154 SA
HETATM   23  C1  UNL     1      -3.346  -6.886  19.197  1.00  0.00     0.091 C 
ENDBRANCH  21  22
ENDBRANCH  18  21
ENDBRANCH   1  17
TORSDOF 4
ENDMDL
MODEL 4
REMARK VINA RESULT: -7.133848005      3.036      3.945
REMARK  4 active torsions:
REMARK  status: ('A' for Active; 'I' for Inactive)
REMARK    1  A    between atoms: S1_2  and  C2_3 
REMARK    2  A    between atoms: C2_3  and  N1_4 
REMARK       I    between atoms: N1_4  and  C3_6 
REMARK    3  A    between atoms: C3_6  and  C4_8 
REMARK    4  A    between atoms: C6_10  and  C7_11 
ROOT
HETATM    1  C4  UNL     1       1.921  -9.684  13.823  1.00  0.00     0.073 A 
HETATM    2  C5  UNL     1       2.157 -11.006  14.059  1.00  0.00     0.038 A 
HETATM    3  C6  UNL     1       3.038 -11.635  13.267  1.00  0.00    -0.011 A 
HETATM    4  C16 UNL     1       3.631 -10.880  12.280  1.00  0.00     0.063 A 
HETATM    5  S4  UNL     1       2.935  -9.341  12.500  1.00  0.00    -0.096 SA
ENDROOT
BRANCH   3   6
HETATM    6  C7  UNL     1       3.394 -13.086  13.415  1.00  0.00     0.016 A 
HETATM    7  C8  UNL     1       3.292 -14.075  12.481  1.00  0.00     0.028 A 
HETATM    8  C9  UNL     1       3.672 -15.317  12.844  1.00  0.00    -0.034 A 
HETATM    9  C10 UNL     1       4.129 -15.469  14.131  1.00  0.00    -0.008 A 
HETATM   10  C15 UNL     1       3.672 -16.603  12.031  1.00  0.00     0.114 C 
HETATM   11  S2  UNL     1       4.012 -13.897  14.773  1.00  0.00    -0.093 SA
HETATM   12  C11 UNL     1       4.587 -16.800  14.673  1.00  0.00     0.066 C 
HETATM   13  C12 UNL     1       3.466 -17.812  14.671  1.00  0.00     0.005 C 
HETATM   14  C13 UNL     1       2.463 -17.547  15.744  1.00  0.00     0.027 C 
HETATM   15  C14 UNL     1       4.100 -19.188  14.819  1.00  0.00     0.027 C 
HETATM   16  S3  UNL     1       2.702 -17.794  13.003  1.00  0.00    -0.155 SA
ENDBRANCH   3   6
BRANCH   1  17
HETATM   17  C3  UNL     1       1.013  -8.786  14.546  1.00  0.00     0.259 C 
HETATM   18  N1  UNL     1      -0.169  -9.268  15.121  1.00  0.00    -0.348 N 
ATOM     19  H1  UNL     1      -0.392 -10.258  15.028  1.00  0.00     0.163 HD
HETATM   20  O1  UNL     1       1.319  -7.590  14.637  1.00  0.00    -0.267 OA
BRANCH  18  21
HETATM   21  C2  UNL     1      -1.089  -8.409  15.843  1.00  0.00     0.196 C 
BRANCH  21  22
HETATM   22  S1  UNL     1      -2.812  -8.767  15.402  1.00  0.00    -0.154 SA
HETATM   23  C1  UNL     1      -3.757  -8.845  16.948  1.00  0.00     0.091 C 
ENDBRANCH  21  22
ENDBRANCH  18  21
ENDBRANCH   1  17
TORSDOF 4
ENDMDL
MODEL 5
REMARK VINA RESULT: -7.086659984      3.251      5.285
REMARK  4 active torsions:
REMARK  status: ('A' for Active; 'I' for Inactive)
REMARK    1  A    between atoms: S1_2  and  C2_3 
REMARK    2  A    between atoms: C2_3  and  N1_4 
REMARK       I    between atoms: N1_4  and  C3_6 
REMARK    3  A    between atoms: C3_6  and  C4_8 
REMARK    4  A    between atoms: C6_10  and  C7_11 
ROOT
HETATM    1  C4  UNL     1       3.841  -9.664  12.144  1.00  0.00     0.073 A 
HETATM    2  C5  UNL     1       4.527 -10.686  11.560  1.00  0.00     0.038 A 
HETATM    3  C6  UNL     1       5.743 -10.418  11.059  1.00  0.00    -0.011 A 
HETATM    4  C16 UNL     1       6.190  -9.122  11.184  1.00  0.00     0.063 A 
HETATM    5  S4  UNL     1       4.905  -8.344  11.986  1.00  0.00    -0.096 SA
ENDROOT
BRANCH   3   6
HETATM    6  C7  UNL     1       6.608 -11.448  10.392  1.00  0.00     0.016 A 
HETATM    7  C8  UNL     1       6.553 -12.804  10.527  1.00  0.00     0.028 A 
HETATM    8  C9  UNL     1       7.440 -13.536   9.823  1.00  0.00    -0.034 A 
HETATM    9  C10 UNL     1       8.322 -12.841   9.031  1.00  0.00    -0.008 A 
HETATM   10  C15 UNL     1       7.620 -15.047   9.770  1.00  0.00     0.114 C 
HETATM   11  S2  UNL     1       7.884 -11.218   9.296  1.00  0.00    -0.093 SA
HETATM   12  C11 UNL     1       9.368 -13.530   8.191  1.00  0.00     0.066 C 
HETATM   13  C12 UNL     1      10.341 -14.307   9.046  1.00  0.00     0.005 C 
HETATM   14  C13 UNL     1      11.291 -13.416   9.774  1.00  0.00     0.027 C 
HETATM   15  C14 UNL     1      11.068 -15.281   8.130  1.00  0.00     0.027 C 
HETATM   16  S3  UNL     1       9.361 -15.346  10.199  1.00  0.00    -0.155 SA
ENDBRANCH   3   6
BRANCH   1  17
HETATM   17  C3  UNL     1       2.509  -9.706  12.760  1.00  0.00     0.259 C 
HETATM   18  N1  UNL     1       1.728  -8.549  12.867  1.00  0.00    -0.348 N 
ATOM     19  H1  UNL     1       2.101  -7.670  12.509  1.00  0.00     0.163 HD
HETATM   20  O1  UNL     1       2.093 -10.793  13.183  1.00  0.00    -0.267 OA
BRANCH  18  21
HETATM   21  C2  UNL     1       0.408  -8.555  13.469  1.00  0.00     0.196 C 
BRANCH  21  22
HETATM   22  S1  UNL     1       0.496  -8.248  15.255  1.00  0.00    -0.154 SA
HETATM   23  C1  UNL     1      -1.203  -8.278  15.889  1.00  0.00     0.091 C 
ENDBRANCH  21  22
ENDBRANCH  18  21
ENDBRANCH   1  17
TORSDOF 4
ENDMDL
