MODEL 1
REMARK VINA RESULT: -9.151521975      0.000      0.000
REMARK  6 active torsions:
REMARK  status: ('A' for Active; 'I' for Inactive)
REMARK    1  A    between atoms: O1_2  and  C2_3 
REMARK    2  A    between atoms: C4_5  and  C5_6 
REMARK    3  A    between atoms: C5_6  and  C6_7 
REMARK    4  A    between atoms: C15_18  and  O4_19 
REMARK    5  A    between atoms: C16_21  and  C17_22 
REMARK    6  A    between atoms: C20_25  and  O5_26 
ROOT
HETATM    1  C2  UNL     1       3.350 -10.285  12.506  1.00  0.00     0.102 A 
HETATM    2  C3  UNL     1       2.444  -9.913  13.451  1.00  0.00     0.049 A 
HETATM    3  C4  UNL     1       1.878 -10.898  14.247  1.00  0.00    -0.019 A 
HETATM    4  C15 UNL     1       2.234 -12.209  14.071  1.00  0.00     0.081 A 
HETATM    5  C16 UNL     1       3.148 -12.632  13.139  1.00  0.00     0.015 A 
HETATM    6  C20 UNL     1       3.685 -11.603  12.358  1.00  0.00     0.111 A 
ENDROOT
BRANCH   3   7
HETATM    7  C5  UNL     1       0.965 -10.459  15.285  1.00  0.00     0.082 C 
BRANCH   7   8
HETATM    8  C6  UNL     1       0.102  -9.301  15.055  1.00  0.00     0.099 C 
HETATM    9  C7  UNL     1       0.915  -8.075  14.631  1.00  0.00     0.050 C 
HETATM   10  C8  UNL     1      -0.543  -8.944  16.411  1.00  0.00     0.082 C 
HETATM   11  C9  UNL     1      -1.728  -8.117  15.907  1.00  0.00     0.099 C 
HETATM   12  C10 UNL     1      -1.665  -6.780  16.565  1.00  0.00     0.041 C 
HETATM   13  C14 UNL     1      -3.049  -8.833  16.111  1.00  0.00     0.041 C 
HETATM   14  O2  UNL     1      -1.516  -8.126  14.529  1.00  0.00    -0.229 OA
HETATM   15  C11 UNL     1      -2.220  -6.915  17.971  1.00  0.00     0.003 C 
HETATM   16  C12 UNL     1      -3.617  -7.433  18.008  1.00  0.00     0.000 C 
HETATM   17  C13 UNL     1      -4.022  -7.754  16.565  1.00  0.00     0.003 C 
HETATM   18  O3  UNL     1      -0.999  -9.359  14.280  1.00  0.00    -0.229 OA
ENDBRANCH   7   8
ENDBRANCH   3   7
BRANCH   4  19
HETATM   19  O4  UNL     1       1.639 -13.233  14.845  1.00  0.00    -0.359 OA
ATOM     20  H4  UNL     1       2.048 -14.087  14.921  1.00  0.00     0.217 HD
ENDBRANCH   4  19
BRANCH   1  21
HETATM   21  O1  UNL     1       3.925  -9.343  11.696  1.00  0.00    -0.353 OA
HETATM   22  C1  UNL     1       4.773  -8.312  12.103  1.00  0.00     0.210 C 
ENDBRANCH   1  21
BRANCH   5  23
HETATM   23  C17 UNL     1       3.594 -14.010  12.916  1.00  0.00     0.016 C 
HETATM   24  C18 UNL     1       4.503 -14.353  14.140  1.00  0.00     0.015 C 
HETATM   25  C19 UNL     1       2.616 -15.065  12.641  1.00  0.00     0.015 C 
ENDBRANCH   5  23
BRANCH   6  26
HETATM   26  O5  UNL     1       4.613 -11.928  11.347  1.00  0.00    -0.352 OA
HETATM   27  C21 UNL     1       5.994 -11.845  11.756  1.00  0.00     0.210 C 
ENDBRANCH   6  26
TORSDOF 6
ENDMDL
MODEL 2
REMARK VINA RESULT: -9.045544121      1.005      1.147
REMARK  6 active torsions:
REMARK  status: ('A' for Active; 'I' for Inactive)
REMARK    1  A    between atoms: O1_2  and  C2_3 
REMARK    2  A    between atoms: C4_5  and  C5_6 
REMARK    3  A    between atoms: C5_6  and  C6_7 
REMARK    4  A    between atoms: C15_18  and  O4_19 
REMARK    5  A    between atoms: C16_21  and  C17_22 
REMARK    6  A    between atoms: C20_25  and  O5_26 
ROOT
HETATM    1  C2  UNL     1       3.250 -11.354  12.825  1.00  0.00     0.102 A 
HETATM    2  C3  UNL     1       2.643 -10.535  13.726  1.00  0.00     0.049 A 
HETATM    3  C4  UNL     1       1.820 -11.104  14.687  1.00  0.00    -0.019 A 
HETATM    4  C15 UNL     1       1.632 -12.461  14.709  1.00  0.00     0.081 A 
HETATM    5  C16 UNL     1       2.228 -13.328  13.829  1.00  0.00     0.015 A 
HETATM    6  C20 UNL     1       3.043 -12.705  12.878  1.00  0.00     0.111 A 
ENDROOT
BRANCH   3   7
HETATM    7  C5  UNL     1       1.240 -10.209  15.669  1.00  0.00     0.082 C 
BRANCH   7   8
HETATM    8  C6  UNL     1       0.229  -9.234  15.261  1.00  0.00     0.099 C 
HETATM    9  C7  UNL     1       0.873  -7.986  14.651  1.00  0.00     0.050 C 
HETATM   10  C8  UNL     1      -0.490  -8.767  16.545  1.00  0.00     0.082 C 
HETATM   11  C9  UNL     1      -1.766  -8.203  15.918  1.00  0.00     0.099 C 
HETATM   12  C10 UNL     1      -1.905  -6.785  16.359  1.00  0.00     0.041 C 
HETATM   13  C14 UNL     1      -2.979  -9.059  16.231  1.00  0.00     0.041 C 
HETATM   14  O2  UNL     1      -1.525  -8.395  14.558  1.00  0.00    -0.229 OA
HETATM   15  C11 UNL     1      -2.467  -6.779  17.769  1.00  0.00     0.003 C 
HETATM   16  C12 UNL     1      -3.779  -7.477  17.885  1.00  0.00     0.000 C 
HETATM   17  C13 UNL     1      -4.103  -8.071  16.511  1.00  0.00     0.003 C 
HETATM   18  O3  UNL     1      -0.835  -9.566  14.504  1.00  0.00    -0.229 OA
ENDBRANCH   7   8
ENDBRANCH   3   7
BRANCH   4  19
HETATM   19  O4  UNL     1       0.764 -13.058  15.655  1.00  0.00    -0.359 OA
ATOM     20  H4  UNL     1       0.781 -13.995  15.808  1.00  0.00     0.217 HD
ENDBRANCH   4  19
BRANCH   1  21
HETATM   21  O1  UNL     1       4.065 -10.829  11.858  1.00  0.00    -0.353 OA
HETATM   22  C1  UNL     1       4.619  -9.549  11.852  1.00  0.00     0.210 C 
ENDBRANCH   1  21
BRANCH   5  23
HETATM   23  C17 UNL     1       2.094 -14.788  13.814  1.00  0.00     0.016 C 
HETATM   24  C18 UNL     1       2.948 -15.293  15.022  1.00  0.00     0.015 C 
HETATM   25  C19 UNL     1       0.766 -15.405  13.779  1.00  0.00     0.015 C 
ENDBRANCH   5  23
BRANCH   6  26
HETATM   26  O5  UNL     1       3.682 -13.499  11.903  1.00  0.00    -0.352 OA
HETATM   27  C21 UNL     1       5.051 -13.838  12.213  1.00  0.00     0.210 C 
ENDBRANCH   6  26
TORSDOF 6
ENDMDL
MODEL 3
REMARK VINA RESULT: -8.863700429      1.425      3.386
REMARK  6 active torsions:
REMARK  status: ('A' for Active; 'I' for Inactive)
REMARK    1  A    between atoms: O1_2  and  C2_3 
REMARK    2  A    between atoms: C4_5  and  C5_6 
REMARK    3  A    between atoms: C5_6  and  C6_7 
REMARK    4  A    between atoms: C15_18  and  O4_19 
REMARK    5  A    between atoms: C16_21  and  C17_22 
REMARK    6  A    between atoms: C20_25  and  O5_26 
ROOT
HETATM    1  C2  UNL     1       2.925 -11.558  12.854  1.00  0.00     0.102 A 
HETATM    2  C3  UNL     1       1.829 -10.856  13.251  1.00  0.00     0.049 A 
HETATM    3  C4  UNL     1       1.855  -9.473  13.144  1.00  0.00    -0.019 A 
HETATM    4  C15 UNL     1       2.968  -8.846  12.651  1.00  0.00     0.081 A 
HETATM    5  C16 UNL     1       4.094  -9.509  12.230  1.00  0.00     0.015 A 
HETATM    6  C20 UNL     1       4.019 -10.900  12.363  1.00  0.00     0.111 A 
ENDROOT
BRANCH   3   7
HETATM    7  C5  UNL     1       0.647  -8.763  13.516  1.00  0.00     0.082 C 
BRANCH   7   8
HETATM    8  C6  UNL     1       0.131  -8.867  14.881  1.00  0.00     0.099 C 
HETATM    9  C7  UNL     1       0.305 -10.282  15.436  1.00  0.00     0.050 C 
HETATM   10  C8  UNL     1      -1.391  -8.615  14.807  1.00  0.00     0.082 C 
HETATM   11  C9  UNL     1      -1.650  -8.259  16.273  1.00  0.00     0.099 C 
HETATM   12  C10 UNL     1      -2.701  -9.182  16.789  1.00  0.00     0.041 C 
HETATM   13  C14 UNL     1      -1.990  -6.791  16.449  1.00  0.00     0.041 C 
HETATM   14  O2  UNL     1      -0.381  -8.410  16.831  1.00  0.00    -0.229 OA
HETATM   15  C11 UNL     1      -4.052  -8.678  16.316  1.00  0.00     0.003 C 
HETATM   16  C12 UNL     1      -4.346  -7.282  16.748  1.00  0.00     0.000 C 
HETATM   17  C13 UNL     1      -3.106  -6.762  17.484  1.00  0.00     0.003 C 
HETATM   18  O3  UNL     1       0.465  -7.994  15.852  1.00  0.00    -0.229 OA
ENDBRANCH   7   8
ENDBRANCH   3   7
BRANCH   4  19
HETATM   19  O4  UNL     1       3.031  -7.435  12.572  1.00  0.00    -0.359 OA
ATOM     20  H4  UNL     1       3.042  -6.994  11.730  1.00  0.00     0.217 HD
ENDBRANCH   4  19
BRANCH   1  21
HETATM   21  O1  UNL     1       2.940 -12.923  12.950  1.00  0.00    -0.353 OA
HETATM   22  C1  UNL     1       2.177 -13.696  13.825  1.00  0.00     0.210 C 
ENDBRANCH   1  21
BRANCH   5  23
HETATM   23  C17 UNL     1       5.305  -8.905  11.668  1.00  0.00     0.016 C 
HETATM   24  C18 UNL     1       6.490  -9.531  12.474  1.00  0.00     0.015 C 
HETATM   25  C19 UNL     1       5.541  -8.937  10.223  1.00  0.00     0.015 C 
ENDBRANCH   5  23
BRANCH   6  26
HETATM   26  O5  UNL     1       5.133 -11.681  11.989  1.00  0.00    -0.352 OA
HETATM   27  C21 UNL     1       4.954 -12.429  10.768  1.00  0.00     0.210 C 
ENDBRANCH   6  26
TORSDOF 6
ENDMDL
MODEL 4
REMARK VINA RESULT: -8.282688562      1.399      2.037
REMARK  6 active torsions:
REMARK  status: ('A' for Active; 'I' for Inactive)
REMARK    1  A    between atoms: O1_2  and  C2_3 
REMARK    2  A    between atoms: C4_5  and  C5_6 
REMARK    3  A    between atoms: C5_6  and  C6_7 
REMARK    4  A    between atoms: C15_18  and  O4_19 
REMARK    5  A    between atoms: C16_21  and  C17_22 
REMARK    6  A    between atoms: C20_25  and  O5_26 
ROOT
HETATM    1  C2  UNL     1       3.649 -12.597  12.356  1.00  0.00     0.102 A 
HETATM    2  C3  UNL     1       3.279 -11.544  13.135  1.00  0.00     0.049 A 
HETATM    3  C4  UNL     1       2.377 -11.769  14.165  1.00  0.00    -0.019 A 
HETATM    4  C15 UNL     1       1.881 -13.027  14.377  1.00  0.00     0.081 A 
HETATM    5  C16 UNL     1       2.230 -14.122  13.626  1.00  0.00     0.015 A 
HETATM    6  C20 UNL     1       3.136 -13.841  12.597  1.00  0.00     0.111 A 
ENDROOT
BRANCH   3   7
HETATM    7  C5  UNL     1       2.054 -10.638  15.013  1.00  0.00     0.082 C 
BRANCH   7   8
HETATM    8  C6  UNL     1       1.075  -9.648  14.567  1.00  0.00     0.099 C 
HETATM    9  C7  UNL     1       1.761  -8.401  14.002  1.00  0.00     0.050 C 
HETATM   10  C8  UNL     1       0.300  -9.185  15.820  1.00  0.00     0.082 C 
HETATM   11  C9  UNL     1      -0.939  -8.600  15.138  1.00  0.00     0.099 C 
HETATM   12  C10 UNL     1      -1.083  -7.186  15.586  1.00  0.00     0.041 C 
HETATM   13  C14 UNL     1      -2.174  -9.446  15.383  1.00  0.00     0.041 C 
HETATM   14  O2  UNL     1      -0.634  -8.782  13.789  1.00  0.00    -0.229 OA
HETATM   15  C11 UNL     1      -1.712  -7.186  16.968  1.00  0.00     0.003 C 
HETATM   16  C12 UNL     1      -3.035  -7.871  17.014  1.00  0.00     0.000 C 
HETATM   17  C13 UNL     1      -3.300  -8.448  15.619  1.00  0.00     0.003 C 
HETATM   18  O3  UNL     1       0.044  -9.960  13.757  1.00  0.00    -0.229 OA
ENDBRANCH   7   8
ENDBRANCH   3   7
BRANCH   4  19
HETATM   19  O4  UNL     1       0.930 -13.271  15.397  1.00  0.00    -0.359 OA
ATOM     20  H4  UNL     1       1.108 -13.025  16.297  1.00  0.00     0.217 HD
ENDBRANCH   4  19
BRANCH   1  21
HETATM   21  O1  UNL     1       4.530 -12.413  11.325  1.00  0.00    -0.353 OA
HETATM   22  C1  UNL     1       5.745 -11.731  11.390  1.00  0.00     0.210 C 
ENDBRANCH   1  21
BRANCH   5  23
HETATM   23  C17 UNL     1       1.760 -15.497  13.815  1.00  0.00     0.016 C 
HETATM   24  C18 UNL     1       2.452 -15.992  15.126  1.00  0.00     0.015 C 
HETATM   25  C19 UNL     1       0.327 -15.795  13.799  1.00  0.00     0.015 C 
ENDBRANCH   5  23
BRANCH   6  26
HETATM   26  O5  UNL     1       3.540 -14.888  11.742  1.00  0.00    -0.352 OA
HETATM   27  C21 UNL     1       4.767 -15.540  12.136  1.00  0.00     0.210 C 
ENDBRANCH   6  26
TORSDOF 6
ENDMDL
MODEL 5
REMARK VINA RESULT: -8.227744874      2.906      6.876
REMARK  6 active torsions:
REMARK  status: ('A' for Active; 'I' for Inactive)
REMARK    1  A    between atoms: O1_2  and  C2_3 
REMARK    2  A    between atoms: C4_5  and  C5_6 
REMARK    3  A    between atoms: C5_6  and  C6_7 
REMARK    4  A    between atoms: C15_18  and  O4_19 
REMARK    5  A    between atoms: C16_21  and  C17_22 
REMARK    6  A    between atoms: C20_25  and  O5_26 
ROOT
HETATM    1  C2  UNL     1       4.426 -11.505  12.172  1.00  0.00     0.102 A 
HETATM    2  C3  UNL     1       4.267 -12.526  13.058  1.00  0.00     0.049 A 
HETATM    3  C4  UNL     1       3.258 -12.429  14.004  1.00  0.00    -0.019 A 
HETATM    4  C15 UNL     1       2.450 -11.324  14.032  1.00  0.00     0.081 A 
HETATM    5  C16 UNL     1       2.563 -10.273  13.156  1.00  0.00     0.015 A 
HETATM    6  C20 UNL     1       3.599 -10.417  12.226  1.00  0.00     0.111 A 
ENDROOT
BRANCH   3   7
HETATM    7  C5  UNL     1       3.078 -13.563  14.890  1.00  0.00     0.082 C 
BRANCH   7   8
HETATM    8  C6  UNL     1       1.894 -14.412  14.758  1.00  0.00     0.099 C 
HETATM    9  C7  UNL     1       1.236 -14.665  16.117  1.00  0.00     0.050 C 
HETATM   10  C8  UNL     1       2.381 -15.786  14.250  1.00  0.00     0.082 C 
HETATM   11  C9  UNL     1       1.057 -16.326  13.703  1.00  0.00     0.099 C 
HETATM   12  C10 UNL     1       0.787 -17.633  14.367  1.00  0.00     0.041 C 
HETATM   13  C14 UNL     1       1.058 -16.401  12.188  1.00  0.00     0.041 C 
HETATM   14  O2  UNL     1       0.177 -15.292  14.018  1.00  0.00    -0.229 OA
HETATM   15  C11 UNL     1       1.627 -18.697  13.683  1.00  0.00     0.003 C 
HETATM   16  C12 UNL     1       1.364 -18.806  12.220  1.00  0.00     0.000 C 
HETATM   17  C13 UNL     1       0.357 -17.711  11.854  1.00  0.00     0.003 C 
HETATM   18  O3  UNL     1       0.919 -14.163  13.863  1.00  0.00    -0.229 OA
ENDBRANCH   7   8
ENDBRANCH   3   7
BRANCH   4  19
HETATM   19  O4  UNL     1       1.440 -11.187  15.014  1.00  0.00    -0.359 OA
ATOM     20  H4  UNL     1       1.370 -10.395  15.535  1.00  0.00     0.217 HD
ENDBRANCH   4  19
BRANCH   1  21
HETATM   21  O1  UNL     1       5.415 -11.561  11.228  1.00  0.00    -0.353 OA
HETATM   22  C1  UNL     1       6.265 -12.640  10.987  1.00  0.00     0.210 C 
ENDBRANCH   1  21
BRANCH   5  23
HETATM   23  C17 UNL     1       1.718  -9.077  13.112  1.00  0.00     0.016 C 
HETATM   24  C18 UNL     1       0.400  -9.529  12.403  1.00  0.00     0.015 C 
HETATM   25  C19 UNL     1       1.456  -8.315  14.335  1.00  0.00     0.015 C 
ENDBRANCH   5  23
BRANCH   6  26
HETATM   26  O5  UNL     1       3.827  -9.381  11.296  1.00  0.00    -0.352 OA
HETATM   27  C21 UNL     1       4.848  -8.440  11.690  1.00  0.00     0.210 C 
ENDBRANCH   6  26
TORSDOF 6
ENDMDL
