MODEL 1
REMARK VINA RESULT: -8.815254788      0.000      0.000
REMARK  7 active torsions:
REMARK  status: ('A' for Active; 'I' for Inactive)
REMARK    1  A    between atoms: C2_2  and  C4_4 
REMARK    2  A    between atoms: C4_4  and  S1_5 
REMARK    3  A    between atoms: S1_5  and  C5_6 
REMARK    4  A    between atoms: C8_11  and  C9_12 
REMARK    5  A    between atoms: C11_14  and  C12_15 
REMARK    6  A    between atoms: C16_19  and  O1_20 
REMARK    7  A    between atoms: C17_22  and  C18_23 
ROOT
HETATM    1  C9  UNL     1       1.898 -10.219  13.094  1.00  0.00     0.060 A 
HETATM    2  C10 UNL     1       2.078 -11.553  13.292  1.00  0.00     0.042 A 
HETATM    3  C11 UNL     1       3.262 -12.230  12.968  1.00  0.00    -0.013 A 
HETATM    4  C16 UNL     1       4.275 -11.481  12.425  1.00  0.00     0.096 A 
HETATM    5  C17 UNL     1       4.098 -10.118  12.220  1.00  0.00     0.051 A 
HETATM    6  N2  UNL     1       2.942  -9.539  12.554  1.00  0.00    -0.355 N 
ATOM      7  H2  UNL     1       2.837  -8.537  12.394  1.00  0.00     0.166 HD
ENDROOT
BRANCH   1   8
HETATM    8  C8  UNL     1       0.650  -9.500  13.425  1.00  0.00     0.062 A 
HETATM    9  C7  UNL     1      -0.216  -9.094  12.441  1.00  0.00     0.049 A 
HETATM   10  C6  UNL     1      -1.396  -8.402  12.773  1.00  0.00     0.092 A 
HETATM   11  N1  UNL     1      -1.604  -8.178  14.069  1.00  0.00    -0.347 N 
HETATM   12  C5  UNL     1      -0.791  -8.553  15.063  1.00  0.00     0.144 A 
ATOM     13  H1  UNL     1      -2.455  -7.679  14.325  1.00  0.00     0.167 HD
HETATM   14  N3  UNL     1       0.341  -9.223  14.677  1.00  0.00    -0.335 N 
ATOM     15  H3  UNL     1       0.987  -9.527  15.406  1.00  0.00     0.168 HD
BRANCH  12  16
HETATM   16  S1  UNL     1      -1.074  -8.248  16.788  1.00  0.00    -0.093 SA
BRANCH  16  17
HETATM   17  C4  UNL     1      -1.911  -6.750  17.165  1.00  0.00     0.086 C 
BRANCH  17  18
HETATM   18  C2  UNL     1      -3.260  -6.795  17.775  1.00  0.00    -0.013 C 
HETATM   19  C1  UNL     1      -4.086  -7.875  17.041  1.00  0.00     0.010 C 
HETATM   20  C3  UNL     1      -3.337  -7.098  19.228  1.00  0.00     0.010 C 
ENDBRANCH  17  18
ENDBRANCH  16  17
ENDBRANCH  12  16
ENDBRANCH   1   8
BRANCH   3  21
HETATM   21  C12 UNL     1       3.335 -13.667  13.228  1.00  0.00    -0.021 C 
HETATM   22  C13 UNL     1       2.037 -14.142  13.843  1.00  0.00     0.019 C 
HETATM   23  C14 UNL     1       4.449 -14.059  14.162  1.00  0.00     0.019 C 
HETATM   24  C15 UNL     1       3.502 -14.420  11.917  1.00  0.00     0.019 C 
ENDBRANCH   3  21
BRANCH   5  25
HETATM   25  C18 UNL     1       5.193  -9.300  11.632  1.00  0.00    -0.006 C 
HETATM   26  C19 UNL     1       6.556  -9.673  12.156  1.00  0.00     0.021 C 
HETATM   27  C20 UNL     1       4.958  -7.833  11.990  1.00  0.00     0.021 C 
HETATM   28  C21 UNL     1       5.193  -9.365  10.126  1.00  0.00     0.021 C 
ENDBRANCH   5  25
BRANCH   4  29
HETATM   29  O1  UNL     1       5.450 -12.085  12.089  1.00  0.00    -0.358 OA
ATOM     30  H1  UNL     1       6.184 -12.045  12.689  1.00  0.00     0.217 HD
ENDBRANCH   4  29
TORSDOF 7
ENDMDL
MODEL 2
REMARK VINA RESULT: -8.746938174      0.910      3.547
REMARK  7 active torsions:
REMARK  status: ('A' for Active; 'I' for Inactive)
REMARK    1  A    between atoms: C2_2  and  C4_4 
REMARK    2  A    between atoms: C4_4  and  S1_5 
REMARK    3  A    between atoms: S1_5  and  C5_6 
REMARK    4  A    between atoms: C8_11  and  C9_12 
REMARK    5  A    between atoms: C11_14  and  C12_15 
REMARK    6  A    between atoms: C16_19  and  O1_20 
REMARK    7  A    between atoms: C17_22  and  C18_23 
ROOT
HETATM    1  C9  UNL     1       2.367 -10.454  12.745  1.00  0.00     0.060 A 
HETATM    2  C10 UNL     1       3.500  -9.980  12.159  1.00  0.00     0.042 A 
HETATM    3  C11 UNL     1       4.643 -10.761  11.942  1.00  0.00    -0.013 A 
HETATM    4  C16 UNL     1       4.589 -12.068  12.354  1.00  0.00     0.096 A 
HETATM    5  C17 UNL     1       3.435 -12.560  12.954  1.00  0.00     0.051 A 
HETATM    6  N2  UNL     1       2.382 -11.757  13.128  1.00  0.00    -0.355 N 
ATOM      7  H2  UNL     1       1.547 -12.142  13.570  1.00  0.00     0.166 HD
ENDROOT
BRANCH   1   8
HETATM    8  C8  UNL     1       1.161  -9.636  12.984  1.00  0.00     0.062 A 
HETATM    9  C7  UNL     1       0.482  -9.053  11.943  1.00  0.00     0.049 A 
HETATM   10  C6  UNL     1      -0.660  -8.268  12.189  1.00  0.00     0.092 A 
HETATM   11  N1  UNL     1      -1.023  -8.138  13.463  1.00  0.00    -0.347 N 
HETATM   12  C5  UNL     1      -0.396  -8.685  14.511  1.00  0.00     0.144 A 
ATOM     13  H1  UNL     1      -1.850  -7.573  13.657  1.00  0.00     0.167 HD
HETATM   14  N3  UNL     1       0.709  -9.438  14.208  1.00  0.00    -0.335 N 
ATOM     15  H3  UNL     1       1.215  -9.873  14.979  1.00  0.00     0.168 HD
BRANCH  12  16
HETATM   16  S1  UNL     1      -0.884  -8.503  16.207  1.00  0.00    -0.093 SA
BRANCH  16  17
HETATM   17  C4  UNL     1      -1.829  -7.068  16.573  1.00  0.00     0.086 C 
BRANCH  17  18
HETATM   18  C2  UNL     1      -3.041  -7.181  17.417  1.00  0.00    -0.013 C 
HETATM   19  C1  UNL     1      -3.636  -8.594  17.221  1.00  0.00     0.010 C 
HETATM   20  C3  UNL     1      -2.870  -6.978  18.879  1.00  0.00     0.010 C 
ENDBRANCH  17  18
ENDBRANCH  16  17
ENDBRANCH  12  16
ENDBRANCH   1   8
BRANCH   3  21
HETATM   21  C12 UNL     1       5.801 -10.136  11.302  1.00  0.00    -0.021 C 
HETATM   22  C13 UNL     1       5.352  -8.944  10.486  1.00  0.00     0.019 C 
HETATM   23  C14 UNL     1       6.554 -11.058  10.381  1.00  0.00     0.019 C 
HETATM   24  C15 UNL     1       6.755  -9.609  12.362  1.00  0.00     0.019 C 
ENDBRANCH   3  21
BRANCH   5  25
HETATM   25  C18 UNL     1       3.369 -13.976  13.403  1.00  0.00    -0.006 C 
HETATM   26  C19 UNL     1       3.457 -14.961  12.266  1.00  0.00     0.021 C 
HETATM   27  C20 UNL     1       2.029 -14.210  14.100  1.00  0.00     0.021 C 
HETATM   28  C21 UNL     1       4.429 -14.289  14.428  1.00  0.00     0.021 C 
ENDBRANCH   5  25
BRANCH   4  29
HETATM   29  O1  UNL     1       5.671 -12.875  12.172  1.00  0.00    -0.358 OA
ATOM     30  H1  UNL     1       6.242 -12.731  11.426  1.00  0.00     0.217 HD
ENDBRANCH   4  29
TORSDOF 7
ENDMDL
MODEL 3
REMARK VINA RESULT: -8.609663230      3.371      6.489
REMARK  7 active torsions:
REMARK  status: ('A' for Active; 'I' for Inactive)
REMARK    1  A    between atoms: C2_2  and  C4_4 
REMARK    2  A    between atoms: C4_4  and  S1_5 
REMARK    3  A    between atoms: S1_5  and  C5_6 
REMARK    4  A    between atoms: C8_11  and  C9_12 
REMARK    5  A    between atoms: C11_14  and  C12_15 
REMARK    6  A    between atoms: C16_19  and  O1_20 
REMARK    7  A    between atoms: C17_22  and  C18_23 
ROOT
HETATM    1  C9  UNL     1       2.858 -12.379  13.462  1.00  0.00     0.060 A 
HETATM    2  C10 UNL     1       1.944 -11.456  13.867  1.00  0.00     0.042 A 
HETATM    3  C11 UNL     1       1.999 -10.103  13.506  1.00  0.00    -0.013 A 
HETATM    4  C16 UNL     1       3.042  -9.717  12.703  1.00  0.00     0.096 A 
HETATM    5  C17 UNL     1       3.981 -10.654  12.286  1.00  0.00     0.051 A 
HETATM    6  N2  UNL     1       3.864 -11.929  12.668  1.00  0.00    -0.355 N 
ATOM      7  H2  UNL     1       4.565 -12.597  12.348  1.00  0.00     0.166 HD
ENDROOT
BRANCH   1   8
HETATM    8  C8  UNL     1       2.811 -13.805  13.844  1.00  0.00     0.062 A 
HETATM    9  C7  UNL     1       3.948 -14.573  13.859  1.00  0.00     0.049 A 
HETATM   10  C6  UNL     1       3.884 -15.933  14.216  1.00  0.00     0.092 A 
HETATM   11  N1  UNL     1       2.679 -16.404  14.530  1.00  0.00    -0.347 N 
HETATM   12  C5  UNL     1       1.544 -15.697  14.530  1.00  0.00     0.144 A 
ATOM     13  H1  UNL     1       2.617 -17.388  14.791  1.00  0.00     0.167 HD
HETATM   14  N3  UNL     1       1.670 -14.379  14.174  1.00  0.00    -0.335 N 
ATOM     15  H3  UNL     1       0.827 -13.806  14.163  1.00  0.00     0.168 HD
BRANCH  12  16
HETATM   16  S1  UNL     1      -0.060 -16.334  14.947  1.00  0.00    -0.093 SA
BRANCH  16  17
HETATM   17  C4  UNL     1      -1.014 -16.924  13.595  1.00  0.00     0.086 C 
BRANCH  17  18
HETATM   18  C2  UNL     1      -1.412 -15.993  12.513  1.00  0.00    -0.013 C 
HETATM   19  C1  UNL     1      -0.895 -16.561  11.173  1.00  0.00     0.010 C 
HETATM   20  C3  UNL     1      -2.865 -15.730  12.346  1.00  0.00     0.010 C 
ENDBRANCH  17  18
ENDBRANCH  16  17
ENDBRANCH  12  16
ENDBRANCH   1   8
BRANCH   3  21
HETATM   21  C12 UNL     1       0.956  -9.207  14.005  1.00  0.00    -0.021 C 
HETATM   22  C13 UNL     1       0.072  -8.765  12.860  1.00  0.00     0.019 C 
HETATM   23  C14 UNL     1       1.490  -7.967  14.671  1.00  0.00     0.019 C 
HETATM   24  C15 UNL     1       0.065  -9.950  14.988  1.00  0.00     0.019 C 
ENDBRANCH   3  21
BRANCH   5  25
HETATM   25  C18 UNL     1       5.114 -10.243  11.415  1.00  0.00    -0.006 C 
HETATM   26  C19 UNL     1       4.673  -9.478  10.194  1.00  0.00     0.021 C 
HETATM   27  C20 UNL     1       5.837 -11.497  10.924  1.00  0.00     0.021 C 
HETATM   28  C21 UNL     1       6.141  -9.442  12.173  1.00  0.00     0.021 C 
ENDBRANCH   5  25
BRANCH   4  29
HETATM   29  O1  UNL     1       3.149  -8.414  12.321  1.00  0.00    -0.358 OA
ATOM     30  H1  UNL     1       2.830  -7.730  12.897  1.00  0.00     0.217 HD
ENDBRANCH   4  29
TORSDOF 7
ENDMDL
MODEL 4
REMARK VINA RESULT: -8.523455740      3.312      6.685
REMARK  7 active torsions:
REMARK  status: ('A' for Active; 'I' for Inactive)
REMARK    1  A    between atoms: C2_2  and  C4_4 
REMARK    2  A    between atoms: C4_4  and  S1_5 
REMARK    3  A    between atoms: S1_5  and  C5_6 
REMARK    4  A    between atoms: C8_11  and  C9_12 
REMARK    5  A    between atoms: C11_14  and  C12_15 
REMARK    6  A    between atoms: C16_19  and  O1_20 
REMARK    7  A    between atoms: C17_22  and  C18_23 
ROOT
HETATM    1  C9  UNL     1       2.871 -12.385  13.530  1.00  0.00     0.060 A 
HETATM    2  C10 UNL     1       3.870 -11.901  12.744  1.00  0.00     0.042 A 
HETATM    3  C11 UNL     1       3.950 -10.563  12.332  1.00  0.00    -0.013 A 
HETATM    4  C16 UNL     1       2.955  -9.722  12.760  1.00  0.00     0.096 A 
HETATM    5  C17 UNL     1       1.931 -10.210  13.564  1.00  0.00     0.051 A 
HETATM    6  N2  UNL     1       1.919 -11.498  13.918  1.00  0.00    -0.355 N 
ATOM      7  H2  UNL     1       1.158 -11.831  14.509  1.00  0.00     0.166 HD
ENDROOT
BRANCH   1   8
HETATM    8  C8  UNL     1       2.776 -13.795  13.962  1.00  0.00     0.062 A 
HETATM    9  C7  UNL     1       3.897 -14.580  14.073  1.00  0.00     0.049 A 
HETATM   10  C6  UNL     1       3.787 -15.924  14.476  1.00  0.00     0.092 A 
HETATM   11  N1  UNL     1       2.557 -16.364  14.735  1.00  0.00    -0.347 N 
HETATM   12  C5  UNL     1       1.437 -15.639  14.641  1.00  0.00     0.144 A 
ATOM     13  H1  UNL     1       2.462 -17.335  15.029  1.00  0.00     0.167 HD
HETATM   14  N3  UNL     1       1.607 -14.338  14.244  1.00  0.00    -0.335 N 
ATOM     15  H3  UNL     1       0.777 -13.752  14.162  1.00  0.00     0.168 HD
BRANCH  12  16
HETATM   16  S1  UNL     1      -0.200 -16.234  14.985  1.00  0.00    -0.093 SA
BRANCH  16  17
HETATM   17  C4  UNL     1      -1.072 -16.888  13.607  1.00  0.00     0.086 C 
BRANCH  17  18
HETATM   18  C2  UNL     1      -1.477 -15.990  12.500  1.00  0.00    -0.013 C 
HETATM   19  C1  UNL     1      -0.976 -16.603  11.173  1.00  0.00     0.010 C 
HETATM   20  C3  UNL     1      -2.931 -15.728  12.339  1.00  0.00     0.010 C 
ENDBRANCH  17  18
ENDBRANCH  16  17
ENDBRANCH  12  16
ENDBRANCH   1   8
BRANCH   3  21
HETATM   21  C12 UNL     1       5.073 -10.162  11.485  1.00  0.00    -0.021 C 
HETATM   22  C13 UNL     1       5.907 -11.374  11.134  1.00  0.00     0.019 C 
HETATM   23  C14 UNL     1       5.987  -9.153  12.129  1.00  0.00     0.019 C 
HETATM   24  C15 UNL     1       4.553  -9.591  10.175  1.00  0.00     0.019 C 
ENDBRANCH   3  21
BRANCH   5  25
HETATM   25  C18 UNL     1       0.849  -9.304  14.032  1.00  0.00    -0.006 C 
HETATM   26  C19 UNL     1       1.369  -8.042  14.670  1.00  0.00     0.021 C 
HETATM   27  C20 UNL     1       0.017 -10.033  15.088  1.00  0.00     0.021 C 
HETATM   28  C21 UNL     1      -0.108  -8.953  12.921  1.00  0.00     0.021 C 
ENDBRANCH   5  25
BRANCH   4  29
HETATM   29  O1  UNL     1       2.978  -8.411  12.390  1.00  0.00    -0.358 OA
ATOM     30  H1  UNL     1       2.906  -7.736  13.055  1.00  0.00     0.217 HD
ENDBRANCH   4  29
TORSDOF 7
ENDMDL
MODEL 5
REMARK VINA RESULT: -8.430385759      3.466      6.688
REMARK  7 active torsions:
REMARK  status: ('A' for Active; 'I' for Inactive)
REMARK    1  A    between atoms: C2_2  and  C4_4 
REMARK    2  A    between atoms: C4_4  and  S1_5 
REMARK    3  A    between atoms: S1_5  and  C5_6 
REMARK    4  A    between atoms: C8_11  and  C9_12 
REMARK    5  A    between atoms: C11_14  and  C12_15 
REMARK    6  A    between atoms: C16_19  and  O1_20 
REMARK    7  A    between atoms: C17_22  and  C18_23 
ROOT
HETATM    1  C9  UNL     1       2.900 -12.376  13.475  1.00  0.00     0.060 A 
HETATM    2  C10 UNL     1       3.879 -11.888  12.667  1.00  0.00     0.042 A 
HETATM    3  C11 UNL     1       3.946 -10.550  12.255  1.00  0.00    -0.013 A 
HETATM    4  C16 UNL     1       2.959  -9.712  12.707  1.00  0.00     0.096 A 
HETATM    5  C17 UNL     1       1.955 -10.204  13.534  1.00  0.00     0.051 A 
HETATM    6  N2  UNL     1       1.955 -11.492  13.887  1.00  0.00    -0.355 N 
ATOM      7  H2  UNL     1       1.208 -11.828  14.495  1.00  0.00     0.166 HD
ENDROOT
BRANCH   1   8
HETATM    8  C8  UNL     1       2.818 -13.787  13.907  1.00  0.00     0.062 A 
HETATM    9  C7  UNL     1       3.952 -14.535  14.106  1.00  0.00     0.049 A 
HETATM   10  C6  UNL     1       3.855 -15.880  14.508  1.00  0.00     0.092 A 
HETATM   11  N1  UNL     1       2.624 -16.359  14.677  1.00  0.00    -0.347 N 
HETATM   12  C5  UNL     1       1.491 -15.671  14.496  1.00  0.00     0.144 A 
ATOM     13  H1  UNL     1       2.539 -17.332  14.969  1.00  0.00     0.167 HD
HETATM   14  N3  UNL     1       1.649 -14.367  14.105  1.00  0.00    -0.335 N 
ATOM     15  H3  UNL     1       0.809 -13.808  13.957  1.00  0.00     0.168 HD
BRANCH  12  16
HETATM   16  S1  UNL     1      -0.146 -16.318  14.719  1.00  0.00    -0.093 SA
BRANCH  16  17
HETATM   17  C4  UNL     1      -1.026 -16.678  13.242  1.00  0.00     0.086 C 
BRANCH  17  18
HETATM   18  C2  UNL     1      -2.484 -16.423  13.174  1.00  0.00    -0.013 C 
HETATM   19  C1  UNL     1      -2.749 -15.445  12.007  1.00  0.00     0.010 C 
HETATM   20  C3  UNL     1      -3.368 -17.600  12.968  1.00  0.00     0.010 C 
ENDBRANCH  17  18
ENDBRANCH  16  17
ENDBRANCH  12  16
ENDBRANCH   1   8
BRANCH   3  21
HETATM   21  C12 UNL     1       5.049 -10.145  11.384  1.00  0.00    -0.021 C 
HETATM   22  C13 UNL     1       5.944  -9.168  12.113  1.00  0.00     0.019 C 
HETATM   23  C14 UNL     1       4.601  -9.485  10.107  1.00  0.00     0.019 C 
HETATM   24  C15 UNL     1       5.905 -11.354  11.040  1.00  0.00     0.019 C 
ENDBRANCH   3  21
BRANCH   5  25
HETATM   25  C18 UNL     1       0.882  -9.301  14.028  1.00  0.00    -0.006 C 
HETATM   26  C19 UNL     1       1.414  -8.048  14.675  1.00  0.00     0.021 C 
HETATM   27  C20 UNL     1       0.063 -10.041  15.085  1.00  0.00     0.021 C 
HETATM   28  C21 UNL     1      -0.088  -8.933  12.935  1.00  0.00     0.021 C 
ENDBRANCH   5  25
BRANCH   4  29
HETATM   29  O1  UNL     1       2.971  -8.400  12.339  1.00  0.00    -0.358 OA
ATOM     30  H1  UNL     1       2.955  -8.173  11.417  1.00  0.00     0.217 HD
ENDBRANCH   4  29
TORSDOF 7
ENDMDL
