MODEL 1
REMARK VINA RESULT: -7.803137928      0.000      0.000
REMARK  3 active torsions:
REMARK  status: ('A' for Active; 'I' for Inactive)
REMARK    1  A    between atoms: C2_2  and  C3_3 
REMARK    2  A    between atoms: C11_14  and  C12_15 
REMARK    3  A    between atoms: C12_15  and  O1_17 
ROOT
HETATM    1  C3  UNL     1       0.850  13.084 -35.152  1.00  0.00     0.075 C 
HETATM    2  C4  UNL     1      -0.223  13.131 -34.049  1.00  0.00     0.050 C 
HETATM    3  C5  UNL     1       0.866  11.670 -35.648  1.00  0.00     0.042 C 
HETATM    4  C6  UNL     1       1.870  10.952 -34.767  1.00  0.00     0.011 C 
HETATM    5  C7  UNL     1       3.211  11.608 -35.165  1.00  0.00     0.025 C 
HETATM    6  C8  UNL     1       4.249  10.704 -34.622  1.00  0.00     0.059 C 
HETATM    7  C9  UNL     1       5.596  10.793 -35.176  1.00  0.00    -0.019 C 
HETATM    8  N1  UNL     1       5.760  10.464 -36.407  1.00  0.00    -0.406 N 
ATOM      9  H11 UNL     1       6.702  10.526 -36.794  1.00  0.00     0.155 HD
ATOM     10  H12 UNL     1       4.904  10.169 -36.876  1.00  0.00     0.155 HD
HETATM   11  C10 UNL     1       6.842  11.221 -34.494  1.00  0.00     0.063 C 
HETATM   12  C11 UNL     1       6.712  11.463 -33.017  1.00  0.00     0.047 C 
HETATM   13  C14 UNL     1       7.033  12.868 -32.656  1.00  0.00    -0.081 C 
HETATM   14  C15 UNL     1       8.214  13.101 -31.736  1.00  0.00     0.043 C 
HETATM   15  C16 UNL     1       6.426  13.956 -33.078  1.00  0.00    -0.024 C 
HETATM   16  C17 UNL     1       5.290  14.117 -34.004  1.00  0.00     0.030 C 
HETATM   17  C18 UNL     1       4.005  13.477 -33.633  1.00  0.00     0.042 C 
HETATM   18  C19 UNL     1       3.193  13.030 -34.861  1.00  0.00     0.063 C 
HETATM   19  C20 UNL     1       3.713  13.795 -36.100  1.00  0.00     0.046 C 
HETATM   20  O2  UNL     1       1.957  13.616 -34.700  1.00  0.00    -0.366 OA
ENDROOT
BRANCH  12  21
HETATM   21  C12 UNL     1       7.667  10.449 -32.357  1.00  0.00     0.122 C 
HETATM   22  C13 UNL     1       7.023   9.169 -31.979  1.00  0.00     0.040 C 
BRANCH  21  23
HETATM   23  O1  UNL     1       8.611  10.169 -33.365  1.00  0.00    -0.395 OA
ATOM     24  H1  UNL     1       8.666   9.221 -33.367  1.00  0.00     0.210 HD
ENDBRANCH  21  23
ENDBRANCH  12  21
BRANCH   1  25
HETATM   25  C2  UNL     1       0.281  13.918 -36.265  1.00  0.00     0.000 C 
HETATM   26  C1  UNL     1      -1.010  13.977 -36.469  1.00  0.00     0.010 C 
ENDBRANCH   1  25
TORSDOF 3
ENDMDL
MODEL 2
REMARK VINA RESULT: -7.594645240      3.767      5.384
REMARK  3 active torsions:
REMARK  status: ('A' for Active; 'I' for Inactive)
REMARK    1  A    between atoms: C2_2  and  C3_3 
REMARK    2  A    between atoms: C11_14  and  C12_15 
REMARK    3  A    between atoms: C12_15  and  O1_17 
ROOT
HETATM    1  C3  UNL     1       1.441  12.980 -35.185  1.00  0.00     0.075 C 
HETATM    2  C4  UNL     1       2.002  11.625 -35.651  1.00  0.00     0.050 C 
HETATM    3  C5  UNL     1       1.118  13.743 -36.434  1.00  0.00     0.042 C 
HETATM    4  C6  UNL     1       2.390  14.492 -36.781  1.00  0.00     0.011 C 
HETATM    5  C7  UNL     1       2.518  15.510 -35.625  1.00  0.00     0.025 C 
HETATM    6  C8  UNL     1       3.513  16.497 -36.101  1.00  0.00     0.059 C 
HETATM    7  C9  UNL     1       3.550  17.802 -35.451  1.00  0.00    -0.019 C 
HETATM    8  N1  UNL     1       2.526  18.567 -35.583  1.00  0.00    -0.406 N 
ATOM      9  H11 UNL     1       2.552  19.480 -35.129  1.00  0.00     0.155 HD
ATOM     10  H12 UNL     1       1.776  18.163 -36.145  1.00  0.00     0.155 HD
HETATM   11  C10 UNL     1       4.641  18.389 -34.635  1.00  0.00     0.063 C 
HETATM   12  C11 UNL     1       5.910  17.587 -34.590  1.00  0.00     0.047 C 
HETATM   13  C14 UNL     1       6.248  17.162 -33.207  1.00  0.00    -0.081 C 
HETATM   14  C15 UNL     1       7.546  17.675 -32.617  1.00  0.00     0.043 C 
HETATM   15  C16 UNL     1       5.523  16.411 -32.407  1.00  0.00    -0.024 C 
HETATM   16  C17 UNL     1       4.205  15.786 -32.619  1.00  0.00     0.030 C 
HETATM   17  C18 UNL     1       4.073  14.820 -33.734  1.00  0.00     0.042 C 
HETATM   18  C19 UNL     1       2.664  14.821 -34.353  1.00  0.00     0.063 C 
HETATM   19  C20 UNL     1       1.684  15.460 -33.343  1.00  0.00     0.046 C 
HETATM   20  O2  UNL     1       2.256  13.506 -34.307  1.00  0.00    -0.366 OA
ENDROOT
BRANCH  12  21
HETATM   21  C12 UNL     1       6.987  18.501 -35.210  1.00  0.00     0.122 C 
HETATM   22  C13 UNL     1       7.568  17.982 -36.470  1.00  0.00     0.040 C 
BRANCH  21  23
HETATM   23  O1  UNL     1       6.287  19.684 -35.519  1.00  0.00    -0.395 OA
ATOM     24  H1  UNL     1       5.967  19.534 -36.400  1.00  0.00     0.210 HD
ENDBRANCH  21  23
ENDBRANCH  12  21
BRANCH   1  25
HETATM   25  C2  UNL     1       0.125  12.640 -34.543  1.00  0.00     0.000 C 
HETATM   26  C1  UNL     1      -0.947  12.449 -35.268  1.00  0.00     0.010 C 
ENDBRANCH   1  25
TORSDOF 3
ENDMDL
MODEL 3
REMARK VINA RESULT: -7.420641967      3.164      4.960
REMARK  3 active torsions:
REMARK  status: ('A' for Active; 'I' for Inactive)
REMARK    1  A    between atoms: C2_2  and  C3_3 
REMARK    2  A    between atoms: C11_14  and  C12_15 
REMARK    3  A    between atoms: C12_15  and  O1_17 
ROOT
HETATM    1  C3  UNL     1       3.386  18.137 -34.981  1.00  0.00     0.075 C 
HETATM    2  C4  UNL     1       3.061  18.736 -36.361  1.00  0.00     0.050 C 
HETATM    3  C5  UNL     1       4.875  18.230 -34.833  1.00  0.00     0.042 C 
HETATM    4  C6  UNL     1       5.413  16.940 -35.420  1.00  0.00     0.011 C 
HETATM    5  C7  UNL     1       4.906  15.870 -34.426  1.00  0.00     0.025 C 
HETATM    6  C8  UNL     1       5.702  14.661 -34.736  1.00  0.00     0.059 C 
HETATM    7  C9  UNL     1       5.783  13.615 -33.723  1.00  0.00    -0.019 C 
HETATM    8  N1  UNL     1       6.381  13.893 -32.619  1.00  0.00    -0.406 N 
ATOM      9  H11 UNL     1       6.437  13.161 -31.911  1.00  0.00     0.155 HD
ATOM     10  H12 UNL     1       6.743  14.845 -32.573  1.00  0.00     0.155 HD
HETATM   11  C10 UNL     1       5.256  12.230 -33.791  1.00  0.00     0.063 C 
HETATM   12  C11 UNL     1       4.689  11.825 -35.122  1.00  0.00     0.047 C 
HETATM   13  C14 UNL     1       3.251  11.467 -35.025  1.00  0.00    -0.081 C 
HETATM   14  C15 UNL     1       2.860  10.045 -35.376  1.00  0.00     0.043 C 
HETATM   15  C16 UNL     1       2.264  12.240 -34.629  1.00  0.00    -0.024 C 
HETATM   16  C17 UNL     1       2.273  13.642 -34.172  1.00  0.00     0.030 C 
HETATM   17  C18 UNL     1       2.772  14.669 -35.116  1.00  0.00     0.042 C 
HETATM   18  C19 UNL     1       3.452  15.849 -34.399  1.00  0.00     0.063 C 
HETATM   19  C20 UNL     1       2.998  15.854 -32.921  1.00  0.00     0.046 C 
HETATM   20  O2  UNL     1       2.805  16.970 -34.869  1.00  0.00    -0.366 OA
ENDROOT
BRANCH  12  21
HETATM   21  C12 UNL     1       5.564  10.645 -35.591  1.00  0.00     0.122 C 
HETATM   22  C13 UNL     1       6.139  10.820 -36.945  1.00  0.00     0.040 C 
BRANCH  21  23
HETATM   23  O1  UNL     1       6.633  10.632 -34.673  1.00  0.00    -0.395 OA
ATOM     24  H1  UNL     1       6.408   9.931 -34.073  1.00  0.00     0.210 HD
ENDBRANCH  21  23
ENDBRANCH  12  21
BRANCH   1  25
HETATM   25  C2  UNL     1       2.800  19.113 -34.000  1.00  0.00     0.000 C 
HETATM   26  C1  UNL     1       2.431  20.309 -34.381  1.00  0.00     0.010 C 
ENDBRANCH   1  25
TORSDOF 3
ENDMDL
MODEL 4
REMARK VINA RESULT: -6.694551419      3.384      4.929
REMARK  3 active torsions:
REMARK  status: ('A' for Active; 'I' for Inactive)
REMARK    1  A    between atoms: C2_2  and  C3_3 
REMARK    2  A    between atoms: C11_14  and  C12_15 
REMARK    3  A    between atoms: C12_15  and  O1_17 
ROOT
HETATM    1  C3  UNL     1       0.971  14.414 -37.471  1.00  0.00     0.075 C 
HETATM    2  C4  UNL     1       1.476  14.082 -38.887  1.00  0.00     0.050 C 
HETATM    3  C5  UNL     1       0.721  15.892 -37.461  1.00  0.00     0.042 C 
HETATM    4  C6  UNL     1       2.038  16.514 -37.039  1.00  0.00     0.011 C 
HETATM    5  C7  UNL     1       2.186  16.049 -35.573  1.00  0.00     0.025 C 
HETATM    6  C8  UNL     1       3.242  16.918 -35.007  1.00  0.00     0.059 C 
HETATM    7  C9  UNL     1       3.328  17.039 -33.556  1.00  0.00    -0.019 C 
HETATM    8  N1  UNL     1       2.347  17.599 -32.942  1.00  0.00    -0.406 N 
ATOM      9  H11 UNL     1       2.407  17.684 -31.927  1.00  0.00     0.155 HD
ATOM     10  H12 UNL     1       1.594  17.906 -33.557  1.00  0.00     0.155 HD
HETATM   11  C10 UNL     1       4.424  16.593 -32.661  1.00  0.00     0.063 C 
HETATM   12  C11 UNL     1       5.650  16.076 -33.359  1.00  0.00     0.047 C 
HETATM   13  C14 UNL     1       5.927  14.658 -33.012  1.00  0.00    -0.081 C 
HETATM   14  C15 UNL     1       7.233  14.355 -32.305  1.00  0.00     0.043 C 
HETATM   15  C16 UNL     1       5.144  13.621 -33.216  1.00  0.00    -0.024 C 
HETATM   16  C17 UNL     1       3.802  13.543 -33.821  1.00  0.00     0.030 C 
HETATM   17  C18 UNL     1       3.652  14.000 -35.222  1.00  0.00     0.042 C 
HETATM   18  C19 UNL     1       2.263  14.599 -35.502  1.00  0.00     0.063 C 
HETATM   19  C20 UNL     1       1.289  14.117 -34.403  1.00  0.00     0.046 C 
HETATM   20  O2  UNL     1       1.788  13.898 -36.589  1.00  0.00    -0.366 OA
ENDROOT
BRANCH  12  21
HETATM   21  C12 UNL     1       6.788  17.025 -32.933  1.00  0.00     0.122 C 
HETATM   22  C13 UNL     1       7.238  17.946 -34.002  1.00  0.00     0.040 C 
BRANCH  21  23
HETATM   23  O1  UNL     1       6.210  17.805 -31.912  1.00  0.00    -0.395 OA
ATOM     24  H1  UNL     1       6.689  17.549 -31.133  1.00  0.00     0.210 HD
ENDBRANCH  21  23
ENDBRANCH  12  21
BRANCH   1  25
HETATM   25  C2  UNL     1      -0.378  13.755 -37.389  1.00  0.00     0.000 C 
HETATM   26  C1  UNL     1      -1.315  14.237 -36.614  1.00  0.00     0.010 C 
ENDBRANCH   1  25
TORSDOF 3
ENDMDL
MODEL 5
REMARK VINA RESULT: -6.569554581      3.921      6.731
REMARK  3 active torsions:
REMARK  status: ('A' for Active; 'I' for Inactive)
REMARK    1  A    between atoms: C2_2  and  C3_3 
REMARK    2  A    between atoms: C11_14  and  C12_15 
REMARK    3  A    between atoms: C12_15  and  O1_17 
ROOT
HETATM    1  C3  UNL     1       4.938  12.097 -34.633  1.00  0.00     0.075 C 
HETATM    2  C4  UNL     1       4.964  11.365 -35.988  1.00  0.00     0.050 C 
HETATM    3  C5  UNL     1       3.497  12.156 -34.225  1.00  0.00     0.042 C 
HETATM    4  C6  UNL     1       2.967  13.442 -34.828  1.00  0.00     0.011 C 
HETATM    5  C7  UNL     1       3.726  14.533 -34.040  1.00  0.00     0.025 C 
HETATM    6  C8  UNL     1       2.986  15.784 -34.319  1.00  0.00     0.059 C 
HETATM    7  C9  UNL     1       3.170  16.908 -33.408  1.00  0.00    -0.019 C 
HETATM    8  N1  UNL     1       2.758  16.774 -32.198  1.00  0.00    -0.406 N 
ATOM      9  H11 UNL     1       2.887  17.560 -31.562  1.00  0.00     0.155 HD
ATOM     10  H12 UNL     1       2.336  15.866 -32.002  1.00  0.00     0.155 HD
HETATM   11  C10 UNL     1       3.783  18.228 -33.694  1.00  0.00     0.063 C 
HETATM   12  C11 UNL     1       4.133  18.474 -35.134  1.00  0.00     0.047 C 
HETATM   13  C14 UNL     1       5.590  18.701 -35.318  1.00  0.00    -0.081 C 
HETATM   14  C15 UNL     1       6.023  20.049 -35.860  1.00  0.00     0.043 C 
HETATM   15  C16 UNL     1       6.568  17.872 -35.027  1.00  0.00    -0.024 C 
HETATM   16  C17 UNL     1       6.529  16.517 -34.446  1.00  0.00     0.030 C 
HETATM   17  C18 UNL     1       5.790  15.471 -35.192  1.00  0.00     0.042 C 
HETATM   18  C19 UNL     1       5.158  14.420 -34.263  1.00  0.00     0.063 C 
HETATM   19  C20 UNL     1       5.867  14.486 -32.891  1.00  0.00     0.046 C 
HETATM   20  O2  UNL     1       5.621  13.209 -34.731  1.00  0.00    -0.366 OA
ENDROOT
BRANCH  12  21
HETATM   21  C12 UNL     1       3.285  19.691 -35.554  1.00  0.00     0.122 C 
HETATM   22  C13 UNL     1       2.005  19.337 -36.210  1.00  0.00     0.040 C 
BRANCH  21  23
HETATM   23  O1  UNL     1       2.977  20.324 -34.333  1.00  0.00    -0.395 OA
ATOM     24  H1  UNL     1       2.342  19.744 -33.931  1.00  0.00     0.210 HD
ENDBRANCH  21  23
ENDBRANCH  12  21
BRANCH   1  25
HETATM   25  C2  UNL     1       5.611  11.149 -33.681  1.00  0.00     0.000 C 
HETATM   26  C1  UNL     1       6.915  11.056 -33.634  1.00  0.00     0.010 C 
ENDBRANCH   1  25
TORSDOF 3
ENDMDL
