MODEL 1
REMARK VINA RESULT: -8.280432381      0.000      0.000
REMARK  2 active torsions:
REMARK  status: ('A' for Active; 'I' for Inactive)
REMARK       I    between atoms: C1_2  and  N1_3 
REMARK    1  A    between atoms: C1_2  and  C5_12 
REMARK    2  A    between atoms: N1_3  and  N2_5 
ROOT
HETATM    1  C5  UNL     1       3.886  16.128 -33.980  1.00  0.00     0.141 C 
HETATM    2  C6  UNL     1       5.304  15.600 -34.232  1.00  0.00     0.025 C 
HETATM    3  C7  UNL     1       5.814  14.778 -33.101  1.00  0.00     0.002 C 
HETATM    4  C8  UNL     1       5.637  13.307 -33.256  1.00  0.00     0.000 C 
HETATM    5  C9  UNL     1       5.863  12.819 -34.668  1.00  0.00     0.000 C 
HETATM    6  C10 UNL     1       5.923  11.313 -34.683  1.00  0.00     0.000 C 
HETATM    7  C11 UNL     1       4.569  10.687 -34.463  1.00  0.00     0.000 C 
HETATM    8  C12 UNL     1       3.623  10.876 -35.597  1.00  0.00     0.000 C 
HETATM    9  C13 UNL     1       2.214  10.797 -35.078  1.00  0.00     0.000 C 
HETATM   10  C14 UNL     1       1.733  12.079 -34.460  1.00  0.00     0.001 C 
HETATM   11  C15 UNL     1       1.248  13.085 -35.458  1.00  0.00     0.010 C 
HETATM   12  C16 UNL     1       2.120  14.314 -35.543  1.00  0.00     0.075 C 
HETATM   13  S1  UNL     1       2.682  14.796 -33.891  1.00  0.00    -0.155 SA
ENDROOT
BRANCH   1  14
HETATM   14  C1  UNL     1       3.560  17.080 -35.080  1.00  0.00     0.249 C 
HETATM   15  O1  UNL     1       4.176  17.057 -36.177  1.00  0.00    -0.271 OA
HETATM   16  N1  UNL     1       2.531  18.048 -34.909  1.00  0.00    -0.268 N 
ATOM     17  H1  UNL     1       2.024  18.077 -34.024  1.00  0.00     0.190 HD
BRANCH  16  18
HETATM   18  N2  UNL     1       2.197  18.947 -35.896  1.00  0.00    -0.287 N 
HETATM   19  C2  UNL     1       2.316  20.215 -35.811  1.00  0.00     0.093 C 
HETATM   20  C3  UNL     1       2.064  21.418 -36.641  1.00  0.00     0.097 C 
HETATM   21  N3  UNL     1       2.782  21.080 -34.783  1.00  0.00    -0.378 N 
HETATM   22  C4  UNL     1       1.850  22.078 -35.284  1.00  0.00     0.128 C 
ATOM     23  H3  UNL     1       3.467  21.024 -34.029  1.00  0.00     0.160 HD
ATOM     24  H2  UNL     1       1.824  18.569 -36.767  1.00  0.00     0.188 HD
ENDBRANCH  16  18
ENDBRANCH   1  14
TORSDOF 2
ENDMDL
MODEL 2
REMARK VINA RESULT: -7.216870744      3.365      7.169
REMARK  2 active torsions:
REMARK  status: ('A' for Active; 'I' for Inactive)
REMARK       I    between atoms: C1_2  and  N1_3 
REMARK    1  A    between atoms: C1_2  and  C5_12 
REMARK    2  A    between atoms: N1_3  and  N2_5 
ROOT
HETATM    1  C5  UNL     1       3.311  16.728 -32.597  1.00  0.00     0.141 C 
HETATM    2  C6  UNL     1       2.118  17.499 -32.017  1.00  0.00     0.025 C 
HETATM    3  C7  UNL     1       2.539  18.691 -31.231  1.00  0.00     0.002 C 
HETATM    4  C8  UNL     1       2.534  19.978 -31.981  1.00  0.00     0.000 C 
HETATM    5  C9  UNL     1       1.372  20.113 -32.936  1.00  0.00     0.000 C 
HETATM    6  C10 UNL     1       1.296  21.529 -33.450  1.00  0.00     0.000 C 
HETATM    7  C11 UNL     1       2.404  21.841 -34.425  1.00  0.00     0.000 C 
HETATM    8  C12 UNL     1       2.280  21.132 -35.728  1.00  0.00     0.000 C 
HETATM    9  C13 UNL     1       3.644  21.001 -36.345  1.00  0.00     0.000 C 
HETATM   10  C14 UNL     1       4.441  19.852 -35.794  1.00  0.00     0.001 C 
HETATM   11  C15 UNL     1       4.097  18.530 -36.409  1.00  0.00     0.010 C 
HETATM   12  C16 UNL     1       3.437  17.574 -35.447  1.00  0.00     0.075 C 
HETATM   13  S1  UNL     1       4.208  17.701 -33.813  1.00  0.00    -0.155 SA
ENDROOT
BRANCH   1  14
HETATM   14  C1  UNL     1       2.782  15.468 -33.194  1.00  0.00     0.249 C 
HETATM   15  O1  UNL     1       3.536  14.496 -33.461  1.00  0.00    -0.271 OA
HETATM   16  N1  UNL     1       1.394  15.337 -33.479  1.00  0.00    -0.268 N 
ATOM     17  H1  UNL     1       0.772  16.118 -33.268  1.00  0.00     0.190 HD
BRANCH  16  18
HETATM   18  N2  UNL     1       0.862  14.194 -34.031  1.00  0.00    -0.287 N 
HETATM   19  C2  UNL     1       0.666  13.997 -35.276  1.00  0.00     0.093 C 
HETATM   20  C3  UNL     1       0.139  12.938 -36.169  1.00  0.00     0.097 C 
HETATM   21  N3  UNL     1       0.896  14.792 -36.433  1.00  0.00    -0.378 N 
HETATM   22  C4  UNL     1      -0.246  14.127 -37.042  1.00  0.00     0.128 C 
ATOM     23  H3  UNL     1       1.565  15.510 -36.711  1.00  0.00     0.160 HD
ATOM     24  H2  UNL     1       0.602  13.443 -33.391  1.00  0.00     0.188 HD
ENDBRANCH  16  18
ENDBRANCH   1  14
TORSDOF 2
ENDMDL
MODEL 3
REMARK VINA RESULT: -7.181845911      1.198      1.285
REMARK  2 active torsions:
REMARK  status: ('A' for Active; 'I' for Inactive)
REMARK       I    between atoms: C1_2  and  N1_3 
REMARK    1  A    between atoms: C1_2  and  C5_12 
REMARK    2  A    between atoms: N1_3  and  N2_5 
ROOT
HETATM    1  C5  UNL     1       4.886  16.871 -33.832  1.00  0.00     0.141 C 
HETATM    2  C6  UNL     1       6.133  15.994 -34.003  1.00  0.00     0.025 C 
HETATM    3  C7  UNL     1       6.338  15.067 -32.857  1.00  0.00     0.002 C 
HETATM    4  C8  UNL     1       5.797  13.692 -33.050  1.00  0.00     0.000 C 
HETATM    5  C9  UNL     1       5.983  13.164 -34.452  1.00  0.00     0.000 C 
HETATM    6  C10 UNL     1       5.652  11.693 -34.490  1.00  0.00     0.000 C 
HETATM    7  C11 UNL     1       4.171  11.439 -34.368  1.00  0.00     0.000 C 
HETATM    8  C12 UNL     1       3.383  11.868 -35.556  1.00  0.00     0.000 C 
HETATM    9  C13 UNL     1       1.971  12.155 -35.129  1.00  0.00     0.000 C 
HETATM   10  C14 UNL     1       1.797  13.518 -34.519  1.00  0.00     0.001 C 
HETATM   11  C15 UNL     1       1.655  14.616 -35.529  1.00  0.00     0.010 C 
HETATM   12  C16 UNL     1       2.818  15.577 -35.537  1.00  0.00     0.075 C 
HETATM   13  S1  UNL     1       3.376  15.896 -33.843  1.00  0.00    -0.155 SA
ENDROOT
BRANCH   1  14
HETATM   14  C1  UNL     1       4.890  17.876 -34.934  1.00  0.00     0.249 C 
HETATM   15  O1  UNL     1       5.647  17.759 -35.932  1.00  0.00    -0.271 OA
HETATM   16  N1  UNL     1       4.026  19.005 -34.878  1.00  0.00    -0.268 N 
ATOM     17  H1  UNL     1       3.407  19.112 -34.073  1.00  0.00     0.190 HD
BRANCH  16  18
HETATM   18  N2  UNL     1       3.996  19.958 -35.870  1.00  0.00    -0.287 N 
HETATM   19  C2  UNL     1       3.019  20.742 -36.112  1.00  0.00     0.093 C 
HETATM   20  C3  UNL     1       2.668  21.830 -37.056  1.00  0.00     0.097 C 
HETATM   21  N3  UNL     1       1.737  20.908 -35.518  1.00  0.00    -0.378 N 
HETATM   22  C4  UNL     1       1.250  21.317 -36.826  1.00  0.00     0.128 C 
ATOM     23  H3  UNL     1       1.337  20.792 -34.586  1.00  0.00     0.160 HD
ATOM     24  H2  UNL     1       4.823  20.044 -36.461  1.00  0.00     0.188 HD
ENDBRANCH  16  18
ENDBRANCH   1  14
TORSDOF 2
ENDMDL
MODEL 4
REMARK VINA RESULT: -7.127349363      2.691      3.642
REMARK  2 active torsions:
REMARK  status: ('A' for Active; 'I' for Inactive)
REMARK       I    between atoms: C1_2  and  N1_3 
REMARK    1  A    between atoms: C1_2  and  C5_12 
REMARK    2  A    between atoms: N1_3  and  N2_5 
ROOT
HETATM    1  C5  UNL     1       3.032  15.592 -34.718  1.00  0.00     0.141 C 
HETATM    2  C6  UNL     1       4.559  15.465 -34.787  1.00  0.00     0.025 C 
HETATM    3  C7  UNL     1       5.158  15.076 -33.481  1.00  0.00     0.002 C 
HETATM    4  C8  UNL     1       5.414  13.618 -33.311  1.00  0.00     0.000 C 
HETATM    5  C9  UNL     1       5.912  12.944 -34.567  1.00  0.00     0.000 C 
HETATM    6  C10 UNL     1       6.390  11.551 -34.242  1.00  0.00     0.000 C 
HETATM    7  C11 UNL     1       5.249  10.612 -33.943  1.00  0.00     0.000 C 
HETATM    8  C12 UNL     1       4.411  10.282 -35.129  1.00  0.00     0.000 C 
HETATM    9  C13 UNL     1       3.034   9.898 -34.664  1.00  0.00     0.000 C 
HETATM   10  C14 UNL     1       2.153  11.080 -34.368  1.00  0.00     0.001 C 
HETATM   11  C15 UNL     1       1.514  11.675 -35.585  1.00  0.00     0.010 C 
HETATM   12  C16 UNL     1       2.014  13.062 -35.907  1.00  0.00     0.075 C 
HETATM   13  S1  UNL     1       2.245  14.012 -34.383  1.00  0.00    -0.155 SA
ENDROOT
BRANCH   1  14
HETATM   14  C1  UNL     1       2.571  16.163 -36.016  1.00  0.00     0.249 C 
HETATM   15  O1  UNL     1       3.199  17.090 -36.591  1.00  0.00    -0.271 OA
HETATM   16  N1  UNL     1       1.393  15.665 -36.640  1.00  0.00    -0.268 N 
ATOM     17  H1  UNL     1       0.874  14.913 -36.184  1.00  0.00     0.190 HD
BRANCH  16  18
HETATM   18  N2  UNL     1       0.929  16.162 -37.837  1.00  0.00    -0.287 N 
HETATM   19  C2  UNL     1       0.824  15.497 -38.921  1.00  0.00     0.093 C 
HETATM   20  C3  UNL     1       0.387  15.708 -40.322  1.00  0.00     0.097 C 
HETATM   21  N3  UNL     1       1.114  14.147 -39.264  1.00  0.00    -0.378 N 
HETATM   22  C4  UNL     1       1.413  14.617 -40.608  1.00  0.00     0.128 C 
ATOM     23  H3  UNL     1       1.112  13.248 -38.782  1.00  0.00     0.160 HD
ATOM     24  H2  UNL     1       0.647  17.141 -37.859  1.00  0.00     0.188 HD
ENDBRANCH  16  18
ENDBRANCH   1  14
TORSDOF 2
ENDMDL
MODEL 5
REMARK VINA RESULT: -7.103454319      3.662      5.574
REMARK  2 active torsions:
REMARK  status: ('A' for Active; 'I' for Inactive)
REMARK       I    between atoms: C1_2  and  N1_3 
REMARK    1  A    between atoms: C1_2  and  C5_12 
REMARK    2  A    between atoms: N1_3  and  N2_5 
ROOT
HETATM    1  C5  UNL     1       3.024  18.381 -35.320  1.00  0.00     0.141 C 
HETATM    2  C6  UNL     1       3.140  18.007 -33.837  1.00  0.00     0.025 C 
HETATM    3  C7  UNL     1       3.553  16.591 -33.638  1.00  0.00     0.002 C 
HETATM    4  C8  UNL     1       5.012  16.381 -33.426  1.00  0.00     0.000 C 
HETATM    5  C9  UNL     1       5.657  17.450 -32.577  1.00  0.00     0.000 C 
HETATM    6  C10 UNL     1       7.053  17.026 -32.197  1.00  0.00     0.000 C 
HETATM    7  C11 UNL     1       8.005  17.089 -33.365  1.00  0.00     0.000 C 
HETATM    8  C12 UNL     1       8.316  18.472 -33.819  1.00  0.00     0.000 C 
HETATM    9  C13 UNL     1       8.717  18.434 -35.267  1.00  0.00     0.000 C 
HETATM   10  C14 UNL     1       7.547  18.384 -36.210  1.00  0.00     0.001 C 
HETATM   11  C15 UNL     1       6.930  19.724 -36.475  1.00  0.00     0.010 C 
HETATM   12  C16 UNL     1       5.534  19.861 -35.920  1.00  0.00     0.075 C 
HETATM   13  S1  UNL     1       4.615  18.318 -36.152  1.00  0.00    -0.155 SA
ENDROOT
BRANCH   1  14
HETATM   14  C1  UNL     1       2.428  19.747 -35.392  1.00  0.00     0.249 C 
HETATM   15  O1  UNL     1       1.893  20.179 -36.446  1.00  0.00    -0.271 OA
HETATM   16  N1  UNL     1       2.454  20.601 -34.254  1.00  0.00    -0.268 N 
ATOM     17  H1  UNL     1       2.885  20.262 -33.393  1.00  0.00     0.190 HD
BRANCH  16  18
HETATM   18  N2  UNL     1       1.918  21.868 -34.275  1.00  0.00    -0.287 N 
HETATM   19  C2  UNL     1       0.810  22.210 -33.741  1.00  0.00     0.093 C 
HETATM   20  C3  UNL     1      -0.025  23.425 -33.582  1.00  0.00     0.097 C 
HETATM   21  N3  UNL     1      -0.177  21.493 -33.010  1.00  0.00    -0.378 N 
HETATM   22  C4  UNL     1      -1.164  22.411 -33.559  1.00  0.00     0.128 C 
ATOM     23  H3  UNL     1      -0.188  20.691 -32.379  1.00  0.00     0.160 HD
ATOM     24  H2  UNL     1       2.449  22.594 -34.756  1.00  0.00     0.188 HD
ENDBRANCH  16  18
ENDBRANCH   1  14
TORSDOF 2
ENDMDL
