MODEL 1
REMARK VINA RESULT: -8.082168150      0.000      0.000
REMARK  2 active torsions:
REMARK  status: ('A' for Active; 'I' for Inactive)
REMARK    1  A    between atoms: C3_3  and  S1_4 
REMARK    2  A    between atoms: S1_4  and  C4_5 
ROOT
HETATM    1  C1  UNL     1       3.135  16.449 -35.932  1.00  0.00     0.021 C 
HETATM    2  C2  UNL     1       3.330  15.680 -34.895  1.00  0.00    -0.042 C 
HETATM    3  C3  UNL     1       4.548  15.779 -34.125  1.00  0.00     0.011 C 
HETATM    4  C8  UNL     1       4.998  14.634 -33.649  1.00  0.00    -0.066 C 
HETATM    5  C9  UNL     1       6.266  14.678 -32.838  1.00  0.00     0.044 C 
HETATM    6  C10 UNL     1       4.347  13.377 -33.873  1.00  0.00     0.041 C 
HETATM    7  C11 UNL     1       2.882  13.334 -34.213  1.00  0.00     0.010 C 
HETATM    8  C12 UNL     1       2.543  12.181 -35.113  1.00  0.00    -0.043 C 
HETATM    9  C13 UNL     1       2.393  10.894 -34.253  1.00  0.00     0.015 C 
HETATM   10  C14 UNL     1       3.702  11.817 -36.040  1.00  0.00     0.015 C 
HETATM   11  C15 UNL     1       1.342  12.254 -35.971  1.00  0.00     0.009 C 
HETATM   12  C16 UNL     1       0.431  13.339 -35.480  1.00  0.00     0.002 C 
HETATM   13  C17 UNL     1       1.253  14.627 -35.608  1.00  0.00     0.014 C 
HETATM   14  C18 UNL     1       2.299  14.657 -34.534  1.00  0.00    -0.012 C 
HETATM   15  C19 UNL     1       1.589  15.219 -33.310  1.00  0.00     0.021 C 
ENDROOT
BRANCH   3  16
HETATM   16  S1  UNL     1       5.370  17.268 -33.776  1.00  0.00    -0.096 SA
BRANCH  16  17
HETATM   17  C4  UNL     1       6.401  18.006 -35.003  1.00  0.00     0.255 C 
HETATM   18  C5  UNL     1       6.544  17.060 -36.208  1.00  0.00     0.072 C 
HETATM   19  C6  UNL     1       7.406  17.765 -37.229  1.00  0.00     0.237 C 
HETATM   20  N1  UNL     1       6.861  19.031 -37.615  1.00  0.00    -0.051 N 
HETATM   21  C7  UNL     1       6.429  19.843 -36.522  1.00  0.00     0.464 C 
ATOM     22  H12 UNL     1       7.524  19.542 -38.199  1.00  0.00     0.279 HD
ATOM     23  H11 UNL     1       6.103  18.904 -38.286  1.00  0.00     0.279 HD
HETATM   24  N2  UNL     1       5.599  19.132 -35.586  1.00  0.00    -0.038 N 
ATOM     25  H22 UNL     1       4.723  18.816 -36.001  1.00  0.00     0.280 HD
ATOM     26  H21 UNL     1       5.202  19.742 -34.872  1.00  0.00     0.280 HD
ENDBRANCH  16  17
ENDBRANCH   3  16
TORSDOF 2
ENDMDL
MODEL 2
REMARK VINA RESULT: -7.850624866      0.946      1.162
REMARK  2 active torsions:
REMARK  status: ('A' for Active; 'I' for Inactive)
REMARK    1  A    between atoms: C3_3  and  S1_4 
REMARK    2  A    between atoms: S1_4  and  C4_5 
ROOT
HETATM    1  C1  UNL     1       3.350  16.515 -35.928  1.00  0.00     0.021 C 
HETATM    2  C2  UNL     1       3.510  15.748 -34.883  1.00  0.00    -0.042 C 
HETATM    3  C3  UNL     1       4.722  15.816 -34.100  1.00  0.00     0.011 C 
HETATM    4  C8  UNL     1       5.131  14.662 -33.611  1.00  0.00    -0.066 C 
HETATM    5  C9  UNL     1       6.391  14.674 -32.786  1.00  0.00     0.044 C 
HETATM    6  C10 UNL     1       4.444  13.423 -33.832  1.00  0.00     0.041 C 
HETATM    7  C11 UNL     1       2.983  13.423 -34.188  1.00  0.00     0.010 C 
HETATM    8  C12 UNL     1       2.618  12.274 -35.084  1.00  0.00    -0.043 C 
HETATM    9  C13 UNL     1       2.420  10.999 -34.216  1.00  0.00     0.015 C 
HETATM   10  C14 UNL     1       3.776  11.867 -35.995  1.00  0.00     0.015 C 
HETATM   11  C15 UNL     1       1.429  12.376 -35.955  1.00  0.00     0.009 C 
HETATM   12  C16 UNL     1       0.547  13.493 -35.483  1.00  0.00     0.002 C 
HETATM   13  C17 UNL     1       1.409  14.754 -35.611  1.00  0.00     0.014 C 
HETATM   14  C18 UNL     1       2.444  14.760 -34.526  1.00  0.00    -0.012 C 
HETATM   15  C19 UNL     1       1.738  15.354 -33.314  1.00  0.00     0.021 C 
ENDROOT
BRANCH   3  16
HETATM   16  S1  UNL     1       5.585  17.282 -33.753  1.00  0.00    -0.096 SA
BRANCH  16  17
HETATM   17  C4  UNL     1       6.534  18.059 -35.022  1.00  0.00     0.255 C 
HETATM   18  C5  UNL     1       7.971  18.302 -34.529  1.00  0.00     0.072 C 
HETATM   19  C6  UNL     1       8.733  18.936 -35.670  1.00  0.00     0.237 C 
HETATM   20  N1  UNL     1       8.711  18.126 -36.850  1.00  0.00    -0.051 N 
HETATM   21  C7  UNL     1       7.420  17.618 -37.191  1.00  0.00     0.464 C 
ATOM     22  H12 UNL     1       9.115  18.633 -37.639  1.00  0.00     0.279 HD
ATOM     23  H11 UNL     1       9.384  17.363 -36.772  1.00  0.00     0.279 HD
HETATM   24  N2  UNL     1       6.741  17.012 -36.077  1.00  0.00    -0.038 N 
ATOM     25  H22 UNL     1       7.227  16.189 -35.722  1.00  0.00     0.280 HD
ATOM     26  H21 UNL     1       5.872  16.553 -36.349  1.00  0.00     0.280 HD
ENDBRANCH  16  17
ENDBRANCH   3  16
TORSDOF 2
ENDMDL
MODEL 3
REMARK VINA RESULT: -7.562422102      2.679      6.319
REMARK  2 active torsions:
REMARK  status: ('A' for Active; 'I' for Inactive)
REMARK    1  A    between atoms: C3_3  and  S1_4 
REMARK    2  A    between atoms: S1_4  and  C4_5 
ROOT
HETATM    1  C1  UNL     1       2.999  17.980 -33.909  1.00  0.00     0.021 C 
HETATM    2  C2  UNL     1       3.767  17.225 -34.647  1.00  0.00    -0.042 C 
HETATM    3  C3  UNL     1       3.864  15.805 -34.396  1.00  0.00     0.011 C 
HETATM    4  C8  UNL     1       5.058  15.286 -34.602  1.00  0.00    -0.066 C 
HETATM    5  C9  UNL     1       5.216  13.809 -34.355  1.00  0.00     0.044 C 
HETATM    6  C10 UNL     1       6.188  16.054 -35.036  1.00  0.00     0.041 C 
HETATM    7  C11 UNL     1       5.984  17.357 -35.760  1.00  0.00     0.010 C 
HETATM    8  C12 UNL     1       7.079  18.342 -35.475  1.00  0.00    -0.043 C 
HETATM    9  C13 UNL     1       8.302  18.017 -36.379  1.00  0.00     0.015 C 
HETATM   10  C14 UNL     1       7.660  18.164 -34.072  1.00  0.00     0.015 C 
HETATM   11  C15 UNL     1       6.819  19.789 -35.627  1.00  0.00     0.009 C 
HETATM   12  C16 UNL     1       5.581  19.998 -36.448  1.00  0.00     0.002 C 
HETATM   13  C17 UNL     1       4.459  19.340 -35.638  1.00  0.00     0.014 C 
HETATM   14  C18 UNL     1       4.587  17.848 -35.733  1.00  0.00    -0.012 C 
HETATM   15  C19 UNL     1       3.883  17.477 -37.031  1.00  0.00     0.021 C 
ENDROOT
BRANCH   3  16
HETATM   16  S1  UNL     1       2.533  14.802 -33.911  1.00  0.00    -0.096 SA
BRANCH  16  17
HETATM   17  C4  UNL     1       1.547  14.003 -35.136  1.00  0.00     0.255 C 
HETATM   18  C5  UNL     1       0.139  13.727 -34.581  1.00  0.00     0.072 C 
HETATM   19  C6  UNL     1      -0.657  13.076 -35.688  1.00  0.00     0.237 C 
HETATM   20  N1  UNL     1      -0.706  13.886 -36.868  1.00  0.00    -0.051 N 
HETATM   21  C7  UNL     1       0.557  14.423 -37.264  1.00  0.00     0.464 C 
ATOM     22  H12 UNL     1      -1.132  13.369 -37.638  1.00  0.00     0.279 HD
ATOM     23  H11 UNL     1      -1.393  14.633 -36.760  1.00  0.00     0.279 HD
HETATM   24  N2  UNL     1       1.270  15.045 -36.181  1.00  0.00    -0.038 N 
ATOM     25  H22 UNL     1       0.781  15.857 -35.804  1.00  0.00     0.280 HD
ATOM     26  H21 UNL     1       2.115  15.524 -36.491  1.00  0.00     0.280 HD
ENDBRANCH  16  17
ENDBRANCH   3  16
TORSDOF 2
ENDMDL
MODEL 4
REMARK VINA RESULT: -7.314584778      3.439      6.689
REMARK  2 active torsions:
REMARK  status: ('A' for Active; 'I' for Inactive)
REMARK    1  A    between atoms: C3_3  and  S1_4 
REMARK    2  A    between atoms: S1_4  and  C4_5 
ROOT
HETATM    1  C1  UNL     1       5.653  13.759 -33.441  1.00  0.00     0.021 C 
HETATM    2  C2  UNL     1       4.815  14.699 -33.785  1.00  0.00    -0.042 C 
HETATM    3  C3  UNL     1       3.634  14.386 -34.557  1.00  0.00     0.011 C 
HETATM    4  C8  UNL     1       3.284  15.307 -35.432  1.00  0.00    -0.066 C 
HETATM    5  C9  UNL     1       2.059  15.033 -36.265  1.00  0.00     0.044 C 
HETATM    6  C10 UNL     1       4.009  16.529 -35.625  1.00  0.00     0.041 C 
HETATM    7  C11 UNL     1       4.886  17.069 -34.528  1.00  0.00     0.010 C 
HETATM    8  C12 UNL     1       6.075  17.810 -35.066  1.00  0.00    -0.043 C 
HETATM    9  C13 UNL     1       5.641  19.254 -35.446  1.00  0.00     0.015 C 
HETATM   10  C14 UNL     1       6.541  17.250 -36.410  1.00  0.00     0.015 C 
HETATM   11  C15 UNL     1       7.291  17.943 -34.236  1.00  0.00     0.009 C 
HETATM   12  C16 UNL     1       6.963  17.640 -32.804  1.00  0.00     0.002 C 
HETATM   13  C17 UNL     1       6.482  16.185 -32.812  1.00  0.00     0.014 C 
HETATM   14  C18 UNL     1       5.110  16.119 -33.414  1.00  0.00    -0.012 C 
HETATM   15  C19 UNL     1       4.162  16.437 -32.265  1.00  0.00     0.021 C 
ENDROOT
BRANCH   3  16
HETATM   16  S1  UNL     1       2.681  12.950 -34.352  1.00  0.00    -0.096 SA
BRANCH  16  17
HETATM   17  C4  UNL     1       2.980  11.549 -35.381  1.00  0.00     0.255 C 
HETATM   18  C5  UNL     1       4.426  11.058 -35.194  1.00  0.00     0.072 C 
HETATM   19  C6  UNL     1       4.602   9.841 -36.074  1.00  0.00     0.237 C 
HETATM   20  N1  UNL     1       3.653   8.813 -35.771  1.00  0.00    -0.051 N 
HETATM   21  C7  UNL     1       2.308   9.275 -35.637  1.00  0.00     0.464 C 
ATOM     22  H12 UNL     1       3.706   8.064 -36.463  1.00  0.00     0.279 HD
ATOM     23  H11 UNL     1       3.938   8.299 -34.937  1.00  0.00     0.279 HD
HETATM   24  N2  UNL     1       2.190  10.423 -34.778  1.00  0.00    -0.038 N 
ATOM     25  H22 UNL     1       2.463  10.223 -33.817  1.00  0.00     0.280 HD
ATOM     26  H21 UNL     1       1.220  10.679 -34.597  1.00  0.00     0.280 HD
ENDBRANCH  16  17
ENDBRANCH   3  16
TORSDOF 2
ENDMDL
MODEL 5
REMARK VINA RESULT: -7.307093700      3.248      6.580
REMARK  2 active torsions:
REMARK  status: ('A' for Active; 'I' for Inactive)
REMARK    1  A    between atoms: C3_3  and  S1_4 
REMARK    2  A    between atoms: S1_4  and  C4_5 
ROOT
HETATM    1  C1  UNL     1       5.326  13.604 -33.479  1.00  0.00     0.021 C 
HETATM    2  C2  UNL     1       4.493  14.543 -33.839  1.00  0.00    -0.042 C 
HETATM    3  C3  UNL     1       3.337  14.231 -34.649  1.00  0.00     0.011 C 
HETATM    4  C8  UNL     1       3.008  15.158 -35.525  1.00  0.00    -0.066 C 
HETATM    5  C9  UNL     1       1.810  14.885 -36.397  1.00  0.00     0.044 C 
HETATM    6  C10 UNL     1       3.730  16.387 -35.684  1.00  0.00     0.041 C 
HETATM    7  C11 UNL     1       4.571  16.920 -34.556  1.00  0.00     0.010 C 
HETATM    8  C12 UNL     1       5.771  17.674 -35.051  1.00  0.00    -0.043 C 
HETATM    9  C13 UNL     1       5.340  19.119 -35.429  1.00  0.00     0.015 C 
HETATM   10  C14 UNL     1       6.280  17.130 -36.386  1.00  0.00     0.015 C 
HETATM   11  C15 UNL     1       6.960  17.805 -34.184  1.00  0.00     0.009 C 
HETATM   12  C16 UNL     1       6.592  17.486 -32.766  1.00  0.00     0.002 C 
HETATM   13  C17 UNL     1       6.121  16.028 -32.802  1.00  0.00     0.014 C 
HETATM   14  C18 UNL     1       4.767  15.960 -33.445  1.00  0.00    -0.012 C 
HETATM   15  C19 UNL     1       3.784  16.261 -32.322  1.00  0.00     0.021 C 
ENDROOT
BRANCH   3  16
HETATM   16  S1  UNL     1       2.388  12.786 -34.487  1.00  0.00    -0.096 SA
BRANCH  16  17
HETATM   17  C4  UNL     1       3.131  11.214 -34.781  1.00  0.00     0.255 C 
HETATM   18  C5  UNL     1       2.072  10.218 -35.283  1.00  0.00     0.072 C 
HETATM   19  C6  UNL     1       2.779   8.908 -35.546  1.00  0.00     0.237 C 
HETATM   20  N1  UNL     1       3.853   9.052 -36.483  1.00  0.00    -0.051 N 
HETATM   21  C7  UNL     1       4.711  10.165 -36.225  1.00  0.00     0.464 C 
ATOM     22  H12 UNL     1       4.395   8.189 -36.540  1.00  0.00     0.279 HD
ATOM     23  H11 UNL     1       3.492   9.094 -37.436  1.00  0.00     0.279 HD
HETATM   24  N2  UNL     1       3.993  11.390 -35.997  1.00  0.00    -0.038 N 
ATOM     25  H22 UNL     1       3.462  11.691 -36.814  1.00  0.00     0.280 HD
ATOM     26  H21 UNL     1       4.609  12.199 -35.927  1.00  0.00     0.280 HD
ENDBRANCH  16  17
ENDBRANCH   3  16
TORSDOF 2
ENDMDL
