MODEL 1
REMARK VINA RESULT: -8.262002910      0.000      0.000
REMARK  7 active torsions:
REMARK  status: ('A' for Active; 'I' for Inactive)
REMARK    1  A    between atoms: N1_10  and  C10_11 
REMARK    2  A    between atoms: C10_11  and  C11_12 
REMARK    3  A    between atoms: C11_12  and  C12_13 
REMARK    4  A    between atoms: C12_13  and  N2_14 
REMARK    5  A    between atoms: N2_14  and  C13_15 
REMARK    6  A    between atoms: N2_14  and  C15_17 
REMARK    7  A    between atoms: C24_26  and  O1_27 
ROOT
HETATM    1  C1  UNL     1     -12.642   6.951 -15.309  1.00  0.00     0.017 C 
HETATM    2  C2  UNL     1     -12.803   5.655 -15.216  1.00  0.00    -0.054 C 
HETATM    3  C3  UNL     1     -13.886   4.882 -15.918  1.00  0.00     0.039 C 
HETATM    4  C4  UNL     1     -13.558   4.397 -17.263  1.00  0.00     0.039 C 
HETATM    5  C5  UNL     1     -14.016   2.950 -17.572  1.00  0.00     0.050 C 
HETATM    6  C6  UNL     1     -15.534   3.055 -17.567  1.00  0.00     0.035 C 
HETATM    7  C7  UNL     1     -16.202   3.553 -18.756  1.00  0.00     0.004 C 
HETATM    8  C8  UNL     1     -15.432   3.869 -19.984  1.00  0.00     0.020 C 
HETATM    9  C9  UNL     1     -13.956   3.594 -19.880  1.00  0.00     0.123 C 
HETATM   10  N1  UNL     1     -13.642   2.604 -18.885  1.00  0.00    -0.381 N 
HETATM   11  C17 UNL     1     -13.645   1.976 -16.530  1.00  0.00     0.000 C 
HETATM   12  C18 UNL     1     -12.297   1.516 -16.281  1.00  0.00    -0.028 C 
HETATM   13  C19 UNL     1     -11.109   2.234 -16.772  1.00  0.00     0.032 C 
HETATM   14  C20 UNL     1     -10.550   3.251 -15.843  1.00  0.00    -0.003 C 
HETATM   15  C21 UNL     1     -11.292   3.968 -15.210  1.00  0.00     0.036 A 
HETATM   16  C22 UNL     1     -10.427   4.866 -14.440  1.00  0.00     0.033 A 
HETATM   17  C23 UNL     1      -9.455   3.885 -15.052  1.00  0.00     0.014 C 
HETATM   18  C24 UNL     1     -11.865   4.871 -14.363  1.00  0.00     0.089 A 
ENDROOT
BRANCH  10  19
HETATM   19  C10 UNL     1     -13.589   1.296 -19.334  1.00  0.00     0.061 C 
BRANCH  19  20
HETATM   20  C11 UNL     1     -12.977   0.978 -20.672  1.00  0.00     0.074 C 
BRANCH  20  21
HETATM   21  C12 UNL     1     -11.454   0.886 -20.423  1.00  0.00     0.277 C 
BRANCH  21  22
HETATM   22  N2  UNL     1     -10.761   0.333 -21.551  1.00  0.00     0.088 N 
BRANCH  22  23
HETATM   23  C13 UNL     1     -11.635  -0.247 -22.529  1.00  0.00     0.268 C 
HETATM   24  C14 UNL     1     -10.890  -0.364 -23.838  1.00  0.00     0.037 C 
ENDBRANCH  22  23
BRANCH  22  25
HETATM   25  C15 UNL     1      -9.625  -0.462 -21.225  1.00  0.00     0.268 C 
HETATM   26  C16 UNL     1      -8.343   0.358 -21.199  1.00  0.00     0.037 C 
ENDBRANCH  22  25
ENDBRANCH  21  22
ENDBRANCH  20  21
ENDBRANCH  19  20
ENDBRANCH  10  19
BRANCH  18  27
HETATM   27  O1  UNL     1     -12.383   4.568 -13.071  1.00  0.00    -0.384 OA
ATOM     28  H1  UNL     1     -11.723   4.560 -12.388  1.00  0.00     0.211 HD
ENDBRANCH  18  27
TORSDOF 7
ENDMDL
MODEL 2
REMARK VINA RESULT: -8.254966863      0.440      1.299
REMARK  7 active torsions:
REMARK  status: ('A' for Active; 'I' for Inactive)
REMARK    1  A    between atoms: N1_10  and  C10_11 
REMARK    2  A    between atoms: C10_11  and  C11_12 
REMARK    3  A    between atoms: C11_12  and  C12_13 
REMARK    4  A    between atoms: C12_13  and  N2_14 
REMARK    5  A    between atoms: N2_14  and  C13_15 
REMARK    6  A    between atoms: N2_14  and  C15_17 
REMARK    7  A    between atoms: C24_26  and  O1_27 
ROOT
HETATM    1  C1  UNL     1     -12.691   6.773 -15.269  1.00  0.00     0.017 C 
HETATM    2  C2  UNL     1     -12.813   5.470 -15.259  1.00  0.00    -0.054 C 
HETATM    3  C3  UNL     1     -13.937   4.718 -15.916  1.00  0.00     0.039 C 
HETATM    4  C4  UNL     1     -13.724   4.341 -17.317  1.00  0.00     0.039 C 
HETATM    5  C5  UNL     1     -14.175   2.907 -17.691  1.00  0.00     0.050 C 
HETATM    6  C6  UNL     1     -15.688   2.967 -17.542  1.00  0.00     0.035 C 
HETATM    7  C7  UNL     1     -16.474   3.529 -18.626  1.00  0.00     0.004 C 
HETATM    8  C8  UNL     1     -15.827   3.956 -19.891  1.00  0.00     0.020 C 
HETATM    9  C9  UNL     1     -14.342   3.717 -19.940  1.00  0.00     0.123 C 
HETATM   10  N1  UNL     1     -13.915   2.668 -19.055  1.00  0.00    -0.381 N 
HETATM   11  C17 UNL     1     -13.688   1.871 -16.762  1.00  0.00     0.000 C 
HETATM   12  C18 UNL     1     -12.313   1.435 -16.670  1.00  0.00    -0.028 C 
HETATM   13  C19 UNL     1     -11.191   2.221 -17.211  1.00  0.00     0.032 C 
HETATM   14  C20 UNL     1     -10.573   3.184 -16.263  1.00  0.00    -0.003 C 
HETATM   15  C21 UNL     1     -11.270   3.832 -15.514  1.00  0.00     0.036 A 
HETATM   16  C22 UNL     1     -10.358   4.697 -14.760  1.00  0.00     0.033 A 
HETATM   17  C23 UNL     1      -9.425   3.792 -15.528  1.00  0.00     0.014 C 
HETATM   18  C24 UNL     1     -11.784   4.654 -14.553  1.00  0.00     0.089 A 
ENDROOT
BRANCH  10  19
HETATM   19  C10 UNL     1     -13.874   1.398 -19.603  1.00  0.00     0.061 C 
BRANCH  19  20
HETATM   20  C11 UNL     1     -13.262   1.178 -20.961  1.00  0.00     0.074 C 
BRANCH  20  21
HETATM   21  C12 UNL     1     -11.768   0.877 -20.701  1.00  0.00     0.277 C 
BRANCH  21  22
HETATM   22  N2  UNL     1     -11.245  -0.078 -21.635  1.00  0.00     0.088 N 
BRANCH  22  23
HETATM   23  C13 UNL     1      -9.816  -0.035 -21.756  1.00  0.00     0.268 C 
HETATM   24  C14 UNL     1      -9.255   0.761 -20.601  1.00  0.00     0.037 C 
ENDBRANCH  22  23
BRANCH  22  25
HETATM   25  C15 UNL     1     -11.943  -0.146 -22.875  1.00  0.00     0.268 C 
HETATM   26  C16 UNL     1     -11.022  -0.515 -24.029  1.00  0.00     0.037 C 
ENDBRANCH  22  25
ENDBRANCH  21  22
ENDBRANCH  20  21
ENDBRANCH  19  20
ENDBRANCH  10  19
BRANCH  18  27
HETATM   27  O1  UNL     1     -12.173   4.244 -13.247  1.00  0.00    -0.384 OA
ATOM     28  H1  UNL     1     -12.395   3.322 -13.187  1.00  0.00     0.211 HD
ENDBRANCH  18  27
TORSDOF 7
ENDMDL
MODEL 3
REMARK VINA RESULT: -7.635563152      3.154      6.897
REMARK  7 active torsions:
REMARK  status: ('A' for Active; 'I' for Inactive)
REMARK    1  A    between atoms: N1_10  and  C10_11 
REMARK    2  A    between atoms: C10_11  and  C11_12 
REMARK    3  A    between atoms: C11_12  and  C12_13 
REMARK    4  A    between atoms: C12_13  and  N2_14 
REMARK    5  A    between atoms: N2_14  and  C13_15 
REMARK    6  A    between atoms: N2_14  and  C15_17 
REMARK    7  A    between atoms: C24_26  and  O1_27 
ROOT
HETATM    1  C1  UNL     1     -16.314   2.906 -18.140  1.00  0.00     0.017 C 
HETATM    2  C2  UNL     1     -15.128   3.382 -18.424  1.00  0.00    -0.054 C 
HETATM    3  C3  UNL     1     -14.359   4.326 -17.542  1.00  0.00     0.039 C 
HETATM    4  C4  UNL     1     -13.488   3.701 -16.540  1.00  0.00     0.039 C 
HETATM    5  C5  UNL     1     -12.092   4.353 -16.380  1.00  0.00     0.050 C 
HETATM    6  C6  UNL     1     -12.412   5.724 -15.801  1.00  0.00     0.035 C 
HETATM    7  C7  UNL     1     -12.662   5.838 -14.375  1.00  0.00     0.004 C 
HETATM    8  C8  UNL     1     -12.523   4.661 -13.483  1.00  0.00     0.020 C 
HETATM    9  C9  UNL     1     -12.077   3.403 -14.179  1.00  0.00     0.123 C 
HETATM   10  N1  UNL     1     -11.356   3.664 -15.396  1.00  0.00    -0.381 N 
HETATM   11  C17 UNL     1     -11.391   4.574 -17.657  1.00  0.00     0.000 C 
HETATM   12  C18 UNL     1     -10.827   3.523 -18.474  1.00  0.00    -0.028 C 
HETATM   13  C19 UNL     1     -11.208   2.109 -18.325  1.00  0.00     0.032 C 
HETATM   14  C20 UNL     1     -12.346   1.663 -19.170  1.00  0.00    -0.003 C 
HETATM   15  C21 UNL     1     -13.306   2.384 -19.327  1.00  0.00     0.036 A 
HETATM   16  C22 UNL     1     -14.244   1.633 -20.166  1.00  0.00     0.033 A 
HETATM   17  C23 UNL     1     -13.006   0.769 -20.167  1.00  0.00     0.014 C 
HETATM   18  C24 UNL     1     -14.476   2.978 -19.702  1.00  0.00     0.089 A 
ENDROOT
BRANCH  10  19
HETATM   19  C10 UNL     1      -9.982   3.771 -15.270  1.00  0.00     0.061 C 
BRANCH  19  20
HETATM   20  C11 UNL     1      -9.320   3.514 -13.942  1.00  0.00     0.074 C 
BRANCH  20  21
HETATM   21  C12 UNL     1      -7.949   4.227 -14.015  1.00  0.00     0.277 C 
BRANCH  21  22
HETATM   22  N2  UNL     1      -6.939   3.515 -13.286  1.00  0.00     0.088 N 
BRANCH  22  23
HETATM   23  C13 UNL     1      -7.341   3.157 -11.956  1.00  0.00     0.268 C 
HETATM   24  C14 UNL     1      -6.240   3.541 -10.996  1.00  0.00     0.037 C 
ENDBRANCH  22  23
BRANCH  22  25
HETATM   25  C15 UNL     1      -5.630   4.069 -13.382  1.00  0.00     0.268 C 
HETATM   26  C16 UNL     1      -5.530   5.105 -14.492  1.00  0.00     0.037 C 
ENDBRANCH  22  25
ENDBRANCH  21  22
ENDBRANCH  20  21
ENDBRANCH  19  20
ENDBRANCH  10  19
BRANCH  18  27
HETATM   27  O1  UNL     1     -14.609   3.940 -20.743  1.00  0.00    -0.384 OA
ATOM     28  H1  UNL     1     -13.780   4.292 -21.046  1.00  0.00     0.211 HD
ENDBRANCH  18  27
TORSDOF 7
ENDMDL
MODEL 4
REMARK VINA RESULT: -7.578043349      3.122      6.829
REMARK  7 active torsions:
REMARK  status: ('A' for Active; 'I' for Inactive)
REMARK    1  A    between atoms: N1_10  and  C10_11 
REMARK    2  A    between atoms: C10_11  and  C11_12 
REMARK    3  A    between atoms: C11_12  and  C12_13 
REMARK    4  A    between atoms: C12_13  and  N2_14 
REMARK    5  A    between atoms: N2_14  and  C13_15 
REMARK    6  A    between atoms: N2_14  and  C15_17 
REMARK    7  A    between atoms: C24_26  and  O1_27 
ROOT
HETATM    1  C1  UNL     1     -16.379   2.947 -18.219  1.00  0.00     0.017 C 
HETATM    2  C2  UNL     1     -15.188   3.414 -18.493  1.00  0.00    -0.054 C 
HETATM    3  C3  UNL     1     -14.424   4.363 -17.611  1.00  0.00     0.039 C 
HETATM    4  C4  UNL     1     -13.568   3.744 -16.593  1.00  0.00     0.039 C 
HETATM    5  C5  UNL     1     -12.172   4.391 -16.422  1.00  0.00     0.050 C 
HETATM    6  C6  UNL     1     -12.491   5.768 -15.860  1.00  0.00     0.035 C 
HETATM    7  C7  UNL     1     -12.758   5.896 -14.438  1.00  0.00     0.004 C 
HETATM    8  C8  UNL     1     -12.635   4.727 -13.533  1.00  0.00     0.020 C 
HETATM    9  C9  UNL     1     -12.187   3.461 -14.213  1.00  0.00     0.123 C 
HETATM   10  N1  UNL     1     -11.450   3.707 -15.423  1.00  0.00    -0.381 N 
HETATM   11  C17 UNL     1     -11.454   4.597 -17.693  1.00  0.00     0.000 C 
HETATM   12  C18 UNL     1     -10.885   3.536 -18.493  1.00  0.00    -0.028 C 
HETATM   13  C19 UNL     1     -11.275   2.124 -18.336  1.00  0.00     0.032 C 
HETATM   14  C20 UNL     1     -12.405   1.677 -19.191  1.00  0.00    -0.003 C 
HETATM   15  C21 UNL     1     -13.359   2.400 -19.365  1.00  0.00     0.036 A 
HETATM   16  C22 UNL     1     -14.291   1.646 -20.208  1.00  0.00     0.033 A 
HETATM   17  C23 UNL     1     -13.057   0.776 -20.187  1.00  0.00     0.014 C 
HETATM   18  C24 UNL     1     -14.522   2.996 -19.760  1.00  0.00     0.089 A 
ENDROOT
BRANCH  10  19
HETATM   19  C10 UNL     1     -10.077   3.809 -15.282  1.00  0.00     0.061 C 
BRANCH  19  20
HETATM   20  C11 UNL     1      -9.400   3.270 -14.051  1.00  0.00     0.074 C 
BRANCH  20  21
HETATM   21  C12 UNL     1      -8.130   4.132 -13.861  1.00  0.00     0.277 C 
BRANCH  21  22
HETATM   22  N2  UNL     1      -7.266   3.595 -12.850  1.00  0.00     0.088 N 
BRANCH  22  23
HETATM   23  C13 UNL     1      -5.884   3.574 -13.232  1.00  0.00     0.268 C 
HETATM   24  C14 UNL     1      -5.619   4.736 -14.160  1.00  0.00     0.037 C 
ENDBRANCH  22  23
BRANCH  22  25
HETATM   25  C15 UNL     1      -7.732   2.394 -12.241  1.00  0.00     0.268 C 
HETATM   26  C16 UNL     1      -7.744   2.491 -10.723  1.00  0.00     0.037 C 
ENDBRANCH  22  25
ENDBRANCH  21  22
ENDBRANCH  20  21
ENDBRANCH  19  20
ENDBRANCH  10  19
BRANCH  18  27
HETATM   27  O1  UNL     1     -14.638   3.949 -20.811  1.00  0.00    -0.384 OA
ATOM     28  H1  UNL     1     -14.778   3.560 -21.666  1.00  0.00     0.211 HD
ENDBRANCH  18  27
TORSDOF 7
ENDMDL
MODEL 5
REMARK VINA RESULT: -7.571975188      1.102      1.586
REMARK  7 active torsions:
REMARK  status: ('A' for Active; 'I' for Inactive)
REMARK    1  A    between atoms: N1_10  and  C10_11 
REMARK    2  A    between atoms: C10_11  and  C11_12 
REMARK    3  A    between atoms: C11_12  and  C12_13 
REMARK    4  A    between atoms: C12_13  and  N2_14 
REMARK    5  A    between atoms: N2_14  and  C13_15 
REMARK    6  A    between atoms: N2_14  and  C15_17 
REMARK    7  A    between atoms: C24_26  and  O1_27 
ROOT
HETATM    1  C1  UNL     1     -12.072   7.180 -15.639  1.00  0.00     0.017 C 
HETATM    2  C2  UNL     1     -12.378   5.960 -15.279  1.00  0.00    -0.054 C 
HETATM    3  C3  UNL     1     -13.486   5.147 -15.891  1.00  0.00     0.039 C 
HETATM    4  C4  UNL     1     -13.119   4.340 -17.060  1.00  0.00     0.039 C 
HETATM    5  C5  UNL     1     -13.708   2.908 -17.084  1.00  0.00     0.050 C 
HETATM    6  C6  UNL     1     -15.202   3.147 -17.243  1.00  0.00     0.035 C 
HETATM    7  C7  UNL     1     -15.727   3.418 -18.570  1.00  0.00     0.004 C 
HETATM    8  C8  UNL     1     -14.843   3.376 -19.760  1.00  0.00     0.020 C 
HETATM    9  C9  UNL     1     -13.417   3.000 -19.461  1.00  0.00     0.123 C 
HETATM   10  N1  UNL     1     -13.282   2.239 -18.249  1.00  0.00    -0.381 N 
HETATM   11  C17 UNL     1     -13.518   2.168 -15.823  1.00  0.00     0.000 C 
HETATM   12  C18 UNL     1     -12.250   1.658 -15.356  1.00  0.00    -0.028 C 
HETATM   13  C19 UNL     1     -10.959   2.136 -15.880  1.00  0.00     0.032 C 
HETATM   14  C20 UNL     1     -10.360   3.284 -15.150  1.00  0.00    -0.003 C 
HETATM   15  C21 UNL     1     -11.062   4.190 -14.761  1.00  0.00     0.036 A 
HETATM   16  C22 UNL     1     -10.162   5.159 -14.131  1.00  0.00     0.033 A 
HETATM   17  C23 UNL     1      -9.261   3.981 -14.419  1.00  0.00     0.014 C 
HETATM   18  C24 UNL     1     -11.593   5.310 -14.190  1.00  0.00     0.089 A 
ENDROOT
BRANCH  10  19
HETATM   19  C10 UNL     1     -13.340   0.864 -18.392  1.00  0.00     0.061 C 
BRANCH  19  20
HETATM   20  C11 UNL     1     -12.511   0.176 -19.444  1.00  0.00     0.074 C 
BRANCH  20  21
HETATM   21  C12 UNL     1     -11.174  -0.182 -18.753  1.00  0.00     0.277 C 
BRANCH  21  22
HETATM   22  N2  UNL     1     -10.043   0.199 -19.548  1.00  0.00     0.088 N 
BRANCH  22  23
HETATM   23  C13 UNL     1     -10.146   1.525 -20.088  1.00  0.00     0.268 C 
HETATM   24  C14 UNL     1      -9.849   2.520 -18.991  1.00  0.00     0.037 C 
ENDBRANCH  22  23
BRANCH  22  25
HETATM   25  C15 UNL     1      -9.605  -0.787 -20.478  1.00  0.00     0.268 C 
HETATM   26  C16 UNL     1      -9.463  -0.223 -21.884  1.00  0.00     0.037 C 
ENDBRANCH  22  25
ENDBRANCH  21  22
ENDBRANCH  20  21
ENDBRANCH  19  20
ENDBRANCH  10  19
BRANCH  18  27
HETATM   27  O1  UNL     1     -12.230   5.357 -12.918  1.00  0.00    -0.384 OA
ATOM     28  H1  UNL     1     -11.927   4.689 -12.314  1.00  0.00     0.211 HD
ENDBRANCH  18  27
TORSDOF 7
ENDMDL
