MODEL 1
REMARK VINA RESULT: -7.862727569      0.000      0.000
REMARK  8 active torsions:
REMARK  status: ('A' for Active; 'I' for Inactive)
REMARK    1  A    between atoms: C2_2  and  C3_3 
REMARK    2  A    between atoms: C3_3  and  C4_4 
REMARK    3  A    between atoms: C4_4  and  C5_5 
REMARK    4  A    between atoms: C5_5  and  C6_6 
REMARK    5  A    between atoms: C6_6  and  C7_7 
REMARK    6  A    between atoms: C7_7  and  N1_8 
REMARK    7  A    between atoms: C10_11  and  C11_12 
REMARK    8  A    between atoms: C11_12  and  O2_14 
ROOT
HETATM    1  N1  UNL     1     -13.843   3.301 -17.938  1.00  0.00    -0.378 N 
HETATM    2  C8  UNL     1     -13.123   2.452 -18.865  1.00  0.00     0.016 C 
HETATM    3  C9  UNL     1     -13.610   2.150 -20.234  1.00  0.00     0.068 C 
HETATM    4  C10 UNL     1     -11.997   2.028 -18.259  1.00  0.00     0.045 C 
HETATM    5  C13 UNL     1     -11.994   2.598 -16.893  1.00  0.00     0.050 C 
HETATM    6  C14 UNL     1     -10.624   2.854 -16.421  1.00  0.00     0.014 C 
HETATM    7  C15 UNL     1     -10.417   2.518 -14.951  1.00  0.00     0.036 C 
HETATM    8  C16 UNL     1     -10.963   3.604 -14.045  1.00  0.00     0.225 A 
HETATM    9  C17 UNL     1     -12.451   3.293 -13.873  1.00  0.00     0.072 A 
HETATM   10  C18 UNL     1     -12.678   4.473 -14.620  1.00  0.00     0.231 A 
HETATM   11  C19 UNL     1     -13.180   4.658 -15.966  1.00  0.00     0.042 C 
HETATM   12  C20 UNL     1     -12.748   6.118 -16.277  1.00  0.00     0.010 C 
HETATM   13  C21 UNL     1     -12.165   6.841 -15.110  1.00  0.00     0.031 C 
HETATM   14  C22 UNL     1     -11.036   6.055 -14.424  1.00  0.00     0.273 C 
HETATM   15  N2  UNL     1     -11.235   4.718 -14.812  1.00  0.00     0.098 N 
HETATM   16  C23 UNL     1     -12.798   3.854 -17.107  1.00  0.00     0.099 C 
ENDROOT
BRANCH   1  17
HETATM   17  C7  UNL     1     -15.277   3.471 -17.972  1.00  0.00     0.123 C 
BRANCH  17  18
HETATM   18  C6  UNL     1     -16.044   2.579 -17.078  1.00  0.00     0.020 C 
BRANCH  18  19
HETATM   19  C5  UNL     1     -17.421   2.897 -16.708  1.00  0.00     0.002 C 
BRANCH  19  20
HETATM   20  C4  UNL     1     -18.463   3.296 -17.637  1.00  0.00     0.000 C 
BRANCH  20  21
HETATM   21  C3  UNL     1     -18.730   2.490 -18.836  1.00  0.00    -0.000 C 
BRANCH  21  22
HETATM   22  C2  UNL     1     -18.779   3.279 -20.116  1.00  0.00    -0.005 C 
HETATM   23  C1  UNL     1     -18.391   4.707 -19.766  1.00  0.00     0.005 C 
ENDBRANCH  21  22
ENDBRANCH  20  21
ENDBRANCH  19  20
ENDBRANCH  18  19
ENDBRANCH  17  18
ENDBRANCH   1  17
BRANCH   4  24
HETATM   24  C11 UNL     1     -11.054   1.148 -18.941  1.00  0.00     0.291 C 
HETATM   25  O1  UNL     1     -10.193   1.675 -19.725  1.00  0.00    -0.260 OA
BRANCH  24  26
HETATM   26  O2  UNL     1     -10.994  -0.215 -18.833  1.00  0.00    -0.323 OA
HETATM   27  C12 UNL     1     -11.743  -0.922 -17.873  1.00  0.00     0.213 C 
ENDBRANCH  24  26
ENDBRANCH   4  24
TORSDOF 8
ENDMDL
MODEL 2
REMARK VINA RESULT: -7.835008188      0.738      1.563
REMARK  8 active torsions:
REMARK  status: ('A' for Active; 'I' for Inactive)
REMARK    1  A    between atoms: C2_2  and  C3_3 
REMARK    2  A    between atoms: C3_3  and  C4_4 
REMARK    3  A    between atoms: C4_4  and  C5_5 
REMARK    4  A    between atoms: C5_5  and  C6_6 
REMARK    5  A    between atoms: C6_6  and  C7_7 
REMARK    6  A    between atoms: C7_7  and  N1_8 
REMARK    7  A    between atoms: C10_11  and  C11_12 
REMARK    8  A    between atoms: C11_12  and  O2_14 
ROOT
HETATM    1  N1  UNL     1     -13.745   2.939 -17.990  1.00  0.00    -0.378 N 
HETATM    2  C8  UNL     1     -12.972   2.129 -18.911  1.00  0.00     0.016 C 
HETATM    3  C9  UNL     1     -13.437   1.791 -20.279  1.00  0.00     0.068 C 
HETATM    4  C10 UNL     1     -11.826   1.775 -18.299  1.00  0.00     0.045 C 
HETATM    5  C13 UNL     1     -11.861   2.351 -16.937  1.00  0.00     0.050 C 
HETATM    6  C14 UNL     1     -10.509   2.690 -16.462  1.00  0.00     0.014 C 
HETATM    7  C15 UNL     1     -10.287   2.375 -14.990  1.00  0.00     0.036 C 
HETATM    8  C16 UNL     1     -10.899   3.431 -14.091  1.00  0.00     0.225 A 
HETATM    9  C17 UNL     1     -12.366   3.034 -13.922  1.00  0.00     0.072 A 
HETATM   10  C18 UNL     1     -12.660   4.195 -14.676  1.00  0.00     0.231 A 
HETATM   11  C19 UNL     1     -13.168   4.343 -16.024  1.00  0.00     0.042 C 
HETATM   12  C20 UNL     1     -12.822   5.824 -16.343  1.00  0.00     0.010 C 
HETATM   13  C21 UNL     1     -12.286   6.587 -15.178  1.00  0.00     0.031 C 
HETATM   14  C22 UNL     1     -11.115   5.872 -14.484  1.00  0.00     0.273 C 
HETATM   15  N2  UNL     1     -11.234   4.524 -14.865  1.00  0.00     0.098 N 
HETATM   16  C23 UNL     1     -12.736   3.557 -17.160  1.00  0.00     0.099 C 
ENDROOT
BRANCH   1  17
HETATM   17  C7  UNL     1     -15.186   3.023 -18.029  1.00  0.00     0.123 C 
BRANCH  17  18
HETATM   18  C6  UNL     1     -15.735   4.242 -18.658  1.00  0.00     0.020 C 
BRANCH  18  19
HETATM   19  C5  UNL     1     -16.577   4.153 -19.849  1.00  0.00     0.002 C 
BRANCH  19  20
HETATM   20  C4  UNL     1     -17.969   4.558 -19.919  1.00  0.00     0.000 C 
BRANCH  20  21
HETATM   21  C3  UNL     1     -19.032   3.543 -19.923  1.00  0.00    -0.000 C 
BRANCH  21  22
HETATM   22  C2  UNL     1     -18.803   2.400 -18.972  1.00  0.00    -0.005 C 
HETATM   23  C1  UNL     1     -19.107   2.923 -17.577  1.00  0.00     0.005 C 
ENDBRANCH  21  22
ENDBRANCH  20  21
ENDBRANCH  19  20
ENDBRANCH  18  19
ENDBRANCH  17  18
ENDBRANCH   1  17
BRANCH   4  24
HETATM   24  C11 UNL     1     -10.831   0.948 -18.974  1.00  0.00     0.291 C 
HETATM   25  O1  UNL     1     -10.780  -0.296 -18.684  1.00  0.00    -0.260 OA
BRANCH  24  26
HETATM   26  O2  UNL     1      -9.921   1.372 -19.903  1.00  0.00    -0.323 OA
HETATM   27  C12 UNL     1      -9.403   0.510 -20.890  1.00  0.00     0.213 C 
ENDBRANCH  24  26
ENDBRANCH   4  24
TORSDOF 8
ENDMDL
MODEL 3
REMARK VINA RESULT: -7.772673323      3.090      5.141
REMARK  8 active torsions:
REMARK  status: ('A' for Active; 'I' for Inactive)
REMARK    1  A    between atoms: C2_2  and  C3_3 
REMARK    2  A    between atoms: C3_3  and  C4_4 
REMARK    3  A    between atoms: C4_4  and  C5_5 
REMARK    4  A    between atoms: C5_5  and  C6_6 
REMARK    5  A    between atoms: C6_6  and  C7_7 
REMARK    6  A    between atoms: C7_7  and  N1_8 
REMARK    7  A    between atoms: C10_11  and  C11_12 
REMARK    8  A    between atoms: C11_12  and  O2_14 
ROOT
HETATM    1  N1  UNL     1     -13.696   2.542 -18.506  1.00  0.00    -0.378 N 
HETATM    2  C8  UNL     1     -14.149   1.989 -17.245  1.00  0.00     0.016 C 
HETATM    3  C9  UNL     1     -15.295   2.543 -16.482  1.00  0.00     0.068 C 
HETATM    4  C10 UNL     1     -13.360   0.941 -16.938  1.00  0.00     0.045 C 
HETATM    5  C13 UNL     1     -12.354   0.820 -18.017  1.00  0.00     0.050 C 
HETATM    6  C14 UNL     1     -11.955  -0.582 -18.224  1.00  0.00     0.014 C 
HETATM    7  C15 UNL     1     -10.469  -0.754 -18.502  1.00  0.00     0.036 C 
HETATM    8  C16 UNL     1     -10.123  -0.412 -19.938  1.00  0.00     0.225 A 
HETATM    9  C17 UNL     1      -9.921   1.104 -19.968  1.00  0.00     0.072 A 
HETATM   10  C18 UNL     1     -11.100   1.142 -20.750  1.00  0.00     0.231 A 
HETATM   11  C19 UNL     1     -12.427   1.628 -20.436  1.00  0.00     0.042 C 
HETATM   12  C20 UNL     1     -13.289   0.963 -21.544  1.00  0.00     0.010 C 
HETATM   13  C21 UNL     1     -12.495   0.247 -22.584  1.00  0.00     0.031 C 
HETATM   14  C22 UNL     1     -11.484  -0.745 -21.987  1.00  0.00     0.273 C 
HETATM   15  N2  UNL     1     -11.295  -0.318 -20.660  1.00  0.00     0.098 N 
HETATM   16  C23 UNL     1     -13.111   1.404 -19.180  1.00  0.00     0.099 C 
ENDROOT
BRANCH   1  17
HETATM   17  C7  UNL     1     -13.876   3.927 -18.872  1.00  0.00     0.123 C 
BRANCH  17  18
HETATM   18  C6  UNL     1     -14.887   4.182 -19.918  1.00  0.00     0.020 C 
BRANCH  18  19
HETATM   19  C5  UNL     1     -16.258   3.701 -19.767  1.00  0.00     0.002 C 
BRANCH  19  20
HETATM   20  C4  UNL     1     -17.432   4.547 -19.658  1.00  0.00     0.000 C 
BRANCH  20  21
HETATM   21  C3  UNL     1     -18.774   3.947 -19.636  1.00  0.00    -0.000 C 
BRANCH  21  22
HETATM   22  C2  UNL     1     -18.853   2.631 -18.910  1.00  0.00    -0.005 C 
HETATM   23  C1  UNL     1     -18.939   2.952 -17.427  1.00  0.00     0.005 C 
ENDBRANCH  21  22
ENDBRANCH  20  21
ENDBRANCH  19  20
ENDBRANCH  18  19
ENDBRANCH  17  18
ENDBRANCH   1  17
BRANCH   4  24
HETATM   24  C11 UNL     1     -13.565   0.170 -15.716  1.00  0.00     0.291 C 
HETATM   25  O1  UNL     1     -12.771   0.370 -14.735  1.00  0.00    -0.260 OA
BRANCH  24  26
HETATM   26  O2  UNL     1     -14.537  -0.769 -15.504  1.00  0.00    -0.323 OA
HETATM   27  C12 UNL     1     -14.367  -2.118 -15.874  1.00  0.00     0.213 C 
ENDBRANCH  24  26
ENDBRANCH   4  24
TORSDOF 8
ENDMDL
MODEL 4
REMARK VINA RESULT: -7.631393803      1.654      5.635
REMARK  8 active torsions:
REMARK  status: ('A' for Active; 'I' for Inactive)
REMARK    1  A    between atoms: C2_2  and  C3_3 
REMARK    2  A    between atoms: C3_3  and  C4_4 
REMARK    3  A    between atoms: C4_4  and  C5_5 
REMARK    4  A    between atoms: C5_5  and  C6_6 
REMARK    5  A    between atoms: C6_6  and  C7_7 
REMARK    6  A    between atoms: C7_7  and  N1_8 
REMARK    7  A    between atoms: C10_11  and  C11_12 
REMARK    8  A    between atoms: C11_12  and  O2_14 
ROOT
HETATM    1  N1  UNL     1     -13.000   1.963 -15.602  1.00  0.00    -0.378 N 
HETATM    2  C8  UNL     1     -12.286   0.707 -15.720  1.00  0.00     0.016 C 
HETATM    3  C9  UNL     1     -11.730  -0.022 -14.553  1.00  0.00     0.068 C 
HETATM    4  C10 UNL     1     -12.239   0.371 -17.024  1.00  0.00     0.045 C 
HETATM    5  C13 UNL     1     -12.922   1.446 -17.777  1.00  0.00     0.050 C 
HETATM    6  C14 UNL     1     -13.579   0.921 -18.985  1.00  0.00     0.014 C 
HETATM    7  C15 UNL     1     -13.458   1.842 -20.190  1.00  0.00     0.036 C 
HETATM    8  C16 UNL     1     -14.443   2.993 -20.119  1.00  0.00     0.225 A 
HETATM    9  C17 UNL     1     -13.765   4.069 -19.268  1.00  0.00     0.072 A 
HETATM   10  C18 UNL     1     -14.762   3.788 -18.304  1.00  0.00     0.231 A 
HETATM   11  C19 UNL     1     -14.673   3.138 -17.013  1.00  0.00     0.042 C 
HETATM   12  C20 UNL     1     -16.156   2.777 -16.726  1.00  0.00     0.010 C 
HETATM   13  C21 UNL     1     -17.121   3.337 -17.716  1.00  0.00     0.031 C 
HETATM   14  C22 UNL     1     -16.737   3.021 -19.170  1.00  0.00     0.273 C 
HETATM   15  N2  UNL     1     -15.363   2.721 -19.127  1.00  0.00     0.098 N 
HETATM   16  C23 UNL     1     -13.891   1.951 -16.740  1.00  0.00     0.099 C 
ENDROOT
BRANCH   1  17
HETATM   17  C7  UNL     1     -12.776   2.901 -14.527  1.00  0.00     0.123 C 
BRANCH  17  18
HETATM   18  C6  UNL     1     -11.574   3.748 -14.662  1.00  0.00     0.020 C 
BRANCH  18  19
HETATM   19  C5  UNL     1     -11.449   4.699 -15.765  1.00  0.00     0.002 C 
BRANCH  19  20
HETATM   20  C4  UNL     1     -12.340   5.818 -16.007  1.00  0.00     0.000 C 
BRANCH  20  21
HETATM   21  C3  UNL     1     -12.192   7.059 -15.233  1.00  0.00    -0.000 C 
BRANCH  21  22
HETATM   22  C2  UNL     1     -11.130   7.004 -14.170  1.00  0.00    -0.005 C 
HETATM   23  C1  UNL     1     -10.123   8.095 -14.498  1.00  0.00     0.005 C 
ENDBRANCH  21  22
ENDBRANCH  20  21
ENDBRANCH  19  20
ENDBRANCH  18  19
ENDBRANCH  17  18
ENDBRANCH   1  17
BRANCH   4  24
HETATM   24  C11 UNL     1     -11.579  -0.852 -17.468  1.00  0.00     0.291 C 
HETATM   25  O1  UNL     1     -10.520  -0.745 -18.175  1.00  0.00    -0.260 OA
BRANCH  24  26
HETATM   26  O2  UNL     1     -11.985  -2.132 -17.206  1.00  0.00    -0.323 OA
HETATM   27  C12 UNL     1     -13.346  -2.487 -17.144  1.00  0.00     0.213 C 
ENDBRANCH  24  26
ENDBRANCH   4  24
TORSDOF 8
ENDMDL
MODEL 5
REMARK VINA RESULT: -7.618188328      1.796      2.624
REMARK  8 active torsions:
REMARK  status: ('A' for Active; 'I' for Inactive)
REMARK    1  A    between atoms: C2_2  and  C3_3 
REMARK    2  A    between atoms: C3_3  and  C4_4 
REMARK    3  A    between atoms: C4_4  and  C5_5 
REMARK    4  A    between atoms: C5_5  and  C6_6 
REMARK    5  A    between atoms: C6_6  and  C7_7 
REMARK    6  A    between atoms: C7_7  and  N1_8 
REMARK    7  A    between atoms: C10_11  and  C11_12 
REMARK    8  A    between atoms: C11_12  and  O2_14 
ROOT
HETATM    1  N1  UNL     1     -11.781   2.853 -17.772  1.00  0.00    -0.378 N 
HETATM    2  C8  UNL     1     -11.806   1.598 -18.496  1.00  0.00     0.016 C 
HETATM    3  C9  UNL     1     -11.916   1.518 -19.974  1.00  0.00     0.068 C 
HETATM    4  C10 UNL     1     -11.713   0.594 -17.603  1.00  0.00     0.045 C 
HETATM    5  C13 UNL     1     -11.648   1.210 -16.259  1.00  0.00     0.050 C 
HETATM    6  C14 UNL     1     -10.846   0.394 -15.333  1.00  0.00     0.014 C 
HETATM    7  C15 UNL     1     -11.421   0.332 -13.925  1.00  0.00     0.036 C 
HETATM    8  C16 UNL     1     -11.110   1.589 -13.135  1.00  0.00     0.225 A 
HETATM    9  C17 UNL     1     -12.203   2.593 -13.504  1.00  0.00     0.072 A 
HETATM   10  C18 UNL     1     -11.173   3.322 -14.146  1.00  0.00     0.231 A 
HETATM   11  C19 UNL     1     -10.911   3.548 -15.552  1.00  0.00     0.042 C 
HETATM   12  C20 UNL     1      -9.430   4.020 -15.536  1.00  0.00     0.010 C 
HETATM   13  C21 UNL     1      -8.876   4.236 -14.167  1.00  0.00     0.031 C 
HETATM   14  C22 UNL     1      -9.092   3.031 -13.238  1.00  0.00     0.273 C 
HETATM   15  N2  UNL     1     -10.151   2.309 -13.818  1.00  0.00     0.098 N 
HETATM   16  C23 UNL     1     -11.019   2.539 -16.584  1.00  0.00     0.099 C 
ENDROOT
BRANCH   1  17
HETATM   17  C7  UNL     1     -12.405   4.060 -18.260  1.00  0.00     0.123 C 
BRANCH  17  18
HETATM   18  C6  UNL     1     -13.853   4.180 -17.994  1.00  0.00     0.020 C 
BRANCH  18  19
HETATM   19  C5  UNL     1     -14.831   3.908 -19.045  1.00  0.00     0.002 C 
BRANCH  19  20
HETATM   20  C4  UNL     1     -16.215   3.535 -18.820  1.00  0.00     0.000 C 
BRANCH  20  21
HETATM   21  C3  UNL     1     -17.300   4.377 -19.344  1.00  0.00    -0.000 C 
BRANCH  21  22
HETATM   22  C2  UNL     1     -18.674   3.983 -18.874  1.00  0.00    -0.005 C 
HETATM   23  C1  UNL     1     -18.484   3.123 -17.635  1.00  0.00     0.005 C 
ENDBRANCH  21  22
ENDBRANCH  20  21
ENDBRANCH  19  20
ENDBRANCH  18  19
ENDBRANCH  17  18
ENDBRANCH   1  17
BRANCH   4  24
HETATM   24  C11 UNL     1     -11.713  -0.801 -18.028  1.00  0.00     0.291 C 
HETATM   25  O1  UNL     1     -10.606  -1.319 -18.404  1.00  0.00    -0.260 OA
BRANCH  24  26
HETATM   26  O2  UNL     1     -12.797  -1.634 -18.073  1.00  0.00    -0.323 OA
HETATM   27  C12 UNL     1     -13.348  -2.209 -16.911  1.00  0.00     0.213 C 
ENDBRANCH  24  26
ENDBRANCH   4  24
TORSDOF 8
ENDMDL
