MODEL 1
REMARK VINA RESULT: -8.438933236      0.000      0.000
REMARK  8 active torsions:
REMARK  status: ('A' for Active; 'I' for Inactive)
REMARK    1  A    between atoms: C2_2  and  C3_3 
REMARK    2  A    between atoms: C3_3  and  N1_4 
REMARK    3  A    between atoms: N1_4  and  C4_5 
REMARK    4  A    between atoms: N1_4  and  C6_7 
REMARK    5  A    between atoms: C6_7  and  C7_8 
REMARK    6  A    between atoms: N2_13  and  C12_14 
REMARK    7  A    between atoms: C12_14  and  O1_15 
REMARK    8  A    between atoms: C12_14  and  C13_17 
ROOT
HETATM    1  C12 UNL     1     -12.969   1.171 -18.224  1.00  0.00     0.156 C 
ENDROOT
BRANCH   1   2
HETATM    2  N2  UNL     1     -13.132   2.424 -17.630  1.00  0.00    -0.354 N 
HETATM    3  C7  UNL     1     -13.557   3.576 -18.470  1.00  0.00     0.114 C 
HETATM    4  C8  UNL     1     -12.576   4.699 -18.072  1.00  0.00     0.027 C 
HETATM    5  C9  UNL     1     -12.913   5.128 -16.682  1.00  0.00     0.004 C 
HETATM    6  C10 UNL     1     -12.814   4.013 -15.734  1.00  0.00     0.020 C 
HETATM    7  C11 UNL     1     -12.848   2.621 -16.243  1.00  0.00     0.125 C 
BRANCH   3   8
HETATM    8  C6  UNL     1     -14.939   4.034 -18.158  1.00  0.00     0.297 C 
BRANCH   8   9
HETATM    9  N1  UNL     1     -15.962   3.011 -18.137  1.00  0.00     0.090 N 
BRANCH   9  10
HETATM   10  C3  UNL     1     -16.891   3.107 -19.194  1.00  0.00     0.272 C 
BRANCH  10  11
HETATM   11  C2  UNL     1     -17.242   4.444 -19.732  1.00  0.00     0.026 C 
HETATM   12  C1  UNL     1     -18.666   4.840 -19.749  1.00  0.00     0.007 C 
ENDBRANCH  10  11
ENDBRANCH   9  10
BRANCH   9  13
HETATM   13  C4  UNL     1     -16.486   2.797 -16.815  1.00  0.00     0.268 C 
HETATM   14  C5  UNL     1     -17.999   2.774 -16.881  1.00  0.00     0.037 C 
ENDBRANCH   9  13
ENDBRANCH   8   9
ENDBRANCH   3   8
ENDBRANCH   1   2
BRANCH   1  15
HETATM   15  O1  UNL     1     -13.321   0.126 -17.528  1.00  0.00    -0.345 OA
ATOM     16  H1  UNL     1     -12.847  -0.683 -17.684  1.00  0.00     0.219 HD
ENDBRANCH   1  15
BRANCH   1  17
HETATM   17  C13 UNL     1     -12.454   0.802 -19.540  1.00  0.00     0.056 A 
HETATM   18  C14 UNL     1     -13.029   0.666 -20.763  1.00  0.00     0.031 A 
HETATM   19  C15 UNL     1     -12.257   0.278 -21.810  1.00  0.00    -0.044 A 
HETATM   20  C16 UNL     1     -10.936   0.050 -21.554  1.00  0.00    -0.010 A 
HETATM   21  C22 UNL     1     -12.955   0.117 -23.159  1.00  0.00     0.040 C 
HETATM   22  S1  UNL     1     -10.803   0.375 -19.888  1.00  0.00    -0.090 SA
HETATM   23  C17 UNL     1      -9.693  -0.377 -22.295  1.00  0.00     0.046 C 
HETATM   24  C18 UNL     1      -9.851  -0.148 -23.743  1.00  0.00     0.005 C 
HETATM   25  C19 UNL     1     -10.643  -1.141 -24.496  1.00  0.00     0.000 C 
HETATM   26  C20 UNL     1     -11.625  -1.954 -23.728  1.00  0.00     0.000 C 
HETATM   27  C21 UNL     1     -12.973  -1.331 -23.583  1.00  0.00     0.005 C 
ENDBRANCH   1  17
TORSDOF 8
ENDMDL
MODEL 2
REMARK VINA RESULT: -8.427032453      1.639      2.802
REMARK  8 active torsions:
REMARK  status: ('A' for Active; 'I' for Inactive)
REMARK    1  A    between atoms: C2_2  and  C3_3 
REMARK    2  A    between atoms: C3_3  and  N1_4 
REMARK    3  A    between atoms: N1_4  and  C4_5 
REMARK    4  A    between atoms: N1_4  and  C6_7 
REMARK    5  A    between atoms: C6_7  and  C7_8 
REMARK    6  A    between atoms: N2_13  and  C12_14 
REMARK    7  A    between atoms: C12_14  and  O1_15 
REMARK    8  A    between atoms: C12_14  and  C13_17 
ROOT
HETATM    1  C12 UNL     1     -11.396   0.858 -18.466  1.00  0.00     0.156 C 
ENDROOT
BRANCH   1   2
HETATM    2  N2  UNL     1     -12.343   0.409 -17.545  1.00  0.00    -0.354 N 
HETATM    3  C7  UNL     1     -12.851   1.348 -16.508  1.00  0.00     0.114 C 
HETATM    4  C8  UNL     1     -12.758   0.534 -15.202  1.00  0.00     0.027 C 
HETATM    5  C9  UNL     1     -13.800  -0.534 -15.254  1.00  0.00     0.004 C 
HETATM    6  C10 UNL     1     -13.611  -1.416 -16.412  1.00  0.00     0.020 C 
HETATM    7  C11 UNL     1     -12.791  -0.949 -17.555  1.00  0.00     0.125 C 
BRANCH   3   8
HETATM    8  C6  UNL     1     -14.277   1.723 -16.723  1.00  0.00     0.297 C 
BRANCH   8   9
HETATM    9  N1  UNL     1     -14.526   3.095 -17.108  1.00  0.00     0.090 N 
BRANCH   9  10
HETATM   10  C3  UNL     1     -15.185   3.233 -18.347  1.00  0.00     0.272 C 
BRANCH  10  11
HETATM   11  C2  UNL     1     -16.642   3.509 -18.367  1.00  0.00     0.026 C 
HETATM   12  C1  UNL     1     -17.179   4.359 -19.451  1.00  0.00     0.007 C 
ENDBRANCH  10  11
ENDBRANCH   9  10
BRANCH   9  13
HETATM   13  C4  UNL     1     -13.387   3.939 -16.868  1.00  0.00     0.268 C 
HETATM   14  C5  UNL     1     -12.958   4.573 -18.176  1.00  0.00     0.037 C 
ENDBRANCH   9  13
ENDBRANCH   8   9
ENDBRANCH   3   8
ENDBRANCH   1   2
BRANCH   1  15
HETATM   15  O1  UNL     1     -10.530   1.743 -18.055  1.00  0.00    -0.345 OA
ATOM     16  H1  UNL     1     -10.790   2.657 -18.088  1.00  0.00     0.219 HD
ENDBRANCH   1  15
BRANCH   1  17
HETATM   17  C13 UNL     1     -11.188   0.504 -19.868  1.00  0.00     0.056 A 
HETATM   18  C14 UNL     1     -12.019   0.398 -20.937  1.00  0.00     0.031 A 
HETATM   19  C15 UNL     1     -11.501   0.016 -22.133  1.00  0.00    -0.044 A 
HETATM   20  C16 UNL     1     -10.161  -0.237 -22.175  1.00  0.00    -0.010 A 
HETATM   21  C22 UNL     1     -12.480  -0.111 -23.298  1.00  0.00     0.040 C 
HETATM   22  S1  UNL     1      -9.661   0.058 -20.574  1.00  0.00    -0.090 SA
HETATM   23  C17 UNL     1      -9.118  -0.670 -23.176  1.00  0.00     0.046 C 
HETATM   24  C18 UNL     1      -9.584  -0.413 -24.551  1.00  0.00     0.005 C 
HETATM   25  C19 UNL     1     -10.540  -1.381 -25.125  1.00  0.00     0.000 C 
HETATM   26  C20 UNL     1     -11.346  -2.192 -24.172  1.00  0.00     0.000 C 
HETATM   27  C21 UNL     1     -12.618  -1.550 -23.728  1.00  0.00     0.005 C 
ENDBRANCH   1  17
TORSDOF 8
ENDMDL
MODEL 3
REMARK VINA RESULT: -8.386388706      2.030      3.816
REMARK  8 active torsions:
REMARK  status: ('A' for Active; 'I' for Inactive)
REMARK    1  A    between atoms: C2_2  and  C3_3 
REMARK    2  A    between atoms: C3_3  and  N1_4 
REMARK    3  A    between atoms: N1_4  and  C4_5 
REMARK    4  A    between atoms: N1_4  and  C6_7 
REMARK    5  A    between atoms: C6_7  and  C7_8 
REMARK    6  A    between atoms: N2_13  and  C12_14 
REMARK    7  A    between atoms: C12_14  and  O1_15 
REMARK    8  A    between atoms: C12_14  and  C13_17 
ROOT
HETATM    1  C12 UNL     1     -11.334   1.636 -19.241  1.00  0.00     0.156 C 
ENDROOT
BRANCH   1   2
HETATM    2  N2  UNL     1     -12.358   2.315 -18.580  1.00  0.00    -0.354 N 
HETATM    3  C7  UNL     1     -13.601   1.581 -18.219  1.00  0.00     0.114 C 
HETATM    4  C8  UNL     1     -14.730   2.521 -18.690  1.00  0.00     0.027 C 
HETATM    5  C9  UNL     1     -14.742   3.709 -17.786  1.00  0.00     0.004 C 
HETATM    6  C10 UNL     1     -13.457   4.415 -17.805  1.00  0.00     0.020 C 
HETATM    7  C11 UNL     1     -12.247   3.711 -18.292  1.00  0.00     0.125 C 
BRANCH   3   8
HETATM    8  C6  UNL     1     -13.744   1.383 -16.750  1.00  0.00     0.297 C 
BRANCH   8   9
HETATM    9  N1  UNL     1     -13.267   0.122 -16.225  1.00  0.00     0.090 N 
BRANCH   9  10
HETATM   10  C3  UNL     1     -14.288  -0.815 -15.966  1.00  0.00     0.272 C 
BRANCH  10  11
HETATM   11  C2  UNL     1     -13.993  -2.263 -16.094  1.00  0.00     0.026 C 
HETATM   12  C1  UNL     1     -13.182  -2.713 -17.246  1.00  0.00     0.007 C 
ENDBRANCH  10  11
ENDBRANCH   9  10
BRANCH   9  13
HETATM   13  C4  UNL     1     -12.265   0.304 -15.209  1.00  0.00     0.268 C 
HETATM   14  C5  UNL     1     -10.925  -0.148 -15.751  1.00  0.00     0.037 C 
ENDBRANCH   9  13
ENDBRANCH   8   9
ENDBRANCH   3   8
ENDBRANCH   1   2
BRANCH   1  15
HETATM   15  O1  UNL     1     -10.168   1.591 -18.658  1.00  0.00    -0.345 OA
ATOM     16  H1  UNL     1      -9.533   0.970 -18.996  1.00  0.00     0.219 HD
ENDBRANCH   1  15
BRANCH   1  17
HETATM   17  C13 UNL     1     -11.329   0.936 -20.523  1.00  0.00     0.056 A 
HETATM   18  C14 UNL     1     -12.308   0.568 -21.390  1.00  0.00     0.031 A 
HETATM   19  C15 UNL     1     -11.965  -0.108 -22.516  1.00  0.00    -0.044 A 
HETATM   20  C16 UNL     1     -10.639  -0.373 -22.700  1.00  0.00    -0.010 A 
HETATM   21  C22 UNL     1     -13.104  -0.520 -23.446  1.00  0.00     0.040 C 
HETATM   22  S1  UNL     1      -9.913   0.314 -21.322  1.00  0.00    -0.090 SA
HETATM   23  C17 UNL     1      -9.746  -1.054 -23.708  1.00  0.00     0.046 C 
HETATM   24  C18 UNL     1     -10.422  -1.151 -25.014  1.00  0.00     0.005 C 
HETATM   25  C19 UNL     1     -11.422  -2.226 -25.172  1.00  0.00     0.000 C 
HETATM   26  C20 UNL     1     -12.048  -2.763 -23.933  1.00  0.00     0.000 C 
HETATM   27  C21 UNL     1     -13.258  -2.021 -23.474  1.00  0.00     0.005 C 
ENDBRANCH   1  17
TORSDOF 8
ENDMDL
MODEL 4
REMARK VINA RESULT: -8.366595868      1.677      2.076
REMARK  8 active torsions:
REMARK  status: ('A' for Active; 'I' for Inactive)
REMARK    1  A    between atoms: C2_2  and  C3_3 
REMARK    2  A    between atoms: C3_3  and  N1_4 
REMARK    3  A    between atoms: N1_4  and  C4_5 
REMARK    4  A    between atoms: N1_4  and  C6_7 
REMARK    5  A    between atoms: C6_7  and  C7_8 
REMARK    6  A    between atoms: N2_13  and  C12_14 
REMARK    7  A    between atoms: C12_14  and  O1_15 
REMARK    8  A    between atoms: C12_14  and  C13_17 
ROOT
HETATM    1  C12 UNL     1     -10.797   0.356 -18.342  1.00  0.00     0.156 C 
ENDROOT
BRANCH   1   2
HETATM    2  N2  UNL     1     -10.987   1.534 -17.617  1.00  0.00    -0.354 N 
HETATM    3  C7  UNL     1     -11.184   2.814 -18.351  1.00  0.00     0.114 C 
HETATM    4  C8  UNL     1     -10.224   3.792 -17.642  1.00  0.00     0.027 C 
HETATM    5  C9  UNL     1     -10.779   4.071 -16.284  1.00  0.00     0.004 C 
HETATM    6  C10 UNL     1     -10.919   2.842 -15.495  1.00  0.00     0.020 C 
HETATM    7  C11 UNL     1     -10.945   1.532 -16.188  1.00  0.00     0.125 C 
BRANCH   3   8
HETATM    8  C6  UNL     1     -12.570   3.343 -18.218  1.00  0.00     0.297 C 
BRANCH   8   9
HETATM    9  N1  UNL     1     -13.640   2.390 -18.414  1.00  0.00     0.090 N 
BRANCH   9  10
HETATM   10  C3  UNL     1     -14.330   2.543 -19.634  1.00  0.00     0.272 C 
BRANCH  10  11
HETATM   11  C2  UNL     1     -14.961   3.847 -19.951  1.00  0.00     0.026 C 
HETATM   12  C1  UNL     1     -16.415   3.994 -19.726  1.00  0.00     0.007 C 
ENDBRANCH  10  11
ENDBRANCH   9  10
BRANCH   9  13
HETATM   13  C4  UNL     1     -14.432   2.215 -17.225  1.00  0.00     0.268 C 
HETATM   14  C5  UNL     1     -14.369   3.484 -16.400  1.00  0.00     0.037 C 
ENDBRANCH   9  13
ENDBRANCH   8   9
ENDBRANCH   3   8
ENDBRANCH   1   2
BRANCH   1  15
HETATM   15  O1  UNL     1     -10.634  -0.747 -17.664  1.00  0.00    -0.345 OA
ATOM     16  H1  UNL     1     -11.252  -0.925 -16.964  1.00  0.00     0.219 HD
ENDBRANCH   1  15
BRANCH   1  17
HETATM   17  C13 UNL     1     -10.744   0.123 -19.783  1.00  0.00     0.056 A 
HETATM   18  C14 UNL     1     -11.681   0.141 -20.766  1.00  0.00     0.031 A 
HETATM   19  C15 UNL     1     -11.300  -0.148 -22.037  1.00  0.00    -0.044 A 
HETATM   20  C16 UNL     1      -9.983  -0.440 -22.238  1.00  0.00    -0.010 A 
HETATM   21  C22 UNL     1     -12.395  -0.138 -23.102  1.00  0.00     0.040 C 
HETATM   22  S1  UNL     1      -9.315  -0.307 -20.678  1.00  0.00    -0.090 SA
HETATM   23  C17 UNL     1      -9.063  -0.815 -23.374  1.00  0.00     0.046 C 
HETATM   24  C18 UNL     1      -9.652  -0.421 -24.667  1.00  0.00     0.005 C 
HETATM   25  C19 UNL     1     -10.700  -1.301 -25.221  1.00  0.00     0.000 C 
HETATM   26  C20 UNL     1     -11.440  -2.167 -24.264  1.00  0.00     0.000 C 
HETATM   27  C21 UNL     1     -12.634  -1.528 -23.639  1.00  0.00     0.005 C 
ENDBRANCH   1  17
TORSDOF 8
ENDMDL
MODEL 5
REMARK VINA RESULT: -8.344818207      1.820      3.773
REMARK  8 active torsions:
REMARK  status: ('A' for Active; 'I' for Inactive)
REMARK    1  A    between atoms: C2_2  and  C3_3 
REMARK    2  A    between atoms: C3_3  and  N1_4 
REMARK    3  A    between atoms: N1_4  and  C4_5 
REMARK    4  A    between atoms: N1_4  and  C6_7 
REMARK    5  A    between atoms: C6_7  and  C7_8 
REMARK    6  A    between atoms: N2_13  and  C12_14 
REMARK    7  A    between atoms: C12_14  and  O1_15 
REMARK    8  A    between atoms: C12_14  and  C13_17 
ROOT
HETATM    1  C12 UNL     1     -11.655   1.519 -19.065  1.00  0.00     0.156 C 
ENDROOT
BRANCH   1   2
HETATM    2  N2  UNL     1     -12.677   2.264 -18.477  1.00  0.00    -0.354 N 
HETATM    3  C7  UNL     1     -12.816   2.266 -16.995  1.00  0.00     0.114 C 
HETATM    4  C8  UNL     1     -14.320   2.011 -16.769  1.00  0.00     0.027 C 
HETATM    5  C9  UNL     1     -15.059   3.236 -17.196  1.00  0.00     0.004 C 
HETATM    6  C10 UNL     1     -14.808   3.554 -18.606  1.00  0.00     0.020 C 
HETATM    7  C11 UNL     1     -13.618   2.982 -19.279  1.00  0.00     0.125 C 
BRANCH   3   8
HETATM    8  C6  UNL     1     -12.469   3.580 -16.388  1.00  0.00     0.297 C 
BRANCH   8   9
HETATM    9  N1  UNL     1     -12.307   3.598 -14.950  1.00  0.00     0.090 N 
BRANCH   9  10
HETATM   10  C3  UNL     1     -12.722   4.799 -14.340  1.00  0.00     0.272 C 
BRANCH  10  11
HETATM   11  C2  UNL     1     -12.890   6.015 -15.173  1.00  0.00     0.026 C 
HETATM   12  C1  UNL     1     -11.850   7.063 -15.099  1.00  0.00     0.007 C 
ENDBRANCH  10  11
ENDBRANCH   9  10
BRANCH   9  13
HETATM   13  C4  UNL     1     -11.039   3.054 -14.543  1.00  0.00     0.268 C 
HETATM   14  C5  UNL     1      -9.936   3.731 -15.330  1.00  0.00     0.037 C 
ENDBRANCH   9  13
ENDBRANCH   8   9
ENDBRANCH   3   8
ENDBRANCH   1   2
BRANCH   1  15
HETATM   15  O1  UNL     1     -10.564   1.343 -18.372  1.00  0.00    -0.345 OA
ATOM     16  H1  UNL     1      -9.965   0.665 -18.663  1.00  0.00     0.219 HD
ENDBRANCH   1  15
BRANCH   1  17
HETATM   17  C13 UNL     1     -11.580   0.871 -20.372  1.00  0.00     0.056 A 
HETATM   18  C14 UNL     1     -12.515   0.497 -21.284  1.00  0.00     0.031 A 
HETATM   19  C15 UNL     1     -12.108  -0.119 -22.423  1.00  0.00    -0.044 A 
HETATM   20  C16 UNL     1     -10.767  -0.321 -22.574  1.00  0.00    -0.010 A 
HETATM   21  C22 UNL     1     -13.199  -0.542 -23.405  1.00  0.00     0.040 C 
HETATM   22  S1  UNL     1     -10.114   0.342 -21.147  1.00  0.00    -0.090 SA
HETATM   23  C17 UNL     1      -9.814  -0.922 -23.577  1.00  0.00     0.046 C 
HETATM   24  C18 UNL     1     -10.445  -0.996 -24.908  1.00  0.00     0.005 C 
HETATM   25  C19 UNL     1     -11.392  -2.105 -25.139  1.00  0.00     0.000 C 
HETATM   26  C20 UNL     1     -12.032  -2.716 -23.942  1.00  0.00     0.000 C 
HETATM   27  C21 UNL     1     -13.286  -2.045 -23.495  1.00  0.00     0.005 C 
ENDBRANCH   1  17
TORSDOF 8
ENDMDL
