MODEL 1
REMARK VINA RESULT: -8.426989998      0.000      0.000
REMARK  6 active torsions:
REMARK  status: ('A' for Active; 'I' for Inactive)
REMARK    1  A    between atoms: N1_3  and  C3_4 
REMARK       I    between atoms: N1_3  and  C17_19 
REMARK    2  A    between atoms: C3_4  and  C4_5 
REMARK    3  A    between atoms: N2_8  and  C7_9 
REMARK    4  A    between atoms: C7_9  and  C8_10 
REMARK    5  A    between atoms: C8_10  and  C9_11 
REMARK    6  A    between atoms: C17_19  and  C18_21 
ROOT
HETATM    1  C1  UNL     1     -12.393   1.842 -13.236  1.00  0.00     0.123 C 
HETATM    2  C2  UNL     1     -11.773   2.024 -14.285  1.00  0.00    -0.070 C 
HETATM    3  N1  UNL     1     -11.081   2.187 -15.483  1.00  0.00    -0.282 N 
HETATM    4  C17 UNL     1     -10.518   3.380 -15.879  1.00  0.00     0.272 C 
HETATM    5  O1  UNL     1      -9.929   3.462 -16.985  1.00  0.00    -0.266 OA
ENDROOT
BRANCH   3   6
HETATM    6  C3  UNL     1     -10.953   0.990 -16.293  1.00  0.00     0.146 C 
BRANCH   6   7
HETATM    7  C4  UNL     1     -12.069   0.854 -17.276  1.00  0.00     0.008 C 
HETATM    8  C5  UNL     1     -12.978   2.074 -17.304  1.00  0.00     0.036 C 
HETATM    9  C6  UNL     1     -12.800   2.892 -18.531  1.00  0.00     0.273 C 
HETATM   10  N2  UNL     1     -13.035   2.181 -19.787  1.00  0.00     0.088 N 
HETATM   11  C15 UNL     1     -12.812   0.754 -19.587  1.00  0.00     0.273 C 
HETATM   12  C16 UNL     1     -11.563   0.671 -18.665  1.00  0.00     0.036 C 
BRANCH  10  13
HETATM   13  C7  UNL     1     -14.348   2.466 -20.263  1.00  0.00     0.272 C 
BRANCH  13  14
HETATM   14  C8  UNL     1     -15.074   3.623 -19.715  1.00  0.00     0.034 C 
BRANCH  14  15
HETATM   15  C9  UNL     1     -16.430   3.362 -19.138  1.00  0.00    -0.013 C 
HETATM   16  C10 UNL     1     -16.499   2.925 -17.724  1.00  0.00     0.005 C 
HETATM   17  C11 UNL     1     -17.847   3.049 -17.099  1.00  0.00     0.000 C 
HETATM   18  C12 UNL     1     -19.005   3.323 -17.969  1.00  0.00     0.000 C 
HETATM   19  C13 UNL     1     -18.781   3.828 -19.337  1.00  0.00     0.000 C 
HETATM   20  C14 UNL     1     -17.421   4.482 -19.431  1.00  0.00     0.005 C 
ENDBRANCH  14  15
ENDBRANCH  13  14
ENDBRANCH  10  13
ENDBRANCH   6   7
ENDBRANCH   3   6
BRANCH   4  21
HETATM   21  C18 UNL     1     -10.568   4.592 -15.072  1.00  0.00     0.079 A 
HETATM   22  S1  UNL     1      -9.520   5.114 -13.836  1.00  0.00    -0.096 SA
HETATM   23  C19 UNL     1     -10.257   6.586 -13.421  1.00  0.00     0.051 A 
HETATM   24  C20 UNL     1     -11.325   6.640 -14.273  1.00  0.00     0.015 A 
HETATM   25  C21 UNL     1     -11.490   5.614 -15.127  1.00  0.00    -0.039 A 
HETATM   26  C22 UNL     1     -12.639   5.562 -16.120  1.00  0.00     0.050 C 
ENDBRANCH   4  21
TORSDOF 6
ENDMDL
MODEL 2
REMARK VINA RESULT: -8.394677877      1.092      1.608
REMARK  6 active torsions:
REMARK  status: ('A' for Active; 'I' for Inactive)
REMARK    1  A    between atoms: N1_3  and  C3_4 
REMARK       I    between atoms: N1_3  and  C17_19 
REMARK    2  A    between atoms: C3_4  and  C4_5 
REMARK    3  A    between atoms: N2_8  and  C7_9 
REMARK    4  A    between atoms: C7_9  and  C8_10 
REMARK    5  A    between atoms: C8_10  and  C9_11 
REMARK    6  A    between atoms: C17_19  and  C18_21 
ROOT
HETATM    1  C1  UNL     1      -9.531   3.896 -17.794  1.00  0.00     0.123 C 
HETATM    2  C2  UNL     1     -10.138   3.427 -16.830  1.00  0.00    -0.070 C 
HETATM    3  N1  UNL     1     -10.819   2.856 -15.758  1.00  0.00    -0.282 N 
HETATM    4  C17 UNL     1     -11.268   3.576 -14.672  1.00  0.00     0.272 C 
HETATM    5  O1  UNL     1     -11.854   2.992 -13.727  1.00  0.00    -0.266 OA
ENDROOT
BRANCH   3   6
HETATM    6  C3  UNL     1     -11.068   1.431 -15.868  1.00  0.00     0.146 C 
BRANCH   6   7
HETATM    7  C4  UNL     1     -12.148   1.123 -16.853  1.00  0.00     0.008 C 
HETATM    8  C5  UNL     1     -13.120   2.278 -17.037  1.00  0.00     0.036 C 
HETATM    9  C6  UNL     1     -12.954   2.964 -18.344  1.00  0.00     0.273 C 
HETATM   10  N2  UNL     1     -13.115   2.106 -19.517  1.00  0.00     0.088 N 
HETATM   11  C15 UNL     1     -12.820   0.725 -19.153  1.00  0.00     0.273 C 
HETATM   12  C16 UNL     1     -11.595   0.816 -18.201  1.00  0.00     0.036 C 
BRANCH  10  13
HETATM   13  C7  UNL     1     -14.428   2.261 -20.050  1.00  0.00     0.272 C 
BRANCH  13  14
HETATM   14  C8  UNL     1     -15.177   3.494 -19.762  1.00  0.00     0.034 C 
BRANCH  14  15
HETATM   15  C9  UNL     1     -16.541   3.335 -19.164  1.00  0.00    -0.013 C 
HETATM   16  C10 UNL     1     -16.624   2.833 -17.773  1.00  0.00     0.005 C 
HETATM   17  C11 UNL     1     -17.940   3.054 -17.108  1.00  0.00     0.000 C 
HETATM   18  C12 UNL     1     -19.084   3.483 -17.933  1.00  0.00     0.000 C 
HETATM   19  C13 UNL     1     -18.838   4.036 -19.280  1.00  0.00     0.000 C 
HETATM   20  C14 UNL     1     -17.424   4.560 -19.375  1.00  0.00     0.005 C 
ENDBRANCH  14  15
ENDBRANCH  13  14
ENDBRANCH  10  13
ENDBRANCH   6   7
ENDBRANCH   3   6
BRANCH   4  21
HETATM   21  C18 UNL     1     -11.096   5.018 -14.545  1.00  0.00     0.079 A 
HETATM   22  S1  UNL     1      -9.895   5.897 -13.720  1.00  0.00    -0.096 SA
HETATM   23  C19 UNL     1     -10.401   7.482 -14.055  1.00  0.00     0.051 A 
HETATM   24  C20 UNL     1     -11.519   7.287 -14.818  1.00  0.00     0.015 A 
HETATM   25  C21 UNL     1     -11.882   6.018 -15.074  1.00  0.00    -0.039 A 
HETATM   26  C22 UNL     1     -13.104   5.676 -15.909  1.00  0.00     0.050 C 
ENDBRANCH   4  21
TORSDOF 6
ENDMDL
MODEL 3
REMARK VINA RESULT: -8.368094786      2.871      5.463
REMARK  6 active torsions:
REMARK  status: ('A' for Active; 'I' for Inactive)
REMARK    1  A    between atoms: N1_3  and  C3_4 
REMARK       I    between atoms: N1_3  and  C17_19 
REMARK    2  A    between atoms: C3_4  and  C4_5 
REMARK    3  A    between atoms: N2_8  and  C7_9 
REMARK    4  A    between atoms: C7_9  and  C8_10 
REMARK    5  A    between atoms: C8_10  and  C9_11 
REMARK    6  A    between atoms: C17_19  and  C18_21 
ROOT
HETATM    1  C1  UNL     1      -8.934   3.492 -13.882  1.00  0.00     0.123 C 
HETATM    2  C2  UNL     1     -10.018   2.921 -13.755  1.00  0.00    -0.070 C 
HETATM    3  N1  UNL     1     -11.263   2.310 -13.632  1.00  0.00    -0.282 N 
HETATM    4  C17 UNL     1     -11.447   1.064 -13.074  1.00  0.00     0.272 C 
HETATM    5  O1  UNL     1     -12.597   0.562 -13.018  1.00  0.00    -0.266 OA
ENDROOT
BRANCH   3   6
HETATM    6  C3  UNL     1     -12.388   3.094 -14.106  1.00  0.00     0.146 C 
BRANCH   6   7
HETATM    7  C4  UNL     1     -12.312   3.356 -15.575  1.00  0.00     0.008 C 
HETATM    8  C5  UNL     1     -13.040   2.303 -16.397  1.00  0.00     0.036 C 
HETATM    9  C6  UNL     1     -14.308   2.809 -16.982  1.00  0.00     0.273 C 
HETATM   10  N2  UNL     1     -14.165   3.976 -17.851  1.00  0.00     0.088 N 
HETATM   11  C15 UNL     1     -12.957   4.708 -17.487  1.00  0.00     0.273 C 
HETATM   12  C16 UNL     1     -12.920   4.667 -15.934  1.00  0.00     0.036 C 
BRANCH  10  13
HETATM   13  C7  UNL     1     -14.162   3.562 -19.215  1.00  0.00     0.272 C 
BRANCH  13  14
HETATM   14  C8  UNL     1     -14.013   2.132 -19.531  1.00  0.00     0.034 C 
BRANCH  14  15
HETATM   15  C9  UNL     1     -12.734   1.712 -20.185  1.00  0.00    -0.013 C 
HETATM   16  C10 UNL     1     -11.469   2.032 -19.483  1.00  0.00     0.005 C 
HETATM   17  C11 UNL     1     -10.279   1.274 -19.965  1.00  0.00     0.000 C 
HETATM   18  C12 UNL     1     -10.393   0.508 -21.220  1.00  0.00     0.000 C 
HETATM   19  C13 UNL     1     -11.731   0.199 -21.762  1.00  0.00     0.000 C 
HETATM   20  C14 UNL     1     -12.763   0.264 -20.661  1.00  0.00     0.005 C 
ENDBRANCH  14  15
ENDBRANCH  13  14
ENDBRANCH  10  13
ENDBRANCH   6   7
ENDBRANCH   3   6
BRANCH   4  21
HETATM   21  C18 UNL     1     -10.357   0.265 -12.529  1.00  0.00     0.079 A 
HETATM   22  S1  UNL     1      -9.365  -0.883 -13.300  1.00  0.00    -0.096 SA
HETATM   23  C19 UNL     1      -8.372  -1.341 -12.001  1.00  0.00     0.051 A 
HETATM   24  C20 UNL     1      -8.846  -0.572 -10.974  1.00  0.00     0.015 A 
HETATM   25  C21 UNL     1      -9.869   0.258 -11.240  1.00  0.00    -0.039 A 
HETATM   26  C22 UNL     1     -10.480   1.160 -10.181  1.00  0.00     0.050 C 
ENDBRANCH   4  21
TORSDOF 6
ENDMDL
MODEL 4
REMARK VINA RESULT: -8.296881809      2.729      4.306
REMARK  6 active torsions:
REMARK  status: ('A' for Active; 'I' for Inactive)
REMARK    1  A    between atoms: N1_3  and  C3_4 
REMARK       I    between atoms: N1_3  and  C17_19 
REMARK    2  A    between atoms: C3_4  and  C4_5 
REMARK    3  A    between atoms: N2_8  and  C7_9 
REMARK    4  A    between atoms: C7_9  and  C8_10 
REMARK    5  A    between atoms: C8_10  and  C9_11 
REMARK    6  A    between atoms: C17_19  and  C18_21 
ROOT
HETATM    1  C1  UNL     1      -8.642   3.521 -13.803  1.00  0.00     0.123 C 
HETATM    2  C2  UNL     1      -9.757   3.006 -13.705  1.00  0.00    -0.070 C 
HETATM    3  N1  UNL     1     -11.035   2.459 -13.615  1.00  0.00    -0.282 N 
HETATM    4  C17 UNL     1     -11.293   1.213 -13.088  1.00  0.00     0.272 C 
HETATM    5  O1  UNL     1     -12.469   0.772 -13.060  1.00  0.00    -0.266 OA
ENDROOT
BRANCH   3   6
HETATM    6  C3  UNL     1     -12.109   3.313 -14.086  1.00  0.00     0.146 C 
BRANCH   6   7
HETATM    7  C4  UNL     1     -12.114   3.441 -15.575  1.00  0.00     0.008 C 
HETATM    8  C5  UNL     1     -12.992   2.398 -16.249  1.00  0.00     0.036 C 
HETATM    9  C6  UNL     1     -14.246   2.975 -16.798  1.00  0.00     0.273 C 
HETATM   10  N2  UNL     1     -14.059   4.044 -17.778  1.00  0.00     0.088 N 
HETATM   11  C15 UNL     1     -12.766   4.682 -17.558  1.00  0.00     0.273 C 
HETATM   12  C16 UNL     1     -12.622   4.770 -16.013  1.00  0.00     0.036 C 
BRANCH  10  13
HETATM   13  C7  UNL     1     -14.191   3.517 -19.095  1.00  0.00     0.272 C 
BRANCH  13  14
HETATM   14  C8  UNL     1     -15.372   3.875 -19.896  1.00  0.00     0.034 C 
BRANCH  14  15
HETATM   15  C9  UNL     1     -16.678   3.974 -19.171  1.00  0.00    -0.013 C 
HETATM   16  C10 UNL     1     -17.749   4.783 -19.797  1.00  0.00     0.005 C 
HETATM   17  C11 UNL     1     -19.114   4.541 -19.250  1.00  0.00     0.000 C 
HETATM   18  C12 UNL     1     -19.247   3.759 -18.007  1.00  0.00     0.000 C 
HETATM   19  C13 UNL     1     -18.113   2.936 -17.544  1.00  0.00     0.000 C 
HETATM   20  C14 UNL     1     -17.196   2.618 -18.703  1.00  0.00     0.005 C 
ENDBRANCH  14  15
ENDBRANCH  13  14
ENDBRANCH  10  13
ENDBRANCH   6   7
ENDBRANCH   3   6
BRANCH   4  21
HETATM   21  C18 UNL     1     -10.256   0.345 -12.546  1.00  0.00     0.079 A 
HETATM   22  S1  UNL     1      -9.385  -0.905 -13.304  1.00  0.00    -0.096 SA
HETATM   23  C19 UNL     1      -8.394  -1.401 -12.018  1.00  0.00     0.051 A 
HETATM   24  C20 UNL     1      -8.771  -0.564 -11.006  1.00  0.00     0.015 A 
HETATM   25  C21 UNL     1      -9.731   0.340 -11.272  1.00  0.00    -0.039 A 
HETATM   26  C22 UNL     1     -10.233   1.322 -10.228  1.00  0.00     0.050 C 
ENDBRANCH   4  21
TORSDOF 6
ENDMDL
MODEL 5
REMARK VINA RESULT: -8.156838439      2.797      3.428
REMARK  6 active torsions:
REMARK  status: ('A' for Active; 'I' for Inactive)
REMARK    1  A    between atoms: N1_3  and  C3_4 
REMARK       I    between atoms: N1_3  and  C17_19 
REMARK    2  A    between atoms: C3_4  and  C4_5 
REMARK    3  A    between atoms: N2_8  and  C7_9 
REMARK    4  A    between atoms: C7_9  and  C8_10 
REMARK    5  A    between atoms: C8_10  and  C9_11 
REMARK    6  A    between atoms: C17_19  and  C18_21 
ROOT
HETATM    1  C1  UNL     1     -10.625   0.973 -13.788  1.00  0.00     0.123 C 
HETATM    2  C2  UNL     1     -10.258   2.139 -13.939  1.00  0.00    -0.070 C 
HETATM    3  N1  UNL     1      -9.878   3.465 -14.133  1.00  0.00    -0.282 N 
HETATM    4  C17 UNL     1      -8.745   4.020 -13.580  1.00  0.00     0.272 C 
HETATM    5  O1  UNL     1      -8.477   5.231 -13.777  1.00  0.00    -0.266 OA
ENDROOT
BRANCH   3   6
HETATM    6  C3  UNL     1     -10.747   4.237 -15.000  1.00  0.00     0.146 C 
BRANCH   6   7
HETATM    7  C4  UNL     1     -11.403   3.389 -16.040  1.00  0.00     0.008 C 
HETATM    8  C5  UNL     1     -12.868   3.743 -16.247  1.00  0.00     0.036 C 
HETATM    9  C6  UNL     1     -13.111   4.448 -17.531  1.00  0.00     0.273 C 
HETATM   10  N2  UNL     1     -12.697   3.715 -18.727  1.00  0.00     0.088 N 
HETATM   11  C15 UNL     1     -11.644   2.769 -18.376  1.00  0.00     0.273 C 
HETATM   12  C16 UNL     1     -10.742   3.532 -17.367  1.00  0.00     0.036 C 
BRANCH  10  13
HETATM   13  C7  UNL     1     -13.828   3.080 -19.317  1.00  0.00     0.272 C 
BRANCH  13  14
HETATM   14  C8  UNL     1     -15.005   3.891 -19.666  1.00  0.00     0.034 C 
BRANCH  14  15
HETATM   15  C9  UNL     1     -16.330   3.416 -19.156  1.00  0.00    -0.013 C 
HETATM   16  C10 UNL     1     -16.423   3.056 -17.722  1.00  0.00     0.005 C 
HETATM   17  C11 UNL     1     -17.813   2.964 -17.191  1.00  0.00     0.000 C 
HETATM   18  C12 UNL     1     -18.935   2.968 -18.148  1.00  0.00     0.000 C 
HETATM   19  C13 UNL     1     -18.706   3.428 -19.532  1.00  0.00     0.000 C 
HETATM   20  C14 UNL     1     -17.484   4.316 -19.587  1.00  0.00     0.005 C 
ENDBRANCH  14  15
ENDBRANCH  13  14
ENDBRANCH  10  13
ENDBRANCH   6   7
ENDBRANCH   3   6
BRANCH   4  21
HETATM   21  C18 UNL     1      -7.810   3.268 -12.753  1.00  0.00     0.079 A 
HETATM   22  S1  UNL     1      -8.112   2.278 -11.403  1.00  0.00    -0.096 SA
HETATM   23  C19 UNL     1      -6.531   1.787 -11.031  1.00  0.00     0.051 A 
HETATM   24  C20 UNL     1      -5.786   2.419 -11.988  1.00  0.00     0.015 A 
HETATM   25  C21 UNL     1      -6.441   3.184 -12.879  1.00  0.00    -0.039 A 
HETATM   26  C22 UNL     1      -5.722   3.935 -13.987  1.00  0.00     0.050 C 
ENDBRANCH   4  21
TORSDOF 6
ENDMDL
