MODEL 1
REMARK VINA RESULT: -9.903313565      0.000      0.000
REMARK  2 active torsions:
REMARK  status: ('A' for Active; 'I' for Inactive)
REMARK    1  A    between atoms: C10_14  and  O2_15 
REMARK    2  A    between atoms: O2_15  and  C11_16 
ROOT
HETATM    1  O1  UNL     1       3.871  21.638 -30.936  1.00  0.00    -0.298 OA
HETATM    2  C1  UNL     1       3.625  20.643 -31.567  1.00  0.00     0.127 C 
HETATM    3  C2  UNL     1       2.797  20.653 -32.826  1.00  0.00     0.083 C 
HETATM    4  C3  UNL     1       1.928  19.391 -32.879  1.00  0.00    -0.005 C 
HETATM    5  C4  UNL     1       1.767  18.938 -31.442  1.00  0.00     0.010 C 
HETATM    6  C5  UNL     1       3.053  18.286 -30.994  1.00  0.00    -0.005 C 
HETATM    7  C6  UNL     1       4.149  19.319 -31.110  1.00  0.00     0.083 C 
HETATM    8  C7  UNL     1       3.366  17.053 -31.834  1.00  0.00     0.048 C 
HETATM    9  C8  UNL     1       2.513  16.996 -33.081  1.00  0.00     0.180 A 
HETATM   10  C9  UNL     1       2.566  18.336 -33.742  1.00  0.00     0.048 C 
HETATM   11  N1  UNL     1       1.204  16.376 -32.980  1.00  0.00    -0.033 N 
ATOM     12  H11 UNL     1       0.249  16.688 -33.154  1.00  0.00     0.281 HD
ATOM     13  H12 UNL     1       0.614  16.075 -32.205  1.00  0.00     0.281 HD
HETATM   14  C10 UNL     1       2.202  15.754 -33.765  1.00  0.00     0.360 A 
ENDROOT
BRANCH  14  15
HETATM   15  O2  UNL     1       2.191  15.732 -35.136  1.00  0.00    -0.317 OA
BRANCH  15  16
HETATM   16  C11 UNL     1       1.008  15.314 -35.701  1.00  0.00     0.394 C 
HETATM   17  C12 UNL     1       0.225  14.363 -34.870  1.00  0.00     0.075 C 
HETATM   18  C13 UNL     1      -0.564  13.353 -35.685  1.00  0.00    -0.007 C 
HETATM   19  C14 UNL     1      -1.068  14.076 -36.908  1.00  0.00     0.041 C 
HETATM   20  C20 UNL     1       0.235  12.169 -36.095  1.00  0.00     0.010 C 
HETATM   21  C15 UNL     1       0.040  14.561 -37.776  1.00  0.00     0.315 C 
HETATM   22  N2  UNL     1       1.259  14.878 -37.052  1.00  0.00     0.041 N 
HETATM   23  O3  UNL     1       1.770  15.990 -37.689  1.00  0.00    -0.062 OA
HETATM   24  C16 UNL     1       2.232  13.850 -37.186  1.00  0.00     0.320 C 
HETATM   25  C17 UNL     1       2.568  13.089 -35.967  1.00  0.00     0.024 A 
HETATM   26  C18 UNL     1       2.747  11.543 -36.132  1.00  0.00     0.012 A 
HETATM   27  C19 UNL     1       1.583  12.158 -35.447  1.00  0.00    -0.007 A 
ENDBRANCH  15  16
ENDBRANCH  14  15
TORSDOF 2
ENDMDL
MODEL 2
REMARK VINA RESULT: -9.486983803      2.618      3.490
REMARK  2 active torsions:
REMARK  status: ('A' for Active; 'I' for Inactive)
REMARK    1  A    between atoms: C10_14  and  O2_15 
REMARK    2  A    between atoms: O2_15  and  C11_16 
ROOT
HETATM    1  O1  UNL     1       8.150  14.550 -31.505  1.00  0.00    -0.298 OA
HETATM    2  C1  UNL     1       7.205  14.842 -32.190  1.00  0.00     0.127 C 
HETATM    3  C2  UNL     1       7.238  14.802 -33.696  1.00  0.00     0.083 C 
HETATM    4  C3  UNL     1       6.416  15.966 -34.258  1.00  0.00    -0.005 C 
HETATM    5  C4  UNL     1       6.395  17.022 -33.172  1.00  0.00     0.010 C 
HETATM    6  C5  UNL     1       5.429  16.589 -32.095  1.00  0.00    -0.005 C 
HETATM    7  C6  UNL     1       5.922  15.269 -31.550  1.00  0.00     0.083 C 
HETATM    8  C7  UNL     1       4.013  16.465 -32.644  1.00  0.00     0.048 C 
HETATM    9  C8  UNL     1       3.997  16.478 -34.157  1.00  0.00     0.180 A 
HETATM   10  C9  UNL     1       5.032  15.513 -34.640  1.00  0.00     0.048 C 
HETATM   11  N1  UNL     1       3.953  17.767 -34.823  1.00  0.00    -0.033 N 
ATOM     12  H11 UNL     1       4.551  18.246 -35.496  1.00  0.00     0.281 HD
ATOM     13  H12 UNL     1       4.079  18.732 -34.522  1.00  0.00     0.281 HD
HETATM   14  C10 UNL     1       2.842  16.898 -34.927  1.00  0.00     0.360 A 
ENDROOT
BRANCH  14  15
HETATM   15  O2  UNL     1       2.515  16.211 -36.068  1.00  0.00    -0.317 OA
BRANCH  15  16
HETATM   16  C11 UNL     1       1.250  15.672 -36.078  1.00  0.00     0.394 C 
HETATM   17  C12 UNL     1       0.851  14.999 -34.815  1.00  0.00     0.075 C 
HETATM   18  C13 UNL     1      -0.078  13.816 -35.025  1.00  0.00    -0.007 C 
HETATM   19  C14 UNL     1      -1.002  14.181 -36.158  1.00  0.00     0.041 C 
HETATM   20  C20 UNL     1       0.636  12.552 -35.347  1.00  0.00     0.010 C 
HETATM   21  C15 UNL     1      -0.273  14.390 -37.439  1.00  0.00     0.315 C 
HETATM   22  N2  UNL     1       1.086  14.877 -37.269  1.00  0.00     0.041 N 
HETATM   23  O3  UNL     1       1.276  15.762 -38.310  1.00  0.00    -0.062 OA
HETATM   24  C16 UNL     1       2.040  13.837 -37.440  1.00  0.00     0.320 C 
HETATM   25  C17 UNL     1       2.809  13.436 -36.245  1.00  0.00     0.024 A 
HETATM   26  C18 UNL     1       3.044  11.902 -36.045  1.00  0.00     0.012 A 
HETATM   27  C19 UNL     1       2.118  12.700 -35.203  1.00  0.00    -0.007 A 
ENDBRANCH  15  16
ENDBRANCH  14  15
TORSDOF 2
ENDMDL
MODEL 3
REMARK VINA RESULT: -9.316628579      1.835      2.203
REMARK  2 active torsions:
REMARK  status: ('A' for Active; 'I' for Inactive)
REMARK    1  A    between atoms: C10_14  and  O2_15 
REMARK    2  A    between atoms: O2_15  and  C11_16 
ROOT
HETATM    1  O1  UNL     1       7.700  18.750 -32.677  1.00  0.00    -0.298 OA
HETATM    2  C1  UNL     1       6.696  18.114 -32.865  1.00  0.00     0.127 C 
HETATM    3  C2  UNL     1       6.362  17.480 -34.190  1.00  0.00     0.083 C 
HETATM    4  C3  UNL     1       4.853  17.574 -34.438  1.00  0.00    -0.005 C 
HETATM    5  C4  UNL     1       4.368  18.747 -33.610  1.00  0.00     0.010 C 
HETATM    6  C5  UNL     1       4.315  18.326 -32.161  1.00  0.00    -0.005 C 
HETATM    7  C6  UNL     1       5.713  17.924 -31.755  1.00  0.00     0.083 C 
HETATM    8  C7  UNL     1       3.330  17.180 -31.958  1.00  0.00     0.048 C 
HETATM    9  C8  UNL     1       2.924  16.552 -33.272  1.00  0.00     0.180 A 
HETATM   10  C9  UNL     1       4.165  16.288 -34.064  1.00  0.00     0.048 C 
HETATM   11  N1  UNL     1       1.812  17.145 -33.993  1.00  0.00    -0.033 N 
ATOM     12  H11 UNL     1       1.695  17.550 -34.922  1.00  0.00     0.281 HD
ATOM     13  H12 UNL     1       1.288  18.016 -33.908  1.00  0.00     0.281 HD
HETATM   14  C10 UNL     1       1.669  15.847 -33.453  1.00  0.00     0.360 A 
ENDROOT
BRANCH  14  15
HETATM   15  O2  UNL     1       1.649  14.703 -34.209  1.00  0.00    -0.317 OA
BRANCH  15  16
HETATM   16  C11 UNL     1       0.631  14.634 -35.131  1.00  0.00     0.394 C 
HETATM   17  C12 UNL     1      -0.396  13.599 -34.846  1.00  0.00     0.075 C 
HETATM   18  C13 UNL     1      -1.006  12.989 -36.096  1.00  0.00    -0.007 C 
HETATM   19  C14 UNL     1      -1.132  14.098 -37.108  1.00  0.00     0.041 C 
HETATM   20  C20 UNL     1      -0.200  11.877 -36.667  1.00  0.00     0.010 C 
HETATM   21  C15 UNL     1       0.190  14.659 -37.502  1.00  0.00     0.315 C 
HETATM   22  N2  UNL     1       1.197  14.581 -36.456  1.00  0.00     0.041 N 
HETATM   23  O3  UNL     1       1.920  15.750 -36.575  1.00  0.00    -0.062 OA
HETATM   24  C16 UNL     1       2.108  13.514 -36.683  1.00  0.00     0.320 C 
HETATM   25  C17 UNL     1       2.072  12.392 -35.725  1.00  0.00     0.024 A 
HETATM   26  C18 UNL     1       2.195  10.952 -36.326  1.00  0.00     0.012 A 
HETATM   27  C19 UNL     1       0.932  11.494 -35.766  1.00  0.00    -0.007 A 
ENDBRANCH  15  16
ENDBRANCH  14  15
TORSDOF 2
ENDMDL
MODEL 4
REMARK VINA RESULT: -9.202166775      1.188      1.839
REMARK  2 active torsions:
REMARK  status: ('A' for Active; 'I' for Inactive)
REMARK    1  A    between atoms: C10_14  and  O2_15 
REMARK    2  A    between atoms: O2_15  and  C11_16 
ROOT
HETATM    1  O1  UNL     1       4.711  19.463 -28.973  1.00  0.00    -0.298 OA
HETATM    2  C1  UNL     1       4.217  18.886 -29.906  1.00  0.00     0.127 C 
HETATM    3  C2  UNL     1       4.683  17.531 -30.374  1.00  0.00     0.083 C 
HETATM    4  C3  UNL     1       4.610  17.463 -31.903  1.00  0.00    -0.005 C 
HETATM    5  C4  UNL     1       4.688  18.898 -32.386  1.00  0.00     0.010 C 
HETATM    6  C5  UNL     1       3.355  19.563 -32.144  1.00  0.00    -0.005 C 
HETATM    7  C6  UNL     1       3.087  19.512 -30.659  1.00  0.00     0.083 C 
HETATM    8  C7  UNL     1       2.246  18.872 -32.929  1.00  0.00     0.048 C 
HETATM    9  C8  UNL     1       2.693  17.531 -33.466  1.00  0.00     0.180 A 
HETATM   10  C9  UNL     1       3.346  16.779 -32.351  1.00  0.00     0.048 C 
HETATM   11  N1  UNL     1       3.373  17.506 -34.749  1.00  0.00    -0.033 N 
ATOM     12  H11 UNL     1       4.286  17.182 -35.069  1.00  0.00     0.281 HD
ATOM     13  H12 UNL     1       3.779  18.217 -35.356  1.00  0.00     0.281 HD
HETATM   14  C10 UNL     1       2.095  16.913 -34.635  1.00  0.00     0.360 A 
ENDROOT
BRANCH  14  15
HETATM   15  O2  UNL     1       1.879  15.559 -34.637  1.00  0.00    -0.317 OA
BRANCH  15  16
HETATM   16  C11 UNL     1       0.812  15.141 -35.397  1.00  0.00     0.394 C 
HETATM   17  C12 UNL     1      -0.026  14.089 -34.767  1.00  0.00     0.075 C 
HETATM   18  C13 UNL     1      -0.637  13.121 -35.765  1.00  0.00    -0.007 C 
HETATM   19  C14 UNL     1      -1.004  13.925 -36.986  1.00  0.00     0.041 C 
HETATM   20  C20 UNL     1       0.276  12.012 -36.151  1.00  0.00     0.010 C 
HETATM   21  C15 UNL     1       0.186  14.531 -37.644  1.00  0.00     0.315 C 
HETATM   22  N2  UNL     1       1.273  14.836 -36.729  1.00  0.00     0.041 N 
HETATM   23  O3  UNL     1       1.805  16.021 -37.195  1.00  0.00    -0.062 OA
HETATM   24  C16 UNL     1       2.310  13.867 -36.804  1.00  0.00     0.320 C 
HETATM   25  C17 UNL     1       2.515  13.017 -35.614  1.00  0.00     0.024 A 
HETATM   26  C18 UNL     1       2.800  11.501 -35.876  1.00  0.00     0.012 A 
HETATM   27  C19 UNL     1       1.519  12.003 -35.318  1.00  0.00    -0.007 A 
ENDBRANCH  15  16
ENDBRANCH  14  15
TORSDOF 2
ENDMDL
MODEL 5
REMARK VINA RESULT: -9.090637644      2.477      7.123
REMARK  2 active torsions:
REMARK  status: ('A' for Active; 'I' for Inactive)
REMARK    1  A    between atoms: C10_14  and  O2_15 
REMARK    2  A    between atoms: O2_15  and  C11_16 
ROOT
HETATM    1  O1  UNL     1      -2.395  13.718 -37.234  1.00  0.00    -0.298 OA
HETATM    2  C1  UNL     1      -1.373  13.860 -36.614  1.00  0.00     0.127 C 
HETATM    3  C2  UNL     1      -0.668  15.186 -36.486  1.00  0.00     0.083 C 
HETATM    4  C3  UNL     1       0.848  14.965 -36.512  1.00  0.00    -0.005 C 
HETATM    5  C4  UNL     1       1.064  13.653 -37.238  1.00  0.00     0.010 C 
HETATM    6  C5  UNL     1       0.705  12.520 -36.307  1.00  0.00    -0.005 C 
HETATM    7  C6  UNL     1      -0.747  12.689 -35.927  1.00  0.00     0.083 C 
HETATM    8  C7  UNL     1       1.602  12.517 -35.074  1.00  0.00     0.048 C 
HETATM    9  C8  UNL     1       2.373  13.811 -34.941  1.00  0.00     0.180 A 
HETATM   10  C9  UNL     1       1.412  14.944 -35.116  1.00  0.00     0.048 C 
HETATM   11  N1  UNL     1       3.639  13.922 -35.643  1.00  0.00    -0.033 N 
ATOM     12  H11 UNL     1       4.012  14.557 -36.349  1.00  0.00     0.281 HD
ATOM     13  H12 UNL     1       4.108  13.373 -36.362  1.00  0.00     0.281 HD
HETATM   14  C10 UNL     1       3.633  13.906 -34.229  1.00  0.00     0.360 A 
ENDROOT
BRANCH  14  15
HETATM   15  O2  UNL     1       3.880  15.008 -33.452  1.00  0.00    -0.317 OA
BRANCH  15  16
HETATM   16  C11 UNL     1       5.118  15.580 -33.631  1.00  0.00     0.394 C 
HETATM   17  C12 UNL     1       6.048  15.418 -32.483  1.00  0.00     0.075 C 
HETATM   18  C13 UNL     1       7.000  16.588 -32.304  1.00  0.00    -0.007 C 
HETATM   19  C14 UNL     1       7.378  17.060 -33.684  1.00  0.00     0.041 C 
HETATM   20  C20 UNL     1       6.415  17.715 -31.530  1.00  0.00     0.010 C 
HETATM   21  C15 UNL     1       6.207  17.569 -34.449  1.00  0.00     0.315 C 
HETATM   22  N2  UNL     1       4.949  16.936 -34.090  1.00  0.00     0.041 N 
HETATM   23  O3  UNL     1       4.260  16.819 -35.279  1.00  0.00    -0.062 OA
HETATM   24  C16 UNL     1       4.166  17.769 -33.246  1.00  0.00     0.320 C 
HETATM   25  C17 UNL     1       3.958  17.306 -31.860  1.00  0.00     0.024 A 
HETATM   26  C18 UNL     1       4.045  18.392 -30.737  1.00  0.00     0.012 A 
HETATM   27  C19 UNL     1       5.085  17.355 -30.946  1.00  0.00    -0.007 A 
ENDBRANCH  15  16
ENDBRANCH  14  15
TORSDOF 2
ENDMDL
