MODEL 1
REMARK VINA RESULT: -8.150060299      0.000      0.000
REMARK  3 active torsions:
REMARK  status: ('A' for Active; 'I' for Inactive)
REMARK    1  A    between atoms: C2_2  and  N2_5 
REMARK       I    between atoms: N3_11  and  C9_12 
REMARK    2  A    between atoms: C9_12  and  C10_14 
REMARK    3  A    between atoms: N5_18  and  C12_19 
ROOT
HETATM    1  C1  UNL     1       4.590  10.801 -34.707  1.00  0.00     0.059 C 
HETATM    2  C2  UNL     1       3.644  11.560 -35.629  1.00  0.00     0.324 C 
HETATM    3  C3  UNL     1       2.448  10.805 -35.933  1.00  0.00     0.095 C 
HETATM    4  N1  UNL     1       1.491  10.208 -36.188  1.00  0.00    -0.195 NA
ENDROOT
BRANCH   2   5
HETATM    5  N2  UNL     1       3.312  12.810 -35.004  1.00  0.00     0.106 N 
HETATM    6  C4  UNL     1       4.367  13.315 -34.206  1.00  0.00     0.275 C 
HETATM    7  C5  UNL     1       4.759  14.720 -34.428  1.00  0.00     0.041 C 
HETATM    8  C6  UNL     1       3.620  15.675 -34.658  1.00  0.00    -0.019 C 
HETATM    9  C7  UNL     1       4.133  16.761 -35.575  1.00  0.00     0.031 C 
HETATM   10  C17 UNL     1       3.242  16.434 -33.410  1.00  0.00     0.135 C 
HETATM   11  C18 UNL     1       2.413  15.042 -35.245  1.00  0.00     0.041 C 
HETATM   12  C8  UNL     1       3.455  18.009 -35.140  1.00  0.00     0.127 C 
HETATM   13  N3  UNL     1       2.876  17.780 -33.865  1.00  0.00    -0.347 N 
HETATM   14  C9  UNL     1       2.075  18.661 -33.105  1.00  0.00     0.256 C 
HETATM   15  O1  UNL     1       1.658  18.216 -31.964  1.00  0.00    -0.267 OA
HETATM   16  C19 UNL     1       2.707  13.725 -35.910  1.00  0.00     0.275 C 
BRANCH  14  17
HETATM   17  C10 UNL     1       1.665  20.009 -33.451  1.00  0.00     0.066 A 
HETATM   18  C11 UNL     1       0.865  20.900 -32.787  1.00  0.00     0.126 A 
HETATM   19  N4  UNL     1       0.791  22.035 -33.528  1.00  0.00    -0.308 N 
HETATM   20  N5  UNL     1       1.504  21.904 -34.625  1.00  0.00    -0.294 N 
ATOM     21  H4  UNL     1       0.259  22.867 -33.271  1.00  0.00     0.186 HD
HETATM   22  C16 UNL     1       2.050  20.689 -34.616  1.00  0.00     0.129 A 
BRANCH  20  23
HETATM   23  C12 UNL     1       1.670  22.916 -35.674  1.00  0.00     0.042 C 
HETATM   24  C13 UNL     1       1.014  24.215 -35.257  1.00  0.00     0.039 C 
HETATM   25  C14 UNL     1       0.999  22.442 -36.939  1.00  0.00     0.039 C 
HETATM   26  C15 UNL     1       3.144  23.172 -35.854  1.00  0.00     0.039 C 
ENDBRANCH  20  23
ENDBRANCH  14  17
ENDBRANCH   2   5
TORSDOF 3
ENDMDL
MODEL 2
REMARK VINA RESULT: -7.956365614      1.343      1.614
REMARK  3 active torsions:
REMARK  status: ('A' for Active; 'I' for Inactive)
REMARK    1  A    between atoms: C2_2  and  N2_5 
REMARK       I    between atoms: N3_11  and  C9_12 
REMARK    2  A    between atoms: C9_12  and  C10_14 
REMARK    3  A    between atoms: N5_18  and  C12_19 
ROOT
HETATM    1  C1  UNL     1       6.712  11.375 -33.108  1.00  0.00     0.059 C 
HETATM    2  C2  UNL     1       5.890  11.988 -34.236  1.00  0.00     0.324 C 
HETATM    3  C3  UNL     1       4.812  11.123 -34.664  1.00  0.00     0.095 C 
HETATM    4  N1  UNL     1       3.951  10.437 -35.019  1.00  0.00    -0.195 NA
ENDROOT
BRANCH   2   5
HETATM    5  N2  UNL     1       5.380  13.252 -33.784  1.00  0.00     0.106 N 
HETATM    6  C4  UNL     1       6.406  14.196 -33.539  1.00  0.00     0.275 C 
HETATM    7  C5  UNL     1       6.250  15.528 -34.153  1.00  0.00     0.041 C 
HETATM    8  C6  UNL     1       4.853  16.086 -34.130  1.00  0.00    -0.019 C 
HETATM    9  C7  UNL     1       4.702  16.949 -35.361  1.00  0.00     0.031 C 
HETATM   10  C17 UNL     1       4.641  17.062 -33.001  1.00  0.00     0.135 C 
HETATM   11  C18 UNL     1       3.792  15.048 -34.103  1.00  0.00     0.041 C 
HETATM   12  C8  UNL     1       3.824  18.077 -34.956  1.00  0.00     0.127 C 
HETATM   13  N3  UNL     1       3.750  18.097 -33.539  1.00  0.00    -0.347 N 
HETATM   14  C9  UNL     1       2.974  18.949 -32.723  1.00  0.00     0.256 C 
HETATM   15  O1  UNL     1       3.075  18.767 -31.447  1.00  0.00    -0.267 OA
HETATM   16  C19 UNL     1       4.278  13.701 -34.564  1.00  0.00     0.275 C 
BRANCH  14  17
HETATM   17  C10 UNL     1       2.076  20.007 -33.147  1.00  0.00     0.066 A 
HETATM   18  C11 UNL     1       0.965  20.534 -32.544  1.00  0.00     0.126 A 
HETATM   19  N4  UNL     1       0.473  21.513 -33.345  1.00  0.00    -0.308 N 
HETATM   20  N5  UNL     1       1.218  21.630 -34.423  1.00  0.00    -0.294 N 
ATOM     21  H4  UNL     1      -0.353  22.076 -33.141  1.00  0.00     0.186 HD
HETATM   22  C16 UNL     1       2.201  20.734 -34.340  1.00  0.00     0.129 A 
BRANCH  20  23
HETATM   23  C12 UNL     1       1.007  22.578 -35.521  1.00  0.00     0.042 C 
HETATM   24  C13 UNL     1       0.372  23.850 -35.001  1.00  0.00     0.039 C 
HETATM   25  C14 UNL     1       0.067  21.972 -36.533  1.00  0.00     0.039 C 
HETATM   26  C15 UNL     1       2.349  22.930 -36.107  1.00  0.00     0.039 C 
ENDBRANCH  20  23
ENDBRANCH  14  17
ENDBRANCH   2   5
TORSDOF 3
ENDMDL
MODEL 3
REMARK VINA RESULT: -7.900017596      2.382      3.140
REMARK  3 active torsions:
REMARK  status: ('A' for Active; 'I' for Inactive)
REMARK    1  A    between atoms: C2_2  and  N2_5 
REMARK       I    between atoms: N3_11  and  C9_12 
REMARK    2  A    between atoms: C9_12  and  C10_14 
REMARK    3  A    between atoms: N5_18  and  C12_19 
ROOT
HETATM    1  C1  UNL     1       7.039  13.738 -31.236  1.00  0.00     0.059 C 
HETATM    2  C2  UNL     1       7.159  13.706 -32.755  1.00  0.00     0.324 C 
HETATM    3  C3  UNL     1       6.677  12.464 -33.319  1.00  0.00     0.095 C 
HETATM    4  N1  UNL     1       6.301  11.472 -33.781  1.00  0.00    -0.195 NA
ENDROOT
BRANCH   2   5
HETATM    5  N2  UNL     1       6.431  14.823 -33.287  1.00  0.00     0.106 N 
HETATM    6  C4  UNL     1       5.513  14.445 -34.296  1.00  0.00     0.275 C 
HETATM    7  C5  UNL     1       4.129  14.938 -34.161  1.00  0.00     0.041 C 
HETATM    8  C6  UNL     1       3.998  16.357 -33.681  1.00  0.00    -0.019 C 
HETATM    9  C7  UNL     1       2.710  16.441 -32.895  1.00  0.00     0.031 C 
HETATM   10  C17 UNL     1       3.771  17.330 -34.811  1.00  0.00     0.135 C 
HETATM   11  C18 UNL     1       5.135  16.817 -32.843  1.00  0.00     0.041 C 
HETATM   12  C8  UNL     1       2.161  17.794 -33.165  1.00  0.00     0.127 C 
HETATM   13  N3  UNL     1       2.847  18.339 -34.281  1.00  0.00    -0.347 N 
HETATM   14  C9  UNL     1       2.706  19.627 -34.842  1.00  0.00     0.256 C 
HETATM   15  O1  UNL     1       3.454  19.893 -35.864  1.00  0.00    -0.267 OA
HETATM   16  C19 UNL     1       5.933  15.680 -32.266  1.00  0.00     0.275 C 
BRANCH  14  17
HETATM   17  C10 UNL     1       1.820  20.691 -34.408  1.00  0.00     0.066 A 
HETATM   18  C11 UNL     1       1.188  20.898 -33.210  1.00  0.00     0.126 A 
HETATM   19  N4  UNL     1       0.469  22.045 -33.305  1.00  0.00    -0.308 N 
HETATM   20  N5  UNL     1       0.615  22.572 -34.501  1.00  0.00    -0.294 N 
ATOM     21  H4  UNL     1      -0.102  22.440 -32.557  1.00  0.00     0.186 HD
HETATM   22  C16 UNL     1       1.427  21.780 -35.200  1.00  0.00     0.129 A 
BRANCH  20  23
HETATM   23  C12 UNL     1      -0.005  23.811 -34.981  1.00  0.00     0.042 C 
HETATM   24  C13 UNL     1      -1.048  24.292 -33.995  1.00  0.00     0.039 C 
HETATM   25  C14 UNL     1      -0.697  23.548 -36.296  1.00  0.00     0.039 C 
HETATM   26  C15 UNL     1       1.065  24.865 -35.084  1.00  0.00     0.039 C 
ENDBRANCH  20  23
ENDBRANCH  14  17
ENDBRANCH   2   5
TORSDOF 3
ENDMDL
MODEL 4
REMARK VINA RESULT: -7.845402644      2.404      3.872
REMARK  3 active torsions:
REMARK  status: ('A' for Active; 'I' for Inactive)
REMARK    1  A    between atoms: C2_2  and  N2_5 
REMARK       I    between atoms: N3_11  and  C9_12 
REMARK    2  A    between atoms: C9_12  and  C10_14 
REMARK    3  A    between atoms: N5_18  and  C12_19 
ROOT
HETATM    1  C1  UNL     1       1.994   9.787 -36.560  1.00  0.00     0.059 C 
HETATM    2  C2  UNL     1       3.408  10.216 -36.189  1.00  0.00     0.324 C 
HETATM    3  C3  UNL     1       4.389   9.775 -37.156  1.00  0.00     0.095 C 
HETATM    4  N1  UNL     1       5.183   9.422 -37.920  1.00  0.00    -0.195 NA
ENDROOT
BRANCH   2   5
HETATM    5  N2  UNL     1       3.425  11.647 -36.062  1.00  0.00     0.106 N 
HETATM    6  C4  UNL     1       2.439  12.276 -36.860  1.00  0.00     0.275 C 
HETATM    7  C5  UNL     1       1.572  13.266 -36.193  1.00  0.00     0.041 C 
HETATM    8  C6  UNL     1       2.266  14.168 -35.210  1.00  0.00    -0.019 C 
HETATM    9  C7  UNL     1       1.257  14.513 -34.139  1.00  0.00     0.031 C 
HETATM   10  C17 UNL     1       2.608  15.512 -35.802  1.00  0.00     0.135 C 
HETATM   11  C18 UNL     1       3.476  13.568 -34.594  1.00  0.00     0.041 C 
HETATM   12  C8  UNL     1       1.558  15.912 -33.739  1.00  0.00     0.127 C 
HETATM   13  N3  UNL     1       2.416  16.480 -34.716  1.00  0.00    -0.347 N 
HETATM   14  C9  UNL     1       3.014  17.759 -34.707  1.00  0.00     0.256 C 
HETATM   15  O1  UNL     1       3.768  18.047 -35.718  1.00  0.00    -0.267 OA
HETATM   16  C19 UNL     1       3.508  12.068 -34.706  1.00  0.00     0.275 C 
BRANCH  14  17
HETATM   17  C10 UNL     1       2.883  18.792 -33.696  1.00  0.00     0.066 A 
HETATM   18  C11 UNL     1       2.103  19.918 -33.662  1.00  0.00     0.126 A 
HETATM   19  N4  UNL     1       2.339  20.561 -32.491  1.00  0.00    -0.308 N 
HETATM   20  N5  UNL     1       3.228  19.897 -31.784  1.00  0.00    -0.294 N 
ATOM     21  H4  UNL     1       1.893  21.431 -32.200  1.00  0.00     0.186 HD
HETATM   22  C16 UNL     1       3.582  18.819 -32.481  1.00  0.00     0.129 A 
BRANCH  20  23
HETATM   23  C12 UNL     1       3.740  20.276 -30.463  1.00  0.00     0.042 C 
HETATM   24  C13 UNL     1       4.684  21.453 -30.584  1.00  0.00     0.039 C 
HETATM   25  C14 UNL     1       4.512  19.121 -29.874  1.00  0.00     0.039 C 
HETATM   26  C15 UNL     1       2.574  20.696 -29.608  1.00  0.00     0.039 C 
ENDBRANCH  20  23
ENDBRANCH  14  17
ENDBRANCH   2   5
TORSDOF 3
ENDMDL
MODEL 5
REMARK VINA RESULT: -7.625708601      1.077      1.478
REMARK  3 active torsions:
REMARK  status: ('A' for Active; 'I' for Inactive)
REMARK    1  A    between atoms: C2_2  and  N2_5 
REMARK       I    between atoms: N3_11  and  C9_12 
REMARK    2  A    between atoms: C9_12  and  C10_14 
REMARK    3  A    between atoms: N5_18  and  C12_19 
ROOT
HETATM    1  C1  UNL     1       4.578  11.294 -34.590  1.00  0.00     0.059 C 
HETATM    2  C2  UNL     1       3.597  11.901 -35.586  1.00  0.00     0.324 C 
HETATM    3  C3  UNL     1       2.388  11.118 -35.714  1.00  0.00     0.095 C 
HETATM    4  N1  UNL     1       1.419  10.497 -35.830  1.00  0.00    -0.195 NA
ENDROOT
BRANCH   2   5
HETATM    5  N2  UNL     1       3.295  13.239 -35.160  1.00  0.00     0.106 N 
HETATM    6  C4  UNL     1       4.231  13.736 -34.220  1.00  0.00     0.275 C 
HETATM    7  C5  UNL     1       4.811  15.064 -34.493  1.00  0.00     0.041 C 
HETATM    8  C6  UNL     1       3.849  16.086 -35.033  1.00  0.00    -0.019 C 
HETATM    9  C7  UNL     1       4.641  17.008 -35.931  1.00  0.00     0.031 C 
HETATM   10  C17 UNL     1       3.331  17.013 -33.963  1.00  0.00     0.135 C 
HETATM   11  C18 UNL     1       2.710  15.501 -35.785  1.00  0.00     0.041 C 
HETATM   12  C8  UNL     1       4.037  18.354 -35.759  1.00  0.00     0.127 C 
HETATM   13  N3  UNL     1       3.208  18.326 -34.607  1.00  0.00    -0.347 N 
HETATM   14  C9  UNL     1       2.382  19.357 -34.107  1.00  0.00     0.256 C 
HETATM   15  O1  UNL     1       1.712  19.085 -33.035  1.00  0.00    -0.267 OA
HETATM   16  C19 UNL     1       2.975  14.095 -36.250  1.00  0.00     0.275 C 
BRANCH  14  17
HETATM   17  C10 UNL     1       2.196  20.688 -34.654  1.00  0.00     0.066 A 
HETATM   18  C11 UNL     1       2.974  21.420 -35.512  1.00  0.00     0.126 A 
HETATM   19  N4  UNL     1       2.361  22.612 -35.725  1.00  0.00    -0.308 N 
HETATM   20  N5  UNL     1       1.236  22.669 -35.045  1.00  0.00    -0.294 N 
ATOM     21  H4  UNL     1       2.720  23.356 -36.324  1.00  0.00     0.186 HD
HETATM   22  C16 UNL     1       1.101  21.521 -34.382  1.00  0.00     0.129 A 
BRANCH  20  23
HETATM   23  C12 UNL     1       0.297  23.795 -35.019  1.00  0.00     0.042 C 
HETATM   24  C13 UNL     1      -0.499  23.784 -33.731  1.00  0.00     0.039 C 
HETATM   25  C14 UNL     1      -0.675  23.664 -36.165  1.00  0.00     0.039 C 
HETATM   26  C15 UNL     1       1.091  25.073 -35.068  1.00  0.00     0.039 C 
ENDBRANCH  20  23
ENDBRANCH  14  17
ENDBRANCH   2   5
TORSDOF 3
ENDMDL
