MODEL 1
REMARK VINA RESULT: -7.773570737      0.000      0.000
REMARK  6 active torsions:
REMARK  status: ('A' for Active; 'I' for Inactive)
REMARK    1  A    between atoms: O1_2  and  C2_3 
REMARK    2  A    between atoms: N3_9  and  C4_10 
REMARK    3  A    between atoms: C4_10  and  C5_11 
REMARK    4  A    between atoms: C5_11  and  N4_12 
REMARK       I    between atoms: N4_12  and  C6_14 
REMARK       I    between atoms: C6_14  and  N6_18 
REMARK    5  A    between atoms: N6_18  and  N7_20 
REMARK    6  A    between atoms: C8_26  and  N9_27 
ROOT
HETATM    1  C2  UNL     1      21.232  38.307  40.032  1.00  0.00     0.228 A 
HETATM    2  N1  UNL     1      20.913  39.358  39.256  1.00  0.00    -0.261 N 
ATOM      3  H1  UNL     1      21.264  40.285  39.498  1.00  0.00     0.190 HD
HETATM    4  N2  UNL     1      20.151  39.209  38.181  1.00  0.00    -0.129 N 
ATOM      5  H2  UNL     1      19.921  40.020  37.605  1.00  0.00     0.205 HD
HETATM    6  C3  UNL     1      19.677  37.989  37.843  1.00  0.00     0.711 A 
HETATM    7  N3  UNL     1      18.883  37.587  36.793  1.00  0.00    -0.162 N 
HETATM    8  C7  UNL     1      18.668  36.262  36.862  1.00  0.00     0.168 A 
HETATM    9  N8  UNL     1      18.004  35.334  36.133  1.00  0.00    -0.174 N 
ATOM     10  H8  UNL     1      17.499  35.639  35.300  1.00  0.00     0.186 HD
HETATM   11  C8  UNL     1      17.979  34.036  36.453  1.00  0.00     0.677 A 
HETATM   12  N10 UNL     1      18.630  33.602  37.540  1.00  0.00    -0.200 N 
ATOM     13  H10 UNL     1      18.616  32.614  37.793  1.00  0.00     0.183 HD
HETATM   14  C9  UNL     1      19.307  34.498  38.296  1.00  0.00     0.140 A 
HETATM   15  C10 UNL     1      19.350  35.837  37.991  1.00  0.00     0.121 A 
HETATM   16  N11 UNL     1      19.950  36.896  38.564  1.00  0.00    -0.101 N 
HETATM   17  C11 UNL     1      20.726  37.067  39.653  1.00  0.00     0.319 A 
HETATM   18  O2  UNL     1      20.990  36.045  40.340  1.00  0.00    -0.262 OA
ENDROOT
BRANCH   7  19
HETATM   19  C4  UNL     1      18.419  38.489  35.783  1.00  0.00     0.169 C 
BRANCH  19  20
HETATM   20  C5  UNL     1      17.343  39.429  36.173  1.00  0.00     0.159 C 
BRANCH  20  21
HETATM   21  N4  UNL     1      16.887  40.233  35.072  1.00  0.00    -0.224 N 
HETATM   22  C6  UNL     1      15.542  40.730  35.133  1.00  0.00     0.685 C 
HETATM   23  N5  UNL     1      15.131  41.565  34.249  1.00  0.00    -0.234 N 
HETATM   24  N6  UNL     1      14.675  40.297  36.163  1.00  0.00    -0.139 N 
ATOM     25  H52 UNL     1      15.756  41.877  33.506  1.00  0.00     0.174 HD
ATOM     26  H51 UNL     1      14.175  41.919  34.292  1.00  0.00     0.174 HD
ATOM     27  H6  UNL     1      15.041  39.751  36.943  1.00  0.00     0.205 HD
ATOM     28  H4  UNL     1      17.495  40.441  34.280  1.00  0.00     0.177 HD
BRANCH  24  29
HETATM   29  N7  UNL     1      13.307  40.623  36.108  1.00  0.00    -0.331 N 
ATOM     30  H72 UNL     1      12.842  40.662  35.201  1.00  0.00     0.177 HD
ATOM     31  H71 UNL     1      12.797  40.816  36.970  1.00  0.00     0.177 HD
ENDBRANCH  24  29
ENDBRANCH  20  21
ENDBRANCH  19  20
ENDBRANCH   7  19
BRANCH  11  32
HETATM   32  N9  UNL     1      17.331  33.155  35.730  1.00  0.00    -0.234 N 
ATOM     33  H92 UNL     1      17.775  32.252  35.563  1.00  0.00     0.174 HD
ATOM     34  H91 UNL     1      16.411  33.352  35.337  1.00  0.00     0.174 HD
ENDBRANCH  11  32
BRANCH   1  35
HETATM   35  O1  UNL     1      22.034  38.423  41.176  1.00  0.00    -0.336 OA
HETATM   36  C1  UNL     1      21.466  38.338  42.458  1.00  0.00     0.212 C 
ENDBRANCH   1  35
TORSDOF 6
ENDMDL
MODEL 2
REMARK VINA RESULT: -6.810539275      0.752      1.328
REMARK  6 active torsions:
REMARK  status: ('A' for Active; 'I' for Inactive)
REMARK    1  A    between atoms: O1_2  and  C2_3 
REMARK    2  A    between atoms: N3_9  and  C4_10 
REMARK    3  A    between atoms: C4_10  and  C5_11 
REMARK    4  A    between atoms: C5_11  and  N4_12 
REMARK       I    between atoms: N4_12  and  C6_14 
REMARK       I    between atoms: C6_14  and  N6_18 
REMARK    5  A    between atoms: N6_18  and  N7_20 
REMARK    6  A    between atoms: C8_26  and  N9_27 
ROOT
HETATM    1  C2  UNL     1      21.361  37.950  40.184  1.00  0.00     0.228 A 
HETATM    2  N1  UNL     1      20.883  39.070  39.612  1.00  0.00    -0.261 N 
ATOM      3  H1  UNL     1      21.207  39.979  39.943  1.00  0.00     0.190 HD
HETATM    4  N2  UNL     1      19.999  39.010  38.625  1.00  0.00    -0.129 N 
ATOM      5  H2  UNL     1      19.648  39.872  38.205  1.00  0.00     0.205 HD
HETATM    6  C3  UNL     1      19.558  37.815  38.173  1.00  0.00     0.711 A 
HETATM    7  N3  UNL     1      18.661  37.500  37.179  1.00  0.00    -0.162 N 
HETATM    8  C7  UNL     1      18.535  36.166  37.080  1.00  0.00     0.168 A 
HETATM    9  N8  UNL     1      17.839  35.297  36.308  1.00  0.00    -0.174 N 
ATOM     10  H8  UNL     1      17.214  35.673  35.595  1.00  0.00     0.186 HD
HETATM   11  C8  UNL     1      17.933  33.969  36.438  1.00  0.00     0.677 A 
HETATM   12  N10 UNL     1      18.744  33.443  37.364  1.00  0.00    -0.200 N 
ATOM     13  H10 UNL     1      18.821  32.431  37.471  1.00  0.00     0.183 HD
HETATM   14  C9  UNL     1      19.458  34.276  38.156  1.00  0.00     0.140 A 
HETATM   15  C10 UNL     1      19.382  35.644  38.046  1.00  0.00     0.121 A 
HETATM   16  N11 UNL     1      19.987  36.658  38.690  1.00  0.00    -0.101 N 
HETATM   17  C11 UNL     1      20.885  36.738  39.692  1.00  0.00     0.319 A 
HETATM   18  O2  UNL     1      21.295  35.655  40.187  1.00  0.00    -0.262 OA
ENDROOT
BRANCH   7  19
HETATM   19  C4  UNL     1      18.018  38.493  36.372  1.00  0.00     0.169 C 
BRANCH  19  20
HETATM   20  C5  UNL     1      17.916  39.853  36.948  1.00  0.00     0.159 C 
BRANCH  20  21
HETATM   21  N4  UNL     1      16.669  40.494  36.632  1.00  0.00    -0.224 N 
HETATM   22  C6  UNL     1      16.330  40.626  35.243  1.00  0.00     0.685 C 
HETATM   23  N5  UNL     1      15.170  41.062  34.908  1.00  0.00    -0.234 N 
HETATM   24  N6  UNL     1      17.275  40.278  34.250  1.00  0.00    -0.139 N 
ATOM     25  H52 UNL     1      14.489  41.313  35.625  1.00  0.00     0.174 HD
ATOM     26  H51 UNL     1      14.929  41.156  33.921  1.00  0.00     0.174 HD
ATOM     27  H6  UNL     1      18.137  39.798  34.510  1.00  0.00     0.205 HD
ATOM     28  H4  UNL     1      16.050  40.842  37.364  1.00  0.00     0.177 HD
BRANCH  24  29
HETATM   29  N7  UNL     1      17.021  40.595  32.902  1.00  0.00    -0.331 N 
ATOM     30  H72 UNL     1      17.290  39.931  32.176  1.00  0.00     0.177 HD
ATOM     31  H71 UNL     1      16.574  41.481  32.666  1.00  0.00     0.177 HD
ENDBRANCH  24  29
ENDBRANCH  20  21
ENDBRANCH  19  20
ENDBRANCH   7  19
BRANCH  11  32
HETATM   32  N9  UNL     1      17.251  33.148  35.677  1.00  0.00    -0.234 N 
ATOM     33  H92 UNL     1      17.528  32.167  35.661  1.00  0.00     0.174 HD
ATOM     34  H91 UNL     1      16.465  33.466  35.111  1.00  0.00     0.174 HD
ENDBRANCH  11  32
BRANCH   1  35
HETATM   35  O1  UNL     1      22.295  37.971  41.228  1.00  0.00    -0.336 OA
HETATM   36  C1  UNL     1      21.887  38.230  42.547  1.00  0.00     0.212 C 
ENDBRANCH   1  35
TORSDOF 6
ENDMDL
MODEL 3
REMARK VINA RESULT: -6.695604458      1.606      5.233
REMARK  6 active torsions:
REMARK  status: ('A' for Active; 'I' for Inactive)
REMARK    1  A    between atoms: O1_2  and  C2_3 
REMARK    2  A    between atoms: N3_9  and  C4_10 
REMARK    3  A    between atoms: C4_10  and  C5_11 
REMARK    4  A    between atoms: C5_11  and  N4_12 
REMARK       I    between atoms: N4_12  and  C6_14 
REMARK       I    between atoms: C6_14  and  N6_18 
REMARK    5  A    between atoms: N6_18  and  N7_20 
REMARK    6  A    between atoms: C8_26  and  N9_27 
ROOT
HETATM    1  C2  UNL     1      20.992  36.778  40.221  1.00  0.00     0.228 A 
HETATM    2  N1  UNL     1      21.136  35.646  39.510  1.00  0.00    -0.261 N 
ATOM      3  H1  UNL     1      21.660  34.866  39.909  1.00  0.00     0.190 HD
HETATM    4  N2  UNL     1      20.608  35.526  38.299  1.00  0.00    -0.129 N 
ATOM      5  H2  UNL     1      20.730  34.659  37.776  1.00  0.00     0.205 HD
HETATM    6  C3  UNL     1      19.910  36.548  37.754  1.00  0.00     0.711 A 
HETATM    7  N3  UNL     1      19.279  36.662  36.537  1.00  0.00    -0.162 N 
HETATM    8  C7  UNL     1      18.706  37.873  36.429  1.00  0.00     0.168 A 
HETATM    9  N8  UNL     1      17.964  38.533  35.507  1.00  0.00    -0.174 N 
ATOM     10  H8  UNL     1      17.746  38.060  34.630  1.00  0.00     0.186 HD
HETATM   11  C8  UNL     1      17.506  39.775  35.694  1.00  0.00     0.677 A 
HETATM   12  N10 UNL     1      17.775  40.424  36.833  1.00  0.00    -0.200 N 
ATOM     13  H10 UNL     1      17.430  41.373  36.984  1.00  0.00     0.183 HD
HETATM   14  C9  UNL     1      18.513  39.800  37.781  1.00  0.00     0.140 A 
HETATM   15  C10 UNL     1      18.997  38.524  37.618  1.00  0.00     0.121 A 
HETATM   16  N11 UNL     1      19.723  37.705  38.399  1.00  0.00    -0.101 N 
HETATM   17  C11 UNL     1      20.267  37.808  39.628  1.00  0.00     0.319 A 
HETATM   18  O2  UNL     1      20.098  38.892  40.245  1.00  0.00    -0.262 OA
ENDROOT
BRANCH   7  19
HETATM   19  C4  UNL     1      19.236  35.595  35.583  1.00  0.00     0.169 C 
BRANCH  19  20
HETATM   20  C5  UNL     1      18.061  34.695  35.644  1.00  0.00     0.159 C 
BRANCH  20  21
HETATM   21  N4  UNL     1      17.490  34.623  36.961  1.00  0.00    -0.224 N 
HETATM   22  C6  UNL     1      17.931  33.554  37.812  1.00  0.00     0.685 C 
HETATM   23  N5  UNL     1      17.560  33.524  39.041  1.00  0.00    -0.234 N 
HETATM   24  N6  UNL     1      18.768  32.538  37.294  1.00  0.00    -0.139 N 
ATOM     25  H52 UNL     1      16.956  34.256  39.414  1.00  0.00     0.174 HD
ATOM     26  H51 UNL     1      17.873  32.764  39.646  1.00  0.00     0.174 HD
ATOM     27  H6  UNL     1      19.178  32.638  36.366  1.00  0.00     0.205 HD
ATOM     28  H4  UNL     1      16.799  35.303  37.278  1.00  0.00     0.177 HD
BRANCH  24  29
HETATM   29  N7  UNL     1      19.033  31.391  38.065  1.00  0.00    -0.331 N 
ATOM     30  H72 UNL     1      18.703  30.483  37.735  1.00  0.00     0.177 HD
ATOM     31  H71 UNL     1      19.548  31.477  38.941  1.00  0.00     0.177 HD
ENDBRANCH  24  29
ENDBRANCH  20  21
ENDBRANCH  19  20
ENDBRANCH   7  19
BRANCH  11  32
HETATM   32  N9  UNL     1      16.788  40.393  34.788  1.00  0.00    -0.234 N 
ATOM     33  H92 UNL     1      16.838  40.057  33.825  1.00  0.00     0.174 HD
ATOM     34  H91 UNL     1      16.193  41.187  35.020  1.00  0.00     0.174 HD
ENDBRANCH  11  32
BRANCH   1  35
HETATM   35  O1  UNL     1      21.534  36.944  41.503  1.00  0.00    -0.336 OA
HETATM   36  C1  UNL     1      21.625  38.221  42.081  1.00  0.00     0.212 C 
ENDBRANCH   1  35
TORSDOF 6
ENDMDL
MODEL 4
REMARK VINA RESULT: -6.609521609      1.744      4.503
REMARK  6 active torsions:
REMARK  status: ('A' for Active; 'I' for Inactive)
REMARK    1  A    between atoms: O1_2  and  C2_3 
REMARK    2  A    between atoms: N3_9  and  C4_10 
REMARK    3  A    between atoms: C4_10  and  C5_11 
REMARK    4  A    between atoms: C5_11  and  N4_12 
REMARK       I    between atoms: N4_12  and  C6_14 
REMARK       I    between atoms: C6_14  and  N6_18 
REMARK    5  A    between atoms: N6_18  and  N7_20 
REMARK    6  A    between atoms: C8_26  and  N9_27 
ROOT
HETATM    1  C2  UNL     1      18.085  34.574  37.272  1.00  0.00     0.228 A 
HETATM    2  N1  UNL     1      17.737  35.478  36.340  1.00  0.00    -0.261 N 
ATOM      3  H1  UNL     1      17.127  35.197  35.571  1.00  0.00     0.190 HD
HETATM    4  N2  UNL     1      18.173  36.729  36.403  1.00  0.00    -0.129 N 
ATOM      5  H2  UNL     1      17.897  37.400  35.686  1.00  0.00     0.205 HD
HETATM    6  C3  UNL     1      18.981  37.121  37.414  1.00  0.00     0.711 A 
HETATM    7  N3  UNL     1      19.552  38.341  37.693  1.00  0.00    -0.162 N 
HETATM    8  C7  UNL     1      20.285  38.259  38.817  1.00  0.00     0.168 A 
HETATM    9  N8  UNL     1      21.038  39.100  39.565  1.00  0.00    -0.174 N 
ATOM     10  H8  UNL     1      21.134  40.069  39.259  1.00  0.00     0.186 HD
HETATM   11  C8  UNL     1      21.662  38.720  40.685  1.00  0.00     0.677 A 
HETATM   12  N10 UNL     1      21.557  37.456  41.114  1.00  0.00    -0.200 N 
ATOM     13  H10 UNL     1      22.030  37.156  41.967  1.00  0.00     0.183 HD
HETATM   14  C9  UNL     1      20.814  36.582  40.395  1.00  0.00     0.140 A 
HETATM   15  C10 UNL     1      20.162  36.944  39.240  1.00  0.00     0.121 A 
HETATM   16  N11 UNL     1      19.370  36.280  38.379  1.00  0.00    -0.101 N 
HETATM   17  C11 UNL     1      18.918  35.013  38.298  1.00  0.00     0.319 A 
HETATM   18  O2  UNL     1      19.278  34.212  39.200  1.00  0.00    -0.262 OA
ENDROOT
BRANCH   7  19
HETATM   19  C4  UNL     1      19.327  39.504  36.889  1.00  0.00     0.169 C 
BRANCH  19  20
HETATM   20  C5  UNL     1      17.935  40.002  36.816  1.00  0.00     0.159 C 
BRANCH  20  21
HETATM   21  N4  UNL     1      17.540  40.343  35.477  1.00  0.00    -0.224 N 
HETATM   22  C6  UNL     1      16.147  40.600  35.245  1.00  0.00     0.685 C 
HETATM   23  N5  UNL     1      15.761  41.043  34.104  1.00  0.00    -0.234 N 
HETATM   24  N6  UNL     1      15.205  40.362  36.273  1.00  0.00    -0.139 N 
ATOM     25  H52 UNL     1      16.441  41.215  33.363  1.00  0.00     0.174 HD
ATOM     26  H51 UNL     1      14.771  41.226  33.939  1.00  0.00     0.174 HD
ATOM     27  H6  UNL     1      15.523  40.150  37.219  1.00  0.00     0.205 HD
ATOM     28  H4  UNL     1      18.222  40.399  34.721  1.00  0.00     0.177 HD
BRANCH  24  29
HETATM   29  N7  UNL     1      13.828  40.419  35.987  1.00  0.00    -0.331 N 
ATOM     30  H72 UNL     1      13.527  40.560  35.022  1.00  0.00     0.177 HD
ATOM     31  H71 UNL     1      13.149  40.319  36.741  1.00  0.00     0.177 HD
ENDBRANCH  24  29
ENDBRANCH  20  21
ENDBRANCH  19  20
ENDBRANCH   7  19
BRANCH  11  32
HETATM   32  N9  UNL     1      22.383  39.553  41.394  1.00  0.00    -0.234 N 
ATOM     33  H92 UNL     1      23.307  39.808  41.043  1.00  0.00     0.174 HD
ATOM     34  H91 UNL     1      22.047  39.944  42.274  1.00  0.00     0.174 HD
ENDBRANCH  11  32
BRANCH   1  35
HETATM   35  O1  UNL     1      17.645  33.243  37.240  1.00  0.00    -0.336 OA
HETATM   36  C1  UNL     1      16.772  32.755  38.227  1.00  0.00     0.212 C 
ENDBRANCH   1  35
TORSDOF 6
ENDMDL
MODEL 5
REMARK VINA RESULT: -6.393891513      3.002      5.670
REMARK  6 active torsions:
REMARK  status: ('A' for Active; 'I' for Inactive)
REMARK    1  A    between atoms: O1_2  and  C2_3 
REMARK    2  A    between atoms: N3_9  and  C4_10 
REMARK    3  A    between atoms: C4_10  and  C5_11 
REMARK    4  A    between atoms: C5_11  and  N4_12 
REMARK       I    between atoms: N4_12  and  C6_14 
REMARK       I    between atoms: C6_14  and  N6_18 
REMARK    5  A    between atoms: N6_18  and  N7_20 
REMARK    6  A    between atoms: C8_26  and  N9_27 
ROOT
HETATM    1  C2  UNL     1      19.172  35.504  37.453  1.00  0.00     0.228 A 
HETATM    2  N1  UNL     1      20.223  36.252  37.832  1.00  0.00    -0.261 N 
ATOM      3  H1  UNL     1      21.099  35.795  38.085  1.00  0.00     0.190 HD
HETATM    4  N2  UNL     1      20.138  37.575  37.882  1.00  0.00    -0.129 N 
ATOM      5  H2  UNL     1      20.947  38.125  38.172  1.00  0.00     0.205 HD
HETATM    6  C3  UNL     1      18.986  38.199  37.550  1.00  0.00     0.711 A 
HETATM    7  N3  UNL     1      18.658  39.535  37.521  1.00  0.00    -0.162 N 
HETATM    8  C7  UNL     1      17.384  39.687  37.120  1.00  0.00     0.168 A 
HETATM    9  N8  UNL     1      16.539  40.721  36.895  1.00  0.00    -0.174 N 
ATOM     10  H8  UNL     1      16.878  41.670  37.057  1.00  0.00     0.186 HD
HETATM   11  C8  UNL     1      15.282  40.557  36.470  1.00  0.00     0.677 A 
HETATM   12  N10 UNL     1      14.806  39.325  36.248  1.00  0.00    -0.200 N 
ATOM     13  H10 UNL     1      13.848  39.190  35.925  1.00  0.00     0.183 HD
HETATM   14  C9  UNL     1      15.618  38.263  36.461  1.00  0.00     0.140 A 
HETATM   15  C10 UNL     1      16.914  38.402  36.898  1.00  0.00     0.121 A 
HETATM   16  N11 UNL     1      17.898  37.524  37.163  1.00  0.00    -0.101 N 
HETATM   17  C11 UNL     1      18.003  36.180  37.119  1.00  0.00     0.319 A 
HETATM   18  O2  UNL     1      16.985  35.534  36.756  1.00  0.00    -0.262 OA
ENDROOT
BRANCH   7  19
HETATM   19  C4  UNL     1      19.594  40.570  37.842  1.00  0.00     0.169 C 
BRANCH  19  20
HETATM   20  C5  UNL     1      20.099  41.383  36.712  1.00  0.00     0.159 C 
BRANCH  20  21
HETATM   21  N4  UNL     1      21.533  41.478  36.699  1.00  0.00    -0.224 N 
HETATM   22  C6  UNL     1      22.108  42.783  36.862  1.00  0.00     0.685 C 
HETATM   23  N5  UNL     1      23.378  42.908  36.998  1.00  0.00    -0.234 N 
HETATM   24  N6  UNL     1      21.275  43.926  36.871  1.00  0.00    -0.139 N 
ATOM     25  H52 UNL     1      23.979  42.084  36.992  1.00  0.00     0.174 HD
ATOM     26  H51 UNL     1      23.788  43.836  37.114  1.00  0.00     0.174 HD
ATOM     27  H6  UNL     1      20.261  43.819  36.909  1.00  0.00     0.205 HD
ATOM     28  H4  UNL     1      22.119  40.652  36.577  1.00  0.00     0.177 HD
BRANCH  24  29
HETATM   29  N7  UNL     1      21.849  45.210  36.827  1.00  0.00    -0.331 N 
ATOM     30  H72 UNL     1      21.618  45.832  36.052  1.00  0.00     0.177 HD
ATOM     31  H71 UNL     1      22.486  45.505  37.566  1.00  0.00     0.177 HD
ENDBRANCH  24  29
ENDBRANCH  20  21
ENDBRANCH  19  20
ENDBRANCH   7  19
BRANCH  11  32
HETATM   32  N9  UNL     1      14.484  41.574  36.256  1.00  0.00    -0.234 N 
ATOM     33  H92 UNL     1      13.927  41.575  35.401  1.00  0.00     0.174 HD
ATOM     34  H91 UNL     1      14.411  42.350  36.913  1.00  0.00     0.174 HD
ENDBRANCH  11  32
BRANCH   1  35
HETATM   35  O1  UNL     1      19.221  34.104  37.388  1.00  0.00    -0.336 OA
HETATM   36  C1  UNL     1      18.972  33.327  38.531  1.00  0.00     0.212 C 
ENDBRANCH   1  35
TORSDOF 6
ENDMDL
