MODEL 1
REMARK VINA RESULT: -8.673601953      0.000      0.000
REMARK  7 active torsions:
REMARK  status: ('A' for Active; 'I' for Inactive)
REMARK    1  A    between atoms: C2_2  and  C3_3 
REMARK    2  A    between atoms: C2_2  and  N7_20 
REMARK    3  A    between atoms: C2_2  and  C10_32 
REMARK    4  A    between atoms: C3_3  and  N1_4 
REMARK    5  A    between atoms: C5_10  and  N4_11 
REMARK    6  A    between atoms: N7_20  and  C8_22 
REMARK    7  A    between atoms: N10_28  and  N11_29 
ROOT
HETATM    1  C1  UNL     1      16.928  38.813  36.990  1.00  0.00     0.053 C 
HETATM    2  C2  UNL     1      18.133  39.296  36.144  1.00  0.00     0.149 C 
ENDROOT
BRANCH   2   3
HETATM    3  C3  UNL     1      19.002  38.147  35.764  1.00  0.00     0.195 C 
BRANCH   3   4
HETATM    4  N1  UNL     1      19.187  37.123  36.740  1.00  0.00    -0.257 N 
HETATM    5  N2  UNL     1      19.873  37.149  37.870  1.00  0.00    -0.238 N 
HETATM    6  N3  UNL     1      19.851  36.023  38.514  1.00  0.00    -0.279 N 
ATOM      7  H2  UNL     1      20.372  37.974  38.204  1.00  0.00     0.208 HD
HETATM    8  C4  UNL     1      19.108  35.160  37.795  1.00  0.00     0.139 A 
ATOM      9  H3  UNL     1      20.311  35.827  39.403  1.00  0.00     0.189 HD
HETATM   10  C5  UNL     1      18.767  33.842  38.015  1.00  0.00     0.132 A 
HETATM   11  C7  UNL     1      18.683  35.856  36.663  1.00  0.00     0.157 A 
HETATM   12  N5  UNL     1      18.001  33.204  37.115  1.00  0.00    -0.337 N 
HETATM   13  C6  UNL     1      17.598  33.894  36.022  1.00  0.00     0.183 A 
ATOM     14  H5  UNL     1      17.731  32.229  37.251  1.00  0.00     0.168 HD
HETATM   15  N6  UNL     1      17.929  35.176  35.806  1.00  0.00    -0.335 N 
ATOM     16  H6  UNL     1      17.593  35.641  34.963  1.00  0.00     0.168 HD
BRANCH  10  17
HETATM   17  N4  UNL     1      19.180  33.236  39.074  1.00  0.00    -0.383 N 
ATOM     18  H42 UNL     1      19.702  33.739  39.791  1.00  0.00     0.157 HD
ATOM     19  H41 UNL     1      18.987  32.242  39.202  1.00  0.00     0.157 HD
ENDBRANCH  10  17
ENDBRANCH   3   4
ENDBRANCH   2   3
BRANCH   2  20
HETATM   20  N7  UNL     1      17.559  39.827  34.957  1.00  0.00    -0.202 N 
ATOM     21  H7  UNL     1      18.122  39.621  34.131  1.00  0.00     0.179 HD
BRANCH  20  22
HETATM   22  C8  UNL     1      16.548  40.475  34.683  1.00  0.00     0.716 A 
HETATM   23  N8  UNL     1      15.528  40.826  35.464  1.00  0.00    -0.184 N 
HETATM   24  C9  UNL     1      14.621  41.545  34.735  1.00  0.00     0.217 A 
ATOM     25  H8  UNL     1      15.438  40.595  36.454  1.00  0.00     0.185 HD
HETATM   26  N9  UNL     1      15.134  41.605  33.509  1.00  0.00    -0.260 N 
HETATM   27  N10 UNL     1      16.291  40.974  33.437  1.00  0.00    -0.026 N 
ATOM     28  H9  UNL     1      14.689  42.078  32.722  1.00  0.00     0.190 HD
BRANCH  27  29
HETATM   29  N11 UNL     1      17.049  40.876  32.279  1.00  0.00    -0.309 N 
ATOM     30 2H11 UNL     1      17.068  40.051  31.679  1.00  0.00     0.179 HD
ATOM     31 1H11 UNL     1      17.673  41.563  31.857  1.00  0.00     0.179 HD
ENDBRANCH  27  29
ENDBRANCH  20  22
ENDBRANCH   2  20
BRANCH   2  32
HETATM   32  C10 UNL     1      18.812  40.279  36.988  1.00  0.00     0.204 C 
HETATM   33  O1  UNL     1      19.384  41.326  36.587  1.00  0.00    -0.646 OA
HETATM   34  O2  UNL     1      18.853  40.089  38.356  1.00  0.00    -0.646 OA
ENDBRANCH   2  32
TORSDOF 7
ENDMDL
MODEL 2
REMARK VINA RESULT: -8.499643884      0.796      1.902
REMARK  7 active torsions:
REMARK  status: ('A' for Active; 'I' for Inactive)
REMARK    1  A    between atoms: C2_2  and  C3_3 
REMARK    2  A    between atoms: C2_2  and  N7_20 
REMARK    3  A    between atoms: C2_2  and  C10_32 
REMARK    4  A    between atoms: C3_3  and  N1_4 
REMARK    5  A    between atoms: C5_10  and  N4_11 
REMARK    6  A    between atoms: N7_20  and  C8_22 
REMARK    7  A    between atoms: N10_28  and  N11_29 
ROOT
HETATM    1  C1  UNL     1      16.782  38.781  36.855  1.00  0.00     0.053 C 
HETATM    2  C2  UNL     1      18.001  39.310  36.059  1.00  0.00     0.149 C 
ENDROOT
BRANCH   2   3
HETATM    3  C3  UNL     1      18.761  38.182  35.451  1.00  0.00     0.195 C 
BRANCH   3   4
HETATM    4  N1  UNL     1      18.600  36.895  36.047  1.00  0.00    -0.257 N 
HETATM    5  N2  UNL     1      17.785  35.908  35.714  1.00  0.00    -0.238 N 
HETATM    6  N3  UNL     1      17.882  34.874  36.493  1.00  0.00    -0.279 N 
ATOM      7  H2  UNL     1      17.143  35.954  34.923  1.00  0.00     0.208 HD
HETATM    8  C4  UNL     1      18.815  35.154  37.423  1.00  0.00     0.139 A 
ATOM      9  H3  UNL     1      17.348  34.009  36.416  1.00  0.00     0.189 HD
HETATM   10  C5  UNL     1      19.302  34.416  38.481  1.00  0.00     0.132 A 
HETATM   11  C7  UNL     1      19.276  36.441  37.143  1.00  0.00     0.157 A 
HETATM   12  N5  UNL     1      20.250  34.948  39.270  1.00  0.00    -0.337 N 
HETATM   13  C6  UNL     1      20.685  36.198  38.984  1.00  0.00     0.183 A 
ATOM     14  H5  UNL     1      20.630  34.425  40.060  1.00  0.00     0.168 HD
HETATM   15  N6  UNL     1      20.212  36.918  37.956  1.00  0.00    -0.335 N 
ATOM     16  H6  UNL     1      20.582  37.854  37.793  1.00  0.00     0.168 HD
BRANCH  10  17
HETATM   17  N4  UNL     1      18.850  33.231  38.705  1.00  0.00    -0.383 N 
ATOM     18  H42 UNL     1      19.167  32.440  38.144  1.00  0.00     0.157 HD
ATOM     19  H41 UNL     1      18.168  33.075  39.448  1.00  0.00     0.157 HD
ENDBRANCH  10  17
ENDBRANCH   3   4
ENDBRANCH   2   3
BRANCH   2  20
HETATM   20  N7  UNL     1      17.444  40.085  35.005  1.00  0.00    -0.202 N 
ATOM     21  H7  UNL     1      18.098  40.213  34.233  1.00  0.00     0.179 HD
BRANCH  20  22
HETATM   22  C8  UNL     1      16.363  40.640  34.799  1.00  0.00     0.716 A 
HETATM   23  N8  UNL     1      15.347  40.855  35.633  1.00  0.00    -0.184 N 
HETATM   24  C9  UNL     1      14.345  41.510  34.971  1.00  0.00     0.217 A 
ATOM     25  H8  UNL     1      15.321  40.575  36.613  1.00  0.00     0.185 HD
HETATM   26  N9  UNL     1      14.798  41.671  33.730  1.00  0.00    -0.260 N 
HETATM   27  N10 UNL     1      16.008  41.162  33.587  1.00  0.00    -0.026 N 
ATOM     28  H9  UNL     1      14.277  42.131  32.983  1.00  0.00     0.190 HD
BRANCH  27  29
HETATM   29  N11 UNL     1      16.723  41.189  32.399  1.00  0.00    -0.309 N 
ATOM     30 2H11 UNL     1      16.845  42.025  31.826  1.00  0.00     0.179 HD
ATOM     31 1H11 UNL     1      17.216  40.433  31.925  1.00  0.00     0.179 HD
ENDBRANCH  27  29
ENDBRANCH  20  22
ENDBRANCH   2  20
BRANCH   2  32
HETATM   32  C10 UNL     1      18.781  40.072  37.032  1.00  0.00     0.204 C 
HETATM   33  O1  UNL     1      18.951  39.770  38.242  1.00  0.00    -0.646 OA
HETATM   34  O2  UNL     1      19.413  41.237  36.637  1.00  0.00    -0.646 OA
ENDBRANCH   2  32
TORSDOF 7
ENDMDL
MODEL 3
REMARK VINA RESULT: -8.050300263      2.150      6.838
REMARK  7 active torsions:
REMARK  status: ('A' for Active; 'I' for Inactive)
REMARK    1  A    between atoms: C2_2  and  C3_3 
REMARK    2  A    between atoms: C2_2  and  N7_20 
REMARK    3  A    between atoms: C2_2  and  C10_32 
REMARK    4  A    between atoms: C3_3  and  N1_4 
REMARK    5  A    between atoms: C5_10  and  N4_11 
REMARK    6  A    between atoms: N7_20  and  C8_22 
REMARK    7  A    between atoms: N10_28  and  N11_29 
ROOT
HETATM    1  C1  UNL     1      18.957  36.885  36.441  1.00  0.00     0.053 C 
HETATM    2  C2  UNL     1      18.731  38.030  37.461  1.00  0.00     0.149 C 
ENDROOT
BRANCH   2   3
HETATM    3  C3  UNL     1      17.351  38.578  37.339  1.00  0.00     0.195 C 
BRANCH   3   4
HETATM    4  N1  UNL     1      17.067  39.372  36.188  1.00  0.00    -0.257 N 
HETATM    5  N2  UNL     1      17.839  39.661  35.153  1.00  0.00    -0.238 N 
HETATM    6  N3  UNL     1      17.267  40.439  34.285  1.00  0.00    -0.279 N 
ATOM      7  H2  UNL     1      18.790  39.309  35.047  1.00  0.00     0.208 HD
HETATM    8  C4  UNL     1      16.028  40.708  34.737  1.00  0.00     0.139 A 
ATOM      9  H3  UNL     1      17.681  40.783  33.418  1.00  0.00     0.189 HD
HETATM   10  C5  UNL     1      15.010  41.477  34.213  1.00  0.00     0.132 A 
HETATM   11  C7  UNL     1      15.895  40.031  35.950  1.00  0.00     0.157 A 
HETATM   12  N5  UNL     1      13.852  41.579  34.887  1.00  0.00    -0.337 N 
HETATM   13  C6  UNL     1      13.741  40.915  36.062  1.00  0.00     0.183 A 
ATOM     14  H5  UNL     1      13.080  42.140  34.524  1.00  0.00     0.168 HD
HETATM   15  N6  UNL     1      14.730  40.168  36.574  1.00  0.00    -0.335 N 
ATOM     16  H6  UNL     1      14.584  39.692  37.464  1.00  0.00     0.168 HD
BRANCH  10  17
HETATM   17  N4  UNL     1      15.172  42.086  33.090  1.00  0.00    -0.383 N 
ATOM     18  H42 UNL     1      15.376  41.561  32.239  1.00  0.00     0.157 HD
ATOM     19  H41 UNL     1      15.098  43.102  33.044  1.00  0.00     0.157 HD
ENDBRANCH  10  17
ENDBRANCH   3   4
ENDBRANCH   2   3
BRANCH   2  20
HETATM   20  N7  UNL     1      18.850  37.414  38.737  1.00  0.00    -0.202 N 
ATOM     21  H7  UNL     1      18.051  36.819  38.954  1.00  0.00     0.179 HD
BRANCH  20  22
HETATM   22  C8  UNL     1      19.684  37.425  39.644  1.00  0.00     0.716 A 
HETATM   23  N8  UNL     1      19.651  38.050  40.820  1.00  0.00    -0.184 N 
HETATM   24  C9  UNL     1      20.798  37.779  41.513  1.00  0.00     0.217 A 
ATOM     25  H8  UNL     1      18.888  38.639  41.152  1.00  0.00     0.185 HD
HETATM   26  N9  UNL     1      21.504  36.981  40.715  1.00  0.00    -0.260 N 
HETATM   27  N10 UNL     1      20.868  36.745  39.582  1.00  0.00    -0.026 N 
ATOM     28  H9  UNL     1      22.421  36.600  40.948  1.00  0.00     0.190 HD
BRANCH  27  29
HETATM   29  N11 UNL     1      21.370  35.946  38.565  1.00  0.00    -0.309 N 
ATOM     30 2H11 UNL     1      21.851  35.061  38.722  1.00  0.00     0.179 HD
ATOM     31 1H11 UNL     1      21.346  36.095  37.556  1.00  0.00     0.179 HD
ENDBRANCH  27  29
ENDBRANCH  20  22
ENDBRANCH   2  20
BRANCH   2  32
HETATM   32  C10 UNL     1      19.771  39.012  37.156  1.00  0.00     0.204 C 
HETATM   33  O1  UNL     1      20.697  38.870  36.316  1.00  0.00    -0.646 OA
HETATM   34  O2  UNL     1      19.778  40.225  37.820  1.00  0.00    -0.646 OA
ENDBRANCH   2  32
TORSDOF 7
ENDMDL
MODEL 4
REMARK VINA RESULT: -7.691267601      1.089      1.629
REMARK  7 active torsions:
REMARK  status: ('A' for Active; 'I' for Inactive)
REMARK    1  A    between atoms: C2_2  and  C3_3 
REMARK    2  A    between atoms: C2_2  and  N7_20 
REMARK    3  A    between atoms: C2_2  and  C10_32 
REMARK    4  A    between atoms: C3_3  and  N1_4 
REMARK    5  A    between atoms: C5_10  and  N4_11 
REMARK    6  A    between atoms: N7_20  and  C8_22 
REMARK    7  A    between atoms: N10_28  and  N11_29 
ROOT
HETATM    1  C1  UNL     1      18.223  38.814  38.181  1.00  0.00     0.053 C 
HETATM    2  C2  UNL     1      18.930  39.066  36.825  1.00  0.00     0.149 C 
ENDROOT
BRANCH   2   3
HETATM    3  C3  UNL     1      19.945  38.009  36.557  1.00  0.00     0.195 C 
BRANCH   3   4
HETATM    4  N1  UNL     1      19.869  36.821  37.345  1.00  0.00    -0.257 N 
HETATM    5  N2  UNL     1      20.515  36.504  38.455  1.00  0.00    -0.238 N 
HETATM    6  N3  UNL     1      20.222  35.321  38.902  1.00  0.00    -0.279 N 
ATOM      7  H2  UNL     1      21.178  37.127  38.916  1.00  0.00     0.208 HD
HETATM    8  C4  UNL     1      19.323  34.781  38.058  1.00  0.00     0.139 A 
ATOM      9  H3  UNL     1      20.604  34.881  39.739  1.00  0.00     0.189 HD
HETATM   10  C5  UNL     1      18.687  33.557  38.059  1.00  0.00     0.132 A 
HETATM   11  C7  UNL     1      19.094  35.733  37.064  1.00  0.00     0.157 A 
HETATM   12  N5  UNL     1      17.820  33.267  37.075  1.00  0.00    -0.337 N 
HETATM   13  C6  UNL     1      17.611  34.203  36.118  1.00  0.00     0.183 A 
ATOM     14  H5  UNL     1      17.334  32.370  37.050  1.00  0.00     0.168 HD
HETATM   15  N6  UNL     1      18.228  35.394  36.115  1.00  0.00    -0.335 N 
ATOM     16  H6  UNL     1      18.027  36.056  35.366  1.00  0.00     0.168 HD
BRANCH  10  17
HETATM   17  N4  UNL     1      18.925  32.706  38.995  1.00  0.00    -0.383 N 
ATOM     18  H42 UNL     1      19.156  31.737  38.772  1.00  0.00     0.157 HD
ATOM     19  H41 UNL     1      18.884  32.995  39.973  1.00  0.00     0.157 HD
ENDBRANCH  10  17
ENDBRANCH   3   4
ENDBRANCH   2   3
BRANCH   2  20
HETATM   20  N7  UNL     1      17.903  38.948  35.848  1.00  0.00    -0.202 N 
ATOM     21  H7  UNL     1      17.775  37.986  35.536  1.00  0.00     0.179 HD
BRANCH  20  22
HETATM   22  C8  UNL     1      17.131  39.727  35.287  1.00  0.00     0.716 A 
HETATM   23  N8  UNL     1      17.278  40.390  34.142  1.00  0.00    -0.184 N 
HETATM   24  C9  UNL     1      16.162  41.145  33.904  1.00  0.00     0.217 A 
ATOM     25  H8  UNL     1      18.098  40.343  33.536  1.00  0.00     0.185 HD
HETATM   26  N9  UNL     1      15.359  40.907  34.937  1.00  0.00    -0.260 N 
HETATM   27  N10 UNL     1      15.905  40.060  35.790  1.00  0.00    -0.026 N 
ATOM     28  H9  UNL     1      14.436  41.327  35.056  1.00  0.00     0.190 HD
BRANCH  27  29
HETATM   29  N11 UNL     1      15.289  39.634  36.958  1.00  0.00    -0.309 N 
ATOM     30 2H11 UNL     1      14.423  40.031  37.323  1.00  0.00     0.179 HD
ATOM     31 1H11 UNL     1      15.576  38.902  37.608  1.00  0.00     0.179 HD
ENDBRANCH  27  29
ENDBRANCH  20  22
ENDBRANCH   2  20
BRANCH   2  32
HETATM   32  C10 UNL     1      19.507  40.403  36.948  1.00  0.00     0.204 C 
HETATM   33  O1  UNL     1      19.132  41.430  36.324  1.00  0.00    -0.646 OA
HETATM   34  O2  UNL     1      20.561  40.612  37.818  1.00  0.00    -0.646 OA
ENDBRANCH   2  32
TORSDOF 7
ENDMDL
MODEL 5
REMARK VINA RESULT: -7.503977393      1.453      6.839
REMARK  7 active torsions:
REMARK  status: ('A' for Active; 'I' for Inactive)
REMARK    1  A    between atoms: C2_2  and  C3_3 
REMARK    2  A    between atoms: C2_2  and  N7_20 
REMARK    3  A    between atoms: C2_2  and  C10_32 
REMARK    4  A    between atoms: C3_3  and  N1_4 
REMARK    5  A    between atoms: C5_10  and  N4_11 
REMARK    6  A    between atoms: N7_20  and  C8_22 
REMARK    7  A    between atoms: N10_28  and  N11_29 
ROOT
HETATM    1  C1  UNL     1      19.047  37.437  36.104  1.00  0.00     0.053 C 
HETATM    2  C2  UNL     1      18.631  38.212  37.380  1.00  0.00     0.149 C 
ENDROOT
BRANCH   2   3
HETATM    3  C3  UNL     1      17.255  38.766  37.233  1.00  0.00     0.195 C 
BRANCH   3   4
HETATM    4  N1  UNL     1      16.980  39.513  36.049  1.00  0.00    -0.257 N 
HETATM    5  N2  UNL     1      17.743  39.725  34.990  1.00  0.00    -0.238 N 
HETATM    6  N3  UNL     1      17.183  40.480  34.094  1.00  0.00    -0.279 N 
ATOM      7  H2  UNL     1      18.679  39.334  34.886  1.00  0.00     0.208 HD
HETATM    8  C4  UNL     1      15.963  40.815  34.552  1.00  0.00     0.139 A 
ATOM      9  H3  UNL     1      17.594  40.767  33.205  1.00  0.00     0.189 HD
HETATM   10  C5  UNL     1      14.963  41.594  34.008  1.00  0.00     0.132 A 
HETATM   11  C7  UNL     1      15.828  40.202  35.798  1.00  0.00     0.157 A 
HETATM   12  N5  UNL     1      13.822  41.770  34.693  1.00  0.00    -0.337 N 
HETATM   13  C6  UNL     1      13.708  41.168  35.901  1.00  0.00     0.183 A 
ATOM     14  H5  UNL     1      13.064  42.340  34.316  1.00  0.00     0.168 HD
HETATM   15  N6  UNL     1      14.680  40.411  36.433  1.00  0.00    -0.335 N 
ATOM     16  H6  UNL     1      14.532  39.984  37.347  1.00  0.00     0.168 HD
BRANCH  10  17
HETATM   17  N4  UNL     1      15.127  42.142  32.854  1.00  0.00    -0.383 N 
ATOM     18  H42 UNL     1      15.900  41.862  32.250  1.00  0.00     0.157 HD
ATOM     19  H41 UNL     1      14.482  42.865  32.535  1.00  0.00     0.157 HD
ENDBRANCH  10  17
ENDBRANCH   3   4
ENDBRANCH   2   3
BRANCH   2  20
HETATM   20  N7  UNL     1      18.605  37.235  38.412  1.00  0.00    -0.202 N 
ATOM     21  H7  UNL     1      18.274  37.618  39.298  1.00  0.00     0.179 HD
BRANCH  20  22
HETATM   22  C8  UNL     1      18.886  36.038  38.496  1.00  0.00     0.716 A 
HETATM   23  N8  UNL     1      18.133  34.970  38.238  1.00  0.00    -0.184 N 
HETATM   24  C9  UNL     1      18.858  33.834  38.472  1.00  0.00     0.217 A 
ATOM     25  H8  UNL     1      17.166  34.996  37.917  1.00  0.00     0.185 HD
HETATM   26  N9  UNL     1      20.052  34.263  38.873  1.00  0.00    -0.260 N 
HETATM   27  N10 UNL     1      20.108  35.581  38.901  1.00  0.00    -0.026 N 
ATOM     28  H9  UNL     1      20.827  33.650  39.127  1.00  0.00     0.190 HD
BRANCH  27  29
HETATM   29  N11 UNL     1      21.233  36.300  39.280  1.00  0.00    -0.309 N 
ATOM     30 2H11 UNL     1      22.169  36.131  38.911  1.00  0.00     0.179 HD
ATOM     31 1H11 UNL     1      21.313  37.067  39.947  1.00  0.00     0.179 HD
ENDBRANCH  27  29
ENDBRANCH  20  22
ENDBRANCH   2  20
BRANCH   2  32
HETATM   32  C10 UNL     1      19.654  39.244  37.540  1.00  0.00     0.204 C 
HETATM   33  O1  UNL     1      19.890  40.181  36.734  1.00  0.00    -0.646 OA
HETATM   34  O2  UNL     1      20.459  39.237  38.664  1.00  0.00    -0.646 OA
ENDBRANCH   2  32
TORSDOF 7
ENDMDL
