MODEL 1
REMARK VINA RESULT: -9.472401896      0.000      0.000
REMARK  6 active torsions:
REMARK  status: ('A' for Active; 'I' for Inactive)
REMARK    1  A    between atoms: C4_5  and  C5_6 
REMARK    2  A    between atoms: C5_6  and  C6_7 
REMARK    3  A    between atoms: C5_6  and  N2_16 
REMARK    4  A    between atoms: C6_7  and  N1_8 
REMARK    5  A    between atoms: N1_8  and  C7_10 
REMARK    6  A    between atoms: N2_16  and  C13_18 
ROOT
HETATM    1  C5  UNL     1      68.171  25.936  23.069  1.00  0.00     0.134 C 
ENDROOT
BRANCH   1   2
HETATM    2  C4  UNL     1      67.229  24.791  22.946  1.00  0.00    -0.018 A 
HETATM    3  C3  UNL     1      66.618  24.676  21.697  1.00  0.00     0.014 A 
HETATM    4  C2  UNL     1      65.721  23.659  21.493  1.00  0.00     0.043 A 
HETATM    5  C1  UNL     1      65.434  22.773  22.509  1.00  0.00     0.103 A 
HETATM    6 CL1  UNL     1      64.277  21.479  22.209  1.00  0.00    -0.065 Cl
HETATM    7  N3  UNL     1      66.044  22.925  23.687  1.00  0.00    -0.356 N 
HETATM    8  C19 UNL     1      66.927  23.902  23.935  1.00  0.00     0.098 A 
ATOM      9  H3  UNL     1      65.827  22.265  24.434  1.00  0.00     0.166 HD
ENDBRANCH   1   2
BRANCH   1  10
HETATM   10  C6  UNL     1      69.572  25.676  22.720  1.00  0.00     0.150 C 
BRANCH  10  11
HETATM   11  N1  UNL     1      70.232  26.833  22.096  1.00  0.00    -0.388 N 
ATOM     12  H1  UNL     1      70.724  27.537  22.648  1.00  0.00     0.159 HD
BRANCH  11  13
HETATM   13  C7  UNL     1      70.145  26.914  20.680  1.00  0.00     0.028 A 
HETATM   14  C8  UNL     1      70.715  27.978  19.981  1.00  0.00     0.029 A 
HETATM   15  C9  UNL     1      70.649  28.086  18.610  1.00  0.00     0.002 A 
HETATM   16  C10 UNL     1      69.997  27.113  17.877  1.00  0.00     0.000 A 
HETATM   17  C11 UNL     1      69.421  26.047  18.536  1.00  0.00     0.002 A 
HETATM   18  C12 UNL     1      69.504  25.967  19.910  1.00  0.00     0.029 A 
ENDBRANCH  11  13
ENDBRANCH  10  11
ENDBRANCH   1  10
BRANCH   1  19
HETATM   19  N2  UNL     1      68.020  26.478  24.390  1.00  0.00    -0.380 N 
ATOM     20  H2  UNL     1      68.482  25.939  25.122  1.00  0.00     0.160 HD
BRANCH  19  21
HETATM   21  C13 UNL     1      67.353  27.609  24.845  1.00  0.00     0.028 A 
HETATM   22  C14 UNL     1      67.939  28.755  25.267  1.00  0.00     0.029 A 
HETATM   23  C15 UNL     1      67.212  29.882  25.688  1.00  0.00     0.002 A 
HETATM   24  C16 UNL     1      65.842  29.812  25.669  1.00  0.00     0.000 A 
HETATM   25  C17 UNL     1      65.193  28.655  25.244  1.00  0.00     0.002 A 
HETATM   26  C18 UNL     1      65.953  27.579  24.842  1.00  0.00     0.029 A 
ENDBRANCH  19  21
ENDBRANCH   1  19
TORSDOF 6
ENDMDL
MODEL 2
REMARK VINA RESULT: -9.437307921      0.831      1.287
REMARK  6 active torsions:
REMARK  status: ('A' for Active; 'I' for Inactive)
REMARK    1  A    between atoms: C4_5  and  C5_6 
REMARK    2  A    between atoms: C5_6  and  C6_7 
REMARK    3  A    between atoms: C5_6  and  N2_16 
REMARK    4  A    between atoms: C6_7  and  N1_8 
REMARK    5  A    between atoms: N1_8  and  C7_10 
REMARK    6  A    between atoms: N2_16  and  C13_18 
ROOT
HETATM    1  C5  UNL     1      68.314  26.004  23.224  1.00  0.00     0.134 C 
ENDROOT
BRANCH   1   2
HETATM    2  C4  UNL     1      67.358  25.021  22.645  1.00  0.00    -0.018 A 
HETATM    3  C3  UNL     1      67.097  25.199  21.286  1.00  0.00     0.014 A 
HETATM    4  C2  UNL     1      66.217  24.349  20.667  1.00  0.00     0.043 A 
HETATM    5  C1  UNL     1      65.605  23.342  21.383  1.00  0.00     0.103 A 
HETATM    6 CL1  UNL     1      64.480  22.270  20.554  1.00  0.00    -0.065 Cl
HETATM    7  N3  UNL     1      65.887  23.213  22.682  1.00  0.00    -0.356 N 
HETATM    8  C19 UNL     1      66.740  24.017  23.331  1.00  0.00     0.098 A 
ATOM      9  H3  UNL     1      65.431  22.465  23.205  1.00  0.00     0.166 HD
ENDBRANCH   1   2
BRANCH   1  10
HETATM   10  C6  UNL     1      69.722  25.598  23.281  1.00  0.00     0.150 C 
BRANCH  10  11
HETATM   11  N1  UNL     1      70.645  26.672  22.880  1.00  0.00    -0.388 N 
ATOM     12  H1  UNL     1      71.226  27.166  23.558  1.00  0.00     0.159 HD
BRANCH  11  13
HETATM   13  C7  UNL     1      70.679  26.981  21.493  1.00  0.00     0.028 A 
HETATM   14  C8  UNL     1      70.659  25.973  20.529  1.00  0.00     0.029 A 
HETATM   15  C9  UNL     1      70.689  26.237  19.177  1.00  0.00     0.002 A 
HETATM   16  C10 UNL     1      70.743  27.545  18.737  1.00  0.00     0.000 A 
HETATM   17  C11 UNL     1      70.764  28.567  19.663  1.00  0.00     0.002 A 
HETATM   18  C12 UNL     1      70.732  28.270  21.009  1.00  0.00     0.029 A 
ENDBRANCH  11  13
ENDBRANCH  10  11
ENDBRANCH   1  10
BRANCH   1  19
HETATM   19  N2  UNL     1      67.798  26.403  24.503  1.00  0.00    -0.380 N 
ATOM     20  H2  UNL     1      67.890  25.696  25.233  1.00  0.00     0.160 HD
BRANCH  19  21
HETATM   21  C13 UNL     1      67.197  27.583  24.921  1.00  0.00     0.028 A 
HETATM   22  C14 UNL     1      67.846  28.697  25.338  1.00  0.00     0.029 A 
HETATM   23  C15 UNL     1      67.185  29.877  25.721  1.00  0.00     0.002 A 
HETATM   24  C16 UNL     1      65.814  29.895  25.668  1.00  0.00     0.000 A 
HETATM   25  C17 UNL     1      65.101  28.775  25.247  1.00  0.00     0.002 A 
HETATM   26  C18 UNL     1      65.798  27.645  24.883  1.00  0.00     0.029 A 
ENDBRANCH  19  21
ENDBRANCH   1  19
TORSDOF 6
ENDMDL
MODEL 3
REMARK VINA RESULT: -9.146222663      1.147      1.720
REMARK  6 active torsions:
REMARK  status: ('A' for Active; 'I' for Inactive)
REMARK    1  A    between atoms: C4_5  and  C5_6 
REMARK    2  A    between atoms: C5_6  and  C6_7 
REMARK    3  A    between atoms: C5_6  and  N2_16 
REMARK    4  A    between atoms: C6_7  and  N1_8 
REMARK    5  A    between atoms: N1_8  and  C7_10 
REMARK    6  A    between atoms: N2_16  and  C13_18 
ROOT
HETATM    1  C5  UNL     1      66.509  25.307  22.363  1.00  0.00     0.134 C 
ENDROOT
BRANCH   1   2
HETATM    2  C4  UNL     1      65.929  23.947  22.533  1.00  0.00    -0.018 A 
HETATM    3  C3  UNL     1      65.328  23.427  21.386  1.00  0.00     0.014 A 
HETATM    4  C2  UNL     1      64.752  22.184  21.449  1.00  0.00     0.043 A 
HETATM    5  C1  UNL     1      64.771  21.470  22.628  1.00  0.00     0.103 A 
HETATM    6 CL1  UNL     1      64.022  19.877  22.671  1.00  0.00    -0.065 Cl
HETATM    7  N3  UNL     1      65.359  22.010  23.699  1.00  0.00    -0.356 N 
HETATM    8  C19 UNL     1      65.934  23.220  23.687  1.00  0.00     0.098 A 
ATOM      9  H3  UNL     1      65.370  21.476  24.568  1.00  0.00     0.166 HD
ENDBRANCH   1   2
BRANCH   1  10
HETATM   10  C6  UNL     1      67.429  25.494  21.236  1.00  0.00     0.150 C 
BRANCH  10  11
HETATM   11  N1  UNL     1      68.834  25.614  21.658  1.00  0.00    -0.388 N 
ATOM     12  H1  UNL     1      69.218  25.058  22.423  1.00  0.00     0.159 HD
BRANCH  11  13
HETATM   13  C7  UNL     1      69.625  26.549  20.937  1.00  0.00     0.028 A 
HETATM   14  C8  UNL     1      69.788  26.443  19.555  1.00  0.00     0.029 A 
HETATM   15  C9  UNL     1      70.546  27.332  18.826  1.00  0.00     0.002 A 
HETATM   16  C10 UNL     1      71.179  28.379  19.469  1.00  0.00     0.000 A 
HETATM   17  C11 UNL     1      71.039  28.514  20.834  1.00  0.00     0.002 A 
HETATM   18  C12 UNL     1      70.273  27.608  21.536  1.00  0.00     0.029 A 
ENDBRANCH  11  13
ENDBRANCH  10  11
ENDBRANCH   1  10
BRANCH   1  19
HETATM   19  N2  UNL     1      67.086  25.689  23.621  1.00  0.00    -0.380 N 
ATOM     20  H2  UNL     1      67.699  24.985  24.033  1.00  0.00     0.160 HD
BRANCH  19  21
HETATM   21  C13 UNL     1      66.956  26.848  24.374  1.00  0.00     0.028 A 
HETATM   22  C14 UNL     1      67.973  27.645  24.781  1.00  0.00     0.029 A 
HETATM   23  C15 UNL     1      67.780  28.827  25.516  1.00  0.00     0.002 A 
HETATM   24  C16 UNL     1      66.495  29.186  25.837  1.00  0.00     0.000 A 
HETATM   25  C17 UNL     1      65.416  28.399  25.442  1.00  0.00     0.002 A 
HETATM   26  C18 UNL     1      65.661  27.251  24.723  1.00  0.00     0.029 A 
ENDBRANCH  19  21
ENDBRANCH   1  19
TORSDOF 6
ENDMDL
MODEL 4
REMARK VINA RESULT: -8.957935233      2.595      6.553
REMARK  6 active torsions:
REMARK  status: ('A' for Active; 'I' for Inactive)
REMARK    1  A    between atoms: C4_5  and  C5_6 
REMARK    2  A    between atoms: C5_6  and  C6_7 
REMARK    3  A    between atoms: C5_6  and  N2_16 
REMARK    4  A    between atoms: C6_7  and  N1_8 
REMARK    5  A    between atoms: N1_8  and  C7_10 
REMARK    6  A    between atoms: N2_16  and  C13_18 
ROOT
HETATM    1  C5  UNL     1      66.037  25.612  23.173  1.00  0.00     0.134 C 
ENDROOT
BRANCH   1   2
HETATM    2  C4  UNL     1      67.505  25.734  22.958  1.00  0.00    -0.018 A 
HETATM    3  C3  UNL     1      67.881  25.902  21.625  1.00  0.00     0.014 A 
HETATM    4  C2  UNL     1      69.216  26.009  21.326  1.00  0.00     0.043 A 
HETATM    5  C1  UNL     1      70.159  25.948  22.329  1.00  0.00     0.103 A 
HETATM    6 CL1  UNL     1      71.862  26.089  21.906  1.00  0.00    -0.065 Cl
HETATM    7  N3  UNL     1      69.748  25.785  23.589  1.00  0.00    -0.356 N 
HETATM    8  C19 UNL     1      68.457  25.677  23.932  1.00  0.00     0.098 A 
ATOM      9  H3  UNL     1      70.452  25.742  24.327  1.00  0.00     0.166 HD
ENDBRANCH   1   2
BRANCH   1  10
HETATM   10  C6  UNL     1      65.598  25.262  24.528  1.00  0.00     0.150 C 
BRANCH  10  11
HETATM   11  N1  UNL     1      64.790  26.318  25.160  1.00  0.00    -0.388 N 
ATOM     12  H1  UNL     1      63.820  26.163  25.435  1.00  0.00     0.159 HD
BRANCH  11  13
HETATM   13  C7  UNL     1      65.441  27.564  25.363  1.00  0.00     0.028 A 
HETATM   14  C8  UNL     1      66.646  27.644  26.063  1.00  0.00     0.029 A 
HETATM   15  C9  UNL     1      67.303  28.835  26.277  1.00  0.00     0.002 A 
HETATM   16  C10 UNL     1      66.766  30.010  25.788  1.00  0.00     0.000 A 
HETATM   17  C11 UNL     1      65.577  29.968  25.092  1.00  0.00     0.002 A 
HETATM   18  C12 UNL     1      64.943  28.760  24.894  1.00  0.00     0.029 A 
ENDBRANCH  11  13
ENDBRANCH  10  11
ENDBRANCH   1  10
BRANCH   1  19
HETATM   19  N2  UNL     1      65.529  24.714  22.175  1.00  0.00    -0.380 N 
ATOM     20  H2  UNL     1      65.321  25.155  21.279  1.00  0.00     0.160 HD
BRANCH  19  21
HETATM   21  C13 UNL     1      65.270  23.350  22.216  1.00  0.00     0.028 A 
HETATM   22  C14 UNL     1      65.368  22.560  23.312  1.00  0.00     0.029 A 
HETATM   23  C15 UNL     1      65.063  21.188  23.303  1.00  0.00     0.002 A 
HETATM   24  C16 UNL     1      64.648  20.626  22.122  1.00  0.00     0.000 A 
HETATM   25  C17 UNL     1      64.533  21.397  20.968  1.00  0.00     0.002 A 
HETATM   26  C18 UNL     1      64.844  22.736  21.032  1.00  0.00     0.029 A 
ENDBRANCH  19  21
ENDBRANCH   1  19
TORSDOF 6
ENDMDL
MODEL 5
REMARK VINA RESULT: -8.772278086      2.488      5.259
REMARK  6 active torsions:
REMARK  status: ('A' for Active; 'I' for Inactive)
REMARK    1  A    between atoms: C4_5  and  C5_6 
REMARK    2  A    between atoms: C5_6  and  C6_7 
REMARK    3  A    between atoms: C5_6  and  N2_16 
REMARK    4  A    between atoms: C6_7  and  N1_8 
REMARK    5  A    between atoms: N1_8  and  C7_10 
REMARK    6  A    between atoms: N2_16  and  C13_18 
ROOT
HETATM    1  C5  UNL     1      67.460  25.130  23.404  1.00  0.00     0.134 C 
ENDROOT
BRANCH   1   2
HETATM    2  C4  UNL     1      67.200  26.385  24.162  1.00  0.00    -0.018 A 
HETATM    3  C3  UNL     1      68.343  27.126  24.463  1.00  0.00     0.014 A 
HETATM    4  C2  UNL     1      68.204  28.292  25.172  1.00  0.00     0.043 A 
HETATM    5  C1  UNL     1      66.956  28.714  25.577  1.00  0.00     0.103 A 
HETATM    6 CL1  UNL     1      66.819  30.216  26.486  1.00  0.00    -0.065 Cl
HETATM    7  N3  UNL     1      65.892  27.969  25.264  1.00  0.00    -0.356 N 
HETATM    8  C19 UNL     1      65.976  26.824  24.574  1.00  0.00     0.098 A 
ATOM      9  H3  UNL     1      64.972  28.288  25.566  1.00  0.00     0.166 HD
ENDBRANCH   1   2
BRANCH   1  10
HETATM   10  C6  UNL     1      68.692  25.085  22.610  1.00  0.00     0.150 C 
BRANCH  10  11
HETATM   11  N1  UNL     1      68.469  25.396  21.189  1.00  0.00    -0.388 N 
ATOM     12  H1  UNL     1      67.722  24.956  20.651  1.00  0.00     0.159 HD
BRANCH  11  13
HETATM   13  C7  UNL     1      69.357  26.343  20.610  1.00  0.00     0.028 A 
HETATM   14  C8  UNL     1      69.561  26.392  19.231  1.00  0.00     0.029 A 
HETATM   15  C9  UNL     1      70.412  27.298  18.638  1.00  0.00     0.002 A 
HETATM   16  C10 UNL     1      71.103  28.202  19.422  1.00  0.00     0.000 A 
HETATM   17  C11 UNL     1      70.925  28.181  20.789  1.00  0.00     0.002 A 
HETATM   18  C12 UNL     1      70.065  27.263  21.353  1.00  0.00     0.029 A 
ENDBRANCH  11  13
ENDBRANCH  10  11
ENDBRANCH   1  10
BRANCH   1  19
HETATM   19  N2  UNL     1      66.287  24.847  22.626  1.00  0.00    -0.380 N 
ATOM     20  H2  UNL     1      65.836  25.671  22.229  1.00  0.00     0.160 HD
BRANCH  19  21
HETATM   21  C13 UNL     1      65.659  23.646  22.320  1.00  0.00     0.028 A 
HETATM   22  C14 UNL     1      65.236  23.266  21.091  1.00  0.00     0.029 A 
HETATM   23  C15 UNL     1      64.634  22.023  20.833  1.00  0.00     0.002 A 
HETATM   24  C16 UNL     1      64.467  21.155  21.883  1.00  0.00     0.000 A 
HETATM   25  C17 UNL     1      64.885  21.500  23.166  1.00  0.00     0.002 A 
HETATM   26  C18 UNL     1      65.469  22.731  23.364  1.00  0.00     0.029 A 
ENDBRANCH  19  21
ENDBRANCH   1  19
TORSDOF 6
ENDMDL
