MODEL 1
REMARK VINA RESULT: -9.142228714      0.000      0.000
REMARK  6 active torsions:
REMARK  status: ('A' for Active; 'I' for Inactive)
REMARK    1  A    between atoms: C5_6  and  N1_7 
REMARK    2  A    between atoms: N1_7  and  C6_9 
REMARK    3  A    between atoms: C8_11  and  C9_12 
REMARK    4  A    between atoms: C9_12  and  S1_13 
REMARK    5  A    between atoms: S1_13  and  C10_14 
REMARK    6  A    between atoms: C10_14  and  C11_15 
ROOT
HETATM    1  C6  UNL     1      69.504  27.846  24.464  1.00  0.00     0.122 A 
HETATM    2  C7  UNL     1      68.352  27.139  24.685  1.00  0.00     0.077 A 
HETATM    3  C8  UNL     1      67.435  27.979  25.292  1.00  0.00     0.038 A 
HETATM    4  N2  UNL     1      68.040  29.160  25.425  1.00  0.00    -0.302 N 
ATOM      5  H2  UNL     1      67.615  29.989  25.841  1.00  0.00     0.186 HD
HETATM    6  N3  UNL     1      69.260  29.105  24.942  1.00  0.00    -0.285 N 
ATOM      7  H3  UNL     1      69.924  29.880  24.926  1.00  0.00     0.188 HD
ENDROOT
BRANCH   1   8
HETATM    8  N1  UNL     1      70.738  27.454  23.899  1.00  0.00    -0.341 N 
ATOM      9  H1  UNL     1      71.557  27.417  24.507  1.00  0.00     0.167 HD
BRANCH   8  10
HETATM   10  C5  UNL     1      70.898  27.111  22.544  1.00  0.00     0.036 A 
HETATM   11  C4  UNL     1      71.354  25.885  22.179  1.00  0.00     0.029 A 
HETATM   12  C3  UNL     1      71.479  25.558  20.822  1.00  0.00     0.005 A 
HETATM   13  C2  UNL     1      71.128  26.513  19.893  1.00  0.00     0.042 A 
HETATM   14  C1  UNL     1      70.664  27.763  20.255  1.00  0.00     0.118 A 
HETATM   15  F1  UNL     1      70.326  28.685  19.334  1.00  0.00    -0.206 F 
HETATM   16  C17 UNL     1      70.549  28.062  21.587  1.00  0.00     0.071 A 
ENDBRANCH   8  10
ENDBRANCH   1   8
BRANCH   3  17
HETATM   17  C9  UNL     1      66.063  27.558  25.683  1.00  0.00     0.132 C 
BRANCH  17  18
HETATM   18  S1  UNL     1      65.194  26.727  24.354  1.00  0.00    -0.158 SA
BRANCH  18  19
HETATM   19  C10 UNL     1      65.845  25.112  23.940  1.00  0.00     0.112 C 
BRANCH  19  20
HETATM   20  C11 UNL     1      66.195  24.978  22.508  1.00  0.00    -0.049 A 
HETATM   21  C12 UNL     1      67.323  25.653  22.031  1.00  0.00     0.008 A 
HETATM   22  C13 UNL     1      67.703  25.567  20.708  1.00  0.00     0.001 A 
HETATM   23  C14 UNL     1      66.983  24.808  19.795  1.00  0.00     0.000 A 
HETATM   24  C15 UNL     1      65.875  24.150  20.274  1.00  0.00     0.001 A 
HETATM   25  C16 UNL     1      65.487  24.230  21.602  1.00  0.00     0.008 A 
ENDBRANCH  19  20
ENDBRANCH  18  19
ENDBRANCH  17  18
ENDBRANCH   3  17
TORSDOF 6
ENDMDL
MODEL 2
REMARK VINA RESULT: -9.137395176      0.980      1.418
REMARK  6 active torsions:
REMARK  status: ('A' for Active; 'I' for Inactive)
REMARK    1  A    between atoms: C5_6  and  N1_7 
REMARK    2  A    between atoms: N1_7  and  C6_9 
REMARK    3  A    between atoms: C8_11  and  C9_12 
REMARK    4  A    between atoms: C9_12  and  S1_13 
REMARK    5  A    between atoms: S1_13  and  C10_14 
REMARK    6  A    between atoms: C10_14  and  C11_15 
ROOT
HETATM    1  C6  UNL     1      69.640  27.774  24.299  1.00  0.00     0.122 A 
HETATM    2  C7  UNL     1      68.452  27.132  24.521  1.00  0.00     0.077 A 
HETATM    3  C8  UNL     1      67.635  27.969  25.260  1.00  0.00     0.038 A 
HETATM    4  N2  UNL     1      68.334  29.086  25.467  1.00  0.00    -0.302 N 
ATOM      5  H2  UNL     1      67.996  29.897  25.985  1.00  0.00     0.186 HD
HETATM    6  N3  UNL     1      69.519  28.993  24.909  1.00  0.00    -0.285 N 
ATOM      7  H3  UNL     1      70.237  29.717  24.927  1.00  0.00     0.188 HD
ENDROOT
BRANCH   1   8
HETATM    8  N1  UNL     1      70.810  27.354  23.626  1.00  0.00    -0.341 N 
ATOM      9  H1  UNL     1      71.644  27.164  24.181  1.00  0.00     0.167 HD
BRANCH   8  10
HETATM   10  C5  UNL     1      70.883  27.183  22.232  1.00  0.00     0.036 A 
HETATM   11  C4  UNL     1      70.527  28.180  21.382  1.00  0.00     0.029 A 
HETATM   12  C3  UNL     1      70.634  27.994  19.997  1.00  0.00     0.005 A 
HETATM   13  C2  UNL     1      71.107  26.781  19.543  1.00  0.00     0.042 A 
HETATM   14  C1  UNL     1      71.470  25.760  20.400  1.00  0.00     0.118 A 
HETATM   15  F1  UNL     1      71.929  24.582  19.940  1.00  0.00    -0.206 F 
HETATM   16  C17 UNL     1      71.357  25.964  21.750  1.00  0.00     0.071 A 
ENDBRANCH   8  10
ENDBRANCH   1   8
BRANCH   3  17
HETATM   17  C9  UNL     1      66.258  27.609  25.691  1.00  0.00     0.132 C 
BRANCH  17  18
HETATM   18  S1  UNL     1      65.306  26.841  24.381  1.00  0.00    -0.158 SA
BRANCH  18  19
HETATM   19  C10 UNL     1      65.818  25.175  23.973  1.00  0.00     0.112 C 
BRANCH  19  20
HETATM   20  C11 UNL     1      66.171  25.011  22.545  1.00  0.00    -0.049 A 
HETATM   21  C12 UNL     1      67.295  25.682  22.054  1.00  0.00     0.008 A 
HETATM   22  C13 UNL     1      67.678  25.569  20.735  1.00  0.00     0.001 A 
HETATM   23  C14 UNL     1      66.965  24.784  19.838  1.00  0.00     0.000 A 
HETATM   24  C15 UNL     1      65.860  24.129  20.330  1.00  0.00     0.001 A 
HETATM   25  C16 UNL     1      65.470  24.237  21.655  1.00  0.00     0.008 A 
ENDBRANCH  19  20
ENDBRANCH  18  19
ENDBRANCH  17  18
ENDBRANCH   3  17
TORSDOF 6
ENDMDL
MODEL 3
REMARK VINA RESULT: -9.027638131      1.329      1.793
REMARK  6 active torsions:
REMARK  status: ('A' for Active; 'I' for Inactive)
REMARK    1  A    between atoms: C5_6  and  N1_7 
REMARK    2  A    between atoms: N1_7  and  C6_9 
REMARK    3  A    between atoms: C8_11  and  C9_12 
REMARK    4  A    between atoms: C9_12  and  S1_13 
REMARK    5  A    between atoms: S1_13  and  C10_14 
REMARK    6  A    between atoms: C10_14  and  C11_15 
ROOT
HETATM    1  C6  UNL     1      69.599  27.294  23.907  1.00  0.00     0.122 A 
HETATM    2  C7  UNL     1      68.277  27.086  24.199  1.00  0.00     0.077 A 
HETATM    3  C8  UNL     1      67.911  27.960  25.207  1.00  0.00     0.038 A 
HETATM    4  N2  UNL     1      69.002  28.670  25.500  1.00  0.00    -0.302 N 
ATOM      5  H2  UNL     1      69.048  29.402  26.210  1.00  0.00     0.186 HD
HETATM    6  N3  UNL     1      70.008  28.294  24.745  1.00  0.00    -0.285 N 
ATOM      7  H3  UNL     1      70.949  28.687  24.778  1.00  0.00     0.188 HD
ENDROOT
BRANCH   1   8
HETATM    8  N1  UNL     1      70.455  26.654  22.981  1.00  0.00    -0.341 N 
ATOM      9  H1  UNL     1      71.071  25.917  23.324  1.00  0.00     0.167 HD
BRANCH   8  10
HETATM   10  C5  UNL     1      70.501  26.980  21.614  1.00  0.00     0.036 A 
HETATM   11  C4  UNL     1      70.883  28.215  21.199  1.00  0.00     0.029 A 
HETATM   12  C3  UNL     1      70.947  28.507  19.829  1.00  0.00     0.005 A 
HETATM   13  C2  UNL     1      70.611  27.508  18.940  1.00  0.00     0.042 A 
HETATM   14  C1  UNL     1      70.220  26.249  19.353  1.00  0.00     0.118 A 
HETATM   15  F1  UNL     1      69.895  25.286  18.472  1.00  0.00    -0.206 F 
HETATM   16  C17 UNL     1      70.165  25.986  20.696  1.00  0.00     0.071 A 
ENDBRANCH   8  10
ENDBRANCH   1   8
BRANCH   3  17
HETATM   17  C9  UNL     1      66.543  28.026  25.787  1.00  0.00     0.132 C 
BRANCH  17  18
HETATM   18  S1  UNL     1      65.347  27.094  24.832  1.00  0.00    -0.158 SA
BRANCH  18  19
HETATM   19  C10 UNL     1      65.565  25.319  24.901  1.00  0.00     0.112 C 
BRANCH  19  20
HETATM   20  C11 UNL     1      65.560  24.682  23.564  1.00  0.00    -0.049 A 
HETATM   21  C12 UNL     1      65.684  25.499  22.436  1.00  0.00     0.008 A 
HETATM   22  C13 UNL     1      65.689  24.968  21.164  1.00  0.00     0.001 A 
HETATM   23  C14 UNL     1      65.571  23.601  20.949  1.00  0.00     0.000 A 
HETATM   24  C15 UNL     1      65.448  22.806  22.066  1.00  0.00     0.001 A 
HETATM   25  C16 UNL     1      65.443  23.333  23.347  1.00  0.00     0.008 A 
ENDBRANCH  19  20
ENDBRANCH  18  19
ENDBRANCH  17  18
ENDBRANCH   3  17
TORSDOF 6
ENDMDL
MODEL 4
REMARK VINA RESULT: -8.970957586      3.005      5.772
REMARK  6 active torsions:
REMARK  status: ('A' for Active; 'I' for Inactive)
REMARK    1  A    between atoms: C5_6  and  N1_7 
REMARK    2  A    between atoms: N1_7  and  C6_9 
REMARK    3  A    between atoms: C8_11  and  C9_12 
REMARK    4  A    between atoms: C9_12  and  S1_13 
REMARK    5  A    between atoms: S1_13  and  C10_14 
REMARK    6  A    between atoms: C10_14  and  C11_15 
ROOT
HETATM    1  C6  UNL     1      66.606  25.377  22.084  1.00  0.00     0.122 A 
HETATM    2  C7  UNL     1      67.577  25.137  21.149  1.00  0.00     0.077 A 
HETATM    3  C8  UNL     1      66.986  25.134  19.898  1.00  0.00     0.038 A 
HETATM    4  N2  UNL     1      65.688  25.369  20.097  1.00  0.00    -0.302 N 
ATOM      5  H2  UNL     1      64.987  25.427  19.359  1.00  0.00     0.186 HD
HETATM    6  N3  UNL     1      65.442  25.516  21.379  1.00  0.00    -0.285 N 
ATOM      7  H3  UNL     1      64.526  25.705  21.785  1.00  0.00     0.188 HD
ENDROOT
BRANCH   1   8
HETATM    8  N1  UNL     1      66.676  25.457  23.494  1.00  0.00    -0.341 N 
ATOM      9  H1  UNL     1      66.343  24.661  24.039  1.00  0.00     0.167 HD
BRANCH   8  10
HETATM   10  C5  UNL     1      67.180  26.574  24.183  1.00  0.00     0.036 A 
HETATM   11  C4  UNL     1      66.352  27.428  24.837  1.00  0.00     0.029 A 
HETATM   12  C3  UNL     1      66.881  28.520  25.539  1.00  0.00     0.005 A 
HETATM   13  C2  UNL     1      68.249  28.686  25.538  1.00  0.00     0.042 A 
HETATM   14  C1  UNL     1      69.100  27.823  24.875  1.00  0.00     0.118 A 
HETATM   15  F1  UNL     1      70.434  28.000  24.884  1.00  0.00    -0.206 F 
HETATM   16  C17 UNL     1      68.561  26.763  24.195  1.00  0.00     0.071 A 
ENDBRANCH   8  10
ENDBRANCH   1   8
BRANCH   3  17
HETATM   17  C9  UNL     1      67.733  24.907  18.632  1.00  0.00     0.132 C 
BRANCH  17  18
HETATM   18  S1  UNL     1      68.291  26.435  17.880  1.00  0.00    -0.158 SA
BRANCH  18  19
HETATM   19  C10 UNL     1      70.056  26.710  17.983  1.00  0.00     0.112 C 
BRANCH  19  20
HETATM   20  C11 UNL     1      70.579  26.608  19.364  1.00  0.00    -0.049 A 
HETATM   21  C12 UNL     1      70.378  27.684  20.234  1.00  0.00     0.008 A 
HETATM   22  C13 UNL     1      70.838  27.651  21.533  1.00  0.00     0.001 A 
HETATM   23  C14 UNL     1      71.519  26.548  22.033  1.00  0.00     0.000 A 
HETATM   24  C15 UNL     1      71.713  25.496  21.169  1.00  0.00     0.001 A 
HETATM   25  C16 UNL     1      71.252  25.522  19.862  1.00  0.00     0.008 A 
ENDBRANCH  19  20
ENDBRANCH  18  19
ENDBRANCH  17  18
ENDBRANCH   3  17
TORSDOF 6
ENDMDL
MODEL 5
REMARK VINA RESULT: -8.922378611      3.202      5.821
REMARK  6 active torsions:
REMARK  status: ('A' for Active; 'I' for Inactive)
REMARK    1  A    between atoms: C5_6  and  N1_7 
REMARK    2  A    between atoms: N1_7  and  C6_9 
REMARK    3  A    between atoms: C8_11  and  C9_12 
REMARK    4  A    between atoms: C9_12  and  S1_13 
REMARK    5  A    between atoms: S1_13  and  C10_14 
REMARK    6  A    between atoms: C10_14  and  C11_15 
ROOT
HETATM    1  C6  UNL     1      66.700  25.421  22.209  1.00  0.00     0.122 A 
HETATM    2  C7  UNL     1      67.627  25.180  21.231  1.00  0.00     0.077 A 
HETATM    3  C8  UNL     1      66.975  25.149  20.011  1.00  0.00     0.038 A 
HETATM    4  N2  UNL     1      65.685  25.370  20.270  1.00  0.00    -0.302 N 
ATOM      5  H2  UNL     1      64.947  25.406  19.567  1.00  0.00     0.186 HD
HETATM    6  N3  UNL     1      65.501  25.534  21.561  1.00  0.00    -0.285 N 
ATOM      7  H3  UNL     1      64.603  25.717  22.009  1.00  0.00     0.188 HD
ENDROOT
BRANCH   1   8
HETATM    8  N1  UNL     1      66.838  25.525  23.612  1.00  0.00    -0.341 N 
ATOM      9  H1  UNL     1      66.586  24.718  24.183  1.00  0.00     0.167 HD
BRANCH   8  10
HETATM   10  C5  UNL     1      67.305  26.681  24.262  1.00  0.00     0.036 A 
HETATM   11  C4  UNL     1      68.633  26.954  24.343  1.00  0.00     0.029 A 
HETATM   12  C3  UNL     1      69.072  28.126  24.973  1.00  0.00     0.005 A 
HETATM   13  C2  UNL     1      68.119  28.972  25.498  1.00  0.00     0.042 A 
HETATM   14  C1  UNL     1      66.766  28.702  25.423  1.00  0.00     0.118 A 
HETATM   15  F1  UNL     1      65.849  29.539  25.941  1.00  0.00    -0.206 F 
HETATM   16  C17 UNL     1      66.360  27.551  24.802  1.00  0.00     0.071 A 
ENDBRANCH   8  10
ENDBRANCH   1   8
BRANCH   3  17
HETATM   17  C9  UNL     1      67.662  24.911  18.713  1.00  0.00     0.132 C 
BRANCH  17  18
HETATM   18  S1  UNL     1      68.273  26.424  17.972  1.00  0.00    -0.158 SA
BRANCH  18  19
HETATM   19  C10 UNL     1      70.050  26.618  18.043  1.00  0.00     0.112 C 
BRANCH  19  20
HETATM   20  C11 UNL     1      70.588  26.534  19.420  1.00  0.00    -0.049 A 
HETATM   21  C12 UNL     1      70.352  27.600  20.294  1.00  0.00     0.008 A 
HETATM   22  C13 UNL     1      70.823  27.582  21.589  1.00  0.00     0.001 A 
HETATM   23  C14 UNL     1      71.551  26.507  22.081  1.00  0.00     0.000 A 
HETATM   24  C15 UNL     1      71.779  25.464  21.213  1.00  0.00     0.001 A 
HETATM   25  C16 UNL     1      71.307  25.475  19.910  1.00  0.00     0.008 A 
ENDBRANCH  19  20
ENDBRANCH  18  19
ENDBRANCH  17  18
ENDBRANCH   3  17
TORSDOF 6
ENDMDL
