MODEL 1
REMARK VINA RESULT: -8.920925113      0.000      0.000
REMARK  6 active torsions:
REMARK  status: ('A' for Active; 'I' for Inactive)
REMARK    1  A    between atoms: C2_2  and  C3_3 
REMARK    2  A    between atoms: C2_2  and  N2_19 
REMARK    3  A    between atoms: C3_3  and  N1_4 
REMARK    4  A    between atoms: N1_4  and  C4_6 
REMARK    5  A    between atoms: C7_9  and  C8_10 
REMARK    6  A    between atoms: N2_19  and  C16_21 
ROOT
HETATM    1  N1  UNL     1      70.847  26.712  22.213  1.00  0.00    -0.388 N 
ATOM      2  H1  UNL     1      71.621  27.221  22.638  1.00  0.00     0.159 HD
ENDROOT
BRANCH   1   3
HETATM    3  C3  UNL     1      70.082  25.770  22.990  1.00  0.00     0.144 C 
BRANCH   3   4
HETATM    4  C2  UNL     1      69.232  26.460  24.036  1.00  0.00     0.095 C 
HETATM    5  C1  UNL     1      69.840  27.776  24.433  1.00  0.00     0.034 C 
BRANCH   4   6
HETATM    6  N2  UNL     1      67.870  26.539  23.608  1.00  0.00    -0.383 N 
ATOM      7  H2  UNL     1      67.434  27.461  23.599  1.00  0.00     0.160 HD
BRANCH   6   8
HETATM    8  C16 UNL     1      67.078  25.435  23.196  1.00  0.00     0.043 A 
HETATM    9  C17 UNL     1      66.526  25.394  21.913  1.00  0.00     0.032 A 
HETATM   10  C18 UNL     1      65.761  24.331  21.499  1.00  0.00     0.019 A 
HETATM   11  C19 UNL     1      65.561  23.309  22.403  1.00  0.00     0.088 A 
HETATM   12  N3  UNL     1      66.100  23.368  23.632  1.00  0.00    -0.373 N 
HETATM   13  C20 UNL     1      66.859  24.406  24.065  1.00  0.00     0.116 A 
ATOM     14  H3  UNL     1      65.930  22.593  24.272  1.00  0.00     0.164 HD
ENDBRANCH   6   8
ENDBRANCH   4   6
ENDBRANCH   3   4
ENDBRANCH   1   3
BRANCH   1  15
HETATM   15  C4  UNL     1      70.510  26.924  20.849  1.00  0.00     0.028 A 
HETATM   16  C5  UNL     1      70.917  28.057  20.187  1.00  0.00     0.030 A 
HETATM   17  C6  UNL     1      70.590  28.258  18.870  1.00  0.00     0.014 A 
HETATM   18  C7  UNL     1      69.838  27.344  18.133  1.00  0.00    -0.026 A 
HETATM   19  C14 UNL     1      69.435  26.203  18.818  1.00  0.00     0.014 A 
HETATM   20  C15 UNL     1      69.756  25.986  20.143  1.00  0.00     0.030 A 
BRANCH  18  21
HETATM   21  C8  UNL     1      69.509  27.578  16.751  1.00  0.00    -0.026 A 
HETATM   22  C9  UNL     1      70.497  27.677  15.811  1.00  0.00     0.015 A 
HETATM   23  C10 UNL     1      70.178  27.902  14.487  1.00  0.00     0.043 A 
HETATM   24  C11 UNL     1      68.887  28.029  14.085  1.00  0.00     0.116 A 
HETATM   25  F1  UNL     1      68.625  28.250  12.768  1.00  0.00    -0.206 F 
HETATM   26  C12 UNL     1      67.877  27.934  15.011  1.00  0.00     0.043 A 
HETATM   27  C13 UNL     1      68.204  27.706  16.353  1.00  0.00     0.015 A 
ENDBRANCH  18  21
ENDBRANCH   1  15
TORSDOF 6
ENDMDL
MODEL 2
REMARK VINA RESULT: -8.907852082      0.802      1.577
REMARK  6 active torsions:
REMARK  status: ('A' for Active; 'I' for Inactive)
REMARK    1  A    between atoms: C2_2  and  C3_3 
REMARK    2  A    between atoms: C2_2  and  N2_19 
REMARK    3  A    between atoms: C3_3  and  N1_4 
REMARK    4  A    between atoms: N1_4  and  C4_6 
REMARK    5  A    between atoms: C7_9  and  C8_10 
REMARK    6  A    between atoms: N2_19  and  C16_21 
ROOT
HETATM    1  N1  UNL     1      71.002  26.464  21.582  1.00  0.00    -0.388 N 
ATOM      2  H1  UNL     1      71.862  26.944  21.843  1.00  0.00     0.159 HD
ENDROOT
BRANCH   1   3
HETATM    3  C3  UNL     1      70.379  25.540  22.495  1.00  0.00     0.144 C 
BRANCH   3   4
HETATM    4  C2  UNL     1      69.599  26.256  23.578  1.00  0.00     0.095 C 
HETATM    5  C1  UNL     1      70.285  27.535  23.971  1.00  0.00     0.034 C 
BRANCH   4   6
HETATM    6  N2  UNL     1      68.230  26.408  23.197  1.00  0.00    -0.383 N 
ATOM      7  H2  UNL     1      67.883  27.358  23.062  1.00  0.00     0.160 HD
BRANCH   6   8
HETATM    8  C16 UNL     1      67.315  25.341  22.993  1.00  0.00     0.043 A 
HETATM    9  C17 UNL     1      66.617  25.221  21.789  1.00  0.00     0.032 A 
HETATM   10  C18 UNL     1      65.733  24.192  21.575  1.00  0.00     0.019 A 
HETATM   11  C19 UNL     1      65.563  23.285  22.600  1.00  0.00     0.088 A 
HETATM   12  N3  UNL     1      66.243  23.418  23.750  1.00  0.00    -0.373 N 
HETATM   13  C20 UNL     1      67.122  24.424  23.986  1.00  0.00     0.116 A 
ATOM     14  H3  UNL     1      66.091  22.727  24.485  1.00  0.00     0.164 HD
ENDBRANCH   6   8
ENDBRANCH   4   6
ENDBRANCH   3   4
ENDBRANCH   1   3
BRANCH   1  15
HETATM   15  C4  UNL     1      70.404  26.697  20.314  1.00  0.00     0.028 A 
HETATM   16  C5  UNL     1      69.497  25.811  19.785  1.00  0.00     0.030 A 
HETATM   17  C6  UNL     1      68.922  26.040  18.561  1.00  0.00     0.014 A 
HETATM   18  C7  UNL     1      69.216  27.164  17.789  1.00  0.00    -0.026 A 
HETATM   19  C14 UNL     1      70.135  28.050  18.340  1.00  0.00     0.014 A 
HETATM   20  C15 UNL     1      70.722  27.834  19.570  1.00  0.00     0.030 A 
BRANCH  18  21
HETATM   21  C8  UNL     1      68.598  27.381  16.507  1.00  0.00    -0.026 A 
HETATM   22  C9  UNL     1      67.407  26.783  16.203  1.00  0.00     0.015 A 
HETATM   23  C10 UNL     1      66.818  26.994  14.973  1.00  0.00     0.043 A 
HETATM   24  C11 UNL     1      67.397  27.794  14.040  1.00  0.00     0.116 A 
HETATM   25  F1  UNL     1      66.776  27.969  12.843  1.00  0.00    -0.206 F 
HETATM   26  C12 UNL     1      68.594  28.405  14.324  1.00  0.00     0.043 A 
HETATM   27  C13 UNL     1      69.190  28.190  15.572  1.00  0.00     0.015 A 
ENDBRANCH  18  21
ENDBRANCH   1  15
TORSDOF 6
ENDMDL
MODEL 3
REMARK VINA RESULT: -8.566488322      1.254      1.655
REMARK  6 active torsions:
REMARK  status: ('A' for Active; 'I' for Inactive)
REMARK    1  A    between atoms: C2_2  and  C3_3 
REMARK    2  A    between atoms: C2_2  and  N2_19 
REMARK    3  A    between atoms: C3_3  and  N1_4 
REMARK    4  A    between atoms: N1_4  and  C4_6 
REMARK    5  A    between atoms: C7_9  and  C8_10 
REMARK    6  A    between atoms: N2_19  and  C16_21 
ROOT
HETATM    1  N1  UNL     1      71.447  26.364  21.228  1.00  0.00    -0.388 N 
ATOM      2  H1  UNL     1      72.344  26.815  21.406  1.00  0.00     0.159 HD
ENDROOT
BRANCH   1   3
HETATM    3  C3  UNL     1      70.878  25.466  22.200  1.00  0.00     0.144 C 
BRANCH   3   4
HETATM    4  C2  UNL     1      69.970  26.190  23.172  1.00  0.00     0.095 C 
HETATM    5  C1  UNL     1      70.532  27.539  23.522  1.00  0.00     0.034 C 
BRANCH   4   6
HETATM    6  N2  UNL     1      68.626  26.214  22.686  1.00  0.00    -0.383 N 
ATOM      7  H2  UNL     1      68.486  26.456  21.705  1.00  0.00     0.160 HD
BRANCH   6   8
HETATM    8  C16 UNL     1      67.471  25.926  23.462  1.00  0.00     0.043 A 
HETATM    9  C17 UNL     1      66.830  26.935  24.185  1.00  0.00     0.032 A 
HETATM   10  C18 UNL     1      65.710  26.673  24.937  1.00  0.00     0.019 A 
HETATM   11  C19 UNL     1      65.248  25.373  24.947  1.00  0.00     0.088 A 
HETATM   12  N3  UNL     1      65.880  24.418  24.244  1.00  0.00    -0.373 N 
HETATM   13  C20 UNL     1      66.987  24.650  23.494  1.00  0.00     0.116 A 
ATOM     14  H3  UNL     1      65.508  23.468  24.276  1.00  0.00     0.164 HD
ENDBRANCH   6   8
ENDBRANCH   4   6
ENDBRANCH   3   4
ENDBRANCH   1   3
BRANCH   1  15
HETATM   15  C4  UNL     1      70.746  26.613  20.017  1.00  0.00     0.028 A 
HETATM   16  C5  UNL     1      70.736  27.864  19.450  1.00  0.00     0.030 A 
HETATM   17  C6  UNL     1      70.058  28.102  18.281  1.00  0.00     0.014 A 
HETATM   18  C7  UNL     1      69.350  27.108  17.606  1.00  0.00    -0.026 A 
HETATM   19  C14 UNL     1      69.372  25.847  18.194  1.00  0.00     0.014 A 
HETATM   20  C15 UNL     1      70.048  25.593  19.369  1.00  0.00     0.030 A 
BRANCH  18  21
HETATM   21  C8  UNL     1      68.647  27.382  16.380  1.00  0.00    -0.026 A 
HETATM   22  C9  UNL     1      69.151  28.278  15.479  1.00  0.00     0.015 A 
HETATM   23  C10 UNL     1      68.475  28.539  14.305  1.00  0.00     0.043 A 
HETATM   24  C11 UNL     1      67.303  27.919  14.013  1.00  0.00     0.116 A 
HETATM   25  F1  UNL     1      66.675  28.211  12.842  1.00  0.00    -0.206 F 
HETATM   26  C12 UNL     1      66.776  27.014  14.903  1.00  0.00     0.043 A 
HETATM   27  C13 UNL     1      67.464  26.752  16.094  1.00  0.00     0.015 A 
ENDBRANCH  18  21
ENDBRANCH   1  15
TORSDOF 6
ENDMDL
MODEL 4
REMARK VINA RESULT: -8.428022411      1.690      3.125
REMARK  6 active torsions:
REMARK  status: ('A' for Active; 'I' for Inactive)
REMARK    1  A    between atoms: C2_2  and  C3_3 
REMARK    2  A    between atoms: C2_2  and  N2_19 
REMARK    3  A    between atoms: C3_3  and  N1_4 
REMARK    4  A    between atoms: N1_4  and  C4_6 
REMARK    5  A    between atoms: C7_9  and  C8_10 
REMARK    6  A    between atoms: N2_19  and  C16_21 
ROOT
HETATM    1  N1  UNL     1      71.012  26.272  21.931  1.00  0.00    -0.388 N 
ATOM      2  H1  UNL     1      71.891  26.580  22.346  1.00  0.00     0.159 HD
ENDROOT
BRANCH   1   3
HETATM    3  C3  UNL     1      70.096  25.459  22.688  1.00  0.00     0.144 C 
BRANCH   3   4
HETATM    4  C2  UNL     1      68.760  26.146  22.882  1.00  0.00     0.095 C 
HETATM    5  C1  UNL     1      67.663  25.379  22.197  1.00  0.00     0.034 C 
BRANCH   4   6
HETATM    6  N2  UNL     1      68.525  26.411  24.266  1.00  0.00    -0.383 N 
ATOM      7  H2  UNL     1      68.935  25.769  24.944  1.00  0.00     0.160 HD
BRANCH   6   8
HETATM    8  C16 UNL     1      67.764  27.499  24.772  1.00  0.00     0.043 A 
HETATM    9  C17 UNL     1      66.374  27.412  24.871  1.00  0.00     0.032 A 
HETATM   10  C18 UNL     1      65.625  28.454  25.361  1.00  0.00     0.019 A 
HETATM   11  C19 UNL     1      66.305  29.589  25.750  1.00  0.00     0.088 A 
HETATM   12  N3  UNL     1      67.643  29.654  25.647  1.00  0.00    -0.373 N 
HETATM   13  C20 UNL     1      68.405  28.638  25.166  1.00  0.00     0.116 A 
ATOM     14  H3  UNL     1      68.111  30.510  25.945  1.00  0.00     0.164 HD
ENDBRANCH   6   8
ENDBRANCH   4   6
ENDBRANCH   3   4
ENDBRANCH   1   3
BRANCH   1  15
HETATM   15  C4  UNL     1      70.678  26.641  20.600  1.00  0.00     0.028 A 
HETATM   16  C5  UNL     1      70.305  25.695  19.676  1.00  0.00     0.030 A 
HETATM   17  C6  UNL     1      69.983  26.054  18.391  1.00  0.00     0.014 A 
HETATM   18  C7  UNL     1      70.014  27.376  17.949  1.00  0.00    -0.026 A 
HETATM   19  C14 UNL     1      70.394  28.320  18.897  1.00  0.00     0.014 A 
HETATM   20  C15 UNL     1      70.721  27.975  20.193  1.00  0.00     0.030 A 
BRANCH  18  21
HETATM   21  C8  UNL     1      69.671  27.727  16.596  1.00  0.00    -0.026 A 
HETATM   22  C9  UNL     1      68.388  28.070  16.274  1.00  0.00     0.015 A 
HETATM   23  C10 UNL     1      68.063  28.406  14.975  1.00  0.00     0.043 A 
HETATM   24  C11 UNL     1      68.998  28.407  13.991  1.00  0.00     0.116 A 
HETATM   25  F1  UNL     1      68.627  28.746  12.727  1.00  0.00    -0.206 F 
HETATM   26  C12 UNL     1      70.295  28.065  14.291  1.00  0.00     0.043 A 
HETATM   27  C13 UNL     1      70.622  27.724  15.608  1.00  0.00     0.015 A 
ENDBRANCH  18  21
ENDBRANCH   1  15
TORSDOF 6
ENDMDL
MODEL 5
REMARK VINA RESULT: -8.338808381      1.731      2.889
REMARK  6 active torsions:
REMARK  status: ('A' for Active; 'I' for Inactive)
REMARK    1  A    between atoms: C2_2  and  C3_3 
REMARK    2  A    between atoms: C2_2  and  N2_19 
REMARK    3  A    between atoms: C3_3  and  N1_4 
REMARK    4  A    between atoms: N1_4  and  C4_6 
REMARK    5  A    between atoms: C7_9  and  C8_10 
REMARK    6  A    between atoms: N2_19  and  C16_21 
ROOT
HETATM    1  N1  UNL     1      70.382  26.227  21.834  1.00  0.00    -0.388 N 
ATOM      2  H1  UNL     1      71.172  26.596  22.364  1.00  0.00     0.159 HD
ENDROOT
BRANCH   1   3
HETATM    3  C3  UNL     1      69.456  25.314  22.452  1.00  0.00     0.144 C 
BRANCH   3   4
HETATM    4  C2  UNL     1      68.119  25.969  22.732  1.00  0.00     0.095 C 
HETATM    5  C1  UNL     1      67.003  25.202  22.080  1.00  0.00     0.034 C 
BRANCH   4   6
HETATM    6  N2  UNL     1      67.949  26.191  24.134  1.00  0.00    -0.383 N 
ATOM      7  H2  UNL     1      68.213  25.434  24.764  1.00  0.00     0.160 HD
BRANCH   6   8
HETATM    8  C16 UNL     1      67.442  27.383  24.717  1.00  0.00     0.043 A 
HETATM    9  C17 UNL     1      66.066  27.579  24.855  1.00  0.00     0.032 A 
HETATM   10  C18 UNL     1      65.561  28.724  25.420  1.00  0.00     0.019 A 
HETATM   11  C19 UNL     1      66.470  29.671  25.844  1.00  0.00     0.088 A 
HETATM   12  N3  UNL     1      67.790  29.463  25.703  1.00  0.00    -0.373 N 
HETATM   13  C20 UNL     1      68.314  28.341  25.148  1.00  0.00     0.116 A 
ATOM     14  H3  UNL     1      68.431  30.186  26.029  1.00  0.00     0.164 HD
ENDBRANCH   6   8
ENDBRANCH   4   6
ENDBRANCH   3   4
ENDBRANCH   1   3
BRANCH   1  15
HETATM   15  C4  UNL     1      70.185  26.608  20.480  1.00  0.00     0.028 A 
HETATM   16  C5  UNL     1      70.683  27.795  19.999  1.00  0.00     0.030 A 
HETATM   17  C6  UNL     1      70.490  28.161  18.691  1.00  0.00     0.014 A 
HETATM   18  C7  UNL     1      69.790  27.367  17.783  1.00  0.00    -0.026 A 
HETATM   19  C14 UNL     1      69.293  26.169  18.286  1.00  0.00     0.014 A 
HETATM   20  C15 UNL     1      69.479  25.788  19.600  1.00  0.00     0.030 A 
BRANCH  18  21
HETATM   21  C8  UNL     1      69.602  27.773  16.414  1.00  0.00    -0.026 A 
HETATM   22  C9  UNL     1      70.656  27.782  15.544  1.00  0.00     0.015 A 
HETATM   23  C10 UNL     1      70.472  28.171  14.233  1.00  0.00     0.043 A 
HETATM   24  C11 UNL     1      69.252  28.551  13.775  1.00  0.00     0.116 A 
HETATM   25  F1  UNL     1      69.123  28.927  12.473  1.00  0.00    -0.206 F 
HETATM   26  C12 UNL     1      68.177  28.550  14.630  1.00  0.00     0.043 A 
HETATM   27  C13 UNL     1      68.366  28.155  15.960  1.00  0.00     0.015 A 
ENDBRANCH  18  21
ENDBRANCH   1  15
TORSDOF 6
ENDMDL
