MODEL 1
REMARK VINA RESULT: -6.513411036      0.000      0.000
REMARK  1 active torsions:
REMARK  status: ('A' for Active; 'I' for Inactive)
REMARK    1  A    between atoms: N1_1  and  N2_4 
REMARK       I    between atoms: N2_4  and  C1_6 
REMARK       I    between atoms: C1_6  and  N3_8 
ROOT
HETATM    1  N2  UNL     1      24.799   1.170  28.419  1.00  0.00    -0.256 N 
ATOM      2  H2  UNL     1      24.199   0.881  29.192  1.00  0.00     0.191 HD
HETATM    3  C1  UNL     1      25.281   2.507  28.378  1.00  0.00     0.364 C 
HETATM    4  O1  UNL     1      26.019   2.917  27.454  1.00  0.00    -0.243 OA
HETATM    5  N3  UNL     1      24.918   3.417  29.418  1.00  0.00    -0.148 N 
HETATM    6  N4  UNL     1      24.149   3.177  30.481  1.00  0.00    -0.236 N 
ATOM      7  H4  UNL     1      23.706   2.283  30.695  1.00  0.00     0.192 HD
HETATM    8  C2  UNL     1      24.044   4.289  31.229  1.00  0.00     0.343 A 
HETATM    9  O2  UNL     1      23.392   4.406  32.297  1.00  0.00    -0.245 OA
HETATM   10  N5  UNL     1      24.756   5.261  30.641  1.00  0.00    -0.258 N 
ATOM     11  H5  UNL     1      24.873   6.221  30.965  1.00  0.00     0.175 HD
HETATM   12  C3  UNL     1      25.284   4.705  29.531  1.00  0.00     0.353 A 
HETATM   13  O3  UNL     1      26.028   5.305  28.697  1.00  0.00    -0.244 OA
ENDROOT
BRANCH   1  14
HETATM   14  N1  UNL     1      25.124   0.251  27.431  1.00  0.00    -0.341 N 
ATOM     15  H12 UNL     1      24.740   0.391  26.497  1.00  0.00     0.177 HD
ATOM     16  H11 UNL     1      25.729  -0.547  27.625  1.00  0.00     0.177 HD
ENDBRANCH   1  14
TORSDOF 1
ENDMDL
MODEL 2
REMARK VINA RESULT: -5.901768784      1.405      1.446
REMARK  1 active torsions:
REMARK  status: ('A' for Active; 'I' for Inactive)
REMARK    1  A    between atoms: N1_1  and  N2_4 
REMARK       I    between atoms: N2_4  and  C1_6 
REMARK       I    between atoms: C1_6  and  N3_8 
ROOT
HETATM    1  N2  UNL     1      24.193   0.859  29.503  1.00  0.00    -0.256 N 
ATOM      2  H2  UNL     1      23.641   1.189  30.295  1.00  0.00     0.191 HD
HETATM    3  C1  UNL     1      24.982   1.789  28.771  1.00  0.00     0.364 C 
HETATM    4  O1  UNL     1      25.678   1.441  27.791  1.00  0.00    -0.243 OA
HETATM    5  N3  UNL     1      24.985   3.165  29.159  1.00  0.00    -0.148 N 
HETATM    6  N4  UNL     1      24.317   3.732  30.165  1.00  0.00    -0.236 N 
ATOM      7  H4  UNL     1      23.698   3.239  30.809  1.00  0.00     0.192 HD
HETATM    8  C2  UNL     1      24.583   5.049  30.205  1.00  0.00     0.343 A 
HETATM    9  O2  UNL     1      24.117   5.875  31.029  1.00  0.00    -0.245 OA
HETATM   10  N5  UNL     1      25.434   5.337  29.210  1.00  0.00    -0.258 N 
ATOM     11  H5  UNL     1      25.824   6.250  28.978  1.00  0.00     0.175 HD
HETATM   12  C3  UNL     1      25.668   4.167  28.581  1.00  0.00     0.353 A 
HETATM   13  O3  UNL     1      26.428   4.018  27.577  1.00  0.00    -0.244 OA
ENDROOT
BRANCH   1  14
HETATM   14  N1  UNL     1      24.157  -0.486  29.165  1.00  0.00    -0.341 N 
ATOM     15  H12 UNL     1      23.359  -1.040  29.474  1.00  0.00     0.177 HD
ATOM     16  H11 UNL     1      24.904  -0.919  28.621  1.00  0.00     0.177 HD
ENDBRANCH   1  14
TORSDOF 1
ENDMDL
MODEL 3
REMARK VINA RESULT: -5.731616843      1.871      2.799
REMARK  1 active torsions:
REMARK  status: ('A' for Active; 'I' for Inactive)
REMARK    1  A    between atoms: N1_1  and  N2_4 
REMARK       I    between atoms: N2_4  and  C1_6 
REMARK       I    between atoms: C1_6  and  N3_8 
ROOT
HETATM    1  N2  UNL     1      24.838   0.292  27.548  1.00  0.00    -0.256 N 
ATOM      2  H2  UNL     1      25.179   0.958  26.855  1.00  0.00     0.191 HD
HETATM    3  C1  UNL     1      24.421   0.769  28.822  1.00  0.00     0.364 C 
HETATM    4  O1  UNL     1      23.994  -0.001  29.711  1.00  0.00    -0.243 OA
HETATM    5  N3  UNL     1      24.489   2.168  29.105  1.00  0.00    -0.148 N 
HETATM    6  N4  UNL     1      24.911   3.145  28.299  1.00  0.00    -0.236 N 
ATOM      7  H4  UNL     1      25.250   3.013  27.345  1.00  0.00     0.192 HD
HETATM    8  C2  UNL     1      24.822   4.327  28.931  1.00  0.00     0.343 A 
HETATM    9  O2  UNL     1      25.138   5.447  28.456  1.00  0.00    -0.245 OA
HETATM   10  N5  UNL     1      24.336   4.113  30.161  1.00  0.00    -0.258 N 
ATOM     11  H5  UNL     1      24.153   4.811  30.882  1.00  0.00     0.175 HD
HETATM   12  C3  UNL     1      24.139   2.781  30.248  1.00  0.00     0.353 A 
HETATM   13  O3  UNL     1      23.684   2.175  31.264  1.00  0.00    -0.244 OA
ENDROOT
BRANCH   1  14
HETATM   14  N1  UNL     1      24.790  -1.057  27.228  1.00  0.00    -0.341 N 
ATOM     15  H12 UNL     1      25.539  -1.443  26.653  1.00  0.00     0.177 HD
ATOM     16  H11 UNL     1      24.030  -1.655  27.552  1.00  0.00     0.177 HD
ENDBRANCH   1  14
TORSDOF 1
ENDMDL
MODEL 4
REMARK VINA RESULT: -5.632526939      2.330      4.613
REMARK  1 active torsions:
REMARK  status: ('A' for Active; 'I' for Inactive)
REMARK    1  A    between atoms: N1_1  and  N2_4 
REMARK       I    between atoms: N2_4  and  C1_6 
REMARK       I    between atoms: C1_6  and  N3_8 
ROOT
HETATM    1  N2  UNL     1      25.256   4.152  28.308  1.00  0.00    -0.256 N 
ATOM      2  H2  UNL     1      25.697   3.769  27.472  1.00  0.00     0.191 HD
HETATM    3  C1  UNL     1      24.588   3.273  29.205  1.00  0.00     0.364 C 
HETATM    4  O1  UNL     1      24.030   3.687  30.246  1.00  0.00    -0.243 OA
HETATM    5  N3  UNL     1      24.547   1.874  28.918  1.00  0.00    -0.148 N 
HETATM    6  N4  UNL     1      25.077   1.240  27.870  1.00  0.00    -0.236 N 
ATOM      7  H4  UNL     1      25.597   1.687  27.114  1.00  0.00     0.192 HD
HETATM    8  C2  UNL     1      24.824  -0.078  27.959  1.00  0.00     0.343 A 
HETATM    9  O2  UNL     1      25.181  -0.958  27.137  1.00  0.00    -0.245 OA
HETATM   10  N5  UNL     1      24.122  -0.298  29.079  1.00  0.00    -0.258 N 
ATOM     11  H5  UNL     1      23.780  -1.194  29.426  1.00  0.00     0.175 HD
HETATM   12  C3  UNL     1      23.963   0.913  29.653  1.00  0.00     0.353 A 
HETATM   13  O3  UNL     1      23.347   1.131  30.740  1.00  0.00    -0.244 OA
ENDROOT
BRANCH   1  14
HETATM   14  N1  UNL     1      25.322   5.517  28.545  1.00  0.00    -0.341 N 
ATOM     15  H12 UNL     1      25.626   5.833  29.466  1.00  0.00     0.177 HD
ATOM     16  H11 UNL     1      25.075   6.196  27.824  1.00  0.00     0.177 HD
ENDBRANCH   1  14
TORSDOF 1
ENDMDL
MODEL 5
REMARK VINA RESULT: -5.473064577      1.488      2.970
REMARK  1 active torsions:
REMARK  status: ('A' for Active; 'I' for Inactive)
REMARK    1  A    between atoms: N1_1  and  N2_4 
REMARK       I    between atoms: N2_4  and  C1_6 
REMARK       I    between atoms: C1_6  and  N3_8 
ROOT
HETATM    1  N2  UNL     1      24.162   0.768  29.494  1.00  0.00    -0.256 N 
ATOM      2  H2  UNL     1      24.637   0.945  28.609  1.00  0.00     0.191 HD
HETATM    3  C1  UNL     1      23.912   1.855  30.376  1.00  0.00     0.364 C 
HETATM    4  O1  UNL     1      23.333   1.696  31.475  1.00  0.00    -0.243 OA
HETATM    5  N3  UNL     1      24.330   3.170  30.007  1.00  0.00    -0.148 N 
HETATM    6  N4  UNL     1      24.956   3.545  28.890  1.00  0.00    -0.236 N 
ATOM      7  H4  UNL     1      25.225   2.919  28.130  1.00  0.00     0.192 HD
HETATM    8  C2  UNL     1      25.179   4.870  28.914  1.00  0.00     0.343 A 
HETATM    9  O2  UNL     1      25.748   5.543  28.018  1.00  0.00    -0.245 OA
HETATM   10  N5  UNL     1      24.690   5.359  30.062  1.00  0.00    -0.258 N 
ATOM     11  H5  UNL     1      24.705   6.329  30.375  1.00  0.00     0.175 HD
HETATM   12  C3  UNL     1      24.173   4.299  30.719  1.00  0.00     0.353 A 
HETATM   13  O3  UNL     1      23.612   4.347  31.855  1.00  0.00    -0.244 OA
ENDROOT
BRANCH   1  14
HETATM   14  N1  UNL     1      23.775  -0.527  29.809  1.00  0.00    -0.341 N 
ATOM     15  H12 UNL     1      23.181  -1.027  29.147  1.00  0.00     0.177 HD
ATOM     16  H11 UNL     1      24.071  -0.975  30.676  1.00  0.00     0.177 HD
ENDBRANCH   1  14
TORSDOF 1
ENDMDL
