MODEL 1
REMARK VINA RESULT: -6.903310941      0.000      0.000
REMARK  0 active torsions:
REMARK  status: ('A' for Active; 'I' for Inactive)
REMARK       I    between atoms: N1_1  and  C1_4 
ROOT
HETATM    1  N1  UNL     1      23.112   0.030  31.294  1.00  0.00    -0.233 N 
ATOM      2  H11 UNL     1      22.872   0.120  32.282  1.00  0.00     0.174 HD
ATOM      3  H12 UNL     1      23.100  -0.829  30.744  1.00  0.00     0.174 HD
HETATM    4  C1  UNL     1      23.473   1.121  30.662  1.00  0.00     0.693 C 
HETATM    5  N2  UNL     1      23.789   1.002  29.365  1.00  0.00    -0.131 N 
ATOM      6  H2  UNL     1      23.494   0.126  28.934  1.00  0.00     0.205 HD
HETATM    7  N3  UNL     1      24.418   1.830  28.551  1.00  0.00    -0.269 N 
ATOM      8  H3  UNL     1      24.754   1.421  27.679  1.00  0.00     0.189 HD
HETATM    9  C2  UNL     1      24.679   3.153  28.717  1.00  0.00     0.154 A 
HETATM   10  N4  UNL     1      25.205   3.981  27.806  1.00  0.00    -0.336 N 
ATOM     11  H4  UNL     1      25.475   3.705  26.862  1.00  0.00     0.168 HD
HETATM   12  C3  UNL     1      25.331   5.225  28.303  1.00  0.00     0.182 A 
HETATM   13  N5  UNL     1      24.869   5.181  29.568  1.00  0.00    -0.345 N 
ATOM     14  H5  UNL     1      24.830   5.971  30.213  1.00  0.00     0.167 HD
HETATM   15  C4  UNL     1      24.468   3.927  29.840  1.00  0.00     0.148 A 
HETATM   16  C5  UNL     1      23.931   3.473  31.036  1.00  0.00     0.290 C 
HETATM   17  O1  UNL     1      23.873   4.403  31.899  1.00  0.00    -0.265 OA
HETATM   18  N6  UNL     1      23.490   2.253  31.386  1.00  0.00    -0.153 N 
ATOM     19  H6  UNL     1      23.116   2.176  32.331  1.00  0.00     0.187 HD
ENDROOT
TORSDOF 0
ENDMDL
MODEL 2
REMARK VINA RESULT: -6.652289635      1.975      3.972
REMARK  0 active torsions:
REMARK  status: ('A' for Active; 'I' for Inactive)
REMARK       I    between atoms: N1_1  and  C1_4 
ROOT
HETATM    1  N1  UNL     1      25.091   5.975  31.120  1.00  0.00    -0.233 N 
ATOM      2  H11 UNL     1      25.714   6.641  30.663  1.00  0.00     0.174 HD
ATOM      3  H12 UNL     1      24.608   6.110  32.008  1.00  0.00     0.174 HD
HETATM    4  C1  UNL     1      24.886   4.830  30.514  1.00  0.00     0.693 C 
HETATM    5  N2  UNL     1      24.068   3.955  31.114  1.00  0.00    -0.131 N 
ATOM      6  H2  UNL     1      23.500   4.350  31.863  1.00  0.00     0.205 HD
HETATM    7  N3  UNL     1      23.875   2.667  30.899  1.00  0.00    -0.269 N 
ATOM      8  H3  UNL     1      23.384   2.165  31.639  1.00  0.00     0.189 HD
HETATM    9  C2  UNL     1      24.241   1.919  29.826  1.00  0.00     0.154 A 
HETATM   10  N4  UNL     1      23.908   0.644  29.594  1.00  0.00    -0.336 N 
ATOM     11  H4  UNL     1      23.326   0.077  30.212  1.00  0.00     0.168 HD
HETATM   12  C3  UNL     1      24.442   0.210  28.438  1.00  0.00     0.182 A 
HETATM   13  N5  UNL     1      25.134   1.245  27.923  1.00  0.00    -0.345 N 
ATOM     14  H5  UNL     1      25.656   1.232  27.046  1.00  0.00     0.167 HD
HETATM   15  C4  UNL     1      25.025   2.295  28.754  1.00  0.00     0.148 A 
HETATM   16  C5  UNL     1      25.595   3.549  28.580  1.00  0.00     0.290 C 
HETATM   17  O1  UNL     1      26.280   3.600  27.513  1.00  0.00    -0.265 OA
HETATM   18  N6  UNL     1      25.522   4.652  29.343  1.00  0.00    -0.153 N 
ATOM     19  H6  UNL     1      26.020   5.467  28.985  1.00  0.00     0.187 HD
ENDROOT
TORSDOF 0
ENDMDL
MODEL 3
REMARK VINA RESULT: -6.634054200      1.967      2.947
REMARK  0 active torsions:
REMARK  status: ('A' for Active; 'I' for Inactive)
REMARK       I    between atoms: N1_1  and  C1_4 
ROOT
HETATM    1  N1  UNL     1      24.700   0.188  27.711  1.00  0.00    -0.233 N 
ATOM      2  H11 UNL     1      25.134   0.226  26.788  1.00  0.00     0.174 HD
ATOM      3  H12 UNL     1      24.180  -0.598  28.103  1.00  0.00     0.174 HD
HETATM    4  C1  UNL     1      24.815   1.249  28.473  1.00  0.00     0.693 C 
HETATM    5  N2  UNL     1      24.243   1.198  29.685  1.00  0.00    -0.131 N 
ATOM      6  H2  UNL     1      23.978   0.262  29.990  1.00  0.00     0.205 HD
HETATM    7  N3  UNL     1      23.967   2.158  30.548  1.00  0.00    -0.269 N 
ATOM      8  H3  UNL     1      23.315   1.908  31.292  1.00  0.00     0.189 HD
HETATM    9  C2  UNL     1      24.433   3.433  30.581  1.00  0.00     0.154 A 
HETATM   10  N4  UNL     1      24.225   4.331  31.553  1.00  0.00    -0.336 N 
ATOM     11  H4  UNL     1      23.682   4.154  32.397  1.00  0.00     0.168 HD
HETATM   12  C3  UNL     1      24.830   5.499  31.265  1.00  0.00     0.182 A 
HETATM   13  N5  UNL     1      25.439   5.332  30.075  1.00  0.00    -0.345 N 
ATOM     14  H5  UNL     1      25.985   6.040  29.583  1.00  0.00     0.167 HD
HETATM   15  C4  UNL     1      25.208   4.081  29.641  1.00  0.00     0.148 A 
HETATM   16  C5  UNL     1      25.664   3.520  28.456  1.00  0.00     0.290 C 
HETATM   17  O1  UNL     1      26.338   4.357  27.779  1.00  0.00    -0.265 OA
HETATM   18  N6  UNL     1      25.499   2.284  27.957  1.00  0.00    -0.153 N 
ATOM     19  H6  UNL     1      25.956   2.107  27.063  1.00  0.00     0.187 HD
ENDROOT
TORSDOF 0
ENDMDL
MODEL 4
REMARK VINA RESULT: -6.485486394      1.008      3.689
REMARK  0 active torsions:
REMARK  status: ('A' for Active; 'I' for Inactive)
REMARK       I    between atoms: N1_1  and  C1_4 
ROOT
HETATM    1  N1  UNL     1      25.314   5.625  28.445  1.00  0.00    -0.233 N 
ATOM      2  H11 UNL     1      25.195   6.427  29.065  1.00  0.00     0.174 HD
ATOM      3  H12 UNL     1      25.660   5.649  27.485  1.00  0.00     0.174 HD
HETATM    4  C1  UNL     1      24.994   4.445  28.920  1.00  0.00     0.693 C 
HETATM    5  N2  UNL     1      25.151   3.393  28.105  1.00  0.00    -0.131 N 
ATOM      6  H2  UNL     1      25.722   3.576  27.280  1.00  0.00     0.205 HD
HETATM    7  N3  UNL     1      24.689   2.159  28.191  1.00  0.00    -0.269 N 
ATOM      8  H3  UNL     1      24.739   1.609  27.334  1.00  0.00     0.189 HD
HETATM    9  C2  UNL     1      24.157   1.523  29.267  1.00  0.00     0.154 A 
HETATM   10  N4  UNL     1      23.823   0.228  29.341  1.00  0.00    -0.336 N 
ATOM     11  H4  UNL     1      23.934  -0.441  28.579  1.00  0.00     0.168 HD
HETATM   12  C3  UNL     1      23.322  -0.070  30.553  1.00  0.00     0.182 A 
HETATM   13  N5  UNL     1      23.340   1.072  31.268  1.00  0.00    -0.345 N 
ATOM     14  H5  UNL     1      23.022   1.174  32.232  1.00  0.00     0.167 HD
HETATM   15  C4  UNL     1      23.845   2.054  30.501  1.00  0.00     0.148 A 
HETATM   16  C5  UNL     1      24.028   3.379  30.872  1.00  0.00     0.290 C 
HETATM   17  O1  UNL     1      23.632   3.585  32.061  1.00  0.00    -0.265 OA
HETATM   18  N6  UNL     1      24.539   4.414  30.184  1.00  0.00    -0.153 N 
ATOM     19  H6  UNL     1      24.587   5.297  30.691  1.00  0.00     0.187 HD
ENDROOT
TORSDOF 0
ENDMDL
MODEL 5
REMARK VINA RESULT: -6.339677818      1.532      2.428
REMARK  0 active torsions:
REMARK  status: ('A' for Active; 'I' for Inactive)
REMARK       I    between atoms: N1_1  and  C1_4 
ROOT
HETATM    1  N1  UNL     1      24.933   0.350  27.699  1.00  0.00    -0.233 N 
ATOM      2  H11 UNL     1      24.474  -0.463  28.112  1.00  0.00     0.174 HD
ATOM      3  H12 UNL     1      25.439   0.374  26.814  1.00  0.00     0.174 HD
HETATM    4  C1  UNL     1      24.870   1.478  28.365  1.00  0.00     0.693 C 
HETATM    5  N2  UNL     1      25.473   2.545  27.822  1.00  0.00    -0.131 N 
ATOM      6  H2  UNL     1      25.719   2.439  26.838  1.00  0.00     0.205 HD
HETATM    7  N3  UNL     1      25.801   3.710  28.349  1.00  0.00    -0.269 N 
ATOM      8  H3  UNL     1      26.466   4.266  27.810  1.00  0.00     0.189 HD
HETATM    9  C2  UNL     1      25.375   4.270  29.510  1.00  0.00     0.154 A 
HETATM   10  N4  UNL     1      25.636   5.512  29.938  1.00  0.00    -0.336 N 
ATOM     11  H4  UNL     1      26.197   6.193  29.427  1.00  0.00     0.168 HD
HETATM   12  C3  UNL     1      25.059   5.740  31.132  1.00  0.00     0.182 A 
HETATM   13  N5  UNL     1      24.413   4.607  31.469  1.00  0.00    -0.345 N 
ATOM     14  H5  UNL     1      23.875   4.461  32.324  1.00  0.00     0.167 HD
HETATM   15  C4  UNL     1      24.594   3.699  30.494  1.00  0.00     0.148 A 
HETATM   16  C5  UNL     1      24.089   2.406  30.465  1.00  0.00     0.290 C 
HETATM   17  O1  UNL     1      23.422   2.148  31.514  1.00  0.00    -0.265 OA
HETATM   18  N6  UNL     1      24.203   1.447  29.531  1.00  0.00    -0.153 N 
ATOM     19  H6  UNL     1      23.717   0.574  29.736  1.00  0.00     0.187 HD
ENDROOT
TORSDOF 0
ENDMDL
