MODEL 1
REMARK VINA RESULT: -5.784575912      0.000      0.000
REMARK  0 active torsions:
REMARK  status: ('A' for Active; 'I' for Inactive)
ROOT
HETATM    1  C1  UNL     1      25.736   5.060  29.624  1.00  0.00     0.138 C 
HETATM    2  C2  UNL     1      24.570   5.395  30.548  1.00  0.00     0.133 C 
HETATM    3  N1  UNL     1      24.621   4.808  31.830  1.00  0.00    -0.418 N 
ATOM      4  H1  UNL     1      25.278   5.136  32.538  1.00  0.00     0.153 HD
HETATM    5  C3  UNL     1      23.698   3.715  32.100  1.00  0.00     0.141 C 
HETATM    6  C4  UNL     1      23.903   2.805  30.974  1.00  0.00     0.253 C 
HETATM    7  N2  UNL     1      23.437   1.455  31.012  1.00  0.00    -0.058 N 
ATOM      8  H21 UNL     1      22.430   1.338  31.129  1.00  0.00     0.279 HD
ATOM      9  H22 UNL     1      23.683   0.927  31.850  1.00  0.00     0.279 HD
HETATM   10  C5  UNL     1      23.998   0.939  29.744  1.00  0.00     0.350 C 
HETATM   11  N3  UNL     1      24.194   1.926  28.746  1.00  0.00    -0.396 N 
ATOM     12  H3  UNL     1      23.420   2.471  28.367  1.00  0.00     0.155 HD
HETATM   13  C6  UNL     1      25.554   2.116  28.298  1.00  0.00     0.159 C 
HETATM   14  C7  UNL     1      25.884   3.457  27.786  1.00  0.00     0.074 C 
HETATM   15  N4  UNL     1      25.331   4.600  28.343  1.00  0.00    -0.399 N 
ATOM     16  H4  UNL     1      24.622   5.119  27.825  1.00  0.00     0.158 HD
ENDROOT
TORSDOF 0
ENDMDL
MODEL 2
REMARK VINA RESULT: -5.633410689      1.180      2.046
REMARK  0 active torsions:
REMARK  status: ('A' for Active; 'I' for Inactive)
ROOT
HETATM    1  C1  UNL     1      26.084   3.732  28.202  1.00  0.00     0.138 C 
HETATM    2  C2  UNL     1      25.438   5.059  28.587  1.00  0.00     0.133 C 
HETATM    3  N1  UNL     1      25.796   5.564  29.855  1.00  0.00    -0.418 N 
ATOM      4  H1  UNL     1      26.719   5.962  30.027  1.00  0.00     0.153 HD
HETATM    5  C3  UNL     1      24.793   5.493  30.908  1.00  0.00     0.141 C 
HETATM    6  C4  UNL     1      24.360   4.097  30.877  1.00  0.00     0.253 C 
HETATM    7  N2  UNL     1      23.625   3.521  31.959  1.00  0.00    -0.058 N 
ATOM      8  H21 UNL     1      22.729   3.960  32.168  1.00  0.00     0.279 HD
ATOM      9  H22 UNL     1      24.016   3.675  32.889  1.00  0.00     0.279 HD
HETATM   10  C5  UNL     1      23.559   2.110  31.520  1.00  0.00     0.350 C 
HETATM   11  N3  UNL     1      23.622   1.930  30.115  1.00  0.00    -0.396 N 
ATOM     12  H3  UNL     1      22.921   2.324  29.489  1.00  0.00     0.155 HD
HETATM   13  C6  UNL     1      24.739   1.157  29.623  1.00  0.00     0.159 C 
HETATM   14  C7  UNL     1      25.180   1.462  28.251  1.00  0.00     0.074 C 
HETATM   15  N4  UNL     1      25.154   2.757  27.754  1.00  0.00    -0.399 N 
ATOM     16  H4  UNL     1      24.456   3.013  27.056  1.00  0.00     0.158 HD
ENDROOT
TORSDOF 0
ENDMDL
MODEL 3
REMARK VINA RESULT: -5.410630036      1.184      1.498
REMARK  0 active torsions:
REMARK  status: ('A' for Active; 'I' for Inactive)
ROOT
HETATM    1  C1  UNL     1      25.126   5.239  30.759  1.00  0.00     0.138 C 
HETATM    2  C2  UNL     1      23.859   4.678  31.397  1.00  0.00     0.133 C 
HETATM    3  N1  UNL     1      24.031   3.506  32.162  1.00  0.00    -0.418 N 
ATOM      4  H1  UNL     1      24.482   3.530  33.077  1.00  0.00     0.153 HD
HETATM    5  C3  UNL     1      23.538   2.260  31.593  1.00  0.00     0.141 C 
HETATM    6  C4  UNL     1      24.123   2.238  30.254  1.00  0.00     0.253 C 
HETATM    7  N2  UNL     1      24.162   1.039  29.477  1.00  0.00    -0.058 N 
ATOM      8  H21 UNL     1      23.256   0.623  29.260  1.00  0.00     0.279 HD
ATOM      9  H22 UNL     1      24.523   0.214  29.956  1.00  0.00     0.279 HD
HETATM   10  C5  UNL     1      24.950   1.497  28.312  1.00  0.00     0.350 C 
HETATM   11  N3  UNL     1      24.850   2.886  28.046  1.00  0.00    -0.396 N 
ATOM     12  H3  UNL     1      23.960   3.329  27.819  1.00  0.00     0.155 HD
HETATM   13  C6  UNL     1      26.082   3.638  28.116  1.00  0.00     0.159 C 
HETATM   14  C7  UNL     1      25.949   5.062  28.465  1.00  0.00     0.074 C 
HETATM   15  N4  UNL     1      24.993   5.500  29.369  1.00  0.00    -0.399 N 
ATOM     16  H4  UNL     1      24.182   6.018  29.032  1.00  0.00     0.158 HD
ENDROOT
TORSDOF 0
ENDMDL
MODEL 4
REMARK VINA RESULT: -5.406922538      0.795      3.175
REMARK  0 active torsions:
REMARK  status: ('A' for Active; 'I' for Inactive)
ROOT
HETATM    1  C1  UNL     1      24.449   5.168  30.693  1.00  0.00     0.138 C 
HETATM    2  C2  UNL     1      25.681   5.301  29.804  1.00  0.00     0.133 C 
HETATM    3  N1  UNL     1      25.438   5.247  28.416  1.00  0.00    -0.418 N 
ATOM      4  H1  UNL     1      24.997   6.023  27.923  1.00  0.00     0.153 HD
HETATM    5  C3  UNL     1      25.841   4.036  27.715  1.00  0.00     0.141 C 
HETATM    6  C4  UNL     1      25.245   2.963  28.508  1.00  0.00     0.253 C 
HETATM    7  N2  UNL     1      25.118   1.636  27.994  1.00  0.00    -0.058 N 
ATOM      8  H21 UNL     1      25.993   1.176  27.739  1.00  0.00     0.279 HD
ATOM      9  H22 UNL     1      24.707   1.561  27.063  1.00  0.00     0.279 HD
HETATM   10  C5  UNL     1      24.353   0.994  29.085  1.00  0.00     0.350 C 
HETATM   11  N3  UNL     1      24.544   1.584  30.360  1.00  0.00    -0.396 N 
ATOM     12  H3  UNL     1      25.459   1.616  30.807  1.00  0.00     0.155 HD
HETATM   13  C6  UNL     1      23.365   2.135  30.988  1.00  0.00     0.159 C 
HETATM   14  C7  UNL     1      23.595   3.242  31.932  1.00  0.00     0.074 C 
HETATM   15  N4  UNL     1      24.586   4.187  31.710  1.00  0.00    -0.399 N 
ATOM     16  H4  UNL     1      25.427   4.177  32.287  1.00  0.00     0.158 HD
ENDROOT
TORSDOF 0
ENDMDL
MODEL 5
REMARK VINA RESULT: -5.221601561      0.886      3.484
REMARK  0 active torsions:
REMARK  status: ('A' for Active; 'I' for Inactive)
ROOT
HETATM    1  C1  UNL     1      25.420   1.832  28.445  1.00  0.00     0.138 C 
HETATM    2  C2  UNL     1      25.662   3.256  27.956  1.00  0.00     0.133 C 
HETATM    3  N1  UNL     1      26.658   3.976  28.649  1.00  0.00    -0.418 N 
ATOM      4  H1  UNL     1      27.649   3.764  28.527  1.00  0.00     0.153 HD
HETATM    5  C3  UNL     1      26.214   5.033  29.547  1.00  0.00     0.141 C 
HETATM    6  C4  UNL     1      25.207   4.378  30.379  1.00  0.00     0.253 C 
HETATM    7  N2  UNL     1      24.755   4.963  31.602  1.00  0.00    -0.058 N 
ATOM      8  H21 UNL     1      24.318   5.881  31.517  1.00  0.00     0.279 HD
ATOM      9  H22 UNL     1      25.488   5.275  32.239  1.00  0.00     0.279 HD
HETATM   10  C5  UNL     1      23.882   3.883  32.112  1.00  0.00     0.350 C 
HETATM   11  N3  UNL     1      23.323   3.057  31.104  1.00  0.00    -0.396 N 
ATOM     12  H3  UNL     1      22.709   3.428  30.381  1.00  0.00     0.155 HD
HETATM   13  C6  UNL     1      23.675   1.657  31.163  1.00  0.00     0.159 C 
HETATM   14  C7  UNL     1      23.658   0.933  29.881  1.00  0.00     0.074 C 
HETATM   15  N4  UNL     1      24.053   1.544  28.700  1.00  0.00    -0.399 N 
ATOM     16  H4  UNL     1      23.351   1.791  28.003  1.00  0.00     0.158 HD
ENDROOT
TORSDOF 0
ENDMDL
