MODEL 1
REMARK VINA RESULT: -6.229308477      0.000      0.000
REMARK  1 active torsions:
REMARK  status: ('A' for Active; 'I' for Inactive)
REMARK    1  A    between atoms: N1_1  and  C1_4 
ROOT
HETATM    1  C1  UNL     1      24.427   0.369  28.556  1.00  0.00     0.706 A 
HETATM    2  N2  UNL     1      23.873   0.981  29.616  1.00  0.00    -0.019 N 
ATOM      3  H2  UNL     1      23.247   0.539  30.289  1.00  0.00     0.203 HD
HETATM    4  C2  UNL     1      24.273   2.277  29.653  1.00  0.00     0.727 A 
HETATM    5  N3  UNL     1      24.012   3.304  30.495  1.00  0.00    -0.138 N 
ATOM      6  H3  UNL     1      23.393   3.143  31.290  1.00  0.00     0.189 HD
HETATM    7  C3  UNL     1      24.539   4.531  30.321  1.00  0.00     0.342 A 
HETATM    8  O1  UNL     1      24.279   5.475  31.123  1.00  0.00    -0.246 OA
HETATM    9  N4  UNL     1      25.349   4.694  29.259  1.00  0.00    -0.258 N 
ATOM     10  H4  UNL     1      25.766   5.611  29.095  1.00  0.00     0.175 HD
HETATM   11  C4  UNL     1      25.629   3.693  28.402  1.00  0.00     0.365 A 
HETATM   12  O2  UNL     1      26.378   3.884  27.438  1.00  0.00    -0.244 OA
HETATM   13  N5  UNL     1      25.086   2.460  28.596  1.00  0.00    -0.016 N 
HETATM   14  N6  UNL     1      25.170   1.310  27.947  1.00  0.00    -0.106 N 
ATOM     15  H6  UNL     1      25.722   1.158  27.102  1.00  0.00     0.207 HD
ENDROOT
BRANCH   1  16
HETATM   16  N1  UNL     1      24.310  -0.859  28.153  1.00  0.00    -0.233 N 
ATOM     17  H12 UNL     1      23.463  -1.422  28.239  1.00  0.00     0.174 HD
ATOM     18  H11 UNL     1      24.995  -1.465  27.702  1.00  0.00     0.174 HD
ENDBRANCH   1  16
TORSDOF 1
ENDMDL
MODEL 2
REMARK VINA RESULT: -6.106938031      2.202      4.489
REMARK  1 active torsions:
REMARK  status: ('A' for Active; 'I' for Inactive)
REMARK    1  A    between atoms: N1_1  and  C1_4 
ROOT
HETATM    1  C1  UNL     1      25.049   4.388  28.642  1.00  0.00     0.706 A 
HETATM    2  N2  UNL     1      25.368   3.410  27.778  1.00  0.00    -0.019 N 
ATOM      3  H2  UNL     1      25.849   3.545  26.888  1.00  0.00     0.203 HD
HETATM    4  C2  UNL     1      24.953   2.216  28.269  1.00  0.00     0.727 A 
HETATM    5  N3  UNL     1      25.026   0.946  27.805  1.00  0.00    -0.138 N 
ATOM      6  H3  UNL     1      25.473   0.777  26.904  1.00  0.00     0.189 HD
HETATM    7  C3  UNL     1      24.529  -0.102  28.489  1.00  0.00     0.342 A 
HETATM    8  O1  UNL     1      24.610  -1.279  28.032  1.00  0.00    -0.246 OA
HETATM    9  N4  UNL     1      23.949   0.171  29.672  1.00  0.00    -0.258 N 
ATOM     10  H4  UNL     1      23.560  -0.598  30.218  1.00  0.00     0.175 HD
HETATM   11  C4  UNL     1      23.860   1.423  30.162  1.00  0.00     0.365 A 
HETATM   12  O2  UNL     1      23.319   1.631  31.254  1.00  0.00    -0.244 OA
HETATM   13  N5  UNL     1      24.369   2.468  29.455  1.00  0.00    -0.016 N 
HETATM   14  N6  UNL     1      24.432   3.774  29.667  1.00  0.00    -0.106 N 
ATOM     15  H6  UNL     1      24.066   4.246  30.493  1.00  0.00     0.207 HD
ENDROOT
BRANCH   1  16
HETATM   16  N1  UNL     1      25.260   5.666  28.563  1.00  0.00    -0.233 N 
ATOM     17  H12 UNL     1      25.977   6.171  29.083  1.00  0.00     0.174 HD
ATOM     18  H11 UNL     1      24.782   6.371  28.003  1.00  0.00     0.174 HD
ENDBRANCH   1  16
TORSDOF 1
ENDMDL
MODEL 3
REMARK VINA RESULT: -6.005609727      1.784      3.937
REMARK  1 active torsions:
REMARK  status: ('A' for Active; 'I' for Inactive)
REMARK    1  A    between atoms: N1_1  and  C1_4 
ROOT
HETATM    1  C1  UNL     1      25.002   5.163  30.864  1.00  0.00     0.706 A 
HETATM    2  N2  UNL     1      24.333   4.041  31.182  1.00  0.00    -0.019 N 
ATOM      3  H2  UNL     1      23.787   3.903  32.033  1.00  0.00     0.203 HD
HETATM    4  C2  UNL     1      24.496   3.121  30.199  1.00  0.00     0.727 A 
HETATM    5  N3  UNL     1      24.044   1.856  30.029  1.00  0.00    -0.138 N 
ATOM      6  H3  UNL     1      23.452   1.444  30.750  1.00  0.00     0.189 HD
HETATM    7  C3  UNL     1      24.348   1.122  28.941  1.00  0.00     0.342 A 
HETATM    8  O1  UNL     1      23.913  -0.059  28.806  1.00  0.00    -0.246 OA
HETATM    9  N4  UNL     1      25.132   1.708  28.018  1.00  0.00    -0.258 N 
ATOM     10  H4  UNL     1      25.383   1.182  27.181  1.00  0.00     0.175 HD
HETATM   11  C4  UNL     1      25.597   2.965  28.157  1.00  0.00     0.365 A 
HETATM   12  O2  UNL     1      26.315   3.467  27.285  1.00  0.00    -0.244 OA
HETATM   13  N5  UNL     1      25.279   3.690  29.264  1.00  0.00    -0.016 N 
HETATM   14  N6  UNL     1      25.575   4.913  29.674  1.00  0.00    -0.106 N 
ATOM     15  H6  UNL     1      26.156   5.574  29.158  1.00  0.00     0.207 HD
ENDROOT
BRANCH   1  16
HETATM   16  N1  UNL     1      25.110   6.276  31.520  1.00  0.00    -0.233 N 
ATOM     17  H12 UNL     1      24.330   6.788  31.934  1.00  0.00     0.174 HD
ATOM     18  H11 UNL     1      25.941   6.826  31.738  1.00  0.00     0.174 HD
ENDBRANCH   1  16
TORSDOF 1
ENDMDL
MODEL 4
REMARK VINA RESULT: -5.839690933      1.302      2.688
REMARK  1 active torsions:
REMARK  status: ('A' for Active; 'I' for Inactive)
REMARK    1  A    between atoms: N1_1  and  C1_4 
ROOT
HETATM    1  C1  UNL     1      23.462   0.568  30.264  1.00  0.00     0.706 A 
HETATM    2  N2  UNL     1      24.077   0.996  29.149  1.00  0.00    -0.019 N 
ATOM      3  H2  UNL     1      24.295   0.415  28.338  1.00  0.00     0.203 HD
HETATM    4  C2  UNL     1      24.366   2.316  29.266  1.00  0.00     0.727 A 
HETATM    5  N3  UNL     1      24.969   3.209  28.447  1.00  0.00    -0.138 N 
ATOM      6  H3  UNL     1      25.300   2.895  27.534  1.00  0.00     0.189 HD
HETATM    7  C3  UNL     1      25.147   4.499  28.792  1.00  0.00     0.342 A 
HETATM    8  O1  UNL     1      25.714   5.314  28.007  1.00  0.00    -0.246 OA
HETATM    9  N4  UNL     1      24.694   4.866  30.005  1.00  0.00    -0.258 N 
ATOM     10  H4  UNL     1      24.812   5.835  30.300  1.00  0.00     0.175 HD
HETATM   11  C4  UNL     1      24.090   4.001  30.843  1.00  0.00     0.365 A 
HETATM   12  O2  UNL     1      23.688   4.380  31.949  1.00  0.00    -0.244 OA
HETATM   13  N5  UNL     1      23.920   2.703  30.475  1.00  0.00    -0.016 N 
HETATM   14  N6  UNL     1      23.380   1.647  31.063  1.00  0.00    -0.106 N 
ATOM     15  H6  UNL     1      22.960   1.651  31.993  1.00  0.00     0.207 HD
ENDROOT
BRANCH   1  16
HETATM   16  N1  UNL     1      23.020  -0.613  30.566  1.00  0.00    -0.233 N 
ATOM     17  H12 UNL     1      22.443  -1.193  29.956  1.00  0.00     0.174 HD
ATOM     18  H11 UNL     1      23.150  -1.160  31.417  1.00  0.00     0.174 HD
ENDBRANCH   1  16
TORSDOF 1
ENDMDL
MODEL 5
REMARK VINA RESULT: -5.736377591      1.248      2.385
REMARK  1 active torsions:
REMARK  status: ('A' for Active; 'I' for Inactive)
REMARK    1  A    between atoms: N1_1  and  C1_4 
ROOT
HETATM    1  C1  UNL     1      24.173   0.063  28.982  1.00  0.00     0.706 A 
HETATM    2  N2  UNL     1      24.724   0.843  28.036  1.00  0.00    -0.019 N 
ATOM      3  H2  UNL     1      25.052   0.521  27.126  1.00  0.00     0.203 HD
HETATM    4  C2  UNL     1      24.776   2.124  28.478  1.00  0.00     0.727 A 
HETATM    5  N3  UNL     1      25.228   3.276  27.930  1.00  0.00    -0.138 N 
ATOM      6  H3  UNL     1      25.624   3.252  26.990  1.00  0.00     0.189 HD
HETATM    7  C3  UNL     1      25.173   4.455  28.580  1.00  0.00     0.342 A 
HETATM    8  O1  UNL     1      25.602   5.518  28.044  1.00  0.00    -0.246 OA
HETATM    9  N4  UNL     1      24.643   4.437  29.816  1.00  0.00    -0.258 N 
ATOM     10  H4  UNL     1      24.586   5.311  30.339  1.00  0.00     0.175 HD
HETATM   11  C4  UNL     1      24.185   3.308  30.390  1.00  0.00     0.365 A 
HETATM   12  O2  UNL     1      23.704   3.335  31.529  1.00  0.00    -0.244 OA
HETATM   13  N5  UNL     1      24.249   2.128  29.717  1.00  0.00    -0.016 N 
HETATM   14  N6  UNL     1      23.891   0.886  30.007  1.00  0.00    -0.106 N 
ATOM     15  H6  UNL     1      23.461   0.596  30.885  1.00  0.00     0.207 HD
ENDROOT
BRANCH   1  16
HETATM   16  N1  UNL     1      23.938  -1.213  28.969  1.00  0.00    -0.233 N 
ATOM     17  H12 UNL     1      23.126  -1.661  29.397  1.00  0.00     0.174 HD
ATOM     18  H11 UNL     1      24.482  -1.971  28.558  1.00  0.00     0.174 HD
ENDBRANCH   1  16
TORSDOF 1
ENDMDL
