MODEL 1
REMARK VINA RESULT: -6.540973853      0.000      0.000
REMARK  0 active torsions:
REMARK  status: ('A' for Active; 'I' for Inactive)
ROOT
HETATM    1  N1  UNL     1      24.216  -1.008  28.152  1.00  0.00    -0.081 NA
HETATM    2  C1  UNL     1      24.386   0.347  28.565  1.00  0.00     0.135 A 
HETATM    3  C2  UNL     1      23.828   0.977  29.664  1.00  0.00     0.097 A 
HETATM    4  C3  UNL     1      24.245   2.296  29.708  1.00  0.00     0.139 A 
HETATM    5  N2  UNL     1      23.992   3.313  30.560  1.00  0.00    -0.293 N 
ATOM      6  H2  UNL     1      23.379   3.163  31.360  1.00  0.00     0.172 HD
HETATM    7  C4  UNL     1      24.546   4.529  30.358  1.00  0.00     0.329 A 
HETATM    8  O1  UNL     1      24.325   5.498  31.142  1.00  0.00    -0.246 OA
HETATM    9  N3  UNL     1      25.347   4.677  29.290  1.00  0.00    -0.259 N 
ATOM     10  H3  UNL     1      25.780   5.583  29.114  1.00  0.00     0.175 HD
HETATM   11  C5  UNL     1      25.591   3.655  28.448  1.00  0.00     0.351 A 
HETATM   12  O2  UNL     1      26.347   3.839  27.459  1.00  0.00    -0.244 OA
HETATM   13  N4  UNL     1      25.046   2.443  28.637  1.00  0.00    -0.187 N 
HETATM   14  N5  UNL     1      25.130   1.294  27.963  1.00  0.00    -0.275 N 
ATOM     15  H5  UNL     1      25.679   1.153  27.115  1.00  0.00     0.189 HD
ENDROOT
TORSDOF 0
ENDMDL
MODEL 2
REMARK VINA RESULT: -6.345247571      1.087      1.098
REMARK  0 active torsions:
REMARK  status: ('A' for Active; 'I' for Inactive)
ROOT
HETATM    1  N1  UNL     1      24.734  -0.963  27.535  1.00  0.00    -0.081 NA
HETATM    2  C1  UNL     1      24.576   0.219  28.317  1.00  0.00     0.135 A 
HETATM    3  C2  UNL     1      24.053   0.331  29.594  1.00  0.00     0.097 A 
HETATM    4  C3  UNL     1      24.077   1.655  29.994  1.00  0.00     0.139 A 
HETATM    5  N2  UNL     1      23.689   2.281  31.127  1.00  0.00    -0.293 N 
ATOM      6  H2  UNL     1      23.287   1.741  31.891  1.00  0.00     0.172 HD
HETATM    7  C4  UNL     1      23.831   3.619  31.252  1.00  0.00     0.329 A 
HETATM    8  O1  UNL     1      23.476   4.229  32.303  1.00  0.00    -0.246 OA
HETATM    9  N3  UNL     1      24.366   4.287  30.217  1.00  0.00    -0.259 N 
ATOM     10  H3  UNL     1      24.486   5.297  30.284  1.00  0.00     0.175 HD
HETATM   11  C5  UNL     1      24.749   3.652  29.093  1.00  0.00     0.351 A 
HETATM   12  O2  UNL     1      25.245   4.317  28.148  1.00  0.00    -0.244 OA
HETATM   13  N4  UNL     1      24.612   2.323  28.956  1.00  0.00    -0.187 N 
HETATM   14  N5  UNL     1      24.908   1.476  27.967  1.00  0.00    -0.275 N 
ATOM     15  H5  UNL     1      25.325   1.744  27.075  1.00  0.00     0.189 HD
ENDROOT
TORSDOF 0
ENDMDL
MODEL 3
REMARK VINA RESULT: -6.234574333      1.849      3.976
REMARK  0 active torsions:
REMARK  status: ('A' for Active; 'I' for Inactive)
ROOT
HETATM    1  N1  UNL     1      25.042   6.173  31.737  1.00  0.00    -0.081 NA
HETATM    2  C1  UNL     1      24.948   4.989  30.947  1.00  0.00     0.135 A 
HETATM    3  C2  UNL     1      24.237   3.834  31.227  1.00  0.00     0.097 A 
HETATM    4  C3  UNL     1      24.409   2.921  30.201  1.00  0.00     0.139 A 
HETATM    5  N2  UNL     1      23.940   1.670  29.994  1.00  0.00    -0.293 N 
ATOM      6  H2  UNL     1      23.329   1.238  30.686  1.00  0.00     0.172 HD
HETATM    7  C4  UNL     1      24.277   0.990  28.878  1.00  0.00     0.329 A 
HETATM    8  O1  UNL     1      23.850  -0.183  28.660  1.00  0.00    -0.246 OA
HETATM    9  N3  UNL     1      25.085   1.601  27.997  1.00  0.00    -0.259 N 
ATOM     10  H3  UNL     1      25.355   1.111  27.144  1.00  0.00     0.175 HD
HETATM   11  C5  UNL     1      25.547   2.847  28.214  1.00  0.00     0.351 A 
HETATM   12  O2  UNL     1      26.302   3.382  27.363  1.00  0.00    -0.244 OA
HETATM   13  N4  UNL     1      25.219   3.535  29.321  1.00  0.00    -0.187 N 
HETATM   14  N5  UNL     1      25.537   4.754  29.759  1.00  0.00    -0.275 N 
ATOM     15  H5  UNL     1      26.139   5.414  29.266  1.00  0.00     0.189 HD
ENDROOT
TORSDOF 0
ENDMDL
MODEL 4
REMARK VINA RESULT: -6.233997139      2.014      3.985
REMARK  0 active torsions:
REMARK  status: ('A' for Active; 'I' for Inactive)
ROOT
HETATM    1  N1  UNL     1      23.622   4.397  32.211  1.00  0.00    -0.081 NA
HETATM    2  C1  UNL     1      23.907   3.418  31.213  1.00  0.00     0.135 A 
HETATM    3  C2  UNL     1      23.464   2.107  31.156  1.00  0.00     0.097 A 
HETATM    4  C3  UNL     1      23.970   1.493  30.024  1.00  0.00     0.139 A 
HETATM    5  N2  UNL     1      23.841   0.247  29.518  1.00  0.00    -0.293 N 
ATOM      6  H2  UNL     1      23.272  -0.442  30.009  1.00  0.00     0.172 HD
HETATM    7  C4  UNL     1      24.460  -0.092  28.367  1.00  0.00     0.329 A 
HETATM    8  O1  UNL     1      24.354  -1.253  27.872  1.00  0.00    -0.246 OA
HETATM    9  N3  UNL     1      25.198   0.850  27.758  1.00  0.00    -0.259 N 
ATOM     10  H3  UNL     1      25.677   0.623  26.886  1.00  0.00     0.175 HD
HETATM   11  C5  UNL     1      25.320   2.089  28.272  1.00  0.00     0.351 A 
HETATM   12  O2  UNL     1      26.022   2.940  27.669  1.00  0.00    -0.244 OA
HETATM   13  N4  UNL     1      24.709   2.438  29.416  1.00  0.00    -0.187 N 
HETATM   14  N5  UNL     1      24.672   3.573  30.116  1.00  0.00    -0.275 N 
ATOM     15  H5  UNL     1      25.154   4.435  29.858  1.00  0.00     0.189 HD
ENDROOT
TORSDOF 0
ENDMDL
MODEL 5
REMARK VINA RESULT: -6.218600346      1.270      1.345
REMARK  0 active torsions:
REMARK  status: ('A' for Active; 'I' for Inactive)
ROOT
HETATM    1  N1  UNL     1      23.091  -0.353  29.648  1.00  0.00    -0.081 NA
HETATM    2  C1  UNL     1      23.537   0.990  29.825  1.00  0.00     0.135 A 
HETATM    3  C2  UNL     1      23.586   1.721  31.000  1.00  0.00     0.097 A 
HETATM    4  C3  UNL     1      24.084   2.987  30.741  1.00  0.00     0.139 A 
HETATM    5  N2  UNL     1      24.324   4.059  31.527  1.00  0.00    -0.293 N 
ATOM      6  H2  UNL     1      24.127   4.010  32.526  1.00  0.00     0.172 HD
HETATM    7  C4  UNL     1      24.824   5.197  30.997  1.00  0.00     0.329 A 
HETATM    8  O1  UNL     1      25.058   6.216  31.712  1.00  0.00    -0.246 OA
HETATM    9  N3  UNL     1      25.067   5.213  29.677  1.00  0.00    -0.259 N 
ATOM     10  H3  UNL     1      25.445   6.058  29.250  1.00  0.00     0.175 HD
HETATM   11  C5  UNL     1      24.823   4.138  28.903  1.00  0.00     0.351 A 
HETATM   12  O2  UNL     1      25.065   4.197  27.671  1.00  0.00    -0.244 OA
HETATM   13  N4  UNL     1      24.326   3.002  29.418  1.00  0.00    -0.187 N 
HETATM   14  N5  UNL     1      24.004   1.824  28.878  1.00  0.00    -0.275 N 
ATOM     15  H5  UNL     1      24.099   1.590  27.889  1.00  0.00     0.189 HD
ENDROOT
TORSDOF 0
ENDMDL
