MODEL 1
REMARK VINA RESULT: -8.149985686      0.000      0.000
REMARK  7 active torsions:
REMARK  status: ('A' for Active; 'I' for Inactive)
REMARK    1  A    between atoms: C2_2  and  C3_3 
REMARK    2  A    between atoms: C3_3  and  C4_4 
REMARK    3  A    between atoms: C4_4  and  O1_5 
REMARK    4  A    between atoms: O1_5  and  C5_6 
REMARK    5  A    between atoms: C8_9  and  C9_10 
REMARK    6  A    between atoms: C9_10  and  C11_12 
REMARK    7  A    between atoms: C11_12  and  O2_14 
ROOT
HETATM    1  C5  UNL     1     -12.416  11.665 -19.796  1.00  0.00     0.121 C 
HETATM    2  C6  UNL     1     -12.976  12.326 -21.038  1.00  0.00     0.032 C 
HETATM    3  C7  UNL     1     -14.373  11.716 -21.202  1.00  0.00     0.007 C 
HETATM    4  C8  UNL     1     -14.225  10.235 -21.453  1.00  0.00    -0.008 C 
HETATM    5  C13 UNL     1     -12.857   9.708 -21.263  1.00  0.00     0.007 C 
HETATM    6  C14 UNL     1     -12.050  10.270 -20.152  1.00  0.00     0.032 C 
ENDROOT
BRANCH   4   7
HETATM    7  C9  UNL     1     -14.709   9.999 -22.864  1.00  0.00     0.014 C 
HETATM    8  C10 UNL     1     -15.221  11.262 -23.517  1.00  0.00     0.013 C 
BRANCH   7   9
HETATM    9  C11 UNL     1     -13.749   9.264 -23.736  1.00  0.00     0.118 C 
HETATM   10  C12 UNL     1     -14.454   7.974 -24.181  1.00  0.00     0.040 C 
BRANCH   9  11
HETATM   11  O2  UNL     1     -13.490   9.943 -24.937  1.00  0.00    -0.396 OA
ATOM     12  H2  UNL     1     -13.795   9.461 -25.697  1.00  0.00     0.210 HD
ENDBRANCH   9  11
ENDBRANCH   7   9
ENDBRANCH   4   7
BRANCH   1  13
HETATM   13  O1  UNL     1     -11.386  12.393 -19.230  1.00  0.00    -0.386 OA
BRANCH  13  14
HETATM   14  C4  UNL     1     -10.992  11.918 -17.987  1.00  0.00     0.168 C 
BRANCH  14  15
HETATM   15  C3  UNL     1      -9.512  12.294 -17.837  1.00  0.00     0.026 C 
BRANCH  15  16
HETATM   16  C2  UNL     1      -8.744  10.997 -18.139  1.00  0.00    -0.002 C 
HETATM   17  C1  UNL     1      -7.317  11.189 -17.757  1.00  0.00     0.005 C 
ENDBRANCH  15  16
ENDBRANCH  14  15
ENDBRANCH  13  14
ENDBRANCH   1  13
TORSDOF 7
ENDMDL
MODEL 2
REMARK VINA RESULT: -7.745936387      0.962      1.252
REMARK  7 active torsions:
REMARK  status: ('A' for Active; 'I' for Inactive)
REMARK    1  A    between atoms: C2_2  and  C3_3 
REMARK    2  A    between atoms: C3_3  and  C4_4 
REMARK    3  A    between atoms: C4_4  and  O1_5 
REMARK    4  A    between atoms: O1_5  and  C5_6 
REMARK    5  A    between atoms: C8_9  and  C9_10 
REMARK    6  A    between atoms: C9_10  and  C11_12 
REMARK    7  A    between atoms: C11_12  and  O2_14 
ROOT
HETATM    1  C5  UNL     1     -11.805  11.398 -19.424  1.00  0.00     0.121 C 
HETATM    2  C6  UNL     1     -13.280  11.060 -19.409  1.00  0.00     0.032 C 
HETATM    3  C7  UNL     1     -13.375   9.720 -20.150  1.00  0.00     0.007 C 
HETATM    4  C8  UNL     1     -12.929   9.925 -21.576  1.00  0.00    -0.008 C 
HETATM    5  C13 UNL     1     -12.319  11.244 -21.851  1.00  0.00     0.007 C 
HETATM    6  C14 UNL     1     -11.455  11.835 -20.800  1.00  0.00     0.032 C 
ENDROOT
BRANCH   4   7
HETATM    7  C9  UNL     1     -14.152   9.701 -22.434  1.00  0.00     0.014 C 
HETATM    8  C10 UNL     1     -15.183  10.793 -22.264  1.00  0.00     0.013 C 
BRANCH   7   9
HETATM    9  C11 UNL     1     -13.862   9.420 -23.869  1.00  0.00     0.118 C 
HETATM   10  C12 UNL     1     -14.314   7.976 -24.137  1.00  0.00     0.040 C 
BRANCH   9  11
HETATM   11  O2  UNL     1     -14.654  10.191 -24.735  1.00  0.00    -0.396 OA
ATOM     12  H2  UNL     1     -14.381  11.101 -24.759  1.00  0.00     0.210 HD
ENDBRANCH   9  11
ENDBRANCH   7   9
ENDBRANCH   4   7
BRANCH   1  13
HETATM   13  O1  UNL     1     -11.461  12.304 -18.438  1.00  0.00    -0.386 OA
BRANCH  13  14
HETATM   14  C4  UNL     1     -10.649  11.764 -17.451  1.00  0.00     0.168 C 
BRANCH  14  15
HETATM   15  C3  UNL     1      -9.303  12.493 -17.561  1.00  0.00     0.026 C 
BRANCH  15  16
HETATM   16  C2  UNL     1      -8.307  11.414 -18.014  1.00  0.00    -0.002 C 
HETATM   17  C1  UNL     1      -6.955  11.769 -17.500  1.00  0.00     0.005 C 
ENDBRANCH  15  16
ENDBRANCH  14  15
ENDBRANCH  13  14
ENDBRANCH   1  13
TORSDOF 7
ENDMDL
MODEL 3
REMARK VINA RESULT: -7.542441171      1.706      6.467
REMARK  7 active torsions:
REMARK  status: ('A' for Active; 'I' for Inactive)
REMARK    1  A    between atoms: C2_2  and  C3_3 
REMARK    2  A    between atoms: C3_3  and  C4_4 
REMARK    3  A    between atoms: C4_4  and  O1_5 
REMARK    4  A    between atoms: O1_5  and  C5_6 
REMARK    5  A    between atoms: C8_9  and  C9_10 
REMARK    6  A    between atoms: C9_10  and  C11_12 
REMARK    7  A    between atoms: C11_12  and  O2_14 
ROOT
HETATM    1  C5  UNL     1     -12.965  10.743 -21.032  1.00  0.00     0.121 C 
HETATM    2  C6  UNL     1     -13.002  11.752 -19.905  1.00  0.00     0.032 C 
HETATM    3  C7  UNL     1     -11.686  12.527 -20.039  1.00  0.00     0.007 C 
HETATM    4  C8  UNL     1     -10.540  11.573 -19.812  1.00  0.00    -0.008 C 
HETATM    5  C13 UNL     1     -10.925  10.147 -19.745  1.00  0.00     0.007 C 
HETATM    6  C14 UNL     1     -11.998   9.679 -20.656  1.00  0.00     0.032 C 
ENDROOT
BRANCH   4   7
HETATM    7  C9  UNL     1      -9.872  12.017 -18.532  1.00  0.00     0.014 C 
HETATM    8  C10 UNL     1     -10.644  11.597 -17.303  1.00  0.00     0.013 C 
BRANCH   7   9
HETATM    9  C11 UNL     1      -8.424  11.672 -18.433  1.00  0.00     0.118 C 
HETATM   10  C12 UNL     1      -7.806  12.647 -17.419  1.00  0.00     0.040 C 
BRANCH   9  11
HETATM   11  O2  UNL     1      -8.215  10.407 -17.861  1.00  0.00    -0.396 OA
ATOM     12  H2  UNL     1      -7.316  10.281 -17.582  1.00  0.00     0.210 HD
ENDBRANCH   9  11
ENDBRANCH   7   9
ENDBRANCH   4   7
BRANCH   1  13
HETATM   13  O1  UNL     1     -14.223  10.272 -21.360  1.00  0.00    -0.386 OA
BRANCH  13  14
HETATM   14  C4  UNL     1     -14.864  11.036 -22.325  1.00  0.00     0.168 C 
BRANCH  14  15
HETATM   15  C3  UNL     1     -14.352  10.529 -23.679  1.00  0.00     0.026 C 
BRANCH  15  16
HETATM   16  C2  UNL     1     -14.742   9.044 -23.717  1.00  0.00    -0.002 C 
HETATM   17  C1  UNL     1     -13.577   8.257 -24.210  1.00  0.00     0.005 C 
ENDBRANCH  15  16
ENDBRANCH  14  15
ENDBRANCH  13  14
ENDBRANCH   1  13
TORSDOF 7
ENDMDL
MODEL 4
REMARK VINA RESULT: -7.480203612      1.553      6.480
REMARK  7 active torsions:
REMARK  status: ('A' for Active; 'I' for Inactive)
REMARK    1  A    between atoms: C2_2  and  C3_3 
REMARK    2  A    between atoms: C3_3  and  C4_4 
REMARK    3  A    between atoms: C4_4  and  O1_5 
REMARK    4  A    between atoms: O1_5  and  C5_6 
REMARK    5  A    between atoms: C8_9  and  C9_10 
REMARK    6  A    between atoms: C9_10  and  C11_12 
REMARK    7  A    between atoms: C11_12  and  O2_14 
ROOT
HETATM    1  C5  UNL     1     -13.325  11.404 -21.134  1.00  0.00     0.121 C 
HETATM    2  C6  UNL     1     -13.122  12.043 -19.777  1.00  0.00     0.032 C 
HETATM    3  C7  UNL     1     -11.663  12.517 -19.789  1.00  0.00     0.007 C 
HETATM    4  C8  UNL     1     -10.766  11.310 -19.907  1.00  0.00    -0.008 C 
HETATM    5  C13 UNL     1     -11.469  10.042 -20.199  1.00  0.00     0.007 C 
HETATM    6  C14 UNL     1     -12.626  10.093 -21.126  1.00  0.00     0.032 C 
ENDROOT
BRANCH   4   7
HETATM    7  C9  UNL     1     -10.007  11.223 -18.604  1.00  0.00     0.014 C 
HETATM    8  C10 UNL     1      -8.578  10.768 -18.799  1.00  0.00     0.013 C 
BRANCH   7   9
HETATM    9  C11 UNL     1     -10.098  12.441 -17.749  1.00  0.00     0.118 C 
HETATM   10  C12 UNL     1     -10.290  11.952 -16.304  1.00  0.00     0.040 C 
BRANCH   9  11
HETATM   11  O2  UNL     1      -8.891  13.157 -17.709  1.00  0.00    -0.396 OA
ATOM     12  H2  UNL     1      -8.328  12.876 -16.997  1.00  0.00     0.210 HD
ENDBRANCH   9  11
ENDBRANCH   7   9
ENDBRANCH   4   7
BRANCH   1  13
HETATM   13  O1  UNL     1     -14.659  11.331 -21.489  1.00  0.00    -0.386 OA
BRANCH  13  14
HETATM   14  C4  UNL     1     -14.958  10.244 -22.298  1.00  0.00     0.168 C 
BRANCH  14  15
HETATM   15  C3  UNL     1     -15.045  10.790 -23.729  1.00  0.00     0.026 C 
BRANCH  15  16
HETATM   16  C2  UNL     1     -14.135   9.870 -24.558  1.00  0.00    -0.002 C 
HETATM   17  C1  UNL     1     -14.366   8.462 -24.132  1.00  0.00     0.005 C 
ENDBRANCH  15  16
ENDBRANCH  14  15
ENDBRANCH  13  14
ENDBRANCH   1  13
TORSDOF 7
ENDMDL
MODEL 5
REMARK VINA RESULT: -7.417883140      1.178      1.570
REMARK  7 active torsions:
REMARK  status: ('A' for Active; 'I' for Inactive)
REMARK    1  A    between atoms: C2_2  and  C3_3 
REMARK    2  A    between atoms: C3_3  and  C4_4 
REMARK    3  A    between atoms: C4_4  and  O1_5 
REMARK    4  A    between atoms: O1_5  and  C5_6 
REMARK    5  A    between atoms: C8_9  and  C9_10 
REMARK    6  A    between atoms: C9_10  and  C11_12 
REMARK    7  A    between atoms: C11_12  and  O2_14 
ROOT
HETATM    1  C5  UNL     1     -11.651  11.541 -19.480  1.00  0.00     0.121 C 
HETATM    2  C6  UNL     1     -13.112  11.236 -19.228  1.00  0.00     0.032 C 
HETATM    3  C7  UNL     1     -13.354   9.900 -19.943  1.00  0.00     0.007 C 
HETATM    4  C8  UNL     1     -13.138  10.099 -21.422  1.00  0.00    -0.008 C 
HETATM    5  C13 UNL     1     -12.551  11.405 -21.792  1.00  0.00     0.007 C 
HETATM    6  C14 UNL     1     -11.516  11.974 -20.895  1.00  0.00     0.032 C 
ENDROOT
BRANCH   4   7
HETATM    7  C9  UNL     1     -14.487   9.905 -22.073  1.00  0.00     0.014 C 
HETATM    8  C10 UNL     1     -15.265  11.197 -22.183  1.00  0.00     0.013 C 
BRANCH   7   9
HETATM    9  C11 UNL     1     -14.454   9.156 -23.362  1.00  0.00     0.118 C 
HETATM   10  C12 UNL     1     -14.562  10.201 -24.483  1.00  0.00     0.040 C 
BRANCH   9  11
HETATM   11  O2  UNL     1     -13.214   8.538 -23.589  1.00  0.00    -0.396 OA
ATOM     12  H2  UNL     1     -12.759   8.334 -22.780  1.00  0.00     0.210 HD
ENDBRANCH   9  11
ENDBRANCH   7   9
ENDBRANCH   4   7
BRANCH   1  13
HETATM   13  O1  UNL     1     -11.133  12.436 -18.562  1.00  0.00    -0.386 OA
BRANCH  13  14
HETATM   14  C4  UNL     1     -10.606  11.827 -17.433  1.00  0.00     0.168 C 
BRANCH  14  15
HETATM   15  C3  UNL     1      -9.130  11.550 -17.747  1.00  0.00     0.026 C 
BRANCH  15  16
HETATM   16  C2  UNL     1      -8.386  12.813 -17.287  1.00  0.00    -0.002 C 
HETATM   17  C1  UNL     1      -6.962  12.459 -17.027  1.00  0.00     0.005 C 
ENDBRANCH  15  16
ENDBRANCH  14  15
ENDBRANCH  13  14
ENDBRANCH   1  13
TORSDOF 7
ENDMDL
