MODEL 1
REMARK VINA RESULT: -5.662189861      0.000      0.000
REMARK  5 active torsions:
REMARK  status: ('A' for Active; 'I' for Inactive)
REMARK    1  A    between atoms: C2_2  and  C3_3 
REMARK    2  A    between atoms: C3_3  and  C6_6 
REMARK    3  A    between atoms: C6_6  and  C7_7 
REMARK    4  A    between atoms: C7_7  and  C8_8 
REMARK    5  A    between atoms: C8_8  and  O2_10 
ROOT
HETATM    1  C7  UNL     1      -5.766  14.548 -16.928  1.00  0.00     0.052 C 
HETATM    2  C10 UNL     1      -6.631  15.711 -16.584  1.00  0.00     0.020 C 
HETATM    3  C11 UNL     1      -6.488  16.902 -17.489  1.00  0.00     0.001 C 
HETATM    4  C12 UNL     1      -5.017  17.096 -17.849  1.00  0.00     0.000 C 
HETATM    5  C13 UNL     1      -4.535  15.909 -18.598  1.00  0.00     0.001 C 
HETATM    6  C14 UNL     1      -5.210  14.603 -18.301  1.00  0.00     0.020 C 
ENDROOT
BRANCH   1   7
HETATM    7  C6  UNL     1      -6.389  13.231 -16.572  1.00  0.00     0.058 C 
BRANCH   7   8
HETATM    8  C3  UNL     1      -7.524  12.745 -17.304  1.00  0.00    -0.062 C 
HETATM    9  C4  UNL     1      -8.758  13.113 -17.226  1.00  0.00    -0.024 C 
HETATM   10  C5  UNL     1      -9.785  12.490 -18.102  1.00  0.00     0.036 C 
BRANCH   8  11
HETATM   11  C2  UNL     1      -7.223  11.677 -18.311  1.00  0.00    -0.004 C 
HETATM   12  C1  UNL     1      -7.294  10.402 -18.021  1.00  0.00     0.012 C 
ENDBRANCH   8  11
ENDBRANCH   7   8
ENDBRANCH   1   7
BRANCH   1  13
HETATM   13  C8  UNL     1      -4.572  14.637 -15.989  1.00  0.00     0.267 C 
HETATM   14  O1  UNL     1      -4.584  15.384 -15.018  1.00  0.00    -0.264 OA
BRANCH  13  15
HETATM   15  O2  UNL     1      -3.488  13.842 -16.283  1.00  0.00    -0.326 OA
HETATM   16  C9  UNL     1      -2.148  14.289 -16.185  1.00  0.00     0.213 C 
ENDBRANCH  13  15
ENDBRANCH   1  13
TORSDOF 5
ENDMDL
MODEL 2
REMARK VINA RESULT: -5.610779434      0.473      1.390
REMARK  5 active torsions:
REMARK  status: ('A' for Active; 'I' for Inactive)
REMARK    1  A    between atoms: C2_2  and  C3_3 
REMARK    2  A    between atoms: C3_3  and  C6_6 
REMARK    3  A    between atoms: C6_6  and  C7_7 
REMARK    4  A    between atoms: C7_7  and  C8_8 
REMARK    5  A    between atoms: C8_8  and  O2_10 
ROOT
HETATM    1  C7  UNL     1      -5.913  14.655 -16.746  1.00  0.00     0.052 C 
HETATM    2  C10 UNL     1      -6.648  15.934 -16.539  1.00  0.00     0.020 C 
HETATM    3  C11 UNL     1      -6.439  16.968 -17.609  1.00  0.00     0.001 C 
HETATM    4  C12 UNL     1      -4.976  16.963 -18.046  1.00  0.00     0.000 C 
HETATM    5  C13 UNL     1      -4.644  15.642 -18.635  1.00  0.00     0.001 C 
HETATM    6  C14 UNL     1      -5.424  14.463 -18.131  1.00  0.00     0.020 C 
ENDROOT
BRANCH   1   7
HETATM    7  C6  UNL     1      -6.639  13.468 -16.183  1.00  0.00     0.058 C 
BRANCH   7   8
HETATM    8  C3  UNL     1      -7.296  12.539 -17.058  1.00  0.00    -0.062 C 
HETATM    9  C4  UNL     1      -6.861  11.417 -17.524  1.00  0.00    -0.024 C 
HETATM   10  C5  UNL     1      -7.720  10.586 -18.408  1.00  0.00     0.036 C 
BRANCH   8  11
HETATM   11  C2  UNL     1      -8.684  12.922 -17.468  1.00  0.00    -0.004 C 
HETATM   12  C1  UNL     1      -9.748  12.363 -16.945  1.00  0.00     0.012 C 
ENDBRANCH   8  11
ENDBRANCH   7   8
ENDBRANCH   1   7
BRANCH   1  13
HETATM   13  C8  UNL     1      -4.671  14.753 -15.873  1.00  0.00     0.267 C 
HETATM   14  O1  UNL     1      -4.600  15.570 -14.962  1.00  0.00    -0.264 OA
BRANCH  13  15
HETATM   15  O2  UNL     1      -3.641  13.884 -16.154  1.00  0.00    -0.326 OA
HETATM   16  C9  UNL     1      -2.276  14.251 -16.083  1.00  0.00     0.213 C 
ENDBRANCH  13  15
ENDBRANCH   1  13
TORSDOF 5
ENDMDL
MODEL 3
REMARK VINA RESULT: -5.523315592      0.603      1.062
REMARK  5 active torsions:
REMARK  status: ('A' for Active; 'I' for Inactive)
REMARK    1  A    between atoms: C2_2  and  C3_3 
REMARK    2  A    between atoms: C3_3  and  C6_6 
REMARK    3  A    between atoms: C6_6  and  C7_7 
REMARK    4  A    between atoms: C7_7  and  C8_8 
REMARK    5  A    between atoms: C8_8  and  O2_10 
ROOT
HETATM    1  C7  UNL     1      -5.739  14.529 -16.949  1.00  0.00     0.052 C 
HETATM    2  C10 UNL     1      -6.558  15.697 -16.519  1.00  0.00     0.020 C 
HETATM    3  C11 UNL     1      -6.449  16.910 -17.399  1.00  0.00     0.001 C 
HETATM    4  C12 UNL     1      -5.000  17.087 -17.847  1.00  0.00     0.000 C 
HETATM    5  C13 UNL     1      -4.590  15.914 -18.657  1.00  0.00     0.001 C 
HETATM    6  C14 UNL     1      -5.271  14.611 -18.353  1.00  0.00     0.020 C 
ENDROOT
BRANCH   1   7
HETATM    7  C6  UNL     1      -6.365  13.213 -16.589  1.00  0.00     0.058 C 
BRANCH   7   8
HETATM    8  C3  UNL     1      -7.516  12.740 -17.303  1.00  0.00    -0.062 C 
HETATM    9  C4  UNL     1      -8.745  13.122 -17.205  1.00  0.00    -0.024 C 
HETATM   10  C5  UNL     1      -9.793  12.509 -18.063  1.00  0.00     0.036 C 
BRANCH   8  11
HETATM   11  C2  UNL     1      -7.244  11.669 -18.314  1.00  0.00    -0.004 C 
HETATM   12  C1  UNL     1      -7.289  10.394 -18.014  1.00  0.00     0.012 C 
ENDBRANCH   8  11
ENDBRANCH   7   8
ENDBRANCH   1   7
BRANCH   1  13
HETATM   13  C8  UNL     1      -4.487  14.569 -16.087  1.00  0.00     0.267 C 
HETATM   14  O1  UNL     1      -3.513  13.874 -16.350  1.00  0.00    -0.264 OA
BRANCH  13  15
HETATM   15  O2  UNL     1      -4.502  15.420 -15.005  1.00  0.00    -0.326 OA
HETATM   16  C9  UNL     1      -3.382  16.187 -14.604  1.00  0.00     0.213 C 
ENDBRANCH  13  15
ENDBRANCH   1  13
TORSDOF 5
ENDMDL
MODEL 4
REMARK VINA RESULT: -5.421078209      0.792      1.759
REMARK  5 active torsions:
REMARK  status: ('A' for Active; 'I' for Inactive)
REMARK    1  A    between atoms: C2_2  and  C3_3 
REMARK    2  A    between atoms: C3_3  and  C6_6 
REMARK    3  A    between atoms: C6_6  and  C7_7 
REMARK    4  A    between atoms: C7_7  and  C8_8 
REMARK    5  A    between atoms: C8_8  and  O2_10 
ROOT
HETATM    1  C7  UNL     1      -5.891  14.633 -16.750  1.00  0.00     0.052 C 
HETATM    2  C10 UNL     1      -6.606  15.918 -16.507  1.00  0.00     0.020 C 
HETATM    3  C11 UNL     1      -6.420  16.960 -17.573  1.00  0.00     0.001 C 
HETATM    4  C12 UNL     1      -4.972  16.944 -18.056  1.00  0.00     0.000 C 
HETATM    5  C13 UNL     1      -4.673  15.626 -18.669  1.00  0.00     0.001 C 
HETATM    6  C14 UNL     1      -5.448  14.450 -18.152  1.00  0.00     0.020 C 
ENDROOT
BRANCH   1   7
HETATM    7  C6  UNL     1      -6.611  13.448 -16.176  1.00  0.00     0.058 C 
BRANCH   7   8
HETATM    8  C3  UNL     1      -7.293  12.527 -17.040  1.00  0.00    -0.062 C 
HETATM    9  C4  UNL     1      -6.883  11.395 -17.504  1.00  0.00    -0.024 C 
HETATM   10  C5  UNL     1      -7.767  10.576 -18.376  1.00  0.00     0.036 C 
BRANCH   8  11
HETATM   11  C2  UNL     1      -8.679  12.932 -17.437  1.00  0.00    -0.004 C 
HETATM   12  C1  UNL     1      -9.747  12.348 -16.952  1.00  0.00     0.012 C 
ENDBRANCH   8  11
ENDBRANCH   7   8
ENDBRANCH   1   7
BRANCH   1  13
HETATM   13  C8  UNL     1      -4.622  14.709 -15.916  1.00  0.00     0.267 C 
HETATM   14  O1  UNL     1      -3.699  13.922 -16.092  1.00  0.00    -0.264 OA
BRANCH  13  15
HETATM   15  O2  UNL     1      -4.562  15.699 -14.961  1.00  0.00    -0.326 OA
HETATM   16  C9  UNL     1      -3.399  16.466 -14.711  1.00  0.00     0.213 C 
ENDBRANCH  13  15
ENDBRANCH   1  13
TORSDOF 5
ENDMDL
MODEL 5
REMARK VINA RESULT: -5.083622899      7.075      9.642
REMARK  5 active torsions:
REMARK  status: ('A' for Active; 'I' for Inactive)
REMARK    1  A    between atoms: C2_2  and  C3_3 
REMARK    2  A    between atoms: C3_3  and  C6_6 
REMARK    3  A    between atoms: C6_6  and  C7_7 
REMARK    4  A    between atoms: C7_7  and  C8_8 
REMARK    5  A    between atoms: C8_8  and  O2_10 
ROOT
HETATM    1  C7  UNL     1     -12.468  10.957 -21.310  1.00  0.00     0.052 C 
HETATM    2  C10 UNL     1     -13.664  11.574 -20.669  1.00  0.00     0.020 C 
HETATM    3  C11 UNL     1     -13.371  12.440 -19.476  1.00  0.00     0.001 C 
HETATM    4  C12 UNL     1     -12.272  11.795 -18.635  1.00  0.00     0.000 C 
HETATM    5  C13 UNL     1     -11.026  11.710 -19.437  1.00  0.00     0.001 C 
HETATM    6  C14 UNL     1     -11.187  11.595 -20.925  1.00  0.00     0.020 C 
ENDROOT
BRANCH   1   7
HETATM    7  C6  UNL     1     -12.634  10.763 -22.789  1.00  0.00     0.058 C 
BRANCH   7   8
HETATM    8  C3  UNL     1     -13.669   9.907 -23.294  1.00  0.00    -0.062 C 
HETATM    9  C4  UNL     1     -13.581   8.691 -23.719  1.00  0.00    -0.024 C 
HETATM   10  C5  UNL     1     -14.794   7.968 -24.185  1.00  0.00     0.036 C 
BRANCH   8  11
HETATM   11  C2  UNL     1     -15.041  10.506 -23.311  1.00  0.00    -0.004 C 
HETATM   12  C1  UNL     1     -15.324  11.592 -23.987  1.00  0.00     0.012 C 
ENDBRANCH   8  11
ENDBRANCH   7   8
ENDBRANCH   1   7
BRANCH   1  13
HETATM   13  C8  UNL     1     -12.407   9.535 -20.774  1.00  0.00     0.267 C 
HETATM   14  O1  UNL     1     -11.425   8.828 -20.965  1.00  0.00    -0.264 OA
BRANCH  13  15
HETATM   15  O2  UNL     1     -13.501   9.087 -20.069  1.00  0.00    -0.326 OA
HETATM   16  C9  UNL     1     -13.402   8.423 -18.823  1.00  0.00     0.213 C 
ENDBRANCH  13  15
ENDBRANCH   1  13
TORSDOF 5
ENDMDL
