MODEL 1
REMARK VINA RESULT: -7.513077418      0.000      0.000
REMARK  9 active torsions:
REMARK  status: ('A' for Active; 'I' for Inactive)
REMARK    1  A    between atoms: C2_2  and  C3_3 
REMARK    2  A    between atoms: C3_3  and  C4_4 
REMARK    3  A    between atoms: C4_4  and  O1_5 
REMARK    4  A    between atoms: O1_5  and  C5_6 
REMARK    5  A    between atoms: C5_6  and  C6_7 
REMARK    6  A    between atoms: C10_11  and  C11_12 
REMARK    7  A    between atoms: C11_12  and  C12_13 
REMARK    8  A    between atoms: C12_13  and  C13_14 
REMARK    9  A    between atoms: C13_14  and  O2_15 
ROOT
HETATM    1  C6  UNL     1     -11.965  11.550 -20.181  1.00  0.00    -0.034 A 
HETATM    2  C7  UNL     1     -11.425  10.280 -20.189  1.00  0.00     0.009 A 
HETATM    3  C8  UNL     1     -12.080   9.223 -20.828  1.00  0.00     0.001 A 
HETATM    4  C9  UNL     1     -13.273   9.408 -21.465  1.00  0.00     0.007 A 
HETATM    5  C10 UNL     1     -13.826  10.671 -21.467  1.00  0.00    -0.058 A 
HETATM    6  C14 UNL     1     -13.170  11.709 -20.833  1.00  0.00     0.016 A 
ENDROOT
BRANCH   1   7
HETATM    7  C5  UNL     1     -11.264  12.668 -19.502  1.00  0.00     0.206 C 
BRANCH   7   8
HETATM    8  O1  UNL     1     -11.033  12.428 -18.163  1.00  0.00    -0.387 OA
BRANCH   8   9
HETATM    9  C4  UNL     1      -9.677  12.592 -17.928  1.00  0.00     0.168 C 
BRANCH   9  10
HETATM   10  C3  UNL     1      -8.986  11.231 -17.755  1.00  0.00     0.026 C 
BRANCH  10  11
HETATM   11  C2  UNL     1      -7.497  11.375 -17.758  1.00  0.00    -0.002 C 
HETATM   12  C1  UNL     1      -7.016  12.496 -16.875  1.00  0.00     0.005 C 
ENDBRANCH  10  11
ENDBRANCH   9  10
ENDBRANCH   8   9
ENDBRANCH   7   8
ENDBRANCH   1   7
BRANCH   5  13
HETATM   13  C11 UNL     1     -15.118  10.883 -22.155  1.00  0.00     0.041 C 
BRANCH  13  14
HETATM   14  C12 UNL     1     -14.966  11.246 -23.613  1.00  0.00     0.030 C 
BRANCH  14  15
HETATM   15  C13 UNL     1     -14.787  10.046 -24.501  1.00  0.00     0.164 C 
BRANCH  15  16
HETATM   16  O2  UNL     1     -13.452  10.036 -24.963  1.00  0.00    -0.401 OA
ATOM     17  H2  UNL     1     -13.268   9.175 -25.319  1.00  0.00     0.209 HD
ENDBRANCH  15  16
ENDBRANCH  14  15
ENDBRANCH  13  14
ENDBRANCH   5  13
TORSDOF 9
ENDMDL
MODEL 2
REMARK VINA RESULT: -7.386814019      2.160      7.490
REMARK  9 active torsions:
REMARK  status: ('A' for Active; 'I' for Inactive)
REMARK    1  A    between atoms: C2_2  and  C3_3 
REMARK    2  A    between atoms: C3_3  and  C4_4 
REMARK    3  A    between atoms: C4_4  and  O1_5 
REMARK    4  A    between atoms: O1_5  and  C5_6 
REMARK    5  A    between atoms: C5_6  and  C6_7 
REMARK    6  A    between atoms: C10_11  and  C11_12 
REMARK    7  A    between atoms: C11_12  and  C12_13 
REMARK    8  A    between atoms: C12_13  and  C13_14 
REMARK    9  A    between atoms: C13_14  and  O2_15 
ROOT
HETATM    1  C6  UNL     1     -10.801  11.683 -19.527  1.00  0.00    -0.034 A 
HETATM    2  C7  UNL     1     -11.442  11.888 -18.321  1.00  0.00     0.009 A 
HETATM    3  C8  UNL     1     -10.716  12.013 -17.133  1.00  0.00     0.001 A 
HETATM    4  C9  UNL     1      -9.353  11.937 -17.122  1.00  0.00     0.007 A 
HETATM    5  C10 UNL     1      -8.698  11.733 -18.318  1.00  0.00    -0.058 A 
HETATM    6  C14 UNL     1      -9.425  11.612 -19.486  1.00  0.00     0.016 A 
ENDROOT
BRANCH   1   7
HETATM    7  C5  UNL     1     -11.578  11.552 -20.785  1.00  0.00     0.206 C 
BRANCH   7   8
HETATM    8  O1  UNL     1     -11.767  10.241 -21.170  1.00  0.00    -0.387 OA
BRANCH   8   9
HETATM    9  C4  UNL     1     -13.117   9.950 -21.043  1.00  0.00     0.168 C 
BRANCH   9  10
HETATM   10  C3  UNL     1     -13.975  11.156 -21.454  1.00  0.00     0.026 C 
BRANCH  10  11
HETATM   11  C2  UNL     1     -15.156  10.728 -22.266  1.00  0.00    -0.002 C 
HETATM   12  C1  UNL     1     -15.027  11.087 -23.723  1.00  0.00     0.005 C 
ENDBRANCH  10  11
ENDBRANCH   9  10
ENDBRANCH   8   9
ENDBRANCH   7   8
ENDBRANCH   1   7
BRANCH   5  13
HETATM   13  C11 UNL     1      -7.221  11.650 -18.317  1.00  0.00     0.041 C 
BRANCH  13  14
HETATM   14  C12 UNL     1      -6.586  12.304 -17.113  1.00  0.00     0.030 C 
BRANCH  14  15
HETATM   15  C13 UNL     1      -5.691  13.456 -17.474  1.00  0.00     0.164 C 
BRANCH  15  16
HETATM   16  O2  UNL     1      -4.615  13.481 -16.558  1.00  0.00    -0.401 OA
ATOM     17  H2  UNL     1      -4.382  14.388 -16.400  1.00  0.00     0.209 HD
ENDBRANCH  15  16
ENDBRANCH  14  15
ENDBRANCH  13  14
ENDBRANCH   5  13
TORSDOF 9
ENDMDL
MODEL 3
REMARK VINA RESULT: -7.329630883      1.598      6.916
REMARK  9 active torsions:
REMARK  status: ('A' for Active; 'I' for Inactive)
REMARK    1  A    between atoms: C2_2  and  C3_3 
REMARK    2  A    between atoms: C3_3  and  C4_4 
REMARK    3  A    between atoms: C4_4  and  O1_5 
REMARK    4  A    between atoms: O1_5  and  C5_6 
REMARK    5  A    between atoms: C5_6  and  C6_7 
REMARK    6  A    between atoms: C10_11  and  C11_12 
REMARK    7  A    between atoms: C11_12  and  C12_13 
REMARK    8  A    between atoms: C12_13  and  C13_14 
REMARK    9  A    between atoms: C13_14  and  O2_15 
ROOT
HETATM    1  C6  UNL     1     -11.909  10.299 -20.464  1.00  0.00    -0.034 A 
HETATM    2  C7  UNL     1     -12.358  11.582 -20.708  1.00  0.00     0.009 A 
HETATM    3  C8  UNL     1     -11.807  12.677 -20.037  1.00  0.00     0.001 A 
HETATM    4  C9  UNL     1     -10.809  12.519 -19.119  1.00  0.00     0.007 A 
HETATM    5  C10 UNL     1     -10.349  11.245 -18.863  1.00  0.00    -0.058 A 
HETATM    6  C14 UNL     1     -10.901  10.169 -19.532  1.00  0.00     0.016 A 
ENDROOT
BRANCH   1   7
HETATM    7  C5  UNL     1     -12.498   9.141 -21.180  1.00  0.00     0.206 C 
BRANCH   7   8
HETATM    8  O1  UNL     1     -12.460   9.276 -22.553  1.00  0.00    -0.387 OA
BRANCH   8   9
HETATM    9  C4  UNL     1     -13.752   9.125 -23.032  1.00  0.00     0.168 C 
BRANCH   9  10
HETATM   10  C3  UNL     1     -14.036  10.131 -24.159  1.00  0.00     0.026 C 
BRANCH  10  11
HETATM   11  C2  UNL     1     -15.064  11.135 -23.741  1.00  0.00    -0.002 C 
HETATM   12  C1  UNL     1     -15.491  10.973 -22.306  1.00  0.00     0.005 C 
ENDBRANCH  10  11
ENDBRANCH   9  10
ENDBRANCH   8   9
ENDBRANCH   7   8
ENDBRANCH   1   7
BRANCH   5  13
HETATM   13  C11 UNL     1      -9.268  11.062 -17.870  1.00  0.00     0.041 C 
BRANCH  13  14
HETATM   14  C12 UNL     1      -8.282  12.206 -17.843  1.00  0.00     0.030 C 
BRANCH  14  15
HETATM   15  C13 UNL     1      -6.852  11.747 -17.815  1.00  0.00     0.164 C 
BRANCH  15  16
HETATM   16  O2  UNL     1      -6.810  10.407 -18.263  1.00  0.00    -0.401 OA
ATOM     17  H2  UNL     1      -6.850  10.411 -19.212  1.00  0.00     0.209 HD
ENDBRANCH  15  16
ENDBRANCH  14  15
ENDBRANCH  13  14
ENDBRANCH   5  13
TORSDOF 9
ENDMDL
MODEL 4
REMARK VINA RESULT: -7.280017983      1.706      6.656
REMARK  9 active torsions:
REMARK  status: ('A' for Active; 'I' for Inactive)
REMARK    1  A    between atoms: C2_2  and  C3_3 
REMARK    2  A    between atoms: C3_3  and  C4_4 
REMARK    3  A    between atoms: C4_4  and  O1_5 
REMARK    4  A    between atoms: O1_5  and  C5_6 
REMARK    5  A    between atoms: C5_6  and  C6_7 
REMARK    6  A    between atoms: C10_11  and  C11_12 
REMARK    7  A    between atoms: C11_12  and  C12_13 
REMARK    8  A    between atoms: C12_13  and  C13_14 
REMARK    9  A    between atoms: C13_14  and  O2_15 
ROOT
HETATM    1  C6  UNL     1     -13.228  11.094 -20.971  1.00  0.00    -0.034 A 
HETATM    2  C7  UNL     1     -13.064   9.727 -21.071  1.00  0.00     0.009 A 
HETATM    3  C8  UNL     1     -11.935   9.097 -20.540  1.00  0.00     0.001 A 
HETATM    4  C9  UNL     1     -10.957   9.807 -19.906  1.00  0.00     0.007 A 
HETATM    5  C10 UNL     1     -11.106  11.174 -19.797  1.00  0.00    -0.058 A 
HETATM    6  C14 UNL     1     -12.225  11.787 -20.324  1.00  0.00     0.016 A 
ENDROOT
BRANCH   1   7
HETATM    7  C5  UNL     1     -14.430  11.757 -21.536  1.00  0.00     0.206 C 
BRANCH   7   8
HETATM    8  O1  UNL     1     -15.221  10.904 -22.277  1.00  0.00    -0.387 OA
BRANCH   8   9
HETATM    9  C4  UNL     1     -15.177  11.322 -23.598  1.00  0.00     0.168 C 
BRANCH   9  10
HETATM   10  C3  UNL     1     -14.379  10.330 -24.458  1.00  0.00     0.026 C 
BRANCH  10  11
HETATM   11  C2  UNL     1     -14.744   8.916 -24.132  1.00  0.00    -0.002 C 
HETATM   12  C1  UNL     1     -13.573   7.973 -24.225  1.00  0.00     0.005 C 
ENDBRANCH  10  11
ENDBRANCH   9  10
ENDBRANCH   8   9
ENDBRANCH   7   8
ENDBRANCH   1   7
BRANCH   5  13
HETATM   13  C11 UNL     1     -10.052  11.954 -19.111  1.00  0.00     0.041 C 
BRANCH  13  14
HETATM   14  C12 UNL     1      -9.166  11.111 -18.225  1.00  0.00     0.030 C 
BRANCH  14  15
HETATM   15  C13 UNL     1      -7.713  11.481 -18.325  1.00  0.00     0.164 C 
BRANCH  15  16
HETATM   16  O2  UNL     1      -6.954  10.289 -18.310  1.00  0.00    -0.401 OA
ATOM     17  H2  UNL     1      -6.081  10.498 -17.996  1.00  0.00     0.209 HD
ENDBRANCH  15  16
ENDBRANCH  14  15
ENDBRANCH  13  14
ENDBRANCH   5  13
TORSDOF 9
ENDMDL
MODEL 5
REMARK VINA RESULT: -7.235511410      2.399      7.558
REMARK  9 active torsions:
REMARK  status: ('A' for Active; 'I' for Inactive)
REMARK    1  A    between atoms: C2_2  and  C3_3 
REMARK    2  A    between atoms: C3_3  and  C4_4 
REMARK    3  A    between atoms: C4_4  and  O1_5 
REMARK    4  A    between atoms: O1_5  and  C5_6 
REMARK    5  A    between atoms: C5_6  and  C6_7 
REMARK    6  A    between atoms: C10_11  and  C11_12 
REMARK    7  A    between atoms: C11_12  and  C12_13 
REMARK    8  A    between atoms: C12_13  and  C13_14 
REMARK    9  A    between atoms: C13_14  and  O2_15 
ROOT
HETATM    1  C6  UNL     1      -9.712  11.884 -18.027  1.00  0.00    -0.034 A 
HETATM    2  C7  UNL     1      -9.074  10.743 -18.471  1.00  0.00     0.009 A 
HETATM    3  C8  UNL     1      -7.725  10.516 -18.187  1.00  0.00     0.001 A 
HETATM    4  C9  UNL     1      -6.991  11.410 -17.463  1.00  0.00     0.007 A 
HETATM    5  C10 UNL     1      -7.613  12.555 -17.011  1.00  0.00    -0.058 A 
HETATM    6  C14 UNL     1      -8.947  12.769 -17.297  1.00  0.00     0.016 A 
ENDROOT
BRANCH   1   7
HETATM    7  C5  UNL     1     -11.146  12.119 -18.332  1.00  0.00     0.206 C 
BRANCH   7   8
HETATM    8  O1  UNL     1     -11.341  12.869 -19.473  1.00  0.00    -0.387 OA
BRANCH   8   9
HETATM    9  C4  UNL     1     -11.897  12.041 -20.437  1.00  0.00     0.168 C 
BRANCH   9  10
HETATM   10  C3  UNL     1     -13.216  11.433 -19.937  1.00  0.00     0.026 C 
BRANCH  10  11
HETATM   11  C2  UNL     1     -13.418  10.055 -20.483  1.00  0.00    -0.002 C 
HETATM   12  C1  UNL     1     -12.124   9.326 -20.726  1.00  0.00     0.005 C 
ENDBRANCH  10  11
ENDBRANCH   9  10
ENDBRANCH   8   9
ENDBRANCH   7   8
ENDBRANCH   1   7
BRANCH   5  13
HETATM   13  C11 UNL     1      -6.827  13.530 -16.224  1.00  0.00     0.041 C 
BRANCH  13  14
HETATM   14  C12 UNL     1      -6.297  14.677 -17.052  1.00  0.00     0.030 C 
BRANCH  14  15
HETATM   15  C13 UNL     1      -4.825  14.567 -17.332  1.00  0.00     0.164 C 
BRANCH  15  16
HETATM   16  O2  UNL     1      -4.275  13.626 -16.432  1.00  0.00    -0.401 OA
ATOM     17  H2  UNL     1      -3.360  13.844 -16.298  1.00  0.00     0.209 HD
ENDBRANCH  15  16
ENDBRANCH  14  15
ENDBRANCH  13  14
ENDBRANCH   5  13
TORSDOF 9
ENDMDL
