MODEL 1
REMARK VINA RESULT: -7.470142149      0.000      0.000
REMARK  4 active torsions:
REMARK  status: ('A' for Active; 'I' for Inactive)
REMARK    1  A    between atoms: C2_2  and  N1_3 
REMARK    2  A    between atoms: C2_2  and  C3_7 
REMARK    3  A    between atoms: C3_7  and  N2_8 
REMARK    4  A    between atoms: N2_8  and  C4_11 
ROOT
HETATM    1  C4  UNL     1      39.077 -44.396  -8.079  1.00  0.00     0.193 C 
HETATM    2  C5  UNL     1      38.220 -45.104  -8.972  1.00  0.00     0.041 C 
HETATM    3  C6  UNL     1      37.628 -46.465  -8.625  1.00  0.00     0.022 C 
HETATM    4  C7  UNL     1      38.459 -47.518  -9.288  1.00  0.00     0.008 C 
HETATM    5  C8  UNL     1      39.503 -47.814  -8.244  1.00  0.00     0.008 C 
HETATM    6  C9  UNL     1      39.080 -47.092  -6.974  1.00  0.00     0.021 C 
HETATM    7  C10 UNL     1      40.146 -46.067  -6.685  1.00  0.00     0.017 C 
HETATM    8  C11 UNL     1      39.345 -44.791  -6.657  1.00  0.00     0.046 C 
HETATM    9  C12 UNL     1      38.109 -44.906  -5.803  1.00  0.00     0.128 C 
HETATM   10  C13 UNL     1      38.098 -45.945  -4.736  1.00  0.00     0.032 C 
HETATM   11  C14 UNL     1      37.169 -47.091  -4.918  1.00  0.00     0.006 C 
HETATM   12  C15 UNL     1      36.856 -47.505  -6.367  1.00  0.00     0.039 C 
HETATM   13  C16 UNL     1      37.725 -46.611  -7.170  1.00  0.00     0.069 C 
HETATM   14  O1  UNL     1      37.237 -45.391  -6.737  1.00  0.00    -0.374 OA
ENDROOT
BRANCH   1  15
HETATM   15  N2  UNL     1      38.669 -42.980  -7.981  1.00  0.00    -0.069 N 
ATOM     16  H22 UNL     1      39.476 -42.357  -7.959  1.00  0.00     0.277 HD
ATOM     17  H21 UNL     1      38.280 -42.762  -7.064  1.00  0.00     0.277 HD
BRANCH  15  18
HETATM   18  C3  UNL     1      37.756 -42.631  -9.045  1.00  0.00     0.264 C 
BRANCH  18  19
HETATM   19  C2  UNL     1      36.477 -42.081  -8.494  1.00  0.00     0.205 C 
HETATM   20  C1  UNL     1      35.333 -42.690  -9.283  1.00  0.00     0.041 C 
BRANCH  19  21
HETATM   21  N1  UNL     1      36.319 -42.338  -7.079  1.00  0.00    -0.074 N 
ATOM     22  H13 UNL     1      36.032 -41.500  -6.572  1.00  0.00     0.274 HD
ATOM     23  H12 UNL     1      35.503 -42.919  -6.889  1.00  0.00     0.274 HD
ATOM     24  H11 UNL     1      37.170 -42.743  -6.687  1.00  0.00     0.274 HD
ENDBRANCH  19  21
ENDBRANCH  18  19
ENDBRANCH  15  18
ENDBRANCH   1  15
TORSDOF 4
ENDMDL
MODEL 2
REMARK VINA RESULT: -7.275244482      1.973      3.762
REMARK  4 active torsions:
REMARK  status: ('A' for Active; 'I' for Inactive)
REMARK    1  A    between atoms: C2_2  and  N1_3 
REMARK    2  A    between atoms: C2_2  and  C3_7 
REMARK    3  A    between atoms: C3_7  and  N2_8 
REMARK    4  A    between atoms: N2_8  and  C4_11 
ROOT
HETATM    1  C4  UNL     1      36.975 -45.332  -6.772  1.00  0.00     0.193 C 
HETATM    2  C5  UNL     1      36.913 -46.295  -5.722  1.00  0.00     0.041 C 
HETATM    3  C6  UNL     1      37.482 -47.701  -5.871  1.00  0.00     0.022 C 
HETATM    4  C7  UNL     1      36.354 -48.629  -6.193  1.00  0.00     0.008 C 
HETATM    5  C8  UNL     1      36.318 -48.588  -7.698  1.00  0.00     0.008 C 
HETATM    6  C9  UNL     1      37.555 -47.831  -8.153  1.00  0.00     0.021 C 
HETATM    7  C10 UNL     1      37.068 -46.584  -8.846  1.00  0.00     0.017 C 
HETATM    8  C11 UNL     1      37.748 -45.504  -8.046  1.00  0.00     0.046 C 
HETATM    9  C12 UNL     1      39.217 -45.772  -7.847  1.00  0.00     0.128 C 
HETATM   10  C13 UNL     1      39.896 -46.666  -8.824  1.00  0.00     0.032 C 
HETATM   11  C14 UNL     1      40.352 -47.991  -8.326  1.00  0.00     0.006 C 
HETATM   12  C15 UNL     1      39.536 -48.618  -7.182  1.00  0.00     0.039 C 
HETATM   13  C16 UNL     1      38.418 -47.661  -6.999  1.00  0.00     0.069 C 
HETATM   14  O1  UNL     1      39.153 -46.525  -6.708  1.00  0.00    -0.374 OA
ENDROOT
BRANCH   1  15
HETATM   15  N2  UNL     1      37.432 -44.026  -6.254  1.00  0.00    -0.069 N 
ATOM     16  H22 UNL     1      37.023 -43.251  -6.775  1.00  0.00     0.277 HD
ATOM     17  H21 UNL     1      38.414 -43.858  -6.471  1.00  0.00     0.277 HD
BRANCH  15  18
HETATM   18  C3  UNL     1      37.172 -43.913  -4.837  1.00  0.00     0.264 C 
BRANCH  18  19
HETATM   19  C2  UNL     1      38.414 -43.532  -4.093  1.00  0.00     0.205 C 
HETATM   20  C1  UNL     1      38.260 -44.008  -2.661  1.00  0.00     0.041 C 
BRANCH  19  21
HETATM   21  N1  UNL     1      39.615 -44.076  -4.690  1.00  0.00    -0.074 N 
ATOM     22  H13 UNL     1      40.440 -43.529  -4.443  1.00  0.00     0.274 HD
ATOM     23  H12 UNL     1      39.882 -44.961  -4.259  1.00  0.00     0.274 HD
ATOM     24  H11 UNL     1      39.508 -44.165  -5.701  1.00  0.00     0.274 HD
ENDBRANCH  19  21
ENDBRANCH  18  19
ENDBRANCH  15  18
ENDBRANCH   1  15
TORSDOF 4
ENDMDL
MODEL 3
REMARK VINA RESULT: -7.246179087      1.372      2.915
REMARK  4 active torsions:
REMARK  status: ('A' for Active; 'I' for Inactive)
REMARK    1  A    between atoms: C2_2  and  N1_3 
REMARK    2  A    between atoms: C2_2  and  C3_7 
REMARK    3  A    between atoms: C3_7  and  N2_8 
REMARK    4  A    between atoms: N2_8  and  C4_11 
ROOT
HETATM    1  C4  UNL     1      37.135 -45.107  -7.069  1.00  0.00     0.193 C 
HETATM    2  C5  UNL     1      37.148 -45.836  -5.844  1.00  0.00     0.041 C 
HETATM    3  C6  UNL     1      37.646 -47.274  -5.758  1.00  0.00     0.022 C 
HETATM    4  C7  UNL     1      36.457 -48.182  -5.774  1.00  0.00     0.008 C 
HETATM    5  C8  UNL     1      36.265 -48.439  -7.245  1.00  0.00     0.008 C 
HETATM    6  C9  UNL     1      37.474 -47.860  -7.961  1.00  0.00     0.021 C 
HETATM    7  C10 UNL     1      36.964 -46.750  -8.844  1.00  0.00     0.017 C 
HETATM    8  C11 UNL     1      37.763 -45.572  -8.349  1.00  0.00     0.046 C 
HETATM    9  C12 UNL     1      39.234 -45.880  -8.240  1.00  0.00     0.128 C 
HETATM   10  C13 UNL     1      39.774 -46.988  -9.075  1.00  0.00     0.032 C 
HETATM   11  C14 UNL     1      40.230 -48.211  -8.363  1.00  0.00     0.006 C 
HETATM   12  C15 UNL     1      39.516 -48.550  -7.043  1.00  0.00     0.039 C 
HETATM   13  C16 UNL     1      38.459 -47.513  -6.953  1.00  0.00     0.069 C 
HETATM   14  O1  UNL     1      39.262 -46.386  -6.971  1.00  0.00    -0.374 OA
ENDROOT
BRANCH   1  15
HETATM   15  N2  UNL     1      37.692 -43.752  -6.874  1.00  0.00    -0.069 N 
ATOM     16  H22 UNL     1      38.427 -43.547  -7.550  1.00  0.00     0.277 HD
ATOM     17  H21 UNL     1      38.246 -43.693  -6.020  1.00  0.00     0.277 HD
BRANCH  15  18
HETATM   18  C3  UNL     1      36.646 -42.755  -6.902  1.00  0.00     0.264 C 
BRANCH  18  19
HETATM   19  C2  UNL     1      36.663 -41.998  -8.193  1.00  0.00     0.205 C 
HETATM   20  C1  UNL     1      35.389 -42.335  -8.945  1.00  0.00     0.041 C 
BRANCH  19  21
HETATM   21  N1  UNL     1      36.786 -40.569  -8.004  1.00  0.00    -0.074 N 
ATOM     22  H13 UNL     1      36.538 -40.054  -8.849  1.00  0.00     0.274 HD
ATOM     23  H12 UNL     1      36.060 -40.207  -7.386  1.00  0.00     0.274 HD
ATOM     24  H11 UNL     1      37.720 -40.326  -7.674  1.00  0.00     0.274 HD
ENDBRANCH  19  21
ENDBRANCH  18  19
ENDBRANCH  15  18
ENDBRANCH   1  15
TORSDOF 4
ENDMDL
MODEL 4
REMARK VINA RESULT: -7.225289028      2.141      4.446
REMARK  4 active torsions:
REMARK  status: ('A' for Active; 'I' for Inactive)
REMARK    1  A    between atoms: C2_2  and  N1_3 
REMARK    2  A    between atoms: C2_2  and  C3_7 
REMARK    3  A    between atoms: C3_7  and  N2_8 
REMARK    4  A    between atoms: N2_8  and  C4_11 
ROOT
HETATM    1  C4  UNL     1      39.675 -45.626  -6.086  1.00  0.00     0.193 C 
HETATM    2  C5  UNL     1      38.346 -46.136  -6.004  1.00  0.00     0.041 C 
HETATM    3  C6  UNL     1      37.124 -45.225  -5.997  1.00  0.00     0.022 C 
HETATM    4  C7  UNL     1      36.676 -45.058  -4.579  1.00  0.00     0.008 C 
HETATM    5  C8  UNL     1      37.457 -43.851  -4.132  1.00  0.00     0.008 C 
HETATM    6  C9  UNL     1      38.123 -43.267  -5.367  1.00  0.00     0.021 C 
HETATM    7  C10 UNL     1      39.610 -43.388  -5.154  1.00  0.00     0.017 C 
HETATM    8  C11 UNL     1      40.027 -44.193  -6.358  1.00  0.00     0.046 C 
HETATM    9  C12 UNL     1      39.456 -43.649  -7.641  1.00  0.00     0.128 C 
HETATM   10  C13 UNL     1      39.060 -42.214  -7.669  1.00  0.00     0.032 C 
HETATM   11  C14 UNL     1      37.608 -41.915  -7.773  1.00  0.00     0.006 C 
HETATM   12  C15 UNL     1      36.644 -42.944  -7.155  1.00  0.00     0.039 C 
HETATM   13  C16 UNL     1      37.558 -43.930  -6.528  1.00  0.00     0.069 C 
HETATM   14  O1  UNL     1      38.263 -44.315  -7.654  1.00  0.00    -0.374 OA
ENDROOT
BRANCH   1  15
HETATM   15  N2  UNL     1      40.461 -46.379  -7.085  1.00  0.00    -0.069 N 
ATOM     16  H22 UNL     1      41.393 -46.606  -6.738  1.00  0.00     0.277 HD
ATOM     17  H21 UNL     1      40.728 -45.791  -7.874  1.00  0.00     0.277 HD
BRANCH  15  18
HETATM   18  C3  UNL     1      39.750 -47.560  -7.517  1.00  0.00     0.264 C 
BRANCH  18  19
HETATM   19  C2  UNL     1      39.582 -47.571  -9.004  1.00  0.00     0.205 C 
HETATM   20  C1  UNL     1      38.109 -47.784  -9.302  1.00  0.00     0.041 C 
BRANCH  19  21
HETATM   21  N1  UNL     1      40.063 -46.359  -9.632  1.00  0.00    -0.074 N 
ATOM     22  H13 UNL     1      40.778 -46.556 -10.333  1.00  0.00     0.274 HD
ATOM     23  H12 UNL     1      39.358 -45.946 -10.243  1.00  0.00     0.274 HD
ATOM     24  H11 UNL     1      40.392 -45.695  -8.931  1.00  0.00     0.274 HD
ENDBRANCH  19  21
ENDBRANCH  18  19
ENDBRANCH  15  18
ENDBRANCH   1  15
TORSDOF 4
ENDMDL
MODEL 5
REMARK VINA RESULT: -7.224835985      2.506      3.676
REMARK  4 active torsions:
REMARK  status: ('A' for Active; 'I' for Inactive)
REMARK    1  A    between atoms: C2_2  and  N1_3 
REMARK    2  A    between atoms: C2_2  and  C3_7 
REMARK    3  A    between atoms: C3_7  and  N2_8 
REMARK    4  A    between atoms: N2_8  and  C4_11 
ROOT
HETATM    1  C4  UNL     1      38.153 -46.566  -6.086  1.00  0.00     0.193 C 
HETATM    2  C5  UNL     1      37.891 -45.666  -7.160  1.00  0.00     0.041 C 
HETATM    3  C6  UNL     1      37.549 -46.151  -8.563  1.00  0.00     0.022 C 
HETATM    4  C7  UNL     1      38.791 -46.087  -9.395  1.00  0.00     0.008 C 
HETATM    5  C8  UNL     1      39.398 -47.448  -9.177  1.00  0.00     0.008 C 
HETATM    6  C9  UNL     1      38.370 -48.282  -8.430  1.00  0.00     0.021 C 
HETATM    7  C10 UNL     1      38.974 -48.614  -7.090  1.00  0.00     0.017 C 
HETATM    8  C11 UNL     1      37.946 -48.051  -6.143  1.00  0.00     0.046 C 
HETATM    9  C12 UNL     1      36.544 -48.467  -6.500  1.00  0.00     0.128 C 
HETATM   10  C13 UNL     1      36.373 -49.708  -7.305  1.00  0.00     0.032 C 
HETATM   11  C14 UNL     1      35.879 -49.548  -8.698  1.00  0.00     0.006 C 
HETATM   12  C15 UNL     1      36.245 -48.237  -9.416  1.00  0.00     0.039 C 
HETATM   13  C16 UNL     1      37.118 -47.547  -8.436  1.00  0.00     0.069 C 
HETATM   14  O1  UNL     1      36.231 -47.466  -7.377  1.00  0.00    -0.374 OA
ENDROOT
BRANCH   1  15
HETATM   15  N2  UNL     1      37.419 -46.154  -4.871  1.00  0.00    -0.069 N 
ATOM     16  H22 UNL     1      37.033 -46.957  -4.374  1.00  0.00     0.277 HD
ATOM     17  H21 UNL     1      36.546 -45.679  -5.102  1.00  0.00     0.277 HD
BRANCH  15  18
HETATM   18  C3  UNL     1      38.254 -45.347  -4.012  1.00  0.00     0.264 C 
BRANCH  18  19
HETATM   19  C2  UNL     1      37.623 -44.015  -3.748  1.00  0.00     0.205 C 
HETATM   20  C1  UNL     1      36.208 -44.057  -4.294  1.00  0.00     0.041 C 
BRANCH  19  21
HETATM   21  N1  UNL     1      37.623 -43.662  -2.345  1.00  0.00    -0.074 N 
ATOM     22  H13 UNL     1      36.944 -42.929  -2.141  1.00  0.00     0.274 HD
ATOM     23  H12 UNL     1      37.225 -44.404  -1.770  1.00  0.00     0.274 HD
ATOM     24  H11 UNL     1      38.561 -43.406  -2.036  1.00  0.00     0.274 HD
ENDBRANCH  19  21
ENDBRANCH  18  19
ENDBRANCH  15  18
ENDBRANCH   1  15
TORSDOF 4
ENDMDL
