MODEL 1
REMARK VINA RESULT: -7.398836562      0.000      0.000
REMARK  5 active torsions:
REMARK  status: ('A' for Active; 'I' for Inactive)
REMARK    1  A    between atoms: N1_1  and  C1_5 
REMARK    2  A    between atoms: C1_5  and  C2_6 
REMARK    3  A    between atoms: C2_6  and  N2_7 
REMARK    4  A    between atoms: N2_7  and  C3_9 
REMARK    5  A    between atoms: C4_10  and  C5_11 
ROOT
HETATM    1  C3  UNL     1      37.374 -46.905  -7.510  1.00  0.00     0.070 A 
HETATM    2  C4  UNL     1      37.012 -46.993  -6.212  1.00  0.00     0.085 A 
HETATM    3  N3  UNL     1      36.275 -48.077  -5.779  1.00  0.00    -0.297 N 
ATOM      4  H3  UNL     1      36.012 -48.129  -4.795  1.00  0.00     0.187 HD
HETATM    5  N4  UNL     1      35.900 -49.045  -6.585  1.00  0.00    -0.299 N 
ATOM      6  H4  UNL     1      35.359 -49.823  -6.208  1.00  0.00     0.187 HD
HETATM    7  C11 UNL     1      36.213 -49.035  -7.891  1.00  0.00     0.060 A 
HETATM    8  C12 UNL     1      35.802 -50.062  -8.710  1.00  0.00     0.032 A 
HETATM    9  C13 UNL     1      36.136 -50.027 -10.053  1.00  0.00     0.002 A 
HETATM   10  C14 UNL     1      36.871 -48.967 -10.537  1.00  0.00     0.001 A 
HETATM   11  C15 UNL     1      37.282 -47.930  -9.688  1.00  0.00     0.016 A 
HETATM   12  C16 UNL     1      36.946 -47.973  -8.354  1.00  0.00     0.021 A 
ENDROOT
BRANCH   1  13
HETATM   13  N2  UNL     1      38.067 -46.070  -8.050  1.00  0.00    -0.386 N 
ATOM     14  H2  UNL     1      38.889 -46.602  -8.335  1.00  0.00     0.159 HD
BRANCH  13  15
HETATM   15  C2  UNL     1      38.347 -44.817  -8.481  1.00  0.00     0.147 C 
BRANCH  15  16
HETATM   16  C1  UNL     1      39.441 -44.083  -7.672  1.00  0.00     0.249 C 
BRANCH  16  17
HETATM   17  N1  UNL     1      40.528 -45.019  -7.530  1.00  0.00    -0.078 N 
ATOM     18  H13 UNL     1      40.986 -45.245  -8.412  1.00  0.00     0.274 HD
ATOM     19  H12 UNL     1      41.345 -44.624  -7.063  1.00  0.00     0.274 HD
ATOM     20  H11 UNL     1      40.139 -45.832  -7.053  1.00  0.00     0.274 HD
ENDBRANCH  16  17
ENDBRANCH  15  16
ENDBRANCH  13  15
ENDBRANCH   1  13
BRANCH   2  21
HETATM   21  C5  UNL     1      37.378 -45.990  -5.232  1.00  0.00    -0.006 A 
HETATM   22  C6  UNL     1      38.528 -45.996  -4.497  1.00  0.00     0.014 A 
HETATM   23  C7  UNL     1      38.826 -45.008  -3.556  1.00  0.00     0.001 A 
HETATM   24  C8  UNL     1      37.951 -43.968  -3.330  1.00  0.00     0.000 A 
HETATM   25  C9  UNL     1      36.786 -43.947  -4.064  1.00  0.00     0.001 A 
HETATM   26  C10 UNL     1      36.498 -44.926  -4.991  1.00  0.00     0.014 A 
ENDBRANCH   2  21
TORSDOF 5
ENDMDL
MODEL 2
REMARK VINA RESULT: -7.358495638      1.913      3.423
REMARK  5 active torsions:
REMARK  status: ('A' for Active; 'I' for Inactive)
REMARK    1  A    between atoms: N1_1  and  C1_5 
REMARK    2  A    between atoms: C1_5  and  C2_6 
REMARK    3  A    between atoms: C2_6  and  N2_7 
REMARK    4  A    between atoms: N2_7  and  C3_9 
REMARK    5  A    between atoms: C4_10  and  C5_11 
ROOT
HETATM    1  C3  UNL     1      37.932 -46.649  -6.590  1.00  0.00     0.070 A 
HETATM    2  C4  UNL     1      38.911 -46.044  -7.296  1.00  0.00     0.085 A 
HETATM    3  N3  UNL     1      39.181 -46.459  -8.585  1.00  0.00    -0.297 N 
ATOM      4  H3  UNL     1      39.922 -45.990  -9.105  1.00  0.00     0.187 HD
HETATM    5  N4  UNL     1      38.520 -47.433  -9.167  1.00  0.00    -0.299 N 
ATOM      6  H4  UNL     1      38.762 -47.696 -10.123  1.00  0.00     0.187 HD
HETATM    7  C11 UNL     1      37.534 -48.092  -8.536  1.00  0.00     0.060 A 
HETATM    8  C12 UNL     1      36.863 -49.112  -9.172  1.00  0.00     0.032 A 
HETATM    9  C13 UNL     1      35.853 -49.776  -8.499  1.00  0.00     0.002 A 
HETATM   10  C14 UNL     1      35.542 -49.401  -7.210  1.00  0.00     0.001 A 
HETATM   11  C15 UNL     1      36.236 -48.359  -6.578  1.00  0.00     0.016 A 
HETATM   12  C16 UNL     1      37.239 -47.704  -7.254  1.00  0.00     0.021 A 
ENDROOT
BRANCH   1  13
HETATM   13  N2  UNL     1      37.516 -46.379  -5.484  1.00  0.00    -0.386 N 
ATOM     14  H2  UNL     1      37.582 -47.268  -4.988  1.00  0.00     0.159 HD
BRANCH  13  15
HETATM   15  C2  UNL     1      37.012 -45.541  -4.547  1.00  0.00     0.147 C 
BRANCH  15  16
HETATM   16  C1  UNL     1      36.448 -44.212  -5.102  1.00  0.00     0.249 C 
BRANCH  16  17
HETATM   17  N1  UNL     1      35.545 -43.711  -4.096  1.00  0.00    -0.078 N 
ATOM     18  H13 UNL     1      36.005 -43.476  -3.217  1.00  0.00     0.274 HD
ATOM     19  H12 UNL     1      35.185 -42.779  -4.301  1.00  0.00     0.274 HD
ATOM     20  H11 UNL     1      34.814 -44.417  -3.996  1.00  0.00     0.274 HD
ENDBRANCH  16  17
ENDBRANCH  15  16
ENDBRANCH  13  15
ENDBRANCH   1  13
BRANCH   2  21
HETATM   21  C5  UNL     1      39.697 -44.951  -6.759  1.00  0.00    -0.006 A 
HETATM   22  C6  UNL     1      40.658 -45.076  -5.799  1.00  0.00     0.014 A 
HETATM   23  C7  UNL     1      41.380 -43.984  -5.310  1.00  0.00     0.001 A 
HETATM   24  C8  UNL     1      41.143 -42.715  -5.789  1.00  0.00     0.000 A 
HETATM   25  C9  UNL     1      40.175 -42.572  -6.759  1.00  0.00     0.001 A 
HETATM   26  C10 UNL     1      39.467 -43.654  -7.237  1.00  0.00     0.014 A 
ENDBRANCH   2  21
TORSDOF 5
ENDMDL
MODEL 3
REMARK VINA RESULT: -7.151734569      0.884      1.538
REMARK  5 active torsions:
REMARK  status: ('A' for Active; 'I' for Inactive)
REMARK    1  A    between atoms: N1_1  and  C1_5 
REMARK    2  A    between atoms: C1_5  and  C2_6 
REMARK    3  A    between atoms: C2_6  and  N2_7 
REMARK    4  A    between atoms: N2_7  and  C3_9 
REMARK    5  A    between atoms: C4_10  and  C5_11 
ROOT
HETATM    1  C3  UNL     1      37.334 -46.855  -7.445  1.00  0.00     0.070 A 
HETATM    2  C4  UNL     1      36.964 -46.950  -6.150  1.00  0.00     0.085 A 
HETATM    3  N3  UNL     1      36.254 -48.053  -5.719  1.00  0.00    -0.297 N 
ATOM      4  H3  UNL     1      35.985 -48.110  -4.737  1.00  0.00     0.187 HD
HETATM    5  N4  UNL     1      35.912 -49.032  -6.525  1.00  0.00    -0.299 N 
ATOM      6  H4  UNL     1      35.389 -49.824  -6.151  1.00  0.00     0.187 HD
HETATM    7  C11 UNL     1      36.234 -49.017  -7.829  1.00  0.00     0.060 A 
HETATM    8  C12 UNL     1      35.857 -50.056  -8.649  1.00  0.00     0.032 A 
HETATM    9  C13 UNL     1      36.201 -50.016  -9.989  1.00  0.00     0.002 A 
HETATM   10  C14 UNL     1      36.910 -48.937 -10.470  1.00  0.00     0.001 A 
HETATM   11  C15 UNL     1      37.286 -47.887  -9.620  1.00  0.00     0.016 A 
HETATM   12  C16 UNL     1      36.942 -47.936  -8.289  1.00  0.00     0.021 A 
ENDROOT
BRANCH   1  13
HETATM   13  N2  UNL     1      38.008 -46.003  -7.981  1.00  0.00    -0.386 N 
ATOM     14  H2  UNL     1      38.780 -46.537  -8.380  1.00  0.00     0.159 HD
BRANCH  13  15
HETATM   15  C2  UNL     1      38.297 -44.730  -8.340  1.00  0.00     0.147 C 
BRANCH  15  16
HETATM   16  C1  UNL     1      37.063 -43.829  -8.582  1.00  0.00     0.249 C 
BRANCH  16  17
HETATM   17  N1  UNL     1      37.419 -42.948  -9.666  1.00  0.00    -0.078 N 
ATOM     18  H13 UNL     1      37.672 -42.009  -9.360  1.00  0.00     0.274 HD
ATOM     19  H12 UNL     1      38.312 -43.181 -10.102  1.00  0.00     0.274 HD
ATOM     20  H11 UNL     1      36.632 -42.966 -10.315  1.00  0.00     0.274 HD
ENDBRANCH  16  17
ENDBRANCH  15  16
ENDBRANCH  13  15
ENDBRANCH   1  13
BRANCH   2  21
HETATM   21  C5  UNL     1      37.296 -45.935  -5.169  1.00  0.00    -0.006 A 
HETATM   22  C6  UNL     1      36.511 -44.865  -4.854  1.00  0.00     0.014 A 
HETATM   23  C7  UNL     1      36.886 -43.909  -3.906  1.00  0.00     0.001 A 
HETATM   24  C8  UNL     1      38.087 -44.015  -3.240  1.00  0.00     0.000 A 
HETATM   25  C9  UNL     1      38.891 -45.091  -3.547  1.00  0.00     0.001 A 
HETATM   26  C10 UNL     1      38.515 -46.030  -4.484  1.00  0.00     0.014 A 
ENDBRANCH   2  21
TORSDOF 5
ENDMDL
MODEL 4
REMARK VINA RESULT: -7.062582141      0.967      1.126
REMARK  5 active torsions:
REMARK  status: ('A' for Active; 'I' for Inactive)
REMARK    1  A    between atoms: N1_1  and  C1_5 
REMARK    2  A    between atoms: C1_5  and  C2_6 
REMARK    3  A    between atoms: C2_6  and  N2_7 
REMARK    4  A    between atoms: N2_7  and  C3_9 
REMARK    5  A    between atoms: C4_10  and  C5_11 
ROOT
HETATM    1  C3  UNL     1      37.434 -46.759  -7.615  1.00  0.00     0.070 A 
HETATM    2  C4  UNL     1      37.245 -46.807  -6.280  1.00  0.00     0.085 A 
HETATM    3  N3  UNL     1      36.647 -47.915  -5.712  1.00  0.00    -0.297 N 
ATOM      4  H3  UNL     1      36.513 -47.935  -4.701  1.00  0.00     0.187 HD
HETATM    5  N4  UNL     1      36.244 -48.943  -6.423  1.00  0.00    -0.299 N 
ATOM      6  H4  UNL     1      35.811 -49.736  -5.949  1.00  0.00     0.187 HD
HETATM    7  C11 UNL     1      36.390 -48.977  -7.758  1.00  0.00     0.060 A 
HETATM    8  C12 UNL     1      35.954 -50.068  -8.476  1.00  0.00     0.032 A 
HETATM    9  C13 UNL     1      36.114 -50.078  -9.850  1.00  0.00     0.002 A 
HETATM   10  C14 UNL     1      36.706 -48.997 -10.467  1.00  0.00     0.001 A 
HETATM   11  C15 UNL     1      37.144 -47.894  -9.720  1.00  0.00     0.016 A 
HETATM   12  C16 UNL     1      36.982 -47.893  -8.354  1.00  0.00     0.021 A 
ENDROOT
BRANCH   1  13
HETATM   13  N2  UNL     1      37.994 -45.909  -8.273  1.00  0.00    -0.386 N 
ATOM     14  H2  UNL     1      38.731 -46.430  -8.746  1.00  0.00     0.159 HD
BRANCH  13  15
HETATM   15  C2  UNL     1      38.174 -44.644  -8.722  1.00  0.00     0.147 C 
BRANCH  15  16
HETATM   16  C1  UNL     1      36.987 -43.688  -8.461  1.00  0.00     0.249 C 
BRANCH  16  17
HETATM   17  N1  UNL     1      37.438 -42.757  -7.457  1.00  0.00    -0.078 N 
ATOM     18  H13 UNL     1      36.773 -42.007  -7.271  1.00  0.00     0.274 HD
ATOM     19  H12 UNL     1      37.449 -43.150  -6.515  1.00  0.00     0.274 HD
ATOM     20  H11 UNL     1      38.350 -42.424  -7.770  1.00  0.00     0.274 HD
ENDBRANCH  16  17
ENDBRANCH  15  16
ENDBRANCH  13  15
ENDBRANCH   1  13
BRANCH   2  21
HETATM   21  C5  UNL     1      37.659 -45.735  -5.395  1.00  0.00    -0.006 A 
HETATM   22  C6  UNL     1      38.951 -45.364  -5.167  1.00  0.00     0.014 A 
HETATM   23  C7  UNL     1      39.294 -44.328  -4.295  1.00  0.00     0.001 A 
HETATM   24  C8  UNL     1      38.319 -43.629  -3.618  1.00  0.00     0.000 A 
HETATM   25  C9  UNL     1      37.008 -43.991  -3.839  1.00  0.00     0.001 A 
HETATM   26  C10 UNL     1      36.677 -45.015  -4.701  1.00  0.00     0.014 A 
ENDBRANCH   2  21
TORSDOF 5
ENDMDL
MODEL 5
REMARK VINA RESULT: -6.883733119      2.471      4.539
REMARK  5 active torsions:
REMARK  status: ('A' for Active; 'I' for Inactive)
REMARK    1  A    between atoms: N1_1  and  C1_5 
REMARK    2  A    between atoms: C1_5  and  C2_6 
REMARK    3  A    between atoms: C2_6  and  N2_7 
REMARK    4  A    between atoms: N2_7  and  C3_9 
REMARK    5  A    between atoms: C4_10  and  C5_11 
ROOT
HETATM    1  C3  UNL     1      37.797 -44.799  -6.473  1.00  0.00     0.070 A 
HETATM    2  C4  UNL     1      37.887 -44.186  -7.672  1.00  0.00     0.085 A 
HETATM    3  N3  UNL     1      37.717 -44.919  -8.830  1.00  0.00    -0.297 N 
ATOM      4  H3  UNL     1      37.786 -44.440  -9.728  1.00  0.00     0.187 HD
HETATM    5  N4  UNL     1      37.471 -46.209  -8.820  1.00  0.00    -0.299 N 
ATOM      6  H4  UNL     1      37.352 -46.700  -9.707  1.00  0.00     0.187 HD
HETATM    7  C11 UNL     1      37.370 -46.899  -7.671  1.00  0.00     0.060 A 
HETATM    8  C12 UNL     1      37.115 -48.251  -7.694  1.00  0.00     0.032 A 
HETATM    9  C13 UNL     1      37.018 -48.939  -6.497  1.00  0.00     0.002 A 
HETATM   10  C14 UNL     1      37.178 -48.254  -5.312  1.00  0.00     0.001 A 
HETATM   11  C15 UNL     1      37.437 -46.876  -5.308  1.00  0.00     0.016 A 
HETATM   12  C16 UNL     1      37.531 -46.200  -6.503  1.00  0.00     0.021 A 
ENDROOT
BRANCH   1  13
HETATM   13  N2  UNL     1      37.852 -44.310  -5.365  1.00  0.00    -0.386 N 
ATOM     14  H2  UNL     1      37.045 -44.718  -4.893  1.00  0.00     0.159 HD
BRANCH  13  15
HETATM   15  C2  UNL     1      38.399 -43.519  -4.412  1.00  0.00     0.147 C 
BRANCH  15  16
HETATM   16  C1  UNL     1      38.610 -44.205  -3.043  1.00  0.00     0.249 C 
BRANCH  16  17
HETATM   17  N1  UNL     1      37.571 -43.702  -2.180  1.00  0.00    -0.078 N 
ATOM     18  H13 UNL     1      37.267 -44.374  -1.476  1.00  0.00     0.274 HD
ATOM     19  H12 UNL     1      37.893 -42.981  -1.533  1.00  0.00     0.274 HD
ATOM     20  H11 UNL     1      36.819 -43.390  -2.796  1.00  0.00     0.274 HD
ENDBRANCH  16  17
ENDBRANCH  15  16
ENDBRANCH  13  15
ENDBRANCH   1  13
BRANCH   2  21
HETATM   21  C5  UNL     1      38.144 -42.765  -7.804  1.00  0.00    -0.006 A 
HETATM   22  C6  UNL     1      37.217 -41.782  -7.623  1.00  0.00     0.014 A 
HETATM   23  C7  UNL     1      37.518 -40.426  -7.774  1.00  0.00     0.001 A 
HETATM   24  C8  UNL     1      38.790 -40.024  -8.118  1.00  0.00     0.000 A 
HETATM   25  C9  UNL     1      39.738 -41.006  -8.304  1.00  0.00     0.001 A 
HETATM   26  C10 UNL     1      39.433 -42.342  -8.154  1.00  0.00     0.014 A 
ENDBRANCH   2  21
TORSDOF 5
ENDMDL
