MODEL 1
REMARK VINA RESULT: -8.394083965      0.000      0.000
REMARK  4 active torsions:
REMARK  status: ('A' for Active; 'I' for Inactive)
REMARK    1  A    between atoms: N1_5  and  C5_6 
REMARK    2  A    between atoms: C5_6  and  C6_7 
REMARK    3  A    between atoms: C6_7  and  C7_8 
REMARK    4  A    between atoms: C14_17  and  N3_18 
ROOT
HETATM    1  C1  UNL     1      38.154 -44.065  -3.005  1.00  0.00     0.018 C 
HETATM    2  C2  UNL     1      38.108 -44.919  -3.859  1.00  0.00    -0.075 C 
HETATM    3  C3  UNL     1      38.038 -45.927  -4.880  1.00  0.00     0.047 A 
HETATM    4  C4  UNL     1      37.361 -47.127  -4.900  1.00  0.00     0.114 A 
HETATM    5  N1  UNL     1      37.597 -47.740  -6.081  1.00  0.00    -0.340 N 
HETATM    6  C13 UNL     1      38.414 -46.985  -6.847  1.00  0.00     0.136 A 
HETATM    7  N2  UNL     1      38.917 -47.182  -8.084  1.00  0.00    -0.176 N 
ATOM      8  H2  UNL     1      38.703 -48.022  -8.620  1.00  0.00     0.186 HD
HETATM    9  C14 UNL     1      39.716 -46.217  -8.573  1.00  0.00     0.677 A 
HETATM   10  N4  UNL     1      40.002 -45.104  -7.867  1.00  0.00    -0.201 N 
ATOM     11  H4  UNL     1      40.613 -44.399  -8.280  1.00  0.00     0.183 HD
HETATM   12  C15 UNL     1      39.508 -44.900  -6.640  1.00  0.00     0.123 A 
HETATM   13  C16 UNL     1      38.687 -45.852  -6.092  1.00  0.00     0.045 A 
ENDROOT
BRANCH   5  14
HETATM   14  C5  UNL     1      37.073 -49.007  -6.491  1.00  0.00     0.134 C 
BRANCH  14  15
HETATM   15  C6  UNL     1      35.614 -48.858  -6.849  1.00  0.00     0.058 C 
BRANCH  15  16
HETATM   16  C7  UNL     1      35.390 -49.181  -8.284  1.00  0.00    -0.057 A 
HETATM   17  C8  UNL     1      34.123 -49.093  -8.800  1.00  0.00     0.007 A 
HETATM   18  C9  UNL     1      33.857 -49.384 -10.133  1.00  0.00     0.001 A 
HETATM   19  C10 UNL     1      34.889 -49.770 -10.955  1.00  0.00     0.000 A 
HETATM   20  C11 UNL     1      36.155 -49.859 -10.448  1.00  0.00     0.001 A 
HETATM   21  C12 UNL     1      36.405 -49.570  -9.133  1.00  0.00     0.007 A 
ENDBRANCH  15  16
ENDBRANCH  14  15
ENDBRANCH   5  14
BRANCH   9  22
HETATM   22  N3  UNL     1      40.233 -46.356  -9.769  1.00  0.00    -0.234 N 
ATOM     23  H32 UNL     1      39.678 -46.081 -10.579  1.00  0.00     0.174 HD
ATOM     24  H31 UNL     1      41.175 -46.735  -9.866  1.00  0.00     0.174 HD
ENDBRANCH   9  22
TORSDOF 4
ENDMDL
MODEL 2
REMARK VINA RESULT: -8.210918495      2.704      3.760
REMARK  4 active torsions:
REMARK  status: ('A' for Active; 'I' for Inactive)
REMARK    1  A    between atoms: N1_5  and  C5_6 
REMARK    2  A    between atoms: C5_6  and  C6_7 
REMARK    3  A    between atoms: C6_7  and  C7_8 
REMARK    4  A    between atoms: C14_17  and  N3_18 
ROOT
HETATM    1  C1  UNL     1      42.341 -42.683  -4.961  1.00  0.00     0.018 C 
HETATM    2  C2  UNL     1      41.209 -43.056  -5.159  1.00  0.00    -0.075 C 
HETATM    3  C3  UNL     1      39.858 -43.491  -5.381  1.00  0.00     0.047 A 
HETATM    4  C4  UNL     1      39.145 -44.513  -4.795  1.00  0.00     0.114 A 
HETATM    5  N1  UNL     1      37.904 -44.541  -5.329  1.00  0.00    -0.340 N 
HETATM    6  C13 UNL     1      37.770 -43.567  -6.256  1.00  0.00     0.136 A 
HETATM    7  N2  UNL     1      36.730 -43.214  -7.039  1.00  0.00    -0.176 N 
ATOM      8  H2  UNL     1      35.839 -43.709  -7.001  1.00  0.00     0.186 HD
HETATM    9  C14 UNL     1      36.925 -42.177  -7.874  1.00  0.00     0.677 A 
HETATM   10  N4  UNL     1      38.101 -41.520  -7.929  1.00  0.00    -0.201 N 
ATOM     11  H4  UNL     1      38.203 -40.739  -8.577  1.00  0.00     0.183 HD
HETATM   12  C15 UNL     1      39.139 -41.863  -7.156  1.00  0.00     0.123 A 
HETATM   13  C16 UNL     1      38.994 -42.914  -6.285  1.00  0.00     0.045 A 
ENDROOT
BRANCH   5  14
HETATM   14  C5  UNL     1      36.859 -45.457  -4.984  1.00  0.00     0.134 C 
BRANCH  14  15
HETATM   15  C6  UNL     1      37.382 -46.871  -5.064  1.00  0.00     0.058 C 
BRANCH  15  16
HETATM   16  C7  UNL     1      36.956 -47.517  -6.335  1.00  0.00    -0.057 A 
HETATM   17  C8  UNL     1      36.067 -48.560  -6.290  1.00  0.00     0.007 A 
HETATM   18  C9  UNL     1      35.636 -49.200  -7.446  1.00  0.00     0.001 A 
HETATM   19  C10 UNL     1      36.112 -48.778  -8.665  1.00  0.00     0.000 A 
HETATM   20  C11 UNL     1      36.998 -47.738  -8.717  1.00  0.00     0.001 A 
HETATM   21  C12 UNL     1      37.416 -47.115  -7.572  1.00  0.00     0.007 A 
ENDBRANCH  15  16
ENDBRANCH  14  15
ENDBRANCH   5  14
BRANCH   9  22
HETATM   22  N3  UNL     1      35.949 -41.791  -8.659  1.00  0.00    -0.234 N 
ATOM     23  H32 UNL     1      35.009 -42.145  -8.483  1.00  0.00     0.174 HD
ATOM     24  H31 UNL     1      36.148 -41.148  -9.425  1.00  0.00     0.174 HD
ENDBRANCH   9  22
TORSDOF 4
ENDMDL
MODEL 3
REMARK VINA RESULT: -8.157688917      2.270      3.339
REMARK  4 active torsions:
REMARK  status: ('A' for Active; 'I' for Inactive)
REMARK    1  A    between atoms: N1_5  and  C5_6 
REMARK    2  A    between atoms: C5_6  and  C6_7 
REMARK    3  A    between atoms: C6_7  and  C7_8 
REMARK    4  A    between atoms: C14_17  and  N3_18 
ROOT
HETATM    1  C1  UNL     1      42.706 -42.375  -4.768  1.00  0.00     0.018 C 
HETATM    2  C2  UNL     1      41.752 -42.997  -5.171  1.00  0.00    -0.075 C 
HETATM    3  C3  UNL     1      40.609 -43.731  -5.637  1.00  0.00     0.047 A 
HETATM    4  C4  UNL     1      40.060 -44.909  -5.179  1.00  0.00     0.114 A 
HETATM    5  N1  UNL     1      38.984 -45.212  -5.938  1.00  0.00    -0.340 N 
HETATM    6  C13 UNL     1      38.800 -44.270  -6.889  1.00  0.00     0.136 A 
HETATM    7  N2  UNL     1      37.871 -44.148  -7.860  1.00  0.00    -0.176 N 
ATOM      8  H2  UNL     1      37.132 -44.839  -7.983  1.00  0.00     0.186 HD
HETATM    9  C14 UNL     1      37.969 -43.070  -8.659  1.00  0.00     0.677 A 
HETATM   10  N4  UNL     1      38.945 -42.154  -8.501  1.00  0.00    -0.201 N 
ATOM     11  H4  UNL     1      38.979 -41.352  -9.131  1.00  0.00     0.183 HD
HETATM   12  C15 UNL     1      39.870 -42.266  -7.541  1.00  0.00     0.123 A 
HETATM   13  C16 UNL     1      39.818 -43.346  -6.697  1.00  0.00     0.045 A 
ENDROOT
BRANCH   5  14
HETATM   14  C5  UNL     1      38.140 -46.357  -5.783  1.00  0.00     0.134 C 
BRANCH  14  15
HETATM   15  C6  UNL     1      38.578 -47.440  -6.740  1.00  0.00     0.058 C 
BRANCH  15  16
HETATM   16  C7  UNL     1      37.398 -48.094  -7.368  1.00  0.00    -0.057 A 
HETATM   17  C8  UNL     1      37.225 -48.001  -8.725  1.00  0.00     0.007 A 
HETATM   18  C9  UNL     1      36.142 -48.592  -9.364  1.00  0.00     0.001 A 
HETATM   19  C10 UNL     1      35.218 -49.287  -8.617  1.00  0.00     0.000 A 
HETATM   20  C11 UNL     1      35.385 -49.383  -7.264  1.00  0.00     0.001 A 
HETATM   21  C12 UNL     1      36.456 -48.798  -6.646  1.00  0.00     0.007 A 
ENDBRANCH  15  16
ENDBRANCH  14  15
ENDBRANCH   5  14
BRANCH   9  22
HETATM   22  N3  UNL     1      37.094 -42.901  -9.620  1.00  0.00    -0.234 N 
ATOM     23  H32 UNL     1      36.912 -41.956  -9.958  1.00  0.00     0.174 HD
ATOM     24  H31 UNL     1      36.615 -43.713 -10.010  1.00  0.00     0.174 HD
ENDBRANCH   9  22
TORSDOF 4
ENDMDL
MODEL 4
REMARK VINA RESULT: -8.133834655      2.394      4.019
REMARK  4 active torsions:
REMARK  status: ('A' for Active; 'I' for Inactive)
REMARK    1  A    between atoms: N1_5  and  C5_6 
REMARK    2  A    between atoms: C5_6  and  C6_7 
REMARK    3  A    between atoms: C6_7  and  C7_8 
REMARK    4  A    between atoms: C14_17  and  N3_18 
ROOT
HETATM    1  C1  UNL     1      35.351 -42.247  -8.860  1.00  0.00     0.018 C 
HETATM    2  C2  UNL     1      36.321 -42.943  -8.674  1.00  0.00    -0.075 C 
HETATM    3  C3  UNL     1      37.481 -43.764  -8.468  1.00  0.00     0.047 A 
HETATM    4  C4  UNL     1      37.825 -44.975  -9.028  1.00  0.00     0.114 A 
HETATM    5  N1  UNL     1      39.017 -45.366  -8.524  1.00  0.00    -0.340 N 
HETATM    6  C13 UNL     1      39.477 -44.450  -7.643  1.00  0.00     0.136 A 
HETATM    7  N2  UNL     1      40.604 -44.408  -6.902  1.00  0.00    -0.176 N 
ATOM      8  H2  UNL     1      41.298 -45.153  -6.942  1.00  0.00     0.186 HD
HETATM    9  C14 UNL     1      40.766 -43.334  -6.108  1.00  0.00     0.677 A 
HETATM   10  N4  UNL     1      39.851 -42.346  -6.053  1.00  0.00    -0.201 N 
ATOM     11  H4  UNL     1      40.018 -41.551  -5.436  1.00  0.00     0.183 HD
HETATM   12  C15 UNL     1      38.730 -42.379  -6.784  1.00  0.00     0.123 A 
HETATM   13  C16 UNL     1      38.514 -43.451  -7.611  1.00  0.00     0.045 A 
ENDROOT
BRANCH   5  14
HETATM   14  C5  UNL     1      39.718 -46.569  -8.855  1.00  0.00     0.134 C 
BRANCH  14  15
HETATM   15  C6  UNL     1      39.590 -47.556  -7.719  1.00  0.00     0.058 C 
BRANCH  15  16
HETATM   16  C7  UNL     1      38.244 -48.190  -7.724  1.00  0.00    -0.057 A 
HETATM   17  C8  UNL     1      37.577 -48.353  -6.538  1.00  0.00     0.007 A 
HETATM   18  C9  UNL     1      36.317 -48.938  -6.484  1.00  0.00     0.001 A 
HETATM   19  C10 UNL     1      35.725 -49.367  -7.650  1.00  0.00     0.000 A 
HETATM   20  C11 UNL     1      36.385 -49.207  -8.836  1.00  0.00     0.001 A 
HETATM   21  C12 UNL     1      37.625 -48.628  -8.877  1.00  0.00     0.007 A 
ENDBRANCH  15  16
ENDBRANCH  14  15
ENDBRANCH   5  14
BRANCH   9  22
HETATM   22  N3  UNL     1      41.842 -43.241  -5.366  1.00  0.00    -0.234 N 
ATOM     23  H32 UNL     1      42.233 -42.317  -5.182  1.00  0.00     0.174 HD
ATOM     24  H31 UNL     1      42.265 -44.089  -4.988  1.00  0.00     0.174 HD
ENDBRANCH   9  22
TORSDOF 4
ENDMDL
MODEL 5
REMARK VINA RESULT: -8.123478325      1.282      5.550
REMARK  4 active torsions:
REMARK  status: ('A' for Active; 'I' for Inactive)
REMARK    1  A    between atoms: N1_5  and  C5_6 
REMARK    2  A    between atoms: C5_6  and  C6_7 
REMARK    3  A    between atoms: C6_7  and  C7_8 
REMARK    4  A    between atoms: C14_17  and  N3_18 
ROOT
HETATM    1  C1  UNL     1      35.586 -49.964 -10.920  1.00  0.00     0.018 C 
HETATM    2  C2  UNL     1      36.111 -49.460  -9.955  1.00  0.00    -0.075 C 
HETATM    3  C3  UNL     1      36.744 -48.876  -8.806  1.00  0.00     0.047 A 
HETATM    4  C4  UNL     1      36.506 -49.072  -7.463  1.00  0.00     0.114 A 
HETATM    5  N1  UNL     1      37.357 -48.298  -6.752  1.00  0.00    -0.340 N 
HETATM    6  C13 UNL     1      38.154 -47.592  -7.583  1.00  0.00     0.136 A 
HETATM    7  N2  UNL     1      39.139 -46.703  -7.338  1.00  0.00    -0.176 N 
ATOM      8  H2  UNL     1      39.407 -46.450  -6.387  1.00  0.00     0.186 HD
HETATM    9  C14 UNL     1      39.751 -46.166  -8.409  1.00  0.00     0.677 A 
HETATM   10  N4  UNL     1      39.401 -46.497  -9.668  1.00  0.00    -0.201 N 
ATOM     11  H4  UNL     1      39.894 -46.065 -10.449  1.00  0.00     0.183 HD
HETATM   12  C15 UNL     1      38.425 -47.378  -9.921  1.00  0.00     0.123 A 
HETATM   13  C16 UNL     1      37.768 -47.956  -8.865  1.00  0.00     0.045 A 
ENDROOT
BRANCH   5  14
HETATM   14  C5  UNL     1      37.428 -48.217  -5.325  1.00  0.00     0.134 C 
BRANCH  14  15
HETATM   15  C6  UNL     1      36.458 -47.170  -4.831  1.00  0.00     0.058 C 
BRANCH  15  16
HETATM   16  C7  UNL     1      37.104 -45.830  -4.798  1.00  0.00    -0.057 A 
HETATM   17  C8  UNL     1      38.205 -45.637  -4.005  1.00  0.00     0.007 A 
HETATM   18  C9  UNL     1      38.848 -44.406  -3.937  1.00  0.00     0.001 A 
HETATM   19  C10 UNL     1      38.367 -43.355  -4.683  1.00  0.00     0.000 A 
HETATM   20  C11 UNL     1      37.270 -43.541  -5.476  1.00  0.00     0.001 A 
HETATM   21  C12 UNL     1      36.646 -44.758  -5.536  1.00  0.00     0.007 A 
ENDBRANCH  15  16
ENDBRANCH  14  15
ENDBRANCH   5  14
BRANCH   9  22
HETATM   22  N3  UNL     1      40.715 -45.296  -8.230  1.00  0.00    -0.234 N 
ATOM     23  H32 UNL     1      40.492 -44.302  -8.268  1.00  0.00     0.174 HD
ATOM     24  H31 UNL     1      41.663 -45.629  -8.056  1.00  0.00     0.174 HD
ENDBRANCH   9  22
TORSDOF 4
ENDMDL
