MODEL 1
REMARK VINA RESULT: -7.312573953      0.000      0.000
REMARK  19 active torsions:
REMARK  status: ('A' for Active; 'I' for Inactive)
REMARK    1  A    between atoms: C2_2  and  O2_4 
REMARK    2  A    between atoms: O2_4  and  C3_5 
REMARK    3  A    between atoms: C3_5  and  C4_6 
REMARK    4  A    between atoms: C4_6  and  O3_7 
REMARK    5  A    between atoms: O3_7  and  C5_8 
REMARK    6  A    between atoms: C5_8  and  C7_10 
REMARK    7  A    between atoms: C7_10  and  O4_11 
REMARK    8  A    between atoms: C7_10  and  C8_13 
REMARK    9  A    between atoms: C7_10  and  N9_40 
REMARK   10  A    between atoms: C8_13  and  O5_14 
REMARK   11  A    between atoms: C8_13  and  C9_16 
REMARK   12  A    between atoms: C9_16  and  N1_17 
REMARK   13  A    between atoms: C10_18  and  N2_19 
REMARK   14  A    between atoms: N2_19  and  N3_21 
REMARK   15  A    between atoms: C15_41  and  N10_42 
REMARK   16  A    between atoms: C17_44  and  O7_45 
REMARK   17  A    between atoms: C18_47  and  O8_48 
REMARK   18  A    between atoms: C22_57  and  N13_58 
REMARK   19  A    between atoms: N14_61  and  N15_62 
ROOT
HETATM    1  C7  UNL     1       5.751  25.353  20.440  1.00  0.00     0.208 C 
ENDROOT
BRANCH   1   2
HETATM    2  C5  UNL     1       6.676  24.956  21.497  1.00  0.00     0.176 C 
HETATM    3  C6  UNL     1       6.542  25.830  22.785  1.00  0.00     0.044 C 
BRANCH   2   4
HETATM    4  O3  UNL     1       6.884  23.755  22.028  1.00  0.00    -0.379 OA
BRANCH   4   5
HETATM    5  C4  UNL     1       8.147  23.238  21.919  1.00  0.00     0.195 C 
BRANCH   5   6
HETATM    6  C3  UNL     1       8.152  22.277  20.744  1.00  0.00     0.205 C 
BRANCH   6   7
HETATM    7  O2  UNL     1       8.872  22.782  19.652  1.00  0.00    -0.320 OA
BRANCH   7   8
HETATM    8  C2  UNL     1      10.135  23.300  19.906  1.00  0.00     0.254 C 
HETATM    9  C1  UNL     1      11.240  22.431  20.367  1.00  0.00     0.126 C 
HETATM   10  O1  UNL     1      10.379  24.523  19.751  1.00  0.00    -0.266 OA
ENDBRANCH   7   8
ENDBRANCH   6   7
ENDBRANCH   5   6
ENDBRANCH   4   5
ENDBRANCH   2   4
ENDBRANCH   1   2
BRANCH   1  11
HETATM   11  O4  UNL     1       6.300  26.761  20.444  1.00  0.00    -0.365 OA
ATOM     12  H4  UNL     1       5.630  27.041  21.056  1.00  0.00     0.212 HD
ENDBRANCH   1  11
BRANCH   1  13
HETATM   13  C8  UNL     1       6.100  25.140  19.006  1.00  0.00     0.196 C 
BRANCH  13  14
HETATM   14  O5  UNL     1       7.516  25.223  18.797  1.00  0.00    -0.389 OA
ATOM     15  H5  UNL     1       7.808  24.586  18.157  1.00  0.00     0.210 HD
ENDBRANCH  13  14
BRANCH  13  16
HETATM   16  C9  UNL     1       5.755  23.948  18.240  1.00  0.00     0.186 C 
BRANCH  16  17
HETATM   17  N1  UNL     1       6.167  23.957  16.853  1.00  0.00    -0.161 N 
HETATM   18  C10 UNL     1       6.995  23.051  16.305  1.00  0.00     0.702 A 
HETATM   19  N5  UNL     1       7.168  23.368  15.010  1.00  0.00    -0.181 N 
HETATM   20  C11 UNL     1       6.460  24.469  14.724  1.00  0.00     0.162 A 
ATOM     21  H5  UNL     1       7.749  22.852  14.348  1.00  0.00     0.184 HD
HETATM   22  C12 UNL     1       6.270  25.226  13.590  1.00  0.00     0.290 A 
HETATM   23  C14 UNL     1       5.812  24.862  15.892  1.00  0.00     0.172 A 
HETATM   24  O6  UNL     1       6.846  24.884  12.536  1.00  0.00    -0.265 OA
HETATM   25  N6  UNL     1       5.462  26.321  13.654  1.00  0.00    -0.154 N 
HETATM   26  C13 UNL     1       4.850  26.674  14.796  1.00  0.00     0.680 A 
ATOM     27  H6  UNL     1       5.318  26.885  12.817  1.00  0.00     0.187 HD
HETATM   28  N7  UNL     1       4.098  27.732  14.763  1.00  0.00    -0.234 N 
HETATM   29  N8  UNL     1       5.020  25.952  15.913  1.00  0.00    -0.174 N 
ATOM     30  H72 UNL     1       3.969  28.281  13.913  1.00  0.00     0.174 HD
ATOM     31  H71 UNL     1       3.633  28.000  15.631  1.00  0.00     0.174 HD
ATOM     32  H8  UNL     1       4.552  26.227  16.776  1.00  0.00     0.186 HD
BRANCH  18  33
HETATM   33  N2  UNL     1       7.616  21.925  16.928  1.00  0.00    -0.118 N 
ATOM     34  H2  UNL     1       7.036  21.252  17.430  1.00  0.00     0.207 HD
BRANCH  33  35
HETATM   35  N3  UNL     1       8.826  21.746  16.875  1.00  0.00    -0.235 N 
HETATM   36  N4  UNL     1       9.914  21.173  17.086  1.00  0.00    -0.330 N 
ATOM     37  H42 UNL     1       9.568  20.382  17.630  1.00  0.00     0.178 HD
ATOM     38  H41 UNL     1      10.923  21.024  17.042  1.00  0.00     0.178 HD
ATOM     39  H3  UNL     1       9.125  22.554  16.327  1.00  0.00     0.208 HD
ENDBRANCH  33  35
ENDBRANCH  18  33
ENDBRANCH  16  17
ENDBRANCH  13  16
ENDBRANCH   1  13
BRANCH   1  40
HETATM   40  N9  UNL     1       4.387  25.774  20.733  1.00  0.00    -0.137 N 
HETATM   41  C15 UNL     1       3.802  27.008  20.564  1.00  0.00     0.688 A 
HETATM   42  N11 UNL     1       2.480  26.960  20.980  1.00  0.00    -0.173 N 
HETATM   43  C21 UNL     1       2.249  25.735  21.393  1.00  0.00     0.168 A 
ATOM     44  H11 UNL     1       1.812  27.732  20.968  1.00  0.00     0.186 HD
HETATM   45  N12 UNL     1       1.137  25.171  21.881  1.00  0.00    -0.172 N 
HETATM   46  C24 UNL     1       3.414  24.972  21.252  1.00  0.00     0.146 A 
HETATM   47  C22 UNL     1       1.070  23.871  22.253  1.00  0.00     0.700 A 
ATOM     48  H12 UNL     1       0.301  25.748  21.976  1.00  0.00     0.186 HD
HETATM   49  N14 UNL     1       2.162  23.105  22.132  1.00  0.00    -0.075 N 
HETATM   50  C23 UNL     1       3.317  23.657  21.636  1.00  0.00     0.170 A 
HETATM   51  N16 UNL     1       4.276  22.872  21.534  1.00  0.00    -0.382 N 
ATOM     52 2H16 UNL     1       4.204  21.895  21.819  1.00  0.00     0.157 HD
ATOM     53 1H16 UNL     1       5.133  23.282  21.165  1.00  0.00     0.157 HD
BRANCH  41  54
HETATM   54  N10 UNL     1       4.345  28.193  20.042  1.00  0.00    -0.208 N 
HETATM   55  C16 UNL     1       4.327  28.625  18.663  1.00  0.00     0.176 C 
HETATM   56  C17 UNL     1       3.885  30.086  18.769  1.00  0.00     0.167 C 
HETATM   57  C18 UNL     1       4.103  30.457  20.196  1.00  0.00     0.171 C 
HETATM   58  C19 UNL     1       4.946  29.287  20.754  1.00  0.00     0.129 C 
HETATM   59  C20 UNL     1       4.671  29.295  22.235  1.00  0.00     0.036 C 
BRANCH  56  60
HETATM   60  O7  UNL     1       4.602  30.905  17.930  1.00  0.00    -0.391 OA
ATOM     61  H7  UNL     1       5.056  31.593  18.403  1.00  0.00     0.210 HD
ENDBRANCH  56  60
BRANCH  57  62
HETATM   62  O8  UNL     1       4.790  31.648  20.359  1.00  0.00    -0.391 OA
ATOM     63  H8  UNL     1       5.372  31.650  21.109  1.00  0.00     0.210 HD
ENDBRANCH  57  62
ENDBRANCH  41  54
BRANCH  47  64
HETATM   64  N13 UNL     1      -0.018  23.351  22.721  1.00  0.00    -0.233 N 
ATOM     65 2H13 UNL     1      -0.861  23.923  22.775  1.00  0.00     0.174 HD
ATOM     66 1H13 UNL     1      -0.058  22.383  23.038  1.00  0.00     0.174 HD
ENDBRANCH  47  64
BRANCH  49  67
HETATM   67  N15 UNL     1       2.107  21.770  22.509  1.00  0.00    -0.322 N 
ATOM     68 2H15 UNL     1       1.318  21.404  23.043  1.00  0.00     0.178 HD
ATOM     69 1H15 UNL     1       2.868  21.143  22.251  1.00  0.00     0.178 HD
ENDBRANCH  49  67
ENDBRANCH   1  40
TORSDOF 19
ENDMDL
MODEL 2
REMARK VINA RESULT: -7.126956559      3.621      6.539
REMARK  19 active torsions:
REMARK  status: ('A' for Active; 'I' for Inactive)
REMARK    1  A    between atoms: C2_2  and  O2_4 
REMARK    2  A    between atoms: O2_4  and  C3_5 
REMARK    3  A    between atoms: C3_5  and  C4_6 
REMARK    4  A    between atoms: C4_6  and  O3_7 
REMARK    5  A    between atoms: O3_7  and  C5_8 
REMARK    6  A    between atoms: C5_8  and  C7_10 
REMARK    7  A    between atoms: C7_10  and  O4_11 
REMARK    8  A    between atoms: C7_10  and  C8_13 
REMARK    9  A    between atoms: C7_10  and  N9_40 
REMARK   10  A    between atoms: C8_13  and  O5_14 
REMARK   11  A    between atoms: C8_13  and  C9_16 
REMARK   12  A    between atoms: C9_16  and  N1_17 
REMARK   13  A    between atoms: C10_18  and  N2_19 
REMARK   14  A    between atoms: N2_19  and  N3_21 
REMARK   15  A    between atoms: C15_41  and  N10_42 
REMARK   16  A    between atoms: C17_44  and  O7_45 
REMARK   17  A    between atoms: C18_47  and  O8_48 
REMARK   18  A    between atoms: C22_57  and  N13_58 
REMARK   19  A    between atoms: N14_61  and  N15_62 
ROOT
HETATM    1  C7  UNL     1       4.589  26.201  14.368  1.00  0.00     0.208 C 
ENDROOT
BRANCH   1   2
HETATM    2  C5  UNL     1       5.687  26.920  13.730  1.00  0.00     0.176 C 
HETATM    3  C6  UNL     1       5.871  28.370  14.282  1.00  0.00     0.044 C 
BRANCH   2   4
HETATM    4  O3  UNL     1       6.954  26.551  13.568  1.00  0.00    -0.379 OA
BRANCH   4   5
HETATM    5  C4  UNL     1       7.903  27.275  14.239  1.00  0.00     0.195 C 
BRANCH   5   6
HETATM    6  C3  UNL     1       8.970  26.306  14.717  1.00  0.00     0.205 C 
BRANCH   6   7
HETATM    7  O2  UNL     1       9.180  26.392  16.101  1.00  0.00    -0.320 OA
BRANCH   7   8
HETATM    8  C2  UNL     1       9.586  25.239  16.758  1.00  0.00     0.254 C 
HETATM    9  C1  UNL     1       9.586  25.158  18.235  1.00  0.00     0.126 C 
HETATM   10  O1  UNL     1       9.966  24.227  16.118  1.00  0.00    -0.266 OA
ENDBRANCH   7   8
ENDBRANCH   6   7
ENDBRANCH   5   6
ENDBRANCH   4   5
ENDBRANCH   2   4
ENDBRANCH   1   2
BRANCH   1  11
HETATM   11  O4  UNL     1       3.851  27.494  14.628  1.00  0.00    -0.365 OA
ATOM     12  H4  UNL     1       3.406  27.113  15.375  1.00  0.00     0.212 HD
ENDBRANCH   1  11
BRANCH   1  13
HETATM   13  C8  UNL     1       3.473  25.641  13.553  1.00  0.00     0.196 C 
BRANCH  13  14
HETATM   14  O5  UNL     1       3.440  24.210  13.628  1.00  0.00    -0.389 OA
ATOM     15  H5  UNL     1       2.981  23.916  14.406  1.00  0.00     0.210 HD
ENDBRANCH  13  14
BRANCH  13  16
HETATM   16  C9  UNL     1       2.066  25.982  13.734  1.00  0.00     0.186 C 
BRANCH  16  17
HETATM   17  N1  UNL     1       1.435  26.641  12.612  1.00  0.00    -0.161 N 
HETATM   18  C10 UNL     1       0.483  26.081  11.845  1.00  0.00     0.702 A 
HETATM   19  N5  UNL     1       0.133  26.967  10.895  1.00  0.00    -0.181 N 
HETATM   20  C11 UNL     1       0.852  28.087  11.047  1.00  0.00     0.162 A 
ATOM     21  H5  UNL     1      -0.569  26.810  10.172  1.00  0.00     0.184 HD
HETATM   22  C12 UNL     1       0.916  29.290  10.379  1.00  0.00     0.290 A 
HETATM   23  C14 UNL     1       1.691  27.898  12.142  1.00  0.00     0.172 A 
HETATM   24  O6  UNL     1       0.167  29.471   9.396  1.00  0.00    -0.265 OA
HETATM   25  N6  UNL     1       1.791  30.240  10.812  1.00  0.00    -0.154 N 
HETATM   26  C13 UNL     1       2.588  30.027  11.871  1.00  0.00     0.680 A 
ATOM     27  H6  UNL     1       1.842  31.132  10.321  1.00  0.00     0.187 HD
HETATM   28  N7  UNL     1       3.390  30.990  12.212  1.00  0.00    -0.234 N 
HETATM   29  N8  UNL     1       2.543  28.864  12.537  1.00  0.00    -0.174 N 
ATOM     30  H72 UNL     1       3.424  31.875  11.706  1.00  0.00     0.174 HD
ATOM     31  H71 UNL     1       3.996  30.828  13.017  1.00  0.00     0.174 HD
ATOM     32  H8  UNL     1       3.152  28.711  13.341  1.00  0.00     0.186 HD
BRANCH  18  33
HETATM   33  N2  UNL     1      -0.100  24.782  11.962  1.00  0.00    -0.118 N 
ATOM     34  H2  UNL     1      -1.116  24.693  11.978  1.00  0.00     0.207 HD
BRANCH  33  35
HETATM   35  N3  UNL     1       0.589  23.773  12.042  1.00  0.00    -0.235 N 
HETATM   36  N4  UNL     1       1.535  23.002  11.778  1.00  0.00    -0.330 N 
ATOM     37  H42 UNL     1       2.002  23.569  11.071  1.00  0.00     0.178 HD
ATOM     38  H41 UNL     1       2.109  22.161  11.844  1.00  0.00     0.178 HD
ATOM     39  H3  UNL     1       0.087  23.241  12.754  1.00  0.00     0.208 HD
ENDBRANCH  33  35
ENDBRANCH  18  33
ENDBRANCH  16  17
ENDBRANCH  13  16
ENDBRANCH   1  13
BRANCH   1  40
HETATM   40  N9  UNL     1       4.634  25.824  15.775  1.00  0.00    -0.137 N 
HETATM   41  C15 UNL     1       3.954  26.364  16.843  1.00  0.00     0.688 A 
HETATM   42  N11 UNL     1       4.305  25.696  18.007  1.00  0.00    -0.173 N 
HETATM   43  C21 UNL     1       5.174  24.769  17.673  1.00  0.00     0.168 A 
ATOM     44  H11 UNL     1       3.954  25.889  18.945  1.00  0.00     0.186 HD
HETATM   45  N12 UNL     1       5.809  23.857  18.419  1.00  0.00    -0.172 N 
HETATM   46  C24 UNL     1       5.400  24.822  16.294  1.00  0.00     0.146 A 
HETATM   47  C22 UNL     1       6.677  22.955  17.903  1.00  0.00     0.700 A 
ATOM     48  H12 UNL     1       5.629  23.839  19.424  1.00  0.00     0.186 HD
HETATM   49  N14 UNL     1       6.920  22.970  16.586  1.00  0.00    -0.075 N 
HETATM   50  C23 UNL     1       6.284  23.896  15.797  1.00  0.00     0.170 A 
HETATM   51  N16 UNL     1       6.547  23.825  14.584  1.00  0.00    -0.382 N 
ATOM     52 2H16 UNL     1       7.204  23.137  14.215  1.00  0.00     0.157 HD
ATOM     53 1H16 UNL     1       6.074  24.512  13.997  1.00  0.00     0.157 HD
BRANCH  41  54
HETATM   54  N10 UNL     1       3.013  27.406  16.872  1.00  0.00    -0.208 N 
HETATM   55  C16 UNL     1       1.578  27.285  16.761  1.00  0.00     0.176 C 
HETATM   56  C17 UNL     1       1.071  28.175  17.898  1.00  0.00     0.167 C 
HETATM   57  C18 UNL     1       2.233  29.033  18.268  1.00  0.00     0.171 C 
HETATM   58  C19 UNL     1       3.239  28.804  17.117  1.00  0.00     0.129 C 
HETATM   59  C20 UNL     1       4.583  29.123  17.719  1.00  0.00     0.036 C 
BRANCH  56  60
HETATM   60  O7  UNL     1      -0.006  28.938  17.517  1.00  0.00    -0.391 OA
ATOM     61  H7  UNL     1       0.018  29.807  17.898  1.00  0.00     0.210 HD
ENDBRANCH  56  60
BRANCH  57  62
HETATM   62  O8  UNL     1       1.919  30.379  18.353  1.00  0.00    -0.391 OA
ATOM     63  H8  UNL     1       2.540  30.880  18.869  1.00  0.00     0.210 HD
ENDBRANCH  57  62
ENDBRANCH  41  54
BRANCH  47  64
HETATM   64  N13 UNL     1       7.277  22.083  18.647  1.00  0.00    -0.233 N 
ATOM     65 2H13 UNL     1       8.253  22.231  18.901  1.00  0.00     0.174 HD
ATOM     66 1H13 UNL     1       6.798  21.251  18.990  1.00  0.00     0.174 HD
ENDBRANCH  47  64
BRANCH  49  67
HETATM   67  N15 UNL     1       7.808  22.051  16.044  1.00  0.00    -0.322 N 
ATOM     68 2H15 UNL     1       7.490  21.321  15.407  1.00  0.00     0.178 HD
ATOM     69 1H15 UNL     1       8.797  22.104  16.288  1.00  0.00     0.178 HD
ENDBRANCH  49  67
ENDBRANCH   1  40
TORSDOF 19
ENDMDL
MODEL 3
REMARK VINA RESULT: -7.080622948      4.252      6.866
REMARK  19 active torsions:
REMARK  status: ('A' for Active; 'I' for Inactive)
REMARK    1  A    between atoms: C2_2  and  O2_4 
REMARK    2  A    between atoms: O2_4  and  C3_5 
REMARK    3  A    between atoms: C3_5  and  C4_6 
REMARK    4  A    between atoms: C4_6  and  O3_7 
REMARK    5  A    between atoms: O3_7  and  C5_8 
REMARK    6  A    between atoms: C5_8  and  C7_10 
REMARK    7  A    between atoms: C7_10  and  O4_11 
REMARK    8  A    between atoms: C7_10  and  C8_13 
REMARK    9  A    between atoms: C7_10  and  N9_40 
REMARK   10  A    between atoms: C8_13  and  O5_14 
REMARK   11  A    between atoms: C8_13  and  C9_16 
REMARK   12  A    between atoms: C9_16  and  N1_17 
REMARK   13  A    between atoms: C10_18  and  N2_19 
REMARK   14  A    between atoms: N2_19  and  N3_21 
REMARK   15  A    between atoms: C15_41  and  N10_42 
REMARK   16  A    between atoms: C17_44  and  O7_45 
REMARK   17  A    between atoms: C18_47  and  O8_48 
REMARK   18  A    between atoms: C22_57  and  N13_58 
REMARK   19  A    between atoms: N14_61  and  N15_62 
ROOT
HETATM    1  C7  UNL     1       4.055  26.442  14.418  1.00  0.00     0.208 C 
ENDROOT
BRANCH   1   2
HETATM    2  C5  UNL     1       5.013  27.300  13.729  1.00  0.00     0.176 C 
HETATM    3  C6  UNL     1       5.082  28.742  14.325  1.00  0.00     0.044 C 
BRANCH   2   4
HETATM    4  O3  UNL     1       6.296  27.080  13.454  1.00  0.00    -0.379 OA
BRANCH   4   5
HETATM    5  C4  UNL     1       7.215  27.817  14.152  1.00  0.00     0.195 C 
BRANCH   5   6
HETATM    6  C3  UNL     1       8.444  26.948  14.357  1.00  0.00     0.205 C 
BRANCH   6   7
HETATM    7  O2  UNL     1       8.305  26.089  15.457  1.00  0.00    -0.320 OA
BRANCH   7   8
HETATM    8  C2  UNL     1       9.469  25.611  16.043  1.00  0.00     0.254 C 
HETATM    9  C1  UNL     1       9.528  25.306  17.490  1.00  0.00     0.126 C 
HETATM   10  O1  UNL     1      10.508  25.423  15.364  1.00  0.00    -0.266 OA
ENDBRANCH   7   8
ENDBRANCH   6   7
ENDBRANCH   5   6
ENDBRANCH   4   5
ENDBRANCH   2   4
ENDBRANCH   1   2
BRANCH   1  11
HETATM   11  O4  UNL     1       3.224  27.639  14.820  1.00  0.00    -0.365 OA
ATOM     12  H4  UNL     1       2.641  27.089  15.329  1.00  0.00     0.212 HD
ENDBRANCH   1  11
BRANCH   1  13
HETATM   13  C8  UNL     1       2.926  25.813  13.674  1.00  0.00     0.196 C 
BRANCH  13  14
HETATM   14  O5  UNL     1       3.404  24.937  12.646  1.00  0.00    -0.389 OA
ATOM     15  H5  UNL     1       2.802  24.904  11.913  1.00  0.00     0.210 HD
ENDBRANCH  13  14
BRANCH  13  16
HETATM   16  C9  UNL     1       1.879  25.007  14.291  1.00  0.00     0.186 C 
BRANCH  16  17
HETATM   17  N1  UNL     1       0.590  25.052  13.636  1.00  0.00    -0.161 N 
HETATM   18  C10 UNL     1       0.240  24.267  12.601  1.00  0.00     0.702 A 
HETATM   19  N5  UNL     1      -1.015  24.583  12.238  1.00  0.00    -0.181 N 
HETATM   20  C11 UNL     1      -1.472  25.563  13.030  1.00  0.00     0.162 A 
ATOM     21  H5  UNL     1      -1.538  24.146  11.479  1.00  0.00     0.184 HD
HETATM   22  C12 UNL     1      -2.654  26.264  13.112  1.00  0.00     0.290 A 
HETATM   23  C14 UNL     1      -0.458  25.877  13.931  1.00  0.00     0.172 A 
HETATM   24  O6  UNL     1      -3.571  25.992  12.309  1.00  0.00    -0.265 OA
HETATM   25  N6  UNL     1      -2.785  27.229  14.065  1.00  0.00    -0.154 N 
HETATM   26  C13 UNL     1      -1.789  27.508  14.920  1.00  0.00     0.680 A 
ATOM     27  H6  UNL     1      -3.659  27.751  14.130  1.00  0.00     0.187 HD
HETATM   28  N7  UNL     1      -2.003  28.444  15.795  1.00  0.00    -0.234 N 
HETATM   29  N8  UNL     1      -0.629  26.839  14.859  1.00  0.00    -0.174 N 
ATOM     30  H72 UNL     1      -2.886  28.953  15.842  1.00  0.00     0.174 HD
ATOM     31  H71 UNL     1      -1.246  28.656  16.445  1.00  0.00     0.174 HD
ATOM     32  H8  UNL     1       0.123  27.058  15.513  1.00  0.00     0.186 HD
BRANCH  18  33
HETATM   33  N2  UNL     1       1.015  23.255  11.954  1.00  0.00    -0.118 N 
ATOM     34  H2  UNL     1       1.967  23.471  11.659  1.00  0.00     0.207 HD
BRANCH  33  35
HETATM   35  N3  UNL     1       0.564  22.136  11.744  1.00  0.00    -0.235 N 
HETATM   36  N4  UNL     1       0.240  21.133  11.075  1.00  0.00    -0.330 N 
ATOM     37  H42 UNL     1       0.536  21.460  10.156  1.00  0.00     0.178 HD
ATOM     38  H41 UNL     1      -0.136  20.201  10.901  1.00  0.00     0.178 HD
ATOM     39  H3  UNL     1       0.283  21.852  12.684  1.00  0.00     0.208 HD
ENDBRANCH  33  35
ENDBRANCH  18  33
ENDBRANCH  16  17
ENDBRANCH  13  16
ENDBRANCH   1  13
BRANCH   1  40
HETATM   40  N9  UNL     1       4.269  26.002  15.791  1.00  0.00    -0.137 N 
HETATM   41  C15 UNL     1       3.709  26.477  16.955  1.00  0.00     0.688 A 
HETATM   42  N11 UNL     1       4.204  25.764  18.037  1.00  0.00    -0.173 N 
HETATM   43  C21 UNL     1       5.044  24.873  17.561  1.00  0.00     0.168 A 
ATOM     44  H11 UNL     1       3.961  25.906  19.018  1.00  0.00     0.186 HD
HETATM   45  N12 UNL     1       5.775  23.940  18.184  1.00  0.00    -0.172 N 
HETATM   46  C24 UNL     1       5.106  24.993  16.169  1.00  0.00     0.146 A 
HETATM   47  C22 UNL     1       6.592  23.083  17.528  1.00  0.00     0.700 A 
ATOM     48  H12 UNL     1       5.713  23.873  19.201  1.00  0.00     0.186 HD
HETATM   49  N14 UNL     1       6.680  23.163  16.195  1.00  0.00    -0.075 N 
HETATM   50  C23 UNL     1       5.941  24.110  15.530  1.00  0.00     0.170 A 
HETATM   51  N16 UNL     1       6.063  24.101  14.292  1.00  0.00    -0.382 N 
ATOM     52 2H16 UNL     1       6.684  23.445  13.817  1.00  0.00     0.157 HD
ATOM     53 1H16 UNL     1       5.514  24.804  13.798  1.00  0.00     0.157 HD
BRANCH  41  54
HETATM   54  N10 UNL     1       2.762  27.496  17.142  1.00  0.00    -0.208 N 
HETATM   55  C16 UNL     1       1.325  27.351  17.181  1.00  0.00     0.176 C 
HETATM   56  C17 UNL     1       0.932  28.169  18.414  1.00  0.00     0.167 C 
HETATM   57  C18 UNL     1       2.114  29.031  18.701  1.00  0.00     0.171 C 
HETATM   58  C19 UNL     1       2.991  28.883  17.437  1.00  0.00     0.129 C 
HETATM   59  C20 UNL     1       4.388  29.199  17.907  1.00  0.00     0.036 C 
BRANCH  56  60
HETATM   60  O7  UNL     1      -0.192  28.928  18.193  1.00  0.00    -0.391 OA
ATOM     61  H7  UNL     1      -0.036  29.626  17.569  1.00  0.00     0.210 HD
ENDBRANCH  56  60
BRANCH  57  62
HETATM   62  O8  UNL     1       1.791  30.364  18.894  1.00  0.00    -0.391 OA
ATOM     63  H8  UNL     1       1.612  30.583  19.800  1.00  0.00     0.210 HD
ENDBRANCH  57  62
ENDBRANCH  41  54
BRANCH  47  64
HETATM   64  N13 UNL     1       7.288  22.191  18.156  1.00  0.00    -0.233 N 
ATOM     65 2H13 UNL     1       6.846  21.313  18.426  1.00  0.00     0.174 HD
ATOM     66 1H13 UNL     1       8.270  22.342  18.388  1.00  0.00     0.174 HD
ENDBRANCH  47  64
BRANCH  49  67
HETATM   67  N15 UNL     1       7.514  22.289  15.510  1.00  0.00    -0.322 N 
ATOM     68 2H15 UNL     1       7.328  22.033  14.541  1.00  0.00     0.178 HD
ATOM     69 1H15 UNL     1       8.326  21.895  15.984  1.00  0.00     0.178 HD
ENDBRANCH  49  67
ENDBRANCH   1  40
TORSDOF 19
ENDMDL
MODEL 4
REMARK VINA RESULT: -7.061676839      0.889      1.011
REMARK  19 active torsions:
REMARK  status: ('A' for Active; 'I' for Inactive)
REMARK    1  A    between atoms: C2_2  and  O2_4 
REMARK    2  A    between atoms: O2_4  and  C3_5 
REMARK    3  A    between atoms: C3_5  and  C4_6 
REMARK    4  A    between atoms: C4_6  and  O3_7 
REMARK    5  A    between atoms: O3_7  and  C5_8 
REMARK    6  A    between atoms: C5_8  and  C7_10 
REMARK    7  A    between atoms: C7_10  and  O4_11 
REMARK    8  A    between atoms: C7_10  and  C8_13 
REMARK    9  A    between atoms: C7_10  and  N9_40 
REMARK   10  A    between atoms: C8_13  and  O5_14 
REMARK   11  A    between atoms: C8_13  and  C9_16 
REMARK   12  A    between atoms: C9_16  and  N1_17 
REMARK   13  A    between atoms: C10_18  and  N2_19 
REMARK   14  A    between atoms: N2_19  and  N3_21 
REMARK   15  A    between atoms: C15_41  and  N10_42 
REMARK   16  A    between atoms: C17_44  and  O7_45 
REMARK   17  A    between atoms: C18_47  and  O8_48 
REMARK   18  A    between atoms: C22_57  and  N13_58 
REMARK   19  A    between atoms: N14_61  and  N15_62 
ROOT
HETATM    1  C7  UNL     1       5.837  25.302  20.360  1.00  0.00     0.208 C 
ENDROOT
BRANCH   1   2
HETATM    2  C5  UNL     1       6.789  24.871  21.378  1.00  0.00     0.176 C 
HETATM    3  C6  UNL     1       6.643  25.652  22.722  1.00  0.00     0.044 C 
BRANCH   2   4
HETATM    4  O3  UNL     1       7.046  23.645  21.827  1.00  0.00    -0.379 OA
BRANCH   4   5
HETATM    5  C4  UNL     1       8.109  22.988  21.266  1.00  0.00     0.195 C 
BRANCH   5   6
HETATM    6  C3  UNL     1       8.902  22.348  22.392  1.00  0.00     0.205 C 
BRANCH   6   7
HETATM    7  O2  UNL     1       9.384  23.298  23.304  1.00  0.00    -0.320 OA
BRANCH   7   8
HETATM    8  C2  UNL     1      10.322  24.208  22.840  1.00  0.00     0.254 C 
HETATM    9  C1  UNL     1      11.590  23.755  22.226  1.00  0.00     0.126 C 
HETATM   10  O1  UNL     1      10.125  25.446  22.925  1.00  0.00    -0.266 OA
ENDBRANCH   7   8
ENDBRANCH   6   7
ENDBRANCH   5   6
ENDBRANCH   4   5
ENDBRANCH   2   4
ENDBRANCH   1   2
BRANCH   1  11
HETATM   11  O4  UNL     1       6.383  26.710  20.400  1.00  0.00    -0.365 OA
ATOM     12  H4  UNL     1       6.195  26.778  21.328  1.00  0.00     0.212 HD
ENDBRANCH   1  11
BRANCH   1  13
HETATM   13  C8  UNL     1       6.149  25.142  18.911  1.00  0.00     0.196 C 
BRANCH  13  14
HETATM   14  O5  UNL     1       7.564  25.092  18.686  1.00  0.00    -0.389 OA
ATOM     15  H5  UNL     1       7.781  24.485  17.988  1.00  0.00     0.210 HD
ENDBRANCH  13  14
BRANCH  13  16
HETATM   16  C9  UNL     1       5.676  24.039  18.081  1.00  0.00     0.186 C 
BRANCH  16  17
HETATM   17  N1  UNL     1       6.096  24.076  16.697  1.00  0.00    -0.161 N 
HETATM   18  C10 UNL     1       6.967  23.210  16.149  1.00  0.00     0.702 A 
HETATM   19  N5  UNL     1       7.134  23.543  14.857  1.00  0.00    -0.181 N 
HETATM   20  C11 UNL     1       6.379  24.614  14.574  1.00  0.00     0.162 A 
ATOM     21  H5  UNL     1       7.741  23.058  14.196  1.00  0.00     0.184 HD
HETATM   22  C12 UNL     1       6.162  25.369  13.443  1.00  0.00     0.290 A 
HETATM   23  C14 UNL     1       5.706  24.969  15.740  1.00  0.00     0.172 A 
HETATM   24  O6  UNL     1       6.759  25.059  12.390  1.00  0.00    -0.265 OA
HETATM   25  N6  UNL     1       5.305  26.426  13.509  1.00  0.00    -0.154 N 
HETATM   26  C13 UNL     1       4.671  26.743  14.648  1.00  0.00     0.680 A 
ATOM     27  H6  UNL     1       5.141  26.988  12.673  1.00  0.00     0.187 HD
HETATM   28  N7  UNL     1       3.873  27.767  14.617  1.00  0.00    -0.234 N 
HETATM   29  N8  UNL     1       4.867  26.022  15.762  1.00  0.00    -0.174 N 
ATOM     30  H72 UNL     1       3.724  28.315  13.770  1.00  0.00     0.174 HD
ATOM     31  H71 UNL     1       3.391  28.008  15.484  1.00  0.00     0.174 HD
ATOM     32  H8  UNL     1       4.381  26.271  16.624  1.00  0.00     0.186 HD
BRANCH  18  33
HETATM   33  N2  UNL     1       7.633  22.109  16.769  1.00  0.00    -0.118 N 
ATOM     34  H2  UNL     1       7.240  21.173  16.675  1.00  0.00     0.207 HD
BRANCH  33  35
HETATM   35  N3  UNL     1       8.665  22.261  17.411  1.00  0.00    -0.235 N 
HETATM   36  N4  UNL     1       9.617  22.882  17.928  1.00  0.00    -0.330 N 
ATOM     37  H42 UNL     1       9.372  23.822  17.621  1.00  0.00     0.178 HD
ATOM     38  H41 UNL     1      10.477  23.008  18.463  1.00  0.00     0.178 HD
ATOM     39  H3  UNL     1       8.870  21.302  17.695  1.00  0.00     0.208 HD
ENDBRANCH  33  35
ENDBRANCH  18  33
ENDBRANCH  16  17
ENDBRANCH  13  16
ENDBRANCH   1  13
BRANCH   1  40
HETATM   40  N9  UNL     1       4.480  25.709  20.703  1.00  0.00    -0.137 N 
HETATM   41  C15 UNL     1       3.884  26.943  20.577  1.00  0.00     0.688 A 
HETATM   42  N11 UNL     1       2.575  26.879  21.033  1.00  0.00    -0.173 N 
HETATM   43  C21 UNL     1       2.364  25.644  21.427  1.00  0.00     0.168 A 
ATOM     44  H11 UNL     1       1.904  27.646  21.056  1.00  0.00     0.186 HD
HETATM   45  N12 UNL     1       1.270  25.064  21.937  1.00  0.00    -0.172 N 
HETATM   46  C24 UNL     1       3.527  24.891  21.235  1.00  0.00     0.146 A 
HETATM   47  C22 UNL     1       1.221  23.756  22.284  1.00  0.00     0.700 A 
ATOM     48  H12 UNL     1       0.434  25.634  22.069  1.00  0.00     0.186 HD
HETATM   49  N14 UNL     1       2.313  22.999  22.115  1.00  0.00    -0.075 N 
HETATM   50  C23 UNL     1       3.449  23.568  21.594  1.00  0.00     0.170 A 
HETATM   51  N16 UNL     1       4.409  22.791  21.448  1.00  0.00    -0.382 N 
ATOM     52 2H16 UNL     1       4.351  21.808  21.715  1.00  0.00     0.157 HD
ATOM     53 1H16 UNL     1       5.253  23.213  21.061  1.00  0.00     0.157 HD
BRANCH  41  54
HETATM   54  N10 UNL     1       4.404  28.141  20.063  1.00  0.00    -0.208 N 
HETATM   55  C16 UNL     1       4.347  28.598  18.693  1.00  0.00     0.176 C 
HETATM   56  C17 UNL     1       3.897  30.054  18.837  1.00  0.00     0.167 C 
HETATM   57  C18 UNL     1       4.149  30.400  20.264  1.00  0.00     0.171 C 
HETATM   58  C19 UNL     1       5.015  29.227  20.779  1.00  0.00     0.129 C 
HETATM   59  C20 UNL     1       4.779  29.206  22.267  1.00  0.00     0.036 C 
BRANCH  56  60
HETATM   60  O7  UNL     1       4.587  30.893  17.995  1.00  0.00    -0.391 OA
ATOM     61  H7  UNL     1       4.216  30.905  17.120  1.00  0.00     0.210 HD
ENDBRANCH  56  60
BRANCH  57  62
HETATM   62  O8  UNL     1       4.832  31.593  20.431  1.00  0.00    -0.391 OA
ATOM     63  H8  UNL     1       5.308  31.646  21.251  1.00  0.00     0.210 HD
ENDBRANCH  57  62
ENDBRANCH  41  54
BRANCH  47  64
HETATM   64  N13 UNL     1       0.151  23.221  22.775  1.00  0.00    -0.233 N 
ATOM     65 2H13 UNL     1      -0.174  23.510  23.697  1.00  0.00     0.174 HD
ATOM     66 1H13 UNL     1      -0.380  22.517  22.263  1.00  0.00     0.174 HD
ENDBRANCH  47  64
BRANCH  49  67
HETATM   67  N15 UNL     1       2.276  21.657  22.466  1.00  0.00    -0.322 N 
ATOM     68 2H15 UNL     1       1.663  21.322  23.209  1.00  0.00     0.178 HD
ATOM     69 1H15 UNL     1       2.874  20.993  21.975  1.00  0.00     0.178 HD
ENDBRANCH  49  67
ENDBRANCH   1  40
TORSDOF 19
ENDMDL
MODEL 5
REMARK VINA RESULT: -7.009828619      3.581      8.279
REMARK  19 active torsions:
REMARK  status: ('A' for Active; 'I' for Inactive)
REMARK    1  A    between atoms: C2_2  and  O2_4 
REMARK    2  A    between atoms: O2_4  and  C3_5 
REMARK    3  A    between atoms: C3_5  and  C4_6 
REMARK    4  A    between atoms: C4_6  and  O3_7 
REMARK    5  A    between atoms: O3_7  and  C5_8 
REMARK    6  A    between atoms: C5_8  and  C7_10 
REMARK    7  A    between atoms: C7_10  and  O4_11 
REMARK    8  A    between atoms: C7_10  and  C8_13 
REMARK    9  A    between atoms: C7_10  and  N9_40 
REMARK   10  A    between atoms: C8_13  and  O5_14 
REMARK   11  A    between atoms: C8_13  and  C9_16 
REMARK   12  A    between atoms: C9_16  and  N1_17 
REMARK   13  A    between atoms: C10_18  and  N2_19 
REMARK   14  A    between atoms: N2_19  and  N3_21 
REMARK   15  A    between atoms: C15_41  and  N10_42 
REMARK   16  A    between atoms: C17_44  and  O7_45 
REMARK   17  A    between atoms: C18_47  and  O8_48 
REMARK   18  A    between atoms: C22_57  and  N13_58 
REMARK   19  A    between atoms: N14_61  and  N15_62 
ROOT
HETATM    1  C7  UNL     1       4.136  26.739  14.400  1.00  0.00     0.208 C 
ENDROOT
BRANCH   1   2
HETATM    2  C5  UNL     1       5.455  26.290  13.968  1.00  0.00     0.176 C 
HETATM    3  C6  UNL     1       5.397  25.070  12.994  1.00  0.00     0.044 C 
BRANCH   2   4
HETATM    4  O3  UNL     1       6.450  26.991  13.432  1.00  0.00    -0.379 OA
BRANCH   4   5
HETATM    5  C4  UNL     1       7.553  27.203  14.215  1.00  0.00     0.195 C 
BRANCH   5   6
HETATM    6  C3  UNL     1       8.131  25.846  14.575  1.00  0.00     0.205 C 
BRANCH   6   7
HETATM    7  O2  UNL     1       8.088  25.604  15.956  1.00  0.00    -0.320 OA
BRANCH   7   8
HETATM    8  C2  UNL     1       9.301  25.457  16.615  1.00  0.00     0.254 C 
HETATM    9  C1  UNL     1      10.539  25.124  15.876  1.00  0.00     0.126 C 
HETATM   10  O1  UNL     1       9.386  25.604  17.860  1.00  0.00    -0.266 OA
ENDBRANCH   7   8
ENDBRANCH   6   7
ENDBRANCH   5   6
ENDBRANCH   4   5
ENDBRANCH   2   4
ENDBRANCH   1   2
BRANCH   1  11
HETATM   11  O4  UNL     1       3.663  25.311  14.545  1.00  0.00    -0.365 OA
ATOM     12  H4  UNL     1       3.487  25.441  15.469  1.00  0.00     0.212 HD
ENDBRANCH   1  11
BRANCH   1  13
HETATM   13  C8  UNL     1       3.872  27.051  15.834  1.00  0.00     0.196 C 
BRANCH  13  14
HETATM   14  O5  UNL     1       2.778  27.967  15.975  1.00  0.00    -0.389 OA
ATOM     15  H5  UNL     1       3.076  28.816  16.276  1.00  0.00     0.210 HD
ENDBRANCH  13  14
BRANCH  13  16
HETATM   16  C9  UNL     1       3.560  26.054  16.852  1.00  0.00     0.186 C 
BRANCH  16  17
HETATM   17  N1  UNL     1       4.652  25.699  17.733  1.00  0.00    -0.161 N 
HETATM   18  C10 UNL     1       5.501  24.681  17.510  1.00  0.00     0.702 A 
HETATM   19  N5  UNL     1       6.378  24.634  18.529  1.00  0.00    -0.181 N 
HETATM   20  C11 UNL     1       6.096  25.611  19.402  1.00  0.00     0.162 A 
ATOM     21  H5  UNL     1       7.137  23.960  18.623  1.00  0.00     0.184 HD
HETATM   22  C12 UNL     1       6.642  26.024  20.597  1.00  0.00     0.290 A 
HETATM   23  C14 UNL     1       4.994  26.305  18.909  1.00  0.00     0.172 A 
HETATM   24  O6  UNL     1       7.632  25.410  21.048  1.00  0.00    -0.265 OA
HETATM   25  N6  UNL     1       6.087  27.086  21.244  1.00  0.00    -0.154 N 
HETATM   26  C13 UNL     1       5.024  27.734  20.743  1.00  0.00     0.680 A 
ATOM     27  H6  UNL     1       6.488  27.396  22.130  1.00  0.00     0.187 HD
HETATM   28  N7  UNL     1       4.562  28.735  21.430  1.00  0.00    -0.234 N 
HETATM   29  N8  UNL     1       4.475  27.350  19.582  1.00  0.00    -0.174 N 
ATOM     30  H72 UNL     1       4.980  29.028  22.314  1.00  0.00     0.174 HD
ATOM     31  H71 UNL     1       3.754  29.228  21.049  1.00  0.00     0.174 HD
ATOM     32  H8  UNL     1       3.668  27.849  19.208  1.00  0.00     0.186 HD
BRANCH  18  33
HETATM   33  N2  UNL     1       5.528  23.772  16.408  1.00  0.00    -0.118 N 
ATOM     34  H2  UNL     1       4.740  23.753  15.761  1.00  0.00     0.207 HD
BRANCH  33  35
HETATM   35  N3  UNL     1       6.472  23.017  16.220  1.00  0.00    -0.235 N 
HETATM   36  N4  UNL     1       7.423  22.495  15.601  1.00  0.00    -0.330 N 
ATOM     37  H42 UNL     1       7.357  23.033  14.738  1.00  0.00     0.178 HD
ATOM     38  H41 UNL     1       8.210  21.865  15.445  1.00  0.00     0.178 HD
ATOM     39  H3  UNL     1       6.500  22.504  17.103  1.00  0.00     0.208 HD
ENDBRANCH  33  35
ENDBRANCH  18  33
ENDBRANCH  16  17
ENDBRANCH  13  16
ENDBRANCH   1  13
BRANCH   1  40
HETATM   40  N9  UNL     1       3.095  27.094  13.444  1.00  0.00    -0.137 N 
HETATM   41  C15 UNL     1       1.935  26.424  13.131  1.00  0.00     0.688 A 
HETATM   42  N11 UNL     1       1.238  27.124  12.157  1.00  0.00    -0.173 N 
HETATM   43  C21 UNL     1       1.941  28.197  11.875  1.00  0.00     0.168 A 
ATOM     44  H11 UNL     1       0.346  26.856  11.740  1.00  0.00     0.186 HD
HETATM   45  N12 UNL     1       1.705  29.196  11.016  1.00  0.00    -0.172 N 
HETATM   46  C24 UNL     1       3.101  28.209  12.658  1.00  0.00     0.146 A 
HETATM   47  C22 UNL     1       2.544  30.247  10.857  1.00  0.00     0.700 A 
ATOM     48  H12 UNL     1       0.853  29.164  10.455  1.00  0.00     0.186 HD
HETATM   49  N14 UNL     1       3.665  30.298  11.588  1.00  0.00    -0.075 N 
HETATM   50  C23 UNL     1       3.932  29.286  12.477  1.00  0.00     0.170 A 
HETATM   51  N16 UNL     1       4.980  29.423  13.132  1.00  0.00    -0.382 N 
ATOM     52 2H16 UNL     1       5.598  30.224  12.998  1.00  0.00     0.157 HD
ATOM     53 1H16 UNL     1       5.179  28.672  13.793  1.00  0.00     0.157 HD
BRANCH  41  54
HETATM   54  N10 UNL     1       1.419  25.230  13.660  1.00  0.00    -0.208 N 
HETATM   55  C16 UNL     1       0.461  25.097  14.733  1.00  0.00     0.176 C 
HETATM   56  C17 UNL     1      -0.535  24.076  14.177  1.00  0.00     0.167 C 
HETATM   57  C18 UNL     1       0.171  23.424  13.039  1.00  0.00     0.171 C 
HETATM   58  C19 UNL     1       1.637  23.885  13.204  1.00  0.00     0.129 C 
HETATM   59  C20 UNL     1       2.225  23.783  11.820  1.00  0.00     0.036 C 
BRANCH  56  60
HETATM   60  O7  UNL     1      -0.910  23.152  15.122  1.00  0.00    -0.391 OA
ATOM     61  H7  UNL     1      -1.562  23.497  15.721  1.00  0.00     0.210 HD
ENDBRANCH  56  60
BRANCH  57  62
HETATM   62  O8  UNL     1       0.110  22.041  13.070  1.00  0.00    -0.391 OA
ATOM     63  H8  UNL     1       0.727  21.621  12.483  1.00  0.00     0.210 HD
ENDBRANCH  57  62
ENDBRANCH  41  54
BRANCH  47  64
HETATM   64  N13 UNL     1       2.292  31.199  10.019  1.00  0.00    -0.233 N 
ATOM     65 2H13 UNL     1       1.698  31.976  10.310  1.00  0.00     0.174 HD
ATOM     66 1H13 UNL     1       2.672  31.196   9.073  1.00  0.00     0.174 HD
ENDBRANCH  47  64
BRANCH  49  67
HETATM   67  N15 UNL     1       4.533  31.370  11.435  1.00  0.00    -0.322 N 
ATOM     68 2H15 UNL     1       4.930  31.848  12.244  1.00  0.00     0.178 HD
ATOM     69 1H15 UNL     1       4.779  31.688  10.498  1.00  0.00     0.178 HD
ENDBRANCH  49  67
ENDBRANCH   1  40
TORSDOF 19
ENDMDL
