MODEL 1
REMARK VINA RESULT: -9.552352664      0.000      0.000
REMARK  20 active torsions:
REMARK  status: ('A' for Active; 'I' for Inactive)
REMARK    1  A    between atoms: C2_2  and  C4_4 
REMARK    2  A    between atoms: C2_2  and  O2_7 
REMARK    3  A    between atoms: C4_4  and  O1_5 
REMARK    4  A    between atoms: O2_7  and  N1_8 
REMARK       I    between atoms: N1_8  and  C5_10 
REMARK    5  A    between atoms: C5_10  and  C6_12 
REMARK    6  A    between atoms: N3_15  and  C7_16 
REMARK    7  A    between atoms: C8_18  and  S1_19 
REMARK    8  A    between atoms: S1_19  and  C9_20 
REMARK    9  A    between atoms: C9_20  and  C10_21 
REMARK   10  A    between atoms: N4_23  and  C12_24 
REMARK   11  A    between atoms: C12_24  and  C13_25 
REMARK   12  A    between atoms: C13_25  and  N5_26 
REMARK   13  A    between atoms: N5_26  and  C14_28 
REMARK   14  A    between atoms: C16_32  and  N7_33 
REMARK   15  A    between atoms: C17_38  and  N9_39 
REMARK   16  A    between atoms: C19_41  and  O5_42 
REMARK   17  A    between atoms: C20_44  and  O6_45 
REMARK   18  A    between atoms: C21_47  and  O7_48 
REMARK   19  A    between atoms: N11_54  and  O8_55 
REMARK   20  A    between atoms: C24_61  and  O9_62 
ROOT
HETATM    1  C13 UNL     1       5.193  26.852  14.256  1.00  0.00     0.160 C 
ENDROOT
BRANCH   1   2
HETATM    2  C12 UNL     1       6.404  26.007  13.955  1.00  0.00     0.170 C 
BRANCH   2   3
HETATM    3  N4  UNL     1       6.440  24.944  14.921  1.00  0.00    -0.286 N 
HETATM    4  C11 UNL     1       6.423  25.034  16.246  1.00  0.00     0.139 A 
HETATM    5  C10 UNL     1       6.479  23.742  16.736  1.00  0.00     0.054 A 
HETATM    6  N13 UNL     1       6.527  22.939  15.638  1.00  0.00    -0.288 N 
HETATM    7  N12 UNL     1       6.504  23.658  14.546  1.00  0.00    -0.241 N 
ATOM      8  H13 UNL     1       6.574  21.921  15.663  1.00  0.00     0.188 HD
ATOM      9  H12 UNL     1       6.530  23.307  13.589  1.00  0.00     0.208 HD
BRANCH   5  10
HETATM   10  C9  UNL     1       6.489  23.243  18.122  1.00  0.00     0.141 C 
BRANCH  10  11
HETATM   11  S1  UNL     1       7.588  24.158  19.216  1.00  0.00    -0.101 SA
BRANCH  11  12
HETATM   12  C8  UNL     1       9.139  23.366  19.513  1.00  0.00     0.131 A 
HETATM   13  N3  UNL     1       9.961  22.686  18.709  1.00  0.00    -0.221 N 
HETATM   14  N2  UNL     1      10.997  22.226  19.389  1.00  0.00    -0.283 N 
HETATM   15  C6  UNL     1      10.881  22.605  20.695  1.00  0.00     0.155 A 
ATOM     16  H2  UNL     1      11.762  21.676  18.999  1.00  0.00     0.188 HD
HETATM   17  C24 UNL     1       9.718  23.322  20.786  1.00  0.00     0.135 A 
BRANCH  13  18
HETATM   18  C7  UNL     1       9.775  22.496  17.319  1.00  0.00     0.377 C 
HETATM   19  O4  UNL     1       9.189  21.503  16.851  1.00  0.00    -0.281 OA
ENDBRANCH  13  18
BRANCH  15  20
HETATM   20  C5  UNL     1      11.869  22.251  21.706  1.00  0.00     0.296 C 
HETATM   21  N1  UNL     1      12.839  21.251  21.483  1.00  0.00    -0.228 N 
ATOM     22  H1  UNL     1      12.861  20.753  20.594  1.00  0.00     0.198 HD
HETATM   23  O3  UNL     1      11.865  22.848  22.809  1.00  0.00    -0.264 OA
BRANCH  21  24
HETATM   24  O2  UNL     1      13.745  20.949  22.452  1.00  0.00    -0.265 OA
BRANCH  24  25
HETATM   25  C2  UNL     1      14.807  20.202  22.019  1.00  0.00     0.103 C 
HETATM   26  C1  UNL     1      15.249  19.149  23.003  1.00  0.00     0.050 C 
HETATM   27  C3  UNL     1      15.941  21.117  21.624  1.00  0.00     0.050 C 
BRANCH  25  28
HETATM   28  C4  UNL     1      14.323  19.443  20.775  1.00  0.00     0.203 C 
BRANCH  28  29
HETATM   29  O1  UNL     1      14.432  18.090  21.011  1.00  0.00    -0.398 OA
ATOM     30  H1  UNL     1      13.611  17.672  20.778  1.00  0.00     0.209 HD
ENDBRANCH  28  29
ENDBRANCH  25  28
ENDBRANCH  24  25
ENDBRANCH  21  24
ENDBRANCH  15  20
BRANCH  17  31
HETATM   31  O9  UNL     1       9.214  23.897  21.941  1.00  0.00    -0.356 OA
ATOM     32  H9  UNL     1       8.301  23.904  22.201  1.00  0.00     0.218 HD
ENDBRANCH  17  31
ENDBRANCH  11  12
ENDBRANCH  10  11
ENDBRANCH   5  10
ENDBRANCH   2   3
ENDBRANCH   1   2
BRANCH   1  33
HETATM   33  N5  UNL     1       4.206  26.631  13.258  1.00  0.00    -0.222 N 
ATOM     34  H5  UNL     1       4.199  27.282  12.474  1.00  0.00     0.177 HD
BRANCH  33  35
HETATM   35  C14 UNL     1       3.322  25.695  13.236  1.00  0.00     0.707 A 
HETATM   36  N6  UNL     1       2.107  25.833  13.819  1.00  0.00    -0.182 N 
HETATM   37  C15 UNL     1       1.392  24.712  13.644  1.00  0.00     0.140 A 
ATOM     38  H6  UNL     1       1.785  26.664  14.316  1.00  0.00     0.184 HD
HETATM   39  C16 UNL     1       0.134  24.277  14.000  1.00  0.00     0.146 A 
HETATM   40  C23 UNL     1       2.169  23.833  12.930  1.00  0.00     0.197 A 
HETATM   41  N8  UNL     1      -0.301  23.058  13.662  1.00  0.00    -0.175 N 
HETATM   42  C17 UNL     1       0.460  22.173  12.951  1.00  0.00     0.683 A 
ATOM     43  H8  UNL     1      -1.239  22.777  13.946  1.00  0.00     0.186 HD
HETATM   44  N10 UNL     1       1.684  22.601  12.608  1.00  0.00    -0.171 N 
ATOM     45  H10 UNL     1       2.285  21.971  12.077  1.00  0.00     0.186 HD
HETATM   46  N11 UNL     1       3.332  24.470  12.703  1.00  0.00    -0.033 N 
BRANCH  39  47
HETATM   47  N7  UNL     1      -0.615  25.107  14.681  1.00  0.00    -0.383 N 
ATOM     48  H72 UNL     1      -1.001  25.950  14.256  1.00  0.00     0.157 HD
ATOM     49  H71 UNL     1      -0.798  24.875  15.657  1.00  0.00     0.157 HD
ENDBRANCH  39  47
BRANCH  42  50
HETATM   50  N9  UNL     1      -0.055  20.889  12.621  1.00  0.00    -0.212 N 
HETATM   51  C18 UNL     1      -0.789  20.056  13.535  1.00  0.00     0.175 C 
HETATM   52  C19 UNL     1      -0.403  18.595  13.481  1.00  0.00     0.167 C 
HETATM   53  C20 UNL     1      -0.313  18.087  12.084  1.00  0.00     0.178 C 
HETATM   54  C21 UNL     1      -0.679  19.130  11.054  1.00  0.00     0.167 C 
HETATM   55  C22 UNL     1       0.167  20.387  11.279  1.00  0.00     0.175 C 
BRANCH  52  56
HETATM   56  O5  UNL     1      -1.426  17.899  14.121  1.00  0.00    -0.391 OA
ATOM     57  H5  UNL     1      -1.796  17.314  13.469  1.00  0.00     0.210 HD
ENDBRANCH  52  56
BRANCH  53  58
HETATM   58  O6  UNL     1      -1.084  16.953  11.870  1.00  0.00    -0.390 OA
ATOM     59  H6  UNL     1      -1.126  16.700  10.955  1.00  0.00     0.210 HD
ENDBRANCH  53  58
BRANCH  54  60
HETATM   60  O7  UNL     1      -0.344  18.617   9.809  1.00  0.00    -0.391 OA
ATOM     61  H7  UNL     1      -1.104  18.151   9.481  1.00  0.00     0.210 HD
ENDBRANCH  54  60
ENDBRANCH  42  50
BRANCH  46  62
HETATM   62  O8  UNL     1       4.380  23.922  12.010  1.00  0.00    -0.268 OA
ATOM     63  H8  UNL     1       5.152  23.535  12.406  1.00  0.00     0.246 HD
ENDBRANCH  46  62
ENDBRANCH  33  35
ENDBRANCH   1  33
TORSDOF 20
ENDMDL
MODEL 2
REMARK VINA RESULT: -9.455136191      8.781     13.561
REMARK  20 active torsions:
REMARK  status: ('A' for Active; 'I' for Inactive)
REMARK    1  A    between atoms: C2_2  and  C4_4 
REMARK    2  A    between atoms: C2_2  and  O2_7 
REMARK    3  A    between atoms: C4_4  and  O1_5 
REMARK    4  A    between atoms: O2_7  and  N1_8 
REMARK       I    between atoms: N1_8  and  C5_10 
REMARK    5  A    between atoms: C5_10  and  C6_12 
REMARK    6  A    between atoms: N3_15  and  C7_16 
REMARK    7  A    between atoms: C8_18  and  S1_19 
REMARK    8  A    between atoms: S1_19  and  C9_20 
REMARK    9  A    between atoms: C9_20  and  C10_21 
REMARK   10  A    between atoms: N4_23  and  C12_24 
REMARK   11  A    between atoms: C12_24  and  C13_25 
REMARK   12  A    between atoms: C13_25  and  N5_26 
REMARK   13  A    between atoms: N5_26  and  C14_28 
REMARK   14  A    between atoms: C16_32  and  N7_33 
REMARK   15  A    between atoms: C17_38  and  N9_39 
REMARK   16  A    between atoms: C19_41  and  O5_42 
REMARK   17  A    between atoms: C20_44  and  O6_45 
REMARK   18  A    between atoms: C21_47  and  O7_48 
REMARK   19  A    between atoms: N11_54  and  O8_55 
REMARK   20  A    between atoms: C24_61  and  O9_62 
ROOT
HETATM    1  C13 UNL     1      15.931  18.262  26.645  1.00  0.00     0.160 C 
ENDROOT
BRANCH   1   2
HETATM    2  C12 UNL     1      14.755  17.395  26.273  1.00  0.00     0.170 C 
BRANCH   2   3
HETATM    3  N4  UNL     1      13.580  17.989  26.849  1.00  0.00    -0.286 N 
HETATM    4  C11 UNL     1      12.311  17.635  26.678  1.00  0.00     0.139 A 
HETATM    5  C10 UNL     1      11.547  18.506  27.433  1.00  0.00     0.054 A 
HETATM    6  N13 UNL     1      12.438  19.349  28.026  1.00  0.00    -0.288 N 
HETATM    7  N12 UNL     1      13.660  19.041  27.677  1.00  0.00    -0.241 N 
ATOM      8  H13 UNL     1      12.187  20.112  28.654  1.00  0.00     0.188 HD
ATOM      9  H12 UNL     1      14.513  19.512  27.977  1.00  0.00     0.208 HD
BRANCH   5  10
HETATM   10  C9  UNL     1      10.088  18.585  27.622  1.00  0.00     0.141 C 
BRANCH  10  11
HETATM   11  S1  UNL     1       9.226  19.411  26.274  1.00  0.00    -0.101 SA
BRANCH  11  12
HETATM   12  C8  UNL     1       9.101  21.164  26.461  1.00  0.00     0.131 A 
HETATM   13  N3  UNL     1       9.188  21.955  27.534  1.00  0.00    -0.221 N 
HETATM   14  N2  UNL     1       8.977  23.215  27.197  1.00  0.00    -0.283 N 
HETATM   15  C6  UNL     1       8.740  23.289  25.855  1.00  0.00     0.155 A 
ATOM     16  H2  UNL     1       8.990  24.007  27.839  1.00  0.00     0.188 HD
HETATM   17  C24 UNL     1       8.816  22.007  25.381  1.00  0.00     0.135 A 
BRANCH  13  18
HETATM   18  C7  UNL     1       9.488  21.522  28.847  1.00  0.00     0.377 C 
HETATM   19  O4  UNL     1      10.644  21.526  29.307  1.00  0.00    -0.281 OA
ENDBRANCH  13  18
BRANCH  15  20
HETATM   20  C5  UNL     1       8.470  24.547  25.173  1.00  0.00     0.296 C 
HETATM   21  N1  UNL     1       7.474  24.659  24.180  1.00  0.00    -0.228 N 
ATOM     22  H1  UNL     1       6.920  23.843  23.921  1.00  0.00     0.198 HD
HETATM   23  O3  UNL     1       9.136  25.567  25.472  1.00  0.00    -0.264 OA
BRANCH  21  24
HETATM   24  O2  UNL     1       7.252  25.852  23.566  1.00  0.00    -0.265 OA
BRANCH  24  25
HETATM   25  C2  UNL     1       6.145  25.876  22.761  1.00  0.00     0.103 C 
HETATM   26  C1  UNL     1       4.852  26.066  23.513  1.00  0.00     0.050 C 
HETATM   27  C3  UNL     1       6.120  24.636  21.899  1.00  0.00     0.050 C 
BRANCH  25  28
HETATM   28  C4  UNL     1       6.295  27.108  21.857  1.00  0.00     0.203 C 
BRANCH  28  29
HETATM   29  O1  UNL     1       7.618  27.230  21.491  1.00  0.00    -0.398 OA
ATOM     30  H1  UNL     1       7.680  27.848  20.773  1.00  0.00     0.209 HD
ENDBRANCH  28  29
ENDBRANCH  25  28
ENDBRANCH  24  25
ENDBRANCH  21  24
ENDBRANCH  15  20
BRANCH  17  31
HETATM   31  O9  UNL     1       8.638  21.624  24.061  1.00  0.00    -0.356 OA
ATOM     32  H9  UNL     1       7.916  21.103  23.730  1.00  0.00     0.218 HD
ENDBRANCH  17  31
ENDBRANCH  11  12
ENDBRANCH  10  11
ENDBRANCH   5  10
ENDBRANCH   2   3
ENDBRANCH   1   2
BRANCH   1  33
HETATM   33  N5  UNL     1      16.299  19.058  25.527  1.00  0.00    -0.222 N 
ATOM     34  H5  UNL     1      17.296  19.230  25.400  1.00  0.00     0.177 HD
BRANCH  33  35
HETATM   35  C14 UNL     1      15.509  19.583  24.656  1.00  0.00     0.707 A 
HETATM   36  N6  UNL     1      15.524  19.220  23.351  1.00  0.00    -0.182 N 
HETATM   37  C15 UNL     1      14.603  19.923  22.676  1.00  0.00     0.140 A 
ATOM     38  H6  UNL     1      16.143  18.518  22.944  1.00  0.00     0.184 HD
HETATM   39  C16 UNL     1      14.174  19.988  21.368  1.00  0.00     0.146 A 
HETATM   40  C23 UNL     1      13.981  20.759  23.572  1.00  0.00     0.197 A 
HETATM   41  N8  UNL     1      13.198  20.826  20.999  1.00  0.00    -0.175 N 
HETATM   42  C17 UNL     1      12.569  21.661  21.879  1.00  0.00     0.683 A 
ATOM     43  H8  UNL     1      12.911  20.841  20.020  1.00  0.00     0.186 HD
HETATM   44  N10 UNL     1      12.992  21.595  23.150  1.00  0.00    -0.171 N 
ATOM     45  H10 UNL     1      12.549  22.203  23.838  1.00  0.00     0.186 HD
HETATM   46  N11 UNL     1      14.561  20.519  24.761  1.00  0.00    -0.033 N 
BRANCH  39  47
HETATM   47  N7  UNL     1      14.760  19.197  20.506  1.00  0.00    -0.383 N 
ATOM     48  H72 UNL     1      15.492  18.546  20.790  1.00  0.00     0.157 HD
ATOM     49  H71 UNL     1      14.454  19.258  19.535  1.00  0.00     0.157 HD
ENDBRANCH  39  47
BRANCH  42  50
HETATM   50  N9  UNL     1      11.538  22.532  21.427  1.00  0.00    -0.212 N 
HETATM   51  C18 UNL     1      10.717  22.278  20.275  1.00  0.00     0.175 C 
HETATM   52  C19 UNL     1      10.479  23.495  19.410  1.00  0.00     0.167 C 
HETATM   53  C20 UNL     1      10.104  24.693  20.212  1.00  0.00     0.178 C 
HETATM   54  C21 UNL     1       9.998  24.401  21.690  1.00  0.00     0.167 C 
HETATM   55  C22 UNL     1      11.296  23.750  22.176  1.00  0.00     0.175 C 
BRANCH  52  56
HETATM   56  O5  UNL     1       9.400  23.181  18.587  1.00  0.00    -0.391 OA
ATOM     57  H5  UNL     1       9.649  22.398  18.111  1.00  0.00     0.210 HD
ENDBRANCH  52  56
BRANCH  53  58
HETATM   58  O6  UNL     1       8.924  25.284  19.783  1.00  0.00    -0.390 OA
ATOM     59  H6  UNL     1       8.404  25.634  20.497  1.00  0.00     0.210 HD
ENDBRANCH  53  58
BRANCH  54  60
HETATM   60  O7  UNL     1       9.870  25.618  22.344  1.00  0.00    -0.391 OA
ATOM     61  H7  UNL     1       9.045  26.002  22.069  1.00  0.00     0.210 HD
ENDBRANCH  54  60
ENDBRANCH  42  50
BRANCH  46  62
HETATM   62  O8  UNL     1      14.212  21.158  25.923  1.00  0.00    -0.268 OA
ATOM     63  H8  UNL     1      13.342  21.480  26.128  1.00  0.00     0.246 HD
ENDBRANCH  46  62
ENDBRANCH  33  35
ENDBRANCH   1  33
TORSDOF 20
ENDMDL
MODEL 3
REMARK VINA RESULT: -9.140969809      3.490     12.989
REMARK  20 active torsions:
REMARK  status: ('A' for Active; 'I' for Inactive)
REMARK    1  A    between atoms: C2_2  and  C4_4 
REMARK    2  A    between atoms: C2_2  and  O2_7 
REMARK    3  A    between atoms: C4_4  and  O1_5 
REMARK    4  A    between atoms: O2_7  and  N1_8 
REMARK       I    between atoms: N1_8  and  C5_10 
REMARK    5  A    between atoms: C5_10  and  C6_12 
REMARK    6  A    between atoms: N3_15  and  C7_16 
REMARK    7  A    between atoms: C8_18  and  S1_19 
REMARK    8  A    between atoms: S1_19  and  C9_20 
REMARK    9  A    between atoms: C9_20  and  C10_21 
REMARK   10  A    between atoms: N4_23  and  C12_24 
REMARK   11  A    between atoms: C12_24  and  C13_25 
REMARK   12  A    between atoms: C13_25  and  N5_26 
REMARK   13  A    between atoms: N5_26  and  C14_28 
REMARK   14  A    between atoms: C16_32  and  N7_33 
REMARK   15  A    between atoms: C17_38  and  N9_39 
REMARK   16  A    between atoms: C19_41  and  O5_42 
REMARK   17  A    between atoms: C20_44  and  O6_45 
REMARK   18  A    between atoms: C21_47  and  O7_48 
REMARK   19  A    between atoms: N11_54  and  O8_55 
REMARK   20  A    between atoms: C24_61  and  O9_62 
ROOT
HETATM    1  C13 UNL     1       6.796  25.831  22.033  1.00  0.00     0.160 C 
ENDROOT
BRANCH   1   2
HETATM    2  C12 UNL     1       5.967  25.806  20.775  1.00  0.00     0.170 C 
BRANCH   2   3
HETATM    3  N4  UNL     1       6.219  24.555  20.114  1.00  0.00    -0.286 N 
HETATM    4  C11 UNL     1       6.595  24.350  18.857  1.00  0.00     0.139 A 
HETATM    5  C10 UNL     1       6.704  22.981  18.690  1.00  0.00     0.054 A 
HETATM    6  N13 UNL     1       6.377  22.441  19.897  1.00  0.00    -0.288 N 
HETATM    7  N12 UNL     1       6.085  23.385  20.754  1.00  0.00    -0.241 N 
ATOM      8  H13 UNL     1       6.362  21.443  20.103  1.00  0.00     0.188 HD
ATOM      9  H12 UNL     1       5.806  23.254  21.727  1.00  0.00     0.208 HD
BRANCH   5  10
HETATM   10  C9  UNL     1       7.085  22.187  17.509  1.00  0.00     0.141 C 
BRANCH  10  11
HETATM   11  S1  UNL     1       8.354  22.960  16.493  1.00  0.00    -0.101 SA
BRANCH  11  12
HETATM   12  C8  UNL     1       7.800  24.376  15.593  1.00  0.00     0.131 A 
HETATM   13  N3  UNL     1       8.365  25.565  15.365  1.00  0.00    -0.221 N 
HETATM   14  N2  UNL     1       7.548  26.339  14.674  1.00  0.00    -0.283 N 
HETATM   15  C6  UNL     1       6.391  25.661  14.420  1.00  0.00     0.155 A 
ATOM     16  H2  UNL     1       7.750  27.294  14.376  1.00  0.00     0.188 HD
HETATM   17  C24 UNL     1       6.538  24.425  14.992  1.00  0.00     0.135 A 
BRANCH  13  18
HETATM   18  C7  UNL     1       9.663  25.947  15.779  1.00  0.00     0.377 C 
HETATM   19  O4  UNL     1       9.985  26.039  16.978  1.00  0.00    -0.281 OA
ENDBRANCH  13  18
BRANCH  15  20
HETATM   20  C5  UNL     1       5.285  26.245  13.674  1.00  0.00     0.296 C 
HETATM   21  N1  UNL     1       4.047  25.584  13.535  1.00  0.00    -0.228 N 
ATOM     22  H1  UNL     1       3.907  24.670  13.964  1.00  0.00     0.198 HD
HETATM   23  O3  UNL     1       5.429  27.369  13.135  1.00  0.00    -0.264 OA
BRANCH  21  24
HETATM   24  O2  UNL     1       3.038  26.163  12.830  1.00  0.00    -0.265 OA
BRANCH  24  25
HETATM   25  C2  UNL     1       1.878  25.437  12.803  1.00  0.00     0.103 C 
HETATM   26  C1  UNL     1       0.879  25.926  11.785  1.00  0.00     0.050 C 
HETATM   27  C3  UNL     1       1.286  25.379  14.191  1.00  0.00     0.050 C 
BRANCH  25  28
HETATM   28  C4  UNL     1       2.268  24.017  12.367  1.00  0.00     0.203 C 
BRANCH  28  29
HETATM   29  O1  UNL     1       2.733  24.064  11.072  1.00  0.00    -0.398 OA
ATOM     30  H1  UNL     1       3.029  23.196  10.822  1.00  0.00     0.209 HD
ENDBRANCH  28  29
ENDBRANCH  25  28
ENDBRANCH  24  25
ENDBRANCH  21  24
ENDBRANCH  15  20
BRANCH  17  31
HETATM   31  O9  UNL     1       5.594  23.411  14.973  1.00  0.00    -0.356 OA
ATOM     32  H9  UNL     1       5.783  22.481  14.956  1.00  0.00     0.218 HD
ENDBRANCH  17  31
ENDBRANCH  11  12
ENDBRANCH  10  11
ENDBRANCH   5  10
ENDBRANCH   2   3
ENDBRANCH   1   2
BRANCH   1  33
HETATM   33  N5  UNL     1       8.164  25.998  21.689  1.00  0.00    -0.222 N 
ATOM     34  H5  UNL     1       8.442  26.925  21.368  1.00  0.00     0.177 HD
BRANCH  33  35
HETATM   35  C14 UNL     1       9.091  25.106  21.740  1.00  0.00     0.707 A 
HETATM   36  N6  UNL     1       9.426  24.347  20.668  1.00  0.00    -0.182 N 
HETATM   37  C15 UNL     1      10.416  23.506  21.002  1.00  0.00     0.140 A 
ATOM     38  H6  UNL     1       8.990  24.406  19.748  1.00  0.00     0.184 HD
HETATM   39  C16 UNL     1      11.142  22.530  20.355  1.00  0.00     0.146 A 
HETATM   40  C23 UNL     1      10.724  23.733  22.322  1.00  0.00     0.197 A 
HETATM   41  N8  UNL     1      12.100  21.843  20.989  1.00  0.00    -0.175 N 
HETATM   42  C17 UNL     1      12.418  22.057  22.301  1.00  0.00     0.683 A 
ATOM     43  H8  UNL     1      12.613  21.129  20.472  1.00  0.00     0.186 HD
HETATM   44  N10 UNL     1      11.707  23.008  22.925  1.00  0.00    -0.171 N 
ATOM     45  H10 UNL     1      11.913  23.199  23.906  1.00  0.00     0.186 HD
HETATM   46  N11 UNL     1       9.897  24.711  22.730  1.00  0.00    -0.033 N 
BRANCH  39  47
HETATM   47  N7  UNL     1      10.857  22.306  19.098  1.00  0.00    -0.383 N 
ATOM     48  H72 UNL     1       9.893  22.211  18.778  1.00  0.00     0.157 HD
ATOM     49  H71 UNL     1      11.640  22.229  18.449  1.00  0.00     0.157 HD
ENDBRANCH  39  47
BRANCH  42  50
HETATM   50  N9  UNL     1      13.445  21.294  22.922  1.00  0.00    -0.212 N 
HETATM   51  C18 UNL     1      14.691  20.954  22.290  1.00  0.00     0.175 C 
HETATM   52  C19 UNL     1      15.134  19.529  22.534  1.00  0.00     0.167 C 
HETATM   53  C20 UNL     1      15.016  19.138  23.966  1.00  0.00     0.178 C 
HETATM   54  C21 UNL     1      14.533  20.266  24.846  1.00  0.00     0.167 C 
HETATM   55  C22 UNL     1      13.226  20.831  24.280  1.00  0.00     0.175 C 
BRANCH  52  56
HETATM   56  O5  UNL     1      16.484  19.478  22.191  1.00  0.00    -0.391 OA
ATOM     57  H5  UNL     1      16.952  19.911  22.895  1.00  0.00     0.210 HD
ENDBRANCH  52  56
BRANCH  53  58
HETATM   58  O6  UNL     1      16.198  18.633  24.489  1.00  0.00    -0.390 OA
ATOM     59  H6  UNL     1      16.312  17.705  24.320  1.00  0.00     0.210 HD
ENDBRANCH  53  58
BRANCH  54  60
HETATM   60  O7  UNL     1      14.250  19.728  26.092  1.00  0.00    -0.391 OA
ATOM     61  H7  UNL     1      13.304  19.716  26.188  1.00  0.00     0.210 HD
ENDBRANCH  54  60
ENDBRANCH  42  50
BRANCH  46  62
HETATM   62  O8  UNL     1       9.895  25.229  23.999  1.00  0.00    -0.268 OA
ATOM     63  H8  UNL     1      10.653  25.278  24.569  1.00  0.00     0.246 HD
ENDBRANCH  46  62
ENDBRANCH  33  35
ENDBRANCH   1  33
TORSDOF 20
ENDMDL
MODEL 4
REMARK VINA RESULT: -9.055988196      2.949      4.955
REMARK  20 active torsions:
REMARK  status: ('A' for Active; 'I' for Inactive)
REMARK    1  A    between atoms: C2_2  and  C4_4 
REMARK    2  A    between atoms: C2_2  and  O2_7 
REMARK    3  A    between atoms: C4_4  and  O1_5 
REMARK    4  A    between atoms: O2_7  and  N1_8 
REMARK       I    between atoms: N1_8  and  C5_10 
REMARK    5  A    between atoms: C5_10  and  C6_12 
REMARK    6  A    between atoms: N3_15  and  C7_16 
REMARK    7  A    between atoms: C8_18  and  S1_19 
REMARK    8  A    between atoms: S1_19  and  C9_20 
REMARK    9  A    between atoms: C9_20  and  C10_21 
REMARK   10  A    between atoms: N4_23  and  C12_24 
REMARK   11  A    between atoms: C12_24  and  C13_25 
REMARK   12  A    between atoms: C13_25  and  N5_26 
REMARK   13  A    between atoms: N5_26  and  C14_28 
REMARK   14  A    between atoms: C16_32  and  N7_33 
REMARK   15  A    between atoms: C17_38  and  N9_39 
REMARK   16  A    between atoms: C19_41  and  O5_42 
REMARK   17  A    between atoms: C20_44  and  O6_45 
REMARK   18  A    between atoms: C21_47  and  O7_48 
REMARK   19  A    between atoms: N11_54  and  O8_55 
REMARK   20  A    between atoms: C24_61  and  O9_62 
ROOT
HETATM    1  C13 UNL     1       9.820  23.857  17.346  1.00  0.00     0.160 C 
ENDROOT
BRANCH   1   2
HETATM    2  C12 UNL     1       9.757  22.355  17.446  1.00  0.00     0.170 C 
BRANCH   2   3
HETATM    3  N4  UNL     1       8.630  22.023  18.273  1.00  0.00    -0.286 N 
HETATM    4  C11 UNL     1       7.900  22.832  19.033  1.00  0.00     0.139 A 
HETATM    5  C10 UNL     1       6.934  22.050  19.639  1.00  0.00     0.054 A 
HETATM    6  N13 UNL     1       7.156  20.784  19.187  1.00  0.00    -0.288 N 
HETATM    7  N12 UNL     1       8.175  20.765  18.367  1.00  0.00    -0.241 N 
ATOM      8  H13 UNL     1       6.606  19.967  19.450  1.00  0.00     0.188 HD
ATOM      9  H12 UNL     1       8.552  19.948  17.888  1.00  0.00     0.208 HD
BRANCH   5  10
HETATM   10  C9  UNL     1       5.859  22.411  20.579  1.00  0.00     0.141 C 
BRANCH  10  11
HETATM   11  S1  UNL     1       6.455  23.070  22.145  1.00  0.00    -0.101 SA
BRANCH  11  12
HETATM   12  C8  UNL     1       8.046  23.835  22.051  1.00  0.00     0.131 A 
HETATM   13  N3  UNL     1       8.438  25.023  21.584  1.00  0.00    -0.221 N 
HETATM   14  N2  UNL     1       9.750  25.145  21.675  1.00  0.00    -0.283 N 
HETATM   15  C6  UNL     1      10.271  24.008  22.222  1.00  0.00     0.155 A 
ATOM     16  H2  UNL     1      10.289  25.960  21.383  1.00  0.00     0.188 HD
HETATM   17  C24 UNL     1       9.210  23.177  22.463  1.00  0.00     0.135 A 
BRANCH  13  18
HETATM   18  C7  UNL     1       7.578  26.029  21.082  1.00  0.00     0.377 C 
HETATM   19  O4  UNL     1       7.055  25.963  19.955  1.00  0.00    -0.281 OA
ENDBRANCH  13  18
BRANCH  15  20
HETATM   20  C5  UNL     1      11.698  23.830  22.453  1.00  0.00     0.296 C 
HETATM   21  N1  UNL     1      12.322  22.570  22.337  1.00  0.00    -0.228 N 
ATOM     22  H1  UNL     1      11.770  21.751  22.083  1.00  0.00     0.198 HD
HETATM   23  O3  UNL     1      12.401  24.821  22.766  1.00  0.00    -0.264 OA
BRANCH  21  24
HETATM   24  O2  UNL     1      13.657  22.445  22.561  1.00  0.00    -0.265 OA
BRANCH  24  25
HETATM   25  C2  UNL     1      14.161  21.200  22.297  1.00  0.00     0.103 C 
HETATM   26  C1  UNL     1      13.481  20.503  21.146  1.00  0.00     0.050 C 
HETATM   27  C3  UNL     1      14.136  20.367  23.556  1.00  0.00     0.050 C 
BRANCH  25  28
HETATM   28  C4  UNL     1      15.620  21.408  21.865  1.00  0.00     0.203 C 
BRANCH  28  29
HETATM   29  O1  UNL     1      16.270  20.194  21.904  1.00  0.00    -0.398 OA
ATOM     30  H1  UNL     1      17.185  20.344  22.114  1.00  0.00     0.209 HD
ENDBRANCH  28  29
ENDBRANCH  25  28
ENDBRANCH  24  25
ENDBRANCH  21  24
ENDBRANCH  15  20
BRANCH  17  31
HETATM   31  O9  UNL     1       9.288  21.910  23.018  1.00  0.00    -0.356 OA
ATOM     32  H9  UNL     1       9.363  21.716  23.945  1.00  0.00     0.218 HD
ENDBRANCH  17  31
ENDBRANCH  11  12
ENDBRANCH  10  11
ENDBRANCH   5  10
ENDBRANCH   2   3
ENDBRANCH   1   2
BRANCH   1  33
HETATM   33  N5  UNL     1       9.614  24.246  15.995  1.00  0.00    -0.222 N 
ATOM     34  H5  UNL     1      10.436  24.250  15.392  1.00  0.00     0.177 HD
BRANCH  33  35
HETATM   35  C14 UNL     1       8.500  24.593  15.451  1.00  0.00     0.707 A 
HETATM   36  N6  UNL     1       8.243  25.870  15.077  1.00  0.00    -0.182 N 
HETATM   37  C15 UNL     1       7.016  25.946  14.540  1.00  0.00     0.140 A 
ATOM     38  H6  UNL     1       8.885  26.655  15.188  1.00  0.00     0.184 HD
HETATM   39  C16 UNL     1       6.233  26.944  14.003  1.00  0.00     0.146 A 
HETATM   40  C23 UNL     1       6.473  24.684  14.570  1.00  0.00     0.197 A 
HETATM   41  N8  UNL     1       5.006  26.688  13.534  1.00  0.00    -0.175 N 
HETATM   42  C17 UNL     1       4.454  25.438  13.556  1.00  0.00     0.683 A 
ATOM     43  H8  UNL     1       4.462  27.457  13.144  1.00  0.00     0.186 HD
HETATM   44  N10 UNL     1       5.220  24.470  14.081  1.00  0.00    -0.171 N 
ATOM     45  H10 UNL     1       4.844  23.523  14.117  1.00  0.00     0.186 HD
HETATM   46  N11 UNL     1       7.407  23.895  15.130  1.00  0.00    -0.033 N 
BRANCH  39  47
HETATM   47  N7  UNL     1       6.741  28.150  13.969  1.00  0.00    -0.383 N 
ATOM     48  H72 UNL     1       7.654  28.356  14.373  1.00  0.00     0.157 HD
ATOM     49  H71 UNL     1       6.183  28.878  13.523  1.00  0.00     0.157 HD
ENDBRANCH  39  47
BRANCH  42  50
HETATM   50  N9  UNL     1       3.143  25.226  13.045  1.00  0.00    -0.212 N 
HETATM   51  C18 UNL     1       2.218  26.283  12.737  1.00  0.00     0.175 C 
HETATM   52  C19 UNL     1       0.798  26.003  13.176  1.00  0.00     0.167 C 
HETATM   53  C20 UNL     1       0.351  24.632  12.802  1.00  0.00     0.178 C 
HETATM   54  C21 UNL     1       1.396  23.864  12.029  1.00  0.00     0.167 C 
HETATM   55  C22 UNL     1       2.712  23.860  12.814  1.00  0.00     0.175 C 
BRANCH  52  56
HETATM   56  O5  UNL     1      -0.006  26.912  12.492  1.00  0.00    -0.391 OA
ATOM     57  H5  UNL     1      -0.867  26.855  12.890  1.00  0.00     0.210 HD
ENDBRANCH  52  56
BRANCH  53  58
HETATM   58  O6  UNL     1      -0.835  24.627  12.083  1.00  0.00    -0.390 OA
ATOM     59  H6  UNL     1      -0.743  24.246  11.218  1.00  0.00     0.210 HD
ENDBRANCH  53  58
BRANCH  54  60
HETATM   60  O7  UNL     1       0.961  22.550  11.938  1.00  0.00    -0.391 OA
ATOM     61  H7  UNL     1       0.196  22.543  11.375  1.00  0.00     0.210 HD
ENDBRANCH  54  60
ENDBRANCH  42  50
BRANCH  46  62
HETATM   62  O8  UNL     1       7.246  22.549  15.335  1.00  0.00    -0.268 OA
ATOM     63  H8  UNL     1       6.426  22.078  15.246  1.00  0.00     0.246 HD
ENDBRANCH  46  62
ENDBRANCH  33  35
ENDBRANCH   1  33
TORSDOF 20
ENDMDL
MODEL 5
REMARK VINA RESULT: -8.952701881      3.432      6.650
REMARK  20 active torsions:
REMARK  status: ('A' for Active; 'I' for Inactive)
REMARK    1  A    between atoms: C2_2  and  C4_4 
REMARK    2  A    between atoms: C2_2  and  O2_7 
REMARK    3  A    between atoms: C4_4  and  O1_5 
REMARK    4  A    between atoms: O2_7  and  N1_8 
REMARK       I    between atoms: N1_8  and  C5_10 
REMARK    5  A    between atoms: C5_10  and  C6_12 
REMARK    6  A    between atoms: N3_15  and  C7_16 
REMARK    7  A    between atoms: C8_18  and  S1_19 
REMARK    8  A    between atoms: S1_19  and  C9_20 
REMARK    9  A    between atoms: C9_20  and  C10_21 
REMARK   10  A    between atoms: N4_23  and  C12_24 
REMARK   11  A    between atoms: C12_24  and  C13_25 
REMARK   12  A    between atoms: C13_25  and  N5_26 
REMARK   13  A    between atoms: N5_26  and  C14_28 
REMARK   14  A    between atoms: C16_32  and  N7_33 
REMARK   15  A    between atoms: C17_38  and  N9_39 
REMARK   16  A    between atoms: C19_41  and  O5_42 
REMARK   17  A    between atoms: C20_44  and  O6_45 
REMARK   18  A    between atoms: C21_47  and  O7_48 
REMARK   19  A    between atoms: N11_54  and  O8_55 
REMARK   20  A    between atoms: C24_61  and  O9_62 
ROOT
HETATM    1  C13 UNL     1       9.794  23.430  18.007  1.00  0.00     0.160 C 
ENDROOT
BRANCH   1   2
HETATM    2  C12 UNL     1       9.826  24.669  18.864  1.00  0.00     0.170 C 
BRANCH   2   3
HETATM    3  N4  UNL     1      10.262  24.277  20.176  1.00  0.00    -0.286 N 
HETATM    4  C11 UNL     1      10.960  23.201  20.523  1.00  0.00     0.139 A 
HETATM    5  C10 UNL     1      11.129  23.260  21.895  1.00  0.00     0.054 A 
HETATM    6  N13 UNL     1      10.501  24.402  22.289  1.00  0.00    -0.288 N 
HETATM    7  N12 UNL     1       9.979  25.015  21.259  1.00  0.00    -0.241 N 
ATOM      8  H13 UNL     1      10.447  24.734  23.252  1.00  0.00     0.188 HD
ATOM      9  H12 UNL     1       9.456  25.890  21.276  1.00  0.00     0.208 HD
BRANCH   5  10
HETATM   10  C9  UNL     1      11.820  22.340  22.815  1.00  0.00     0.141 C 
BRANCH  10  11
HETATM   11  S1  UNL     1      13.571  22.131  22.454  1.00  0.00    -0.101 SA
BRANCH  11  12
HETATM   12  C8  UNL     1      14.246  20.594  23.005  1.00  0.00     0.131 A 
HETATM   13  N3  UNL     1      14.784  19.567  22.340  1.00  0.00    -0.221 N 
HETATM   14  N2  UNL     1      15.111  18.597  23.176  1.00  0.00    -0.283 N 
HETATM   15  C6  UNL     1      14.789  18.971  24.449  1.00  0.00     0.155 A 
ATOM     16  H2  UNL     1      15.537  17.709  22.912  1.00  0.00     0.188 HD
HETATM   17  C24 UNL     1      14.246  20.224  24.354  1.00  0.00     0.135 A 
BRANCH  13  18
HETATM   18  C7  UNL     1      15.001  19.520  20.943  1.00  0.00     0.377 C 
HETATM   19  O4  UNL     1      14.076  19.366  20.126  1.00  0.00    -0.281 OA
ENDBRANCH  13  18
BRANCH  15  20
HETATM   20  C5  UNL     1      15.026  18.114  25.603  1.00  0.00     0.296 C 
HETATM   21  N1  UNL     1      14.177  17.033  25.916  1.00  0.00    -0.228 N 
ATOM     22  H1  UNL     1      13.370  16.832  25.326  1.00  0.00     0.198 HD
HETATM   23  O3  UNL     1      16.012  18.338  26.345  1.00  0.00    -0.264 OA
BRANCH  21  24
HETATM   24  O2  UNL     1      14.431  16.256  27.003  1.00  0.00    -0.265 OA
BRANCH  24  25
HETATM   25  C2  UNL     1      13.475  15.311  27.259  1.00  0.00     0.103 C 
HETATM   26  C1  UNL     1      13.539  14.745  28.654  1.00  0.00     0.050 C 
HETATM   27  C3  UNL     1      13.540  14.229  26.207  1.00  0.00     0.050 C 
BRANCH  25  28
HETATM   28  C4  UNL     1      12.121  16.027  27.153  1.00  0.00     0.203 C 
BRANCH  28  29
HETATM   29  O1  UNL     1      11.459  15.561  26.039  1.00  0.00    -0.398 OA
ATOM     30  H1  UNL     1      10.834  14.899  26.310  1.00  0.00     0.209 HD
ENDBRANCH  28  29
ENDBRANCH  25  28
ENDBRANCH  24  25
ENDBRANCH  21  24
ENDBRANCH  15  20
BRANCH  17  31
HETATM   31  O9  UNL     1      13.780  20.983  25.416  1.00  0.00    -0.356 OA
ATOM     32  H9  UNL     1      12.961  21.463  25.434  1.00  0.00     0.218 HD
ENDBRANCH  17  31
ENDBRANCH  11  12
ENDBRANCH  10  11
ENDBRANCH   5  10
ENDBRANCH   2   3
ENDBRANCH   1   2
BRANCH   1  33
HETATM   33  N5  UNL     1       9.720  23.809  16.639  1.00  0.00    -0.222 N 
ATOM     34  H5  UNL     1      10.594  23.793  16.115  1.00  0.00     0.177 HD
BRANCH  33  35
HETATM   35  C14 UNL     1       8.668  24.170  15.991  1.00  0.00     0.707 A 
HETATM   36  N6  UNL     1       8.525  25.415  15.476  1.00  0.00    -0.182 N 
HETATM   37  C15 UNL     1       7.340  25.514  14.855  1.00  0.00     0.140 A 
ATOM     38  H6  UNL     1       9.214  26.163  15.550  1.00  0.00     0.184 HD
HETATM   39  C16 UNL     1       6.663  26.500  14.171  1.00  0.00     0.146 A 
HETATM   40  C23 UNL     1       6.707  24.300  14.975  1.00  0.00     0.197 A 
HETATM   41  N8  UNL     1       5.450  26.277  13.651  1.00  0.00    -0.175 N 
HETATM   42  C17 UNL     1       4.809  25.075  13.761  1.00  0.00     0.683 A 
ATOM     43  H8  UNL     1       4.986  27.035  13.152  1.00  0.00     0.186 HD
HETATM   44  N10 UNL     1       5.472  24.119  14.429  1.00  0.00    -0.171 N 
ATOM     45  H10 UNL     1       5.028  23.207  14.534  1.00  0.00     0.186 HD
HETATM   46  N11 UNL     1       7.548  23.514  15.670  1.00  0.00    -0.033 N 
BRANCH  39  47
HETATM   47  N7  UNL     1       7.256  27.660  14.051  1.00  0.00    -0.383 N 
ATOM     48  H72 UNL     1       6.955  28.472  14.591  1.00  0.00     0.157 HD
ATOM     49  H71 UNL     1       8.034  27.721  13.394  1.00  0.00     0.157 HD
ENDBRANCH  39  47
BRANCH  42  50
HETATM   50  N9  UNL     1       3.519  24.897  13.188  1.00  0.00    -0.212 N 
HETATM   51  C18 UNL     1       2.601  25.971  12.921  1.00  0.00     0.175 C 
HETATM   52  C19 UNL     1       1.168  25.659  13.288  1.00  0.00     0.167 C 
HETATM   53  C20 UNL     1       0.741  24.317  12.804  1.00  0.00     0.178 C 
HETATM   54  C21 UNL     1       1.816  23.606  12.018  1.00  0.00     0.167 C 
HETATM   55  C22 UNL     1       3.102  23.550  12.848  1.00  0.00     0.175 C 
BRANCH  52  56
HETATM   56  O5  UNL     1       0.385  26.613  12.639  1.00  0.00    -0.391 OA
ATOM     57  H5  UNL     1      -0.403  26.707  13.161  1.00  0.00     0.210 HD
ENDBRANCH  52  56
BRANCH  53  58
HETATM   58  O6  UNL     1      -0.419  24.360  12.043  1.00  0.00    -0.390 OA
ATOM     59  H6  UNL     1      -0.316  23.962  11.186  1.00  0.00     0.210 HD
ENDBRANCH  53  58
BRANCH  54  60
HETATM   60  O7  UNL     1       1.390  22.300  11.820  1.00  0.00    -0.391 OA
ATOM     61  H7  UNL     1       2.160  21.745  11.836  1.00  0.00     0.210 HD
ENDBRANCH  54  60
ENDBRANCH  42  50
BRANCH  46  62
HETATM   62  O8  UNL     1       7.279  22.210  15.997  1.00  0.00    -0.268 OA
ATOM     63  H8  UNL     1       6.414  21.858  16.169  1.00  0.00     0.246 HD
ENDBRANCH  46  62
ENDBRANCH  33  35
ENDBRANCH   1  33
TORSDOF 20
ENDMDL
