MODEL 1
REMARK VINA RESULT: -7.879388353      0.000      0.000
REMARK  9 active torsions:
REMARK  status: ('A' for Active; 'I' for Inactive)
REMARK    1  A    between atoms: C3_3  and  C4_4 
REMARK    2  A    between atoms: C3_3  and  C11_19 
REMARK    3  A    between atoms: C4_4  and  N2_9 
REMARK    4  A    between atoms: N1_5  and  O1_7 
REMARK    5  A    between atoms: N2_9  and  N3_11 
REMARK    6  A    between atoms: C11_19  and  S1_20 
REMARK    7  A    between atoms: C11_19  and  C19_29 
REMARK    8  A    between atoms: S1_20  and  C12_21 
REMARK    9  A    between atoms: C19_29  and  O3_31 
ROOT
HETATM    1  C1  UNL     1     -23.408  23.107 -22.559  1.00  0.00     0.013 C 
HETATM    2  C2  UNL     1     -24.600  23.249 -22.371  1.00  0.00    -0.103 C 
HETATM    3  C3  UNL     1     -26.022  23.461 -22.154  1.00  0.00     0.158 C 
ENDROOT
BRANCH   3   4
HETATM    4  C4  UNL     1     -26.520  24.330 -23.281  1.00  0.00     0.133 C 
HETATM    5  N1  UNL     1     -27.061  25.451 -22.965  1.00  0.00    -0.254 N 
ATOM      6  H1  UNL     1     -27.116  25.676 -21.971  1.00  0.00     0.195 HD
BRANCH   5   7
HETATM    7  O1  UNL     1     -27.570  26.368 -23.836  1.00  0.00    -0.288 OA
ATOM      8  H1  UNL     1     -27.796  27.268 -23.629  1.00  0.00     0.244 HD
ENDBRANCH   5   7
BRANCH   4   9
HETATM    9  N2  UNL     1     -26.403  23.911 -24.603  1.00  0.00    -0.287 N 
ATOM     10  H2  UNL     1     -25.488  23.930 -25.053  1.00  0.00     0.188 HD
BRANCH   9  11
HETATM   11  N3  UNL     1     -27.504  23.468 -25.325  1.00  0.00    -0.307 N 
HETATM   12  C5  UNL     1     -27.519  22.384 -26.028  1.00  0.00     0.004 C 
HETATM   13  C6  UNL     1     -28.808  22.096 -26.727  1.00  0.00     0.054 C 
HETATM   14  C10 UNL     1     -26.331  21.541 -26.099  1.00  0.00     0.054 C 
HETATM   15  C7  UNL     1     -28.822  20.777 -27.428  1.00  0.00     0.006 C 
HETATM   16  C8  UNL     1     -28.021  19.813 -26.573  1.00  0.00     0.001 C 
HETATM   17  C9  UNL     1     -26.551  20.158 -26.656  1.00  0.00     0.006 C 
ATOM     18  H3  UNL     1     -28.353  24.034 -25.299  1.00  0.00     0.186 HD
ENDBRANCH   9  11
ENDBRANCH   4   9
ENDBRANCH   3   4
BRANCH   3  19
HETATM   19  C11 UNL     1     -26.766  22.178 -22.094  1.00  0.00     0.175 C 
BRANCH  19  20
HETATM   20  S1  UNL     1     -26.340  21.265 -20.588  1.00  0.00    -0.113 SA
BRANCH  20  21
HETATM   21  C12 UNL     1     -26.611  22.319 -19.187  1.00  0.00     0.001 A 
HETATM   22  C13 UNL     1     -27.805  22.087 -18.489  1.00  0.00     0.020 A 
HETATM   23  C14 UNL     1     -28.109  22.826 -17.384  1.00  0.00     0.024 A 
HETATM   24  C15 UNL     1     -27.244  23.805 -16.948  1.00  0.00     0.044 A 
HETATM   25  C16 UNL     1     -27.595  24.569 -15.768  1.00  0.00     0.099 C 
HETATM   26  C17 UNL     1     -26.072  24.023 -17.643  1.00  0.00     0.024 A 
HETATM   27  N4  UNL     1     -27.891  25.166 -14.820  1.00  0.00    -0.191 NA
HETATM   28  C18 UNL     1     -25.733  23.277 -18.785  1.00  0.00     0.020 A 
ENDBRANCH  20  21
ENDBRANCH  19  20
BRANCH  19  29
HETATM   29  C19 UNL     1     -28.221  22.271 -22.271  1.00  0.00     0.274 C 
HETATM   30  O2  UNL     1     -28.866  21.550 -23.062  1.00  0.00    -0.264 OA
BRANCH  29  31
HETATM   31  O3  UNL     1     -28.965  23.207 -21.531  1.00  0.00    -0.326 OA
HETATM   32  C20 UNL     1     -30.279  22.890 -21.055  1.00  0.00     0.213 C 
ENDBRANCH  29  31
ENDBRANCH  19  29
ENDBRANCH   3  19
TORSDOF 9
ENDMDL
MODEL 2
REMARK VINA RESULT: -7.851027665      3.398      7.487
REMARK  9 active torsions:
REMARK  status: ('A' for Active; 'I' for Inactive)
REMARK    1  A    between atoms: C3_3  and  C4_4 
REMARK    2  A    between atoms: C3_3  and  C11_19 
REMARK    3  A    between atoms: C4_4  and  N2_9 
REMARK    4  A    between atoms: N1_5  and  O1_7 
REMARK    5  A    between atoms: N2_9  and  N3_11 
REMARK    6  A    between atoms: C11_19  and  S1_20 
REMARK    7  A    between atoms: C11_19  and  C19_29 
REMARK    8  A    between atoms: S1_20  and  C12_21 
REMARK    9  A    between atoms: C19_29  and  O3_31 
ROOT
HETATM    1  C1  UNL     1     -29.868  17.277 -20.992  1.00  0.00     0.013 C 
HETATM    2  C2  UNL     1     -30.229  18.344 -20.537  1.00  0.00    -0.103 C 
HETATM    3  C3  UNL     1     -30.666  19.602 -19.953  1.00  0.00     0.158 C 
ENDROOT
BRANCH   3   4
HETATM    4  C4  UNL     1     -29.893  19.790 -18.672  1.00  0.00     0.133 C 
HETATM    5  N1  UNL     1     -30.154  18.985 -17.704  1.00  0.00    -0.254 N 
ATOM      6  H1  UNL     1     -30.867  18.275 -17.872  1.00  0.00     0.195 HD
BRANCH   5   7
HETATM    7  O1  UNL     1     -29.566  18.996 -16.475  1.00  0.00    -0.288 OA
ATOM      8  H1  UNL     1     -30.017  18.933 -15.641  1.00  0.00     0.244 HD
ENDBRANCH   5   7
BRANCH   4   9
HETATM    9  N2  UNL     1     -28.951  20.807 -18.555  1.00  0.00    -0.287 N 
ATOM     10  H2  UNL     1     -28.127  20.795 -19.156  1.00  0.00     0.188 HD
BRANCH   9  11
HETATM   11  N3  UNL     1     -29.106  21.839 -17.639  1.00  0.00    -0.307 N 
HETATM   12  C5  UNL     1     -28.148  22.619 -17.259  1.00  0.00     0.004 C 
HETATM   13  C6  UNL     1     -28.533  23.665 -16.263  1.00  0.00     0.054 C 
HETATM   14  C10 UNL     1     -26.804  22.443 -17.797  1.00  0.00     0.054 C 
HETATM   15  C7  UNL     1     -27.429  24.617 -15.943  1.00  0.00     0.006 C 
HETATM   16  C8  UNL     1     -26.646  24.834 -17.225  1.00  0.00     0.001 C 
HETATM   17  C9  UNL     1     -25.854  23.588 -17.555  1.00  0.00     0.006 C 
ATOM     18  H3  UNL     1     -30.033  21.991 -17.241  1.00  0.00     0.186 HD
ENDBRANCH   9  11
ENDBRANCH   4   9
ENDBRANCH   3   4
BRANCH   3  19
HETATM   19  C11 UNL     1     -30.455  20.742 -20.881  1.00  0.00     0.175 C 
BRANCH  19  20
HETATM   20  S1  UNL     1     -29.727  20.167 -22.437  1.00  0.00    -0.113 SA
BRANCH  20  21
HETATM   21  C12 UNL     1     -28.167  20.979 -22.672  1.00  0.00     0.001 A 
HETATM   22  C13 UNL     1     -27.412  21.165 -21.506  1.00  0.00     0.020 A 
HETATM   23  C14 UNL     1     -26.187  21.763 -21.569  1.00  0.00     0.024 A 
HETATM   24  C15 UNL     1     -25.688  22.188 -22.780  1.00  0.00     0.044 A 
HETATM   25  C16 UNL     1     -24.382  22.815 -22.813  1.00  0.00     0.099 C 
HETATM   26  C17 UNL     1     -26.441  21.999 -23.920  1.00  0.00     0.024 A 
HETATM   27  N4  UNL     1     -23.334  23.311 -22.820  1.00  0.00    -0.191 NA
HETATM   28  C18 UNL     1     -27.706  21.386 -23.885  1.00  0.00     0.020 A 
ENDBRANCH  20  21
ENDBRANCH  19  20
BRANCH  19  29
HETATM   29  C19 UNL     1     -31.623  21.600 -21.119  1.00  0.00     0.274 C 
HETATM   30  O2  UNL     1     -31.557  22.708 -21.692  1.00  0.00    -0.264 OA
BRANCH  29  31
HETATM   31  O3  UNL     1     -32.899  21.189 -20.697  1.00  0.00    -0.326 OA
HETATM   32  C20 UNL     1     -33.778  20.491 -21.588  1.00  0.00     0.213 C 
ENDBRANCH  29  31
ENDBRANCH  19  29
ENDBRANCH   3  19
TORSDOF 9
ENDMDL
MODEL 3
REMARK VINA RESULT: -7.799353141      3.753      8.358
REMARK  9 active torsions:
REMARK  status: ('A' for Active; 'I' for Inactive)
REMARK    1  A    between atoms: C3_3  and  C4_4 
REMARK    2  A    between atoms: C3_3  and  C11_19 
REMARK    3  A    between atoms: C4_4  and  N2_9 
REMARK    4  A    between atoms: N1_5  and  O1_7 
REMARK    5  A    between atoms: N2_9  and  N3_11 
REMARK    6  A    between atoms: C11_19  and  S1_20 
REMARK    7  A    between atoms: C11_19  and  C19_29 
REMARK    8  A    between atoms: S1_20  and  C12_21 
REMARK    9  A    between atoms: C19_29  and  O3_31 
ROOT
HETATM    1  C1  UNL     1     -29.852  16.494 -20.890  1.00  0.00     0.013 C 
HETATM    2  C2  UNL     1     -30.309  17.559 -20.527  1.00  0.00    -0.103 C 
HETATM    3  C3  UNL     1     -30.850  18.822 -20.049  1.00  0.00     0.158 C 
ENDROOT
BRANCH   3   4
HETATM    4  C4  UNL     1     -29.909  19.337 -18.989  1.00  0.00     0.133 C 
HETATM    5  N1  UNL     1     -29.692  18.576 -17.976  1.00  0.00    -0.254 N 
ATOM      6  H1  UNL     1     -30.171  17.676 -17.961  1.00  0.00     0.195 HD
BRANCH   5   7
HETATM    7  O1  UNL     1     -28.879  18.863 -16.920  1.00  0.00    -0.288 OA
ATOM      8  H1  UNL     1     -29.070  19.478 -16.221  1.00  0.00     0.244 HD
ENDBRANCH   5   7
BRANCH   4   9
HETATM    9  N2  UNL     1     -29.322  20.593 -19.111  1.00  0.00    -0.287 N 
ATOM     10  H2  UNL     1     -28.775  20.808 -19.945  1.00  0.00     0.188 HD
BRANCH   9  11
HETATM   11  N3  UNL     1     -29.464  21.560 -18.125  1.00  0.00    -0.307 N 
HETATM   12  C5  UNL     1     -28.476  22.205 -17.596  1.00  0.00     0.004 C 
HETATM   13  C6  UNL     1     -28.852  23.203 -16.551  1.00  0.00     0.054 C 
HETATM   14  C10 UNL     1     -27.110  21.933 -18.029  1.00  0.00     0.054 C 
HETATM   15  C7  UNL     1     -27.697  24.008 -16.054  1.00  0.00     0.006 C 
HETATM   16  C8  UNL     1     -26.778  24.242 -17.239  1.00  0.00     0.001 C 
HETATM   17  C9  UNL     1     -26.082  22.951 -17.607  1.00  0.00     0.006 C 
ATOM     18  H3  UNL     1     -30.406  21.776 -17.798  1.00  0.00     0.186 HD
ENDBRANCH   9  11
ENDBRANCH   4   9
ENDBRANCH   3   4
BRANCH   3  19
HETATM   19  C11 UNL     1     -31.008  19.804 -21.151  1.00  0.00     0.175 C 
BRANCH  19  20
HETATM   20  S1  UNL     1     -31.212  18.952 -22.737  1.00  0.00    -0.113 SA
BRANCH  20  21
HETATM   21  C12 UNL     1     -30.031  19.603 -23.891  1.00  0.00     0.001 A 
HETATM   22  C13 UNL     1     -29.844  18.834 -25.048  1.00  0.00     0.020 A 
HETATM   23  C14 UNL     1     -28.973  19.246 -26.013  1.00  0.00     0.024 A 
HETATM   24  C15 UNL     1     -28.272  20.421 -25.855  1.00  0.00     0.044 A 
HETATM   25  C16 UNL     1     -27.358  20.833 -26.900  1.00  0.00     0.099 C 
HETATM   26  C17 UNL     1     -28.465  21.169 -24.711  1.00  0.00     0.024 A 
HETATM   27  N4  UNL     1     -26.635  21.148 -27.749  1.00  0.00    -0.191 NA
HETATM   28  C18 UNL     1     -29.357  20.768 -23.700  1.00  0.00     0.020 A 
ENDBRANCH  20  21
ENDBRANCH  19  20
BRANCH  19  29
HETATM   29  C19 UNL     1     -32.042  20.828 -20.955  1.00  0.00     0.274 C 
HETATM   30  O2  UNL     1     -33.245  20.657 -21.249  1.00  0.00    -0.264 OA
BRANCH  29  31
HETATM   31  O3  UNL     1     -31.704  22.079 -20.410  1.00  0.00    -0.326 OA
HETATM   32  C20 UNL     1     -31.044  23.072 -21.205  1.00  0.00     0.213 C 
ENDBRANCH  29  31
ENDBRANCH  19  29
ENDBRANCH   3  19
TORSDOF 9
ENDMDL
MODEL 4
REMARK VINA RESULT: -7.731813395      2.241      3.112
REMARK  9 active torsions:
REMARK  status: ('A' for Active; 'I' for Inactive)
REMARK    1  A    between atoms: C3_3  and  C4_4 
REMARK    2  A    between atoms: C3_3  and  C11_19 
REMARK    3  A    between atoms: C4_4  and  N2_9 
REMARK    4  A    between atoms: N1_5  and  O1_7 
REMARK    5  A    between atoms: N2_9  and  N3_11 
REMARK    6  A    between atoms: C11_19  and  S1_20 
REMARK    7  A    between atoms: C11_19  and  C19_29 
REMARK    8  A    between atoms: S1_20  and  C12_21 
REMARK    9  A    between atoms: C19_29  and  O3_31 
ROOT
HETATM    1  C1  UNL     1     -23.826  23.116 -22.500  1.00  0.00     0.013 C 
HETATM    2  C2  UNL     1     -25.038  23.103 -22.578  1.00  0.00    -0.103 C 
HETATM    3  C3  UNL     1     -26.488  23.126 -22.694  1.00  0.00     0.158 C 
ENDROOT
BRANCH   3   4
HETATM    4  C4  UNL     1     -26.815  23.455 -24.129  1.00  0.00     0.133 C 
HETATM    5  N1  UNL     1     -26.054  22.953 -25.035  1.00  0.00    -0.254 N 
ATOM      6  H1  UNL     1     -25.281  22.366 -24.719  1.00  0.00     0.195 HD
BRANCH   5   7
HETATM    7  O1  UNL     1     -26.185  23.135 -26.380  1.00  0.00    -0.288 OA
ATOM      8  H1  UNL     1     -26.374  23.959 -26.815  1.00  0.00     0.244 HD
ENDBRANCH   5   7
BRANCH   4   9
HETATM    9  N2  UNL     1     -27.889  24.282 -24.439  1.00  0.00    -0.287 N 
ATOM     10  H2  UNL     1     -27.879  25.252 -24.122  1.00  0.00     0.188 HD
BRANCH   9  11
HETATM   11  N3  UNL     1     -28.975  23.820 -25.170  1.00  0.00    -0.307 N 
HETATM   12  C5  UNL     1     -30.119  24.420 -25.226  1.00  0.00     0.004 C 
HETATM   13  C6  UNL     1     -31.151  23.749 -26.072  1.00  0.00     0.054 C 
HETATM   14  C10 UNL     1     -30.329  25.663 -24.492  1.00  0.00     0.054 C 
HETATM   15  C7  UNL     1     -32.413  24.535 -26.205  1.00  0.00     0.006 C 
HETATM   16  C8  UNL     1     -32.020  26.000 -26.251  1.00  0.00     0.001 C 
HETATM   17  C9  UNL     1     -31.556  26.446 -24.882  1.00  0.00     0.006 C 
ATOM     18  H3  UNL     1     -28.864  22.952 -25.696  1.00  0.00     0.186 HD
ENDBRANCH   9  11
ENDBRANCH   4   9
ENDBRANCH   3   4
BRANCH   3  19
HETATM   19  C11 UNL     1     -27.092  21.832 -22.288  1.00  0.00     0.175 C 
BRANCH  19  20
HETATM   20  S1  UNL     1     -26.245  21.165 -20.832  1.00  0.00    -0.113 SA
BRANCH  20  21
HETATM   21  C12 UNL     1     -26.781  22.064 -19.399  1.00  0.00     0.001 A 
HETATM   22  C13 UNL     1     -25.918  23.087 -18.981  1.00  0.00     0.020 A 
HETATM   23  C14 UNL     1     -26.237  23.856 -17.900  1.00  0.00     0.024 A 
HETATM   24  C15 UNL     1     -27.409  23.630 -17.214  1.00  0.00     0.044 A 
HETATM   25  C16 UNL     1     -27.719  24.467 -16.073  1.00  0.00     0.099 C 
HETATM   26  C17 UNL     1     -28.250  22.620 -17.634  1.00  0.00     0.024 A 
HETATM   27  N4  UNL     1     -27.953  25.150 -15.166  1.00  0.00    -0.191 NA
HETATM   28  C18 UNL     1     -27.946  21.812 -18.745  1.00  0.00     0.020 A 
ENDBRANCH  20  21
ENDBRANCH  19  20
BRANCH  19  29
HETATM   29  C19 UNL     1     -28.549  21.833 -22.108  1.00  0.00     0.274 C 
HETATM   30  O2  UNL     1     -29.236  20.791 -22.047  1.00  0.00    -0.264 OA
BRANCH  29  31
HETATM   31  O3  UNL     1     -29.246  23.048 -21.992  1.00  0.00    -0.326 OA
HETATM   32  C20 UNL     1     -30.633  23.068 -21.631  1.00  0.00     0.213 C 
ENDBRANCH  29  31
ENDBRANCH  19  29
ENDBRANCH   3  19
TORSDOF 9
ENDMDL
MODEL 5
REMARK VINA RESULT: -7.704362982      3.267      4.491
REMARK  9 active torsions:
REMARK  status: ('A' for Active; 'I' for Inactive)
REMARK    1  A    between atoms: C3_3  and  C4_4 
REMARK    2  A    between atoms: C3_3  and  C11_19 
REMARK    3  A    between atoms: C4_4  and  N2_9 
REMARK    4  A    between atoms: N1_5  and  O1_7 
REMARK    5  A    between atoms: N2_9  and  N3_11 
REMARK    6  A    between atoms: C11_19  and  S1_20 
REMARK    7  A    between atoms: C11_19  and  C19_29 
REMARK    8  A    between atoms: S1_20  and  C12_21 
REMARK    9  A    between atoms: C19_29  and  O3_31 
ROOT
HETATM    1  C1  UNL     1     -24.935  22.333 -18.832  1.00  0.00     0.013 C 
HETATM    2  C2  UNL     1     -25.492  22.660 -19.861  1.00  0.00    -0.103 C 
HETATM    3  C3  UNL     1     -26.122  23.067 -21.107  1.00  0.00     0.158 C 
ENDROOT
BRANCH   3   4
HETATM    4  C4  UNL     1     -25.200  22.654 -22.227  1.00  0.00     0.133 C 
HETATM    5  N1  UNL     1     -24.039  23.203 -22.267  1.00  0.00    -0.254 N 
ATOM      6  H1  UNL     1     -23.822  23.881 -21.535  1.00  0.00     0.195 HD
BRANCH   5   7
HETATM    7  O1  UNL     1     -23.072  22.963 -23.196  1.00  0.00    -0.288 OA
ATOM      8  H1  UNL     1     -23.181  23.011 -24.139  1.00  0.00     0.244 HD
ENDBRANCH   5   7
BRANCH   4   9
HETATM    9  N2  UNL     1     -25.613  21.726 -23.179  1.00  0.00    -0.287 N 
ATOM     10  H2  UNL     1     -25.791  20.763 -22.892  1.00  0.00     0.188 HD
BRANCH   9  11
HETATM   11  N3  UNL     1     -25.787  22.079 -24.510  1.00  0.00    -0.307 N 
HETATM   12  C5  UNL     1     -26.764  21.663 -25.248  1.00  0.00     0.004 C 
HETATM   13  C6  UNL     1     -26.760  22.166 -26.654  1.00  0.00     0.054 C 
HETATM   14  C10 UNL     1     -27.769  20.764 -24.691  1.00  0.00     0.054 C 
HETATM   15  C7  UNL     1     -27.967  21.759 -27.434  1.00  0.00     0.006 C 
HETATM   16  C8  UNL     1     -29.141  21.771 -26.472  1.00  0.00     0.001 C 
HETATM   17  C9  UNL     1     -29.024  20.609 -25.511  1.00  0.00     0.006 C 
ATOM     18  H3  UNL     1     -25.102  22.707 -24.933  1.00  0.00     0.186 HD
ENDBRANCH   9  11
ENDBRANCH   4   9
ENDBRANCH   3   4
BRANCH   3  19
HETATM   19  C11 UNL     1     -27.468  22.462 -21.267  1.00  0.00     0.175 C 
BRANCH  19  20
HETATM   20  S1  UNL     1     -28.150  21.995 -19.655  1.00  0.00    -0.113 SA
BRANCH  20  21
HETATM   21  C12 UNL     1     -29.006  20.450 -19.823  1.00  0.00     0.001 A 
HETATM   22  C13 UNL     1     -29.295  20.071 -21.141  1.00  0.00     0.020 A 
HETATM   23  C14 UNL     1     -29.936  18.893 -21.391  1.00  0.00     0.024 A 
HETATM   24  C15 UNL     1     -30.302  18.070 -20.349  1.00  0.00     0.044 A 
HETATM   25  C16 UNL     1     -30.977  16.824 -20.650  1.00  0.00     0.099 C 
HETATM   26  C17 UNL     1     -30.012  18.456 -19.056  1.00  0.00     0.024 A 
HETATM   27  N4  UNL     1     -31.512  15.830 -20.910  1.00  0.00    -0.191 NA
HETATM   28  C18 UNL     1     -29.353  19.664 -18.769  1.00  0.00     0.020 A 
ENDBRANCH  20  21
ENDBRANCH  19  20
BRANCH  19  29
HETATM   29  C19 UNL     1     -28.433  23.242 -22.052  1.00  0.00     0.274 C 
HETATM   30  O2  UNL     1     -29.666  23.213 -21.853  1.00  0.00    -0.264 OA
BRANCH  29  31
HETATM   31  O3  UNL     1     -27.988  24.078 -23.091  1.00  0.00    -0.326 OA
HETATM   32  C20 UNL     1     -28.905  24.591 -24.065  1.00  0.00     0.213 C 
ENDBRANCH  29  31
ENDBRANCH  19  29
ENDBRANCH   3  19
TORSDOF 9
ENDMDL
