MODEL 1
REMARK VINA RESULT: -8.304101429      0.000      0.000
REMARK  8 active torsions:
REMARK  status: ('A' for Active; 'I' for Inactive)
REMARK    1  A    between atoms: O1_2  and  C2_3 
REMARK    2  A    between atoms: N1_7  and  C6_8 
REMARK    3  A    between atoms: C7_10  and  O2_11 
REMARK    4  A    between atoms: C9_14  and  C10_15 
REMARK       I    between atoms: C10_15  and  N2_17 
REMARK    5  A    between atoms: N2_17  and  C11_19 
REMARK    6  A    between atoms: C11_19  and  C12_21 
REMARK    7  A    between atoms: C12_21  and  O5_23 
REMARK    8  A    between atoms: O5_23  and  C13_24 
ROOT
HETATM    1  C10 UNL     1     -26.498  22.475 -19.155  1.00  0.00     0.257 C 
HETATM    2  O3  UNL     1     -25.343  21.991 -18.878  1.00  0.00    -0.267 OA
HETATM    3  N2  UNL     1     -26.687  22.840 -20.479  1.00  0.00    -0.318 N 
ATOM      4  H2  UNL     1     -27.588  23.228 -20.759  1.00  0.00     0.166 HD
ENDROOT
BRANCH   1   5
HETATM    5  C9  UNL     1     -27.450  22.580 -18.031  1.00  0.00     0.069 A 
HETATM    6  C6  UNL     1     -28.552  21.795 -17.905  1.00  0.00     0.096 A 
HETATM    7  S1  UNL     1     -29.293  22.400 -16.448  1.00  0.00    -0.047 SA
HETATM    8  C7  UNL     1     -28.180  23.609 -16.070  1.00  0.00     0.110 A 
HETATM    9  C8  UNL     1     -27.265  23.528 -17.064  1.00  0.00     0.064 A 
BRANCH   6  10
HETATM   10  N1  UNL     1     -29.078  20.693 -18.669  1.00  0.00    -0.321 N 
HETATM   11  C2  UNL     1     -29.666  20.651 -19.953  1.00  0.00     0.141 C 
HETATM   12  C3  UNL     1     -30.403  19.560 -20.085  1.00  0.00     0.031 C 
HETATM   13  C4  UNL     1     -30.340  18.781 -18.832  1.00  0.00     0.052 C 
HETATM   14  C5  UNL     1     -29.107  19.337 -18.148  1.00  0.00     0.136 C 
BRANCH  11  15
HETATM   15  O1  UNL     1     -29.462  21.644 -20.902  1.00  0.00    -0.341 OA
HETATM   16  C1  UNL     1     -30.338  22.759 -20.949  1.00  0.00     0.211 C 
ENDBRANCH  11  15
ENDBRANCH   6  10
BRANCH   8  17
HETATM   17  O2  UNL     1     -28.163  24.523 -14.981  1.00  0.00    -0.354 OA
ATOM     18  H2  UNL     1     -28.190  25.473 -14.983  1.00  0.00     0.218 HD
ENDBRANCH   8  17
ENDBRANCH   1   5
BRANCH   3  19
HETATM   19  C11 UNL     1     -25.643  22.688 -21.484  1.00  0.00     0.372 C 
HETATM   20  F1  UNL     1     -24.438  23.218 -21.001  1.00  0.00    -0.216 F 
BRANCH  19  21
HETATM   21  C12 UNL     1     -25.990  23.283 -22.789  1.00  0.00     0.313 C 
HETATM   22  O4  UNL     1     -26.470  24.454 -22.924  1.00  0.00    -0.260 OA
BRANCH  21  23
HETATM   23  O5  UNL     1     -25.810  22.591 -23.971  1.00  0.00    -0.312 OA
BRANCH  23  24
HETATM   24  C13 UNL     1     -26.848  22.323 -24.894  1.00  0.00     0.132 C 
HETATM   25  C14 UNL     1     -28.016  21.790 -24.148  1.00  0.00     0.032 C 
HETATM   26  C15 UNL     1     -28.502  20.435 -24.581  1.00  0.00     0.002 C 
HETATM   27  C16 UNL     1     -29.074  20.404 -25.951  1.00  0.00     0.000 C 
HETATM   28  C17 UNL     1     -27.998  19.979 -26.943  1.00  0.00     0.000 C 
HETATM   29  C18 UNL     1     -27.129  21.218 -27.145  1.00  0.00     0.002 C 
HETATM   30  C19 UNL     1     -26.275  21.371 -25.925  1.00  0.00     0.032 C 
ENDBRANCH  23  24
ENDBRANCH  21  23
ENDBRANCH  19  21
ENDBRANCH   3  19
TORSDOF 8
ENDMDL
MODEL 2
REMARK VINA RESULT: -8.295400091      0.300      1.164
REMARK  8 active torsions:
REMARK  status: ('A' for Active; 'I' for Inactive)
REMARK    1  A    between atoms: O1_2  and  C2_3 
REMARK    2  A    between atoms: N1_7  and  C6_8 
REMARK    3  A    between atoms: C7_10  and  O2_11 
REMARK    4  A    between atoms: C9_14  and  C10_15 
REMARK       I    between atoms: C10_15  and  N2_17 
REMARK    5  A    between atoms: N2_17  and  C11_19 
REMARK    6  A    between atoms: C11_19  and  C12_21 
REMARK    7  A    between atoms: C12_21  and  O5_23 
REMARK    8  A    between atoms: O5_23  and  C13_24 
ROOT
HETATM    1  C10 UNL     1     -26.571  22.486 -19.280  1.00  0.00     0.257 C 
HETATM    2  O3  UNL     1     -25.399  22.017 -19.053  1.00  0.00    -0.267 OA
HETATM    3  N2  UNL     1     -26.810  22.880 -20.588  1.00  0.00    -0.318 N 
ATOM      4  H2  UNL     1     -27.726  23.258 -20.829  1.00  0.00     0.166 HD
ENDROOT
BRANCH   1   5
HETATM    5  C9  UNL     1     -27.487  22.546 -18.124  1.00  0.00     0.069 A 
HETATM    6  C6  UNL     1     -28.585  21.757 -17.994  1.00  0.00     0.096 A 
HETATM    7  S1  UNL     1     -29.279  22.303 -16.492  1.00  0.00    -0.047 SA
HETATM    8  C7  UNL     1     -28.154  23.497 -16.102  1.00  0.00     0.110 A 
HETATM    9  C8  UNL     1     -27.270  23.456 -17.127  1.00  0.00     0.064 A 
BRANCH   6  10
HETATM   10  N1  UNL     1     -29.135  20.686 -18.784  1.00  0.00    -0.321 N 
HETATM   11  C2  UNL     1     -29.745  20.691 -20.059  1.00  0.00     0.141 C 
HETATM   12  C3  UNL     1     -30.496  19.613 -20.213  1.00  0.00     0.031 C 
HETATM   13  C4  UNL     1     -30.421  18.793 -18.987  1.00  0.00     0.052 C 
HETATM   14  C5  UNL     1     -29.170  19.313 -18.306  1.00  0.00     0.136 C 
BRANCH  11  15
HETATM   15  O1  UNL     1     -29.547  21.712 -20.978  1.00  0.00    -0.341 OA
HETATM   16  C1  UNL     1     -30.456  22.801 -21.023  1.00  0.00     0.211 C 
ENDBRANCH  11  15
ENDBRANCH   6  10
BRANCH   8  17
HETATM   17  O2  UNL     1     -28.102  24.368 -14.978  1.00  0.00    -0.354 OA
ATOM     18  H2  UNL     1     -27.459  25.030 -14.751  1.00  0.00     0.218 HD
ENDBRANCH   8  17
ENDBRANCH   1   5
BRANCH   3  19
HETATM   19  C11 UNL     1     -25.797  22.771 -21.630  1.00  0.00     0.372 C 
HETATM   20  F1  UNL     1     -24.570  23.252 -21.151  1.00  0.00    -0.216 F 
BRANCH  19  21
HETATM   21  C12 UNL     1     -26.169  23.449 -22.887  1.00  0.00     0.313 C 
HETATM   22  O4  UNL     1     -26.645  24.627 -22.937  1.00  0.00    -0.260 OA
BRANCH  21  23
HETATM   23  O5  UNL     1     -26.021  22.830 -24.113  1.00  0.00    -0.312 OA
BRANCH  23  24
HETATM   24  C13 UNL     1     -26.620  21.593 -24.451  1.00  0.00     0.132 C 
HETATM   25  C14 UNL     1     -26.260  21.262 -25.853  1.00  0.00     0.032 C 
HETATM   26  C15 UNL     1     -27.415  21.054 -26.791  1.00  0.00     0.002 C 
HETATM   27  C16 UNL     1     -28.242  19.860 -26.481  1.00  0.00     0.000 C 
HETATM   28  C17 UNL     1     -29.431  20.273 -25.622  1.00  0.00     0.000 C 
HETATM   29  C18 UNL     1     -28.863  20.461 -24.217  1.00  0.00     0.002 C 
HETATM   30  C19 UNL     1     -28.108  21.754 -24.208  1.00  0.00     0.032 C 
ENDBRANCH  23  24
ENDBRANCH  21  23
ENDBRANCH  19  21
ENDBRANCH   3  19
TORSDOF 8
ENDMDL
MODEL 3
REMARK VINA RESULT: -8.129968493      1.052      1.590
REMARK  8 active torsions:
REMARK  status: ('A' for Active; 'I' for Inactive)
REMARK    1  A    between atoms: O1_2  and  C2_3 
REMARK    2  A    between atoms: N1_7  and  C6_8 
REMARK    3  A    between atoms: C7_10  and  O2_11 
REMARK    4  A    between atoms: C9_14  and  C10_15 
REMARK       I    between atoms: C10_15  and  N2_17 
REMARK    5  A    between atoms: N2_17  and  C11_19 
REMARK    6  A    between atoms: C11_19  and  C12_21 
REMARK    7  A    between atoms: C12_21  and  O5_23 
REMARK    8  A    between atoms: O5_23  and  C13_24 
ROOT
HETATM    1  C10 UNL     1     -26.666  22.675 -19.081  1.00  0.00     0.257 C 
HETATM    2  O3  UNL     1     -25.507  22.155 -18.904  1.00  0.00    -0.267 OA
HETATM    3  N2  UNL     1     -26.934  23.104 -20.372  1.00  0.00    -0.318 N 
ATOM      4  H2  UNL     1     -27.842  23.523 -20.574  1.00  0.00     0.166 HD
ENDROOT
BRANCH   1   5
HETATM    5  C9  UNL     1     -27.539  22.749 -17.893  1.00  0.00     0.069 A 
HETATM    6  C6  UNL     1     -28.589  21.914 -17.678  1.00  0.00     0.096 A 
HETATM    7  S1  UNL     1     -29.252  22.502 -16.178  1.00  0.00    -0.047 SA
HETATM    8  C7  UNL     1     -28.177  23.769 -15.895  1.00  0.00     0.110 A 
HETATM    9  C8  UNL     1     -27.332  23.719 -16.951  1.00  0.00     0.064 A 
BRANCH   6  10
HETATM   10  N1  UNL     1     -29.113  20.777 -18.391  1.00  0.00    -0.321 N 
HETATM   11  C2  UNL     1     -29.743  20.681 -19.653  1.00  0.00     0.141 C 
HETATM   12  C3  UNL     1     -30.457  19.570 -19.726  1.00  0.00     0.031 C 
HETATM   13  C4  UNL     1     -30.333  18.832 -18.454  1.00  0.00     0.052 C 
HETATM   14  C5  UNL     1     -29.091  19.436 -17.829  1.00  0.00     0.136 C 
BRANCH  11  15
HETATM   15  O1  UNL     1     -29.595  21.650 -20.636  1.00  0.00    -0.341 OA
HETATM   16  C1  UNL     1     -30.603  22.635 -20.807  1.00  0.00     0.211 C 
ENDBRANCH  11  15
ENDBRANCH   6  10
BRANCH   8  17
HETATM   17  O2  UNL     1     -28.126  24.698 -14.819  1.00  0.00    -0.354 OA
ATOM     18  H2  UNL     1     -28.824  25.202 -14.417  1.00  0.00     0.218 HD
ENDBRANCH   8  17
ENDBRANCH   1   5
BRANCH   3  19
HETATM   19  C11 UNL     1     -25.963  22.975 -21.451  1.00  0.00     0.372 C 
HETATM   20  F1  UNL     1     -25.949  24.149 -22.219  1.00  0.00    -0.216 F 
BRANCH  19  21
HETATM   21  C12 UNL     1     -26.186  21.794 -22.308  1.00  0.00     0.313 C 
HETATM   22  O4  UNL     1     -26.526  20.653 -21.860  1.00  0.00    -0.260 OA
BRANCH  21  23
HETATM   23  O5  UNL     1     -26.035  21.857 -23.679  1.00  0.00    -0.312 OA
BRANCH  23  24
HETATM   24  C13 UNL     1     -27.053  21.519 -24.602  1.00  0.00     0.132 C 
HETATM   25  C14 UNL     1     -26.416  20.985 -25.832  1.00  0.00     0.032 C 
HETATM   26  C15 UNL     1     -26.747  21.712 -27.106  1.00  0.00     0.002 C 
HETATM   27  C16 UNL     1     -28.169  21.597 -27.518  1.00  0.00     0.000 C 
HETATM   28  C17 UNL     1     -28.947  22.803 -27.006  1.00  0.00     0.000 C 
HETATM   29  C18 UNL     1     -29.174  22.532 -25.521  1.00  0.00     0.002 C 
HETATM   30  C19 UNL     1     -27.876  22.775 -24.817  1.00  0.00     0.032 C 
ENDBRANCH  23  24
ENDBRANCH  21  23
ENDBRANCH  19  21
ENDBRANCH   3  19
TORSDOF 8
ENDMDL
MODEL 4
REMARK VINA RESULT: -8.126883581      2.974      7.277
REMARK  8 active torsions:
REMARK  status: ('A' for Active; 'I' for Inactive)
REMARK    1  A    between atoms: O1_2  and  C2_3 
REMARK    2  A    between atoms: N1_7  and  C6_8 
REMARK    3  A    between atoms: C7_10  and  O2_11 
REMARK    4  A    between atoms: C9_14  and  C10_15 
REMARK       I    between atoms: C10_15  and  N2_17 
REMARK    5  A    between atoms: N2_17  and  C11_19 
REMARK    6  A    between atoms: C11_19  and  C12_21 
REMARK    7  A    between atoms: C12_21  and  O5_23 
REMARK    8  A    between atoms: O5_23  and  C13_24 
ROOT
HETATM    1  C10 UNL     1     -29.085  20.841 -21.870  1.00  0.00     0.257 C 
HETATM    2  O3  UNL     1     -27.823  20.637 -21.769  1.00  0.00    -0.267 OA
HETATM    3  N2  UNL     1     -29.882  20.042 -21.065  1.00  0.00    -0.318 N 
ATOM      4  H2  UNL     1     -30.895  20.161 -21.100  1.00  0.00     0.166 HD
ENDROOT
BRANCH   1   5
HETATM    5  C9  UNL     1     -29.505  21.884 -22.827  1.00  0.00     0.069 A 
HETATM    6  C6  UNL     1     -29.086  21.932 -24.118  1.00  0.00     0.096 A 
HETATM    7  S1  UNL     1     -29.855  23.374 -24.722  1.00  0.00    -0.047 SA
HETATM    8  C7  UNL     1     -30.665  23.846 -23.321  1.00  0.00     0.110 A 
HETATM    9  C8  UNL     1     -30.333  22.893 -22.418  1.00  0.00     0.064 A 
BRANCH   6  10
HETATM   10  N1  UNL     1     -28.258  21.072 -24.925  1.00  0.00    -0.321 N 
HETATM   11  C2  UNL     1     -26.880  21.133 -25.235  1.00  0.00     0.141 C 
HETATM   12  C3  UNL     1     -26.626  20.445 -26.335  1.00  0.00     0.031 C 
HETATM   13  C4  UNL     1     -27.885  19.860 -26.839  1.00  0.00     0.052 C 
HETATM   14  C5  UNL     1     -28.797  19.922 -25.630  1.00  0.00     0.136 C 
BRANCH  11  15
HETATM   15  O1  UNL     1     -25.970  21.835 -24.456  1.00  0.00    -0.341 OA
HETATM   16  C1  UNL     1     -25.615  23.161 -24.814  1.00  0.00     0.211 C 
ENDBRANCH  11  15
ENDBRANCH   6  10
BRANCH   8  17
HETATM   17  O2  UNL     1     -31.508  24.968 -23.089  1.00  0.00    -0.354 OA
ATOM     18  H2  UNL     1     -32.061  25.170 -22.343  1.00  0.00     0.218 HD
ENDBRANCH   8  17
ENDBRANCH   1   5
BRANCH   3  19
HETATM   19  C11 UNL     1     -29.323  19.037 -20.170  1.00  0.00     0.372 C 
HETATM   20  F1  UNL     1     -30.004  17.822 -20.337  1.00  0.00    -0.216 F 
BRANCH  19  21
HETATM   21  C12 UNL     1     -29.325  19.444 -18.751  1.00  0.00     0.313 C 
HETATM   22  O4  UNL     1     -29.307  18.620 -17.782  1.00  0.00    -0.260 OA
BRANCH  21  23
HETATM   23  O5  UNL     1     -29.348  20.775 -18.381  1.00  0.00    -0.312 OA
BRANCH  23  24
HETATM   24  C13 UNL     1     -28.315  21.409 -17.651  1.00  0.00     0.132 C 
HETATM   25  C14 UNL     1     -28.920  22.104 -16.486  1.00  0.00     0.032 C 
HETATM   26  C15 UNL     1     -28.660  23.582 -16.402  1.00  0.00     0.002 C 
HETATM   27  C16 UNL     1     -27.238  23.936 -16.165  1.00  0.00     0.000 C 
HETATM   28  C17 UNL     1     -26.553  24.217 -17.497  1.00  0.00     0.000 C 
HETATM   29  C18 UNL     1     -26.290  22.843 -18.109  1.00  0.00     0.002 C 
HETATM   30  C19 UNL     1     -27.597  22.324 -18.623  1.00  0.00     0.032 C 
ENDBRANCH  23  24
ENDBRANCH  21  23
ENDBRANCH  19  21
ENDBRANCH   3  19
TORSDOF 8
ENDMDL
MODEL 5
REMARK VINA RESULT: -8.066940802      0.969      1.996
REMARK  8 active torsions:
REMARK  status: ('A' for Active; 'I' for Inactive)
REMARK    1  A    between atoms: O1_2  and  C2_3 
REMARK    2  A    between atoms: N1_7  and  C6_8 
REMARK    3  A    between atoms: C7_10  and  O2_11 
REMARK    4  A    between atoms: C9_14  and  C10_15 
REMARK       I    between atoms: C10_15  and  N2_17 
REMARK    5  A    between atoms: N2_17  and  C11_19 
REMARK    6  A    between atoms: C11_19  and  C12_21 
REMARK    7  A    between atoms: C12_21  and  O5_23 
REMARK    8  A    between atoms: O5_23  and  C13_24 
ROOT
HETATM    1  C10 UNL     1     -26.638  23.039 -19.505  1.00  0.00     0.257 C 
HETATM    2  O3  UNL     1     -25.794  24.004 -19.470  1.00  0.00    -0.267 OA
HETATM    3  N2  UNL     1     -26.585  22.244 -20.639  1.00  0.00    -0.318 N 
ATOM      4  H2  UNL     1     -27.230  21.458 -20.721  1.00  0.00     0.166 HD
ENDROOT
BRANCH   1   5
HETATM    5  C9  UNL     1     -27.543  22.919 -18.344  1.00  0.00     0.069 A 
HETATM    6  C6  UNL     1     -28.744  22.286 -18.391  1.00  0.00     0.096 A 
HETATM    7  S1  UNL     1     -29.361  22.507 -16.776  1.00  0.00    -0.047 SA
HETATM    8  C7  UNL     1     -28.078  23.384 -16.123  1.00  0.00     0.110 A 
HETATM    9  C8  UNL     1     -27.203  23.492 -17.151  1.00  0.00     0.064 A 
BRANCH   6  10
HETATM   10  N1  UNL     1     -29.439  21.551 -19.416  1.00  0.00    -0.321 N 
HETATM   11  C2  UNL     1     -29.401  20.181 -19.764  1.00  0.00     0.141 C 
HETATM   12  C3  UNL     1     -29.819  20.012 -21.008  1.00  0.00     0.031 C 
HETATM   13  C4  UNL     1     -30.175  21.326 -21.580  1.00  0.00     0.052 C 
HETATM   14  C5  UNL     1     -30.344  22.198 -20.351  1.00  0.00     0.136 C 
BRANCH  11  15
HETATM   15  O1  UNL     1     -28.974  19.198 -18.882  1.00  0.00    -0.341 OA
HETATM   16  C1  UNL     1     -29.803  18.826 -17.792  1.00  0.00     0.211 C 
ENDBRANCH  11  15
ENDBRANCH   6  10
BRANCH   8  17
HETATM   17  O2  UNL     1     -27.906  23.909 -14.812  1.00  0.00    -0.354 OA
ATOM     18  H2  UNL     1     -28.422  23.766 -14.027  1.00  0.00     0.218 HD
ENDBRANCH   8  17
ENDBRANCH   1   5
BRANCH   3  19
HETATM   19  C11 UNL     1     -25.637  22.491 -21.719  1.00  0.00     0.372 C 
HETATM   20  F1  UNL     1     -24.459  23.045 -21.197  1.00  0.00    -0.216 F 
BRANCH  19  21
HETATM   21  C12 UNL     1     -26.180  23.339 -22.797  1.00  0.00     0.313 C 
HETATM   22  O4  UNL     1     -26.821  24.418 -22.590  1.00  0.00    -0.260 OA
BRANCH  21  23
HETATM   23  O5  UNL     1     -26.022  23.005 -24.128  1.00  0.00    -0.312 OA
BRANCH  23  24
HETATM   24  C13 UNL     1     -26.445  21.777 -24.689  1.00  0.00     0.132 C 
HETATM   25  C14 UNL     1     -25.973  21.713 -26.095  1.00  0.00     0.032 C 
HETATM   26  C15 UNL     1     -27.043  21.525 -27.134  1.00  0.00     0.002 C 
HETATM   27  C16 UNL     1     -27.731  20.211 -27.066  1.00  0.00     0.000 C 
HETATM   28  C17 UNL     1     -29.006  20.346 -26.241  1.00  0.00     0.000 C 
HETATM   29  C18 UNL     1     -28.541  20.374 -24.788  1.00  0.00     0.002 C 
HETATM   30  C19 UNL     1     -27.953  21.727 -24.531  1.00  0.00     0.032 C 
ENDBRANCH  23  24
ENDBRANCH  21  23
ENDBRANCH  19  21
ENDBRANCH   3  19
TORSDOF 8
ENDMDL
