MODEL 1
REMARK VINA RESULT: -7.319126733      0.000      0.000
REMARK  6 active torsions:
REMARK  status: ('A' for Active; 'I' for Inactive)
REMARK    1  A    between atoms: C3_3  and  C4_5 
REMARK    2  A    between atoms: C4_5  and  C5_9 
REMARK    3  A    between atoms: C7_11  and  O1_12 
REMARK    4  A    between atoms: C9_14  and  O2_15 
REMARK    5  A    between atoms: C11_17  and  O3_18 
REMARK    6  A    between atoms: C13_20  and  C14_21 
ROOT
HETATM    1  C1  UNL     1     -33.510  19.627 -20.622  1.00  0.00     0.014 C 
HETATM    2  C2  UNL     1     -32.325  19.724 -20.395  1.00  0.00    -0.091 C 
HETATM    3  C3  UNL     1     -30.898  19.847 -20.096  1.00  0.00     0.210 C 
HETATM    4 CL1  UNL     1     -30.512  18.936 -18.639  1.00  0.00    -0.105 Cl
ENDROOT
BRANCH   3   5
HETATM    5  C4  UNL     1     -30.633  21.318 -19.881  1.00  0.00     0.044 C 
HETATM    6  N1  UNL     1     -31.521  22.107 -20.107  1.00  0.00    -0.400 N 
ATOM      7  H12 UNL     1     -32.451  21.814 -20.406  1.00  0.00     0.156 HD
ATOM      8  H11 UNL     1     -31.342  23.100 -19.962  1.00  0.00     0.156 HD
BRANCH   5   9
HETATM    9  C5  UNL     1     -29.289  21.742 -19.449  1.00  0.00     0.004 A 
HETATM   10  C6  UNL     1     -29.108  22.250 -18.184  1.00  0.00     0.054 A 
HETATM   11  C7  UNL     1     -27.862  22.700 -17.796  1.00  0.00     0.105 A 
HETATM   12  C9  UNL     1     -26.825  22.625 -18.698  1.00  0.00     0.136 A 
HETATM   13  C11 UNL     1     -26.965  22.125 -19.966  1.00  0.00     0.115 A 
HETATM   14  C13 UNL     1     -28.223  21.672 -20.354  1.00  0.00     0.014 A 
BRANCH  11  15
HETATM   15  O1  UNL     1     -27.723  23.200 -16.526  1.00  0.00    -0.353 OA
HETATM   16  C8  UNL     1     -27.973  24.465 -16.049  1.00  0.00     0.210 C 
ENDBRANCH  11  15
BRANCH  12  17
HETATM   17  O2  UNL     1     -25.574  23.078 -18.308  1.00  0.00    -0.351 OA
HETATM   18  C10 UNL     1     -24.607  22.316 -17.649  1.00  0.00     0.210 C 
ENDBRANCH  12  17
BRANCH  13  19
HETATM   19  O3  UNL     1     -25.861  22.075 -20.833  1.00  0.00    -0.352 OA
HETATM   20  C12 UNL     1     -25.397  23.180 -21.554  1.00  0.00     0.210 C 
ENDBRANCH  13  19
BRANCH  14  21
HETATM   21  C14 UNL     1     -28.346  21.094 -21.666  1.00  0.00     0.040 C 
HETATM   22  C15 UNL     1     -28.592  21.754 -22.781  1.00  0.00     0.076 C 
HETATM   23  S1  UNL     1     -28.849  23.539 -23.000  1.00  0.00    -0.055 SA
HETATM   24  C17 UNL     1     -28.729  21.248 -24.135  1.00  0.00     0.264 C 
HETATM   25  C16 UNL     1     -29.708  23.380 -24.564  1.00  0.00     0.146 C 
HETATM   26  S2  UNL     1     -30.699  24.510 -25.183  1.00  0.00    -0.052 SA
HETATM   27  N2  UNL     1     -29.316  22.114 -25.056  1.00  0.00    -0.307 N 
ATOM     28  H2  UNL     1     -29.456  21.849 -26.031  1.00  0.00     0.170 HD
HETATM   29  O4  UNL     1     -28.331  20.069 -24.466  1.00  0.00    -0.267 OA
ENDBRANCH  14  21
ENDBRANCH   5   9
ENDBRANCH   3   5
TORSDOF 6
ENDMDL
MODEL 2
REMARK VINA RESULT: -7.241039398      3.111      5.362
REMARK  6 active torsions:
REMARK  status: ('A' for Active; 'I' for Inactive)
REMARK    1  A    between atoms: C3_3  and  C4_5 
REMARK    2  A    between atoms: C4_5  and  C5_9 
REMARK    3  A    between atoms: C7_11  and  O1_12 
REMARK    4  A    between atoms: C9_14  and  O2_15 
REMARK    5  A    between atoms: C11_17  and  O3_18 
REMARK    6  A    between atoms: C13_20  and  C14_21 
ROOT
HETATM    1  C1  UNL     1     -24.558  23.460 -26.412  1.00  0.00     0.014 C 
HETATM    2  C2  UNL     1     -24.541  23.890 -25.280  1.00  0.00    -0.091 C 
HETATM    3  C3  UNL     1     -24.526  24.386 -23.903  1.00  0.00     0.210 C 
HETATM    4 CL1  UNL     1     -23.595  23.293 -22.884  1.00  0.00    -0.105 Cl
ENDROOT
BRANCH   3   5
HETATM    5  C4  UNL     1     -25.966  24.428 -23.451  1.00  0.00     0.044 C 
HETATM    6  N1  UNL     1     -26.630  25.403 -23.714  1.00  0.00    -0.400 N 
ATOM      7  H12 UNL     1     -26.264  26.184 -24.258  1.00  0.00     0.156 HD
ATOM      8  H11 UNL     1     -27.602  25.431 -23.408  1.00  0.00     0.156 HD
BRANCH   5   9
HETATM    9  C5  UNL     1     -26.495  23.299 -22.664  1.00  0.00     0.004 A 
HETATM   10  C6  UNL     1     -26.175  23.187 -21.331  1.00  0.00     0.054 A 
HETATM   11  C7  UNL     1     -26.621  22.101 -20.606  1.00  0.00     0.105 A 
HETATM   12  C9  UNL     1     -27.384  21.151 -21.246  1.00  0.00     0.136 A 
HETATM   13  C11 UNL     1     -27.725  21.226 -22.571  1.00  0.00     0.115 A 
HETATM   14  C13 UNL     1     -27.273  22.323 -23.299  1.00  0.00     0.014 A 
BRANCH  11  15
HETATM   15  O1  UNL     1     -26.280  22.027 -19.279  1.00  0.00    -0.353 OA
HETATM   16  C8  UNL     1     -25.082  22.309 -18.664  1.00  0.00     0.210 C 
ENDBRANCH  11  15
BRANCH  12  17
HETATM   17  O2  UNL     1     -27.832  20.060 -20.516  1.00  0.00    -0.351 OA
HETATM   18  C10 UNL     1     -28.906  20.069 -19.624  1.00  0.00     0.210 C 
ENDBRANCH  12  17
BRANCH  13  19
HETATM   19  O3  UNL     1     -28.511  20.221 -23.158  1.00  0.00    -0.352 OA
HETATM   20  C12 UNL     1     -29.909  20.206 -23.105  1.00  0.00     0.210 C 
ENDBRANCH  13  19
BRANCH  14  21
HETATM   21  C14 UNL     1     -27.686  22.424 -24.674  1.00  0.00     0.040 C 
HETATM   22  C15 UNL     1     -28.772  23.031 -25.112  1.00  0.00     0.076 C 
HETATM   23  S1  UNL     1     -30.044  23.898 -24.148  1.00  0.00    -0.055 SA
HETATM   24  C17 UNL     1     -29.256  23.176 -26.474  1.00  0.00     0.264 C 
HETATM   25  C16 UNL     1     -31.306  23.776 -25.413  1.00  0.00     0.146 C 
HETATM   26  S2  UNL     1     -32.902  23.894 -25.130  1.00  0.00    -0.052 SA
HETATM   27  N2  UNL     1     -30.586  23.567 -26.612  1.00  0.00    -0.307 N 
ATOM     28  H2  UNL     1     -31.017  23.695 -27.528  1.00  0.00     0.170 HD
HETATM   29  O4  UNL     1     -28.500  22.956 -27.493  1.00  0.00    -0.267 OA
ENDBRANCH  14  21
ENDBRANCH   5   9
ENDBRANCH   3   5
TORSDOF 6
ENDMDL
MODEL 3
REMARK VINA RESULT: -7.083903447      2.758      4.461
REMARK  6 active torsions:
REMARK  status: ('A' for Active; 'I' for Inactive)
REMARK    1  A    between atoms: C3_3  and  C4_5 
REMARK    2  A    between atoms: C4_5  and  C5_9 
REMARK    3  A    between atoms: C7_11  and  O1_12 
REMARK    4  A    between atoms: C9_14  and  O2_15 
REMARK    5  A    between atoms: C11_17  and  O3_18 
REMARK    6  A    between atoms: C13_20  and  C14_21 
ROOT
HETATM    1  C1  UNL     1     -26.369  22.343 -25.702  1.00  0.00     0.014 C 
HETATM    2  C2  UNL     1     -26.365  22.975 -24.670  1.00  0.00    -0.091 C 
HETATM    3  C3  UNL     1     -26.334  23.743 -23.424  1.00  0.00     0.210 C 
HETATM    4 CL1  UNL     1     -25.464  25.255 -23.676  1.00  0.00    -0.105 Cl
ENDROOT
BRANCH   3   5
HETATM    5  C4  UNL     1     -25.613  22.885 -22.413  1.00  0.00     0.044 C 
HETATM    6  N1  UNL     1     -24.567  22.369 -22.729  1.00  0.00    -0.400 N 
ATOM      7  H12 UNL     1     -24.137  22.517 -23.642  1.00  0.00     0.156 HD
ATOM      8  H11 UNL     1     -24.080  21.789 -22.046  1.00  0.00     0.156 HD
BRANCH   5   9
HETATM    9  C5  UNL     1     -26.234  22.671 -21.093  1.00  0.00     0.004 A 
HETATM   10  C6  UNL     1     -25.807  23.405 -20.011  1.00  0.00     0.054 A 
HETATM   11  C7  UNL     1     -26.346  23.167 -18.763  1.00  0.00     0.105 A 
HETATM   12  C9  UNL     1     -27.308  22.191 -18.637  1.00  0.00     0.136 A 
HETATM   13  C11 UNL     1     -27.760  21.439 -19.690  1.00  0.00     0.115 A 
HETATM   14  C13 UNL     1     -27.213  21.682 -20.947  1.00  0.00     0.014 A 
BRANCH  11  15
HETATM   15  O1  UNL     1     -25.893  23.921 -17.710  1.00  0.00    -0.353 OA
HETATM   16  C8  UNL     1     -26.297  25.164 -17.282  1.00  0.00     0.210 C 
ENDBRANCH  11  15
BRANCH  12  17
HETATM   17  O2  UNL     1     -27.849  21.952 -17.383  1.00  0.00    -0.351 OA
HETATM   18  C10 UNL     1     -28.888  22.679 -16.798  1.00  0.00     0.210 C 
ENDBRANCH  12  17
BRANCH  13  19
HETATM   19  O3  UNL     1     -28.748  20.461 -19.488  1.00  0.00    -0.352 OA
HETATM   20  C12 UNL     1     -30.117  20.746 -19.449  1.00  0.00     0.210 C 
ENDBRANCH  13  19
BRANCH  14  21
HETATM   21  C14 UNL     1     -27.738  20.929 -22.056  1.00  0.00     0.040 C 
HETATM   22  C15 UNL     1     -28.784  21.258 -22.788  1.00  0.00     0.076 C 
HETATM   23  S1  UNL     1     -29.858  22.715 -22.627  1.00  0.00    -0.055 SA
HETATM   24  C17 UNL     1     -29.372  20.558 -23.916  1.00  0.00     0.264 C 
HETATM   25  C16 UNL     1     -31.237  21.989 -23.510  1.00  0.00     0.146 C 
HETATM   26  S2  UNL     1     -32.776  22.491 -23.378  1.00  0.00    -0.052 SA
HETATM   27  N2  UNL     1     -30.658  20.954 -24.280  1.00  0.00    -0.307 N 
ATOM     28  H2  UNL     1     -31.154  20.521 -25.059  1.00  0.00     0.170 HD
HETATM   29  O4  UNL     1     -28.742  19.626 -24.542  1.00  0.00    -0.267 OA
ENDBRANCH  14  21
ENDBRANCH   5   9
ENDBRANCH   3   5
TORSDOF 6
ENDMDL
MODEL 4
REMARK VINA RESULT: -7.014920808      2.844      4.858
REMARK  6 active torsions:
REMARK  status: ('A' for Active; 'I' for Inactive)
REMARK    1  A    between atoms: C3_3  and  C4_5 
REMARK    2  A    between atoms: C4_5  and  C5_9 
REMARK    3  A    between atoms: C7_11  and  O1_12 
REMARK    4  A    between atoms: C9_14  and  O2_15 
REMARK    5  A    between atoms: C11_17  and  O3_18 
REMARK    6  A    between atoms: C13_20  and  C14_21 
ROOT
HETATM    1  C1  UNL     1     -23.338  23.270 -22.763  1.00  0.00     0.014 C 
HETATM    2  C2  UNL     1     -24.458  22.858 -22.963  1.00  0.00    -0.091 C 
HETATM    3  C3  UNL     1     -25.818  22.381 -23.221  1.00  0.00     0.210 C 
HETATM    4 CL1  UNL     1     -26.134  22.385 -24.953  1.00  0.00    -0.105 Cl
ENDROOT
BRANCH   3   5
HETATM    5  C4  UNL     1     -26.746  23.341 -22.516  1.00  0.00     0.044 C 
HETATM    6  N1  UNL     1     -26.919  24.438 -22.992  1.00  0.00    -0.400 N 
ATOM      7  H12 UNL     1     -26.487  24.728 -23.869  1.00  0.00     0.156 HD
ATOM      8  H11 UNL     1     -27.546  25.086 -22.516  1.00  0.00     0.156 HD
BRANCH   5   9
HETATM    9  C5  UNL     1     -27.371  22.921 -21.248  1.00  0.00     0.004 A 
HETATM   10  C6  UNL     1     -26.589  22.734 -20.132  1.00  0.00     0.054 A 
HETATM   11  C7  UNL     1     -27.161  22.287 -18.958  1.00  0.00     0.105 A 
HETATM   12  C9  UNL     1     -28.515  22.039 -18.940  1.00  0.00     0.136 A 
HETATM   13  C11 UNL     1     -29.328  22.214 -20.029  1.00  0.00     0.115 A 
HETATM   14  C13 UNL     1     -28.746  22.665 -21.211  1.00  0.00     0.014 A 
BRANCH  11  15
HETATM   15  O1  UNL     1     -26.347  22.113 -17.868  1.00  0.00    -0.353 OA
HETATM   16  C8  UNL     1     -25.106  22.645 -17.606  1.00  0.00     0.210 C 
ENDBRANCH  11  15
BRANCH  12  17
HETATM   17  O2  UNL     1     -29.089  21.589 -17.761  1.00  0.00    -0.351 OA
HETATM   18  C10 UNL     1     -29.418  22.388 -16.664  1.00  0.00     0.210 C 
ENDBRANCH  12  17
BRANCH  13  19
HETATM   19  O3  UNL     1     -30.703  21.945 -19.936  1.00  0.00    -0.352 OA
HETATM   20  C12 UNL     1     -31.253  20.671 -20.114  1.00  0.00     0.210 C 
ENDBRANCH  13  19
BRANCH  14  21
HETATM   21  C14 UNL     1     -29.618  22.903 -22.331  1.00  0.00     0.040 C 
HETATM   22  C15 UNL     1     -29.793  22.094 -23.359  1.00  0.00     0.076 C 
HETATM   23  S1  UNL     1     -29.012  20.485 -23.671  1.00  0.00    -0.055 SA
HETATM   24  C17 UNL     1     -30.648  22.259 -24.521  1.00  0.00     0.264 C 
HETATM   25  C16 UNL     1     -29.318  20.505 -25.436  1.00  0.00     0.146 C 
HETATM   26  S2  UNL     1     -28.488  19.623 -26.520  1.00  0.00    -0.052 SA
HETATM   27  N2  UNL     1     -30.385  21.418 -25.600  1.00  0.00    -0.307 N 
ATOM     28  H2  UNL     1     -30.931  21.459 -26.460  1.00  0.00     0.170 HD
HETATM   29  O4  UNL     1     -31.595  23.132 -24.551  1.00  0.00    -0.267 OA
ENDBRANCH  14  21
ENDBRANCH   5   9
ENDBRANCH   3   5
TORSDOF 6
ENDMDL
MODEL 5
REMARK VINA RESULT: -6.978768825      3.095      5.075
REMARK  6 active torsions:
REMARK  status: ('A' for Active; 'I' for Inactive)
REMARK    1  A    between atoms: C3_3  and  C4_5 
REMARK    2  A    between atoms: C4_5  and  C5_9 
REMARK    3  A    between atoms: C7_11  and  O1_12 
REMARK    4  A    between atoms: C9_14  and  O2_15 
REMARK    5  A    between atoms: C11_17  and  O3_18 
REMARK    6  A    between atoms: C13_20  and  C14_21 
ROOT
HETATM    1  C1  UNL     1     -24.738  22.869 -19.367  1.00  0.00     0.014 C 
HETATM    2  C2  UNL     1     -24.886  22.724 -20.559  1.00  0.00    -0.091 C 
HETATM    3  C3  UNL     1     -25.063  22.575 -22.005  1.00  0.00     0.210 C 
HETATM    4 CL1  UNL     1     -23.810  23.475 -22.856  1.00  0.00    -0.105 Cl
ENDROOT
BRANCH   3   5
HETATM    5  C4  UNL     1     -26.425  23.139 -22.328  1.00  0.00     0.044 C 
HETATM    6  N1  UNL     1     -26.495  24.224 -22.855  1.00  0.00    -0.400 N 
ATOM      7  H12 UNL     1     -25.668  24.759 -23.119  1.00  0.00     0.156 HD
ATOM      8  H11 UNL     1     -27.416  24.605 -23.072  1.00  0.00     0.156 HD
BRANCH   5   9
HETATM    9  C5  UNL     1     -27.622  22.366 -21.946  1.00  0.00     0.004 A 
HETATM   10  C6  UNL     1     -28.243  22.621 -20.745  1.00  0.00     0.054 A 
HETATM   11  C7  UNL     1     -29.329  21.862 -20.358  1.00  0.00     0.105 A 
HETATM   12  C9  UNL     1     -29.762  20.860 -21.196  1.00  0.00     0.136 A 
HETATM   13  C11 UNL     1     -29.172  20.575 -22.400  1.00  0.00     0.115 A 
HETATM   14  C13 UNL     1     -28.077  21.344 -22.786  1.00  0.00     0.014 A 
BRANCH  11  15
HETATM   15  O1  UNL     1     -29.920  22.148 -19.154  1.00  0.00    -0.353 OA
HETATM   16  C8  UNL     1     -29.439  21.974 -17.877  1.00  0.00     0.210 C 
ENDBRANCH  11  15
BRANCH  12  17
HETATM   17  O2  UNL     1     -30.853  20.097 -20.807  1.00  0.00    -0.351 OA
HETATM   18  C10 UNL     1     -30.802  18.975 -19.976  1.00  0.00     0.210 C 
ENDBRANCH  12  17
BRANCH  13  19
HETATM   19  O3  UNL     1     -29.671  19.540 -23.206  1.00  0.00    -0.352 OA
HETATM   20  C12 UNL     1     -30.748  19.699 -24.085  1.00  0.00     0.210 C 
ENDBRANCH  13  19
BRANCH  14  21
HETATM   21  C14 UNL     1     -27.501  21.077 -24.078  1.00  0.00     0.040 C 
HETATM   22  C15 UNL     1     -27.800  21.699 -25.201  1.00  0.00     0.076 C 
HETATM   23  S1  UNL     1     -28.996  23.041 -25.460  1.00  0.00    -0.055 SA
HETATM   24  C17 UNL     1     -27.267  21.491 -26.536  1.00  0.00     0.264 C 
HETATM   25  C16 UNL     1     -29.170  22.755 -27.220  1.00  0.00     0.146 C 
HETATM   26  S2  UNL     1     -30.442  23.243 -28.106  1.00  0.00    -0.052 SA
HETATM   27  N2  UNL     1     -27.998  22.051 -27.581  1.00  0.00    -0.307 N 
ATOM     28  H2  UNL     1     -27.705  21.958 -28.554  1.00  0.00     0.170 HD
HETATM   29  O4  UNL     1     -26.183  20.827 -26.740  1.00  0.00    -0.267 OA
ENDBRANCH  14  21
ENDBRANCH   5   9
ENDBRANCH   3   5
TORSDOF 6
ENDMDL
