MODEL 1
REMARK VINA RESULT: -7.929476150      0.000      0.000
REMARK  10 active torsions:
REMARK  status: ('A' for Active; 'I' for Inactive)
REMARK    1  A    between atoms: C2_2  and  O1_3 
REMARK    2  A    between atoms: O1_3  and  C3_4 
REMARK    3  A    between atoms: C3_4  and  C4_6 
REMARK    4  A    between atoms: C4_6  and  C6_9 
REMARK    5  A    between atoms: C6_9  and  C18_28 
REMARK    6  A    between atoms: N2_10  and  N3_12 
REMARK    7  A    between atoms: N3_12  and  C7_14 
REMARK    8  A    between atoms: C10_17  and  C11_18 
REMARK    9  A    between atoms: C12_19  and  C13_20 
REMARK   10  A    between atoms: C17_25  and  O4_26 
ROOT
HETATM    1  C4  UNL     1     -28.100  21.671 -18.007  1.00  0.00     0.244 C 
HETATM    2  C5  UNL     1     -28.637  22.683 -17.110  1.00  0.00     0.080 C 
HETATM    3  N1  UNL     1     -29.072  23.490 -16.398  1.00  0.00    -0.196 NA
ENDROOT
BRANCH   1   4
HETATM    4  C3  UNL     1     -28.849  20.389 -17.903  1.00  0.00     0.282 C 
HETATM    5  O2  UNL     1     -29.395  19.981 -16.849  1.00  0.00    -0.263 OA
BRANCH   4   6
HETATM    6  O1  UNL     1     -28.966  19.567 -19.026  1.00  0.00    -0.321 OA
BRANCH   6   7
HETATM    7  C2  UNL     1     -29.787  18.415 -18.962  1.00  0.00     0.174 C 
HETATM    8  C1  UNL     1     -29.826  17.782 -20.316  1.00  0.00     0.034 C 
ENDBRANCH   6   7
ENDBRANCH   4   6
ENDBRANCH   1   4
BRANCH   1   9
HETATM    9  C6  UNL     1     -28.087  22.203 -19.383  1.00  0.00     0.063 C 
HETATM   10  N2  UNL     1     -29.210  22.406 -19.961  1.00  0.00    -0.302 N 
ATOM     11  H2  UNL     1     -29.157  22.777 -20.910  1.00  0.00     0.186 HD
BRANCH  10  12
HETATM   12  N3  UNL     1     -30.481  22.192 -19.474  1.00  0.00    -0.298 N 
ATOM     13  H3  UNL     1     -30.721  22.366 -18.498  1.00  0.00     0.187 HD
BRANCH  12  14
HETATM   14  C7  UNL     1     -31.439  21.711 -20.411  1.00  0.00     0.081 A 
HETATM   15  C8  UNL     1     -32.122  20.543 -20.178  1.00  0.00     0.035 A 
HETATM   16  C9  UNL     1     -33.033  20.070 -21.097  1.00  0.00     0.024 A 
HETATM   17  C10 UNL     1     -33.303  20.737 -22.282  1.00  0.00     0.026 A 
HETATM   18  C15 UNL     1     -32.599  21.910 -22.484  1.00  0.00    -0.008 A 
HETATM   19  C16 UNL     1     -32.869  22.661 -23.745  1.00  0.00     0.052 C 
HETATM   20  C17 UNL     1     -31.676  22.402 -21.567  1.00  0.00     0.101 A 
BRANCH  17  21
HETATM   21  C11 UNL     1     -34.245  20.222 -23.249  1.00  0.00    -0.058 C 
HETATM   22  C12 UNL     1     -35.034  19.763 -24.049  1.00  0.00    -0.024 C 
BRANCH  22  23
HETATM   23  C13 UNL     1     -35.944  19.207 -25.004  1.00  0.00     0.198 C 
HETATM   24  C14 UNL     1     -37.358  18.913 -24.673  1.00  0.00     0.106 C 
HETATM   25  O3  UNL     1     -35.523  18.962 -26.158  1.00  0.00    -0.284 OA
ENDBRANCH  22  23
ENDBRANCH  17  21
BRANCH  20  26
HETATM   26  O4  UNL     1     -31.045  23.589 -21.898  1.00  0.00    -0.358 OA
ATOM     27  H4  UNL     1     -31.471  24.304 -22.355  1.00  0.00     0.217 HD
ENDBRANCH  20  26
ENDBRANCH  12  14
ENDBRANCH  10  12
BRANCH   9  28
HETATM   28  C18 UNL     1     -26.887  22.508 -20.148  1.00  0.00    -0.010 A 
HETATM   29  C19 UNL     1     -26.956  22.700 -21.517  1.00  0.00     0.016 A 
HETATM   30  C20 UNL     1     -25.857  22.976 -22.282  1.00  0.00     0.043 A 
HETATM   31  C21 UNL     1     -24.621  23.073 -21.693  1.00  0.00     0.116 A 
HETATM   32  F1  UNL     1     -23.498  23.349 -22.434  1.00  0.00    -0.206 F 
HETATM   33  C22 UNL     1     -24.519  22.890 -20.337  1.00  0.00     0.043 A 
HETATM   34  C23 UNL     1     -25.652  22.606 -19.564  1.00  0.00     0.016 A 
ENDBRANCH   9  28
ENDBRANCH   1   9
TORSDOF 10
ENDMDL
MODEL 2
REMARK VINA RESULT: -7.744148278      3.191      4.821
REMARK  10 active torsions:
REMARK  status: ('A' for Active; 'I' for Inactive)
REMARK    1  A    between atoms: C2_2  and  O1_3 
REMARK    2  A    between atoms: O1_3  and  C3_4 
REMARK    3  A    between atoms: C3_4  and  C4_6 
REMARK    4  A    between atoms: C4_6  and  C6_9 
REMARK    5  A    between atoms: C6_9  and  C18_28 
REMARK    6  A    between atoms: N2_10  and  N3_12 
REMARK    7  A    between atoms: N3_12  and  C7_14 
REMARK    8  A    between atoms: C10_17  and  C11_18 
REMARK    9  A    between atoms: C12_19  and  C13_20 
REMARK   10  A    between atoms: C17_25  and  O4_26 
ROOT
HETATM    1  C4  UNL     1     -27.329  23.167 -23.865  1.00  0.00     0.244 C 
HETATM    2  C5  UNL     1     -27.001  24.534 -23.487  1.00  0.00     0.080 C 
HETATM    3  N1  UNL     1     -26.734  25.620 -23.182  1.00  0.00    -0.196 NA
ENDROOT
BRANCH   1   4
HETATM    4  C3  UNL     1     -26.297  22.580 -24.762  1.00  0.00     0.282 C 
HETATM    5  O2  UNL     1     -25.324  23.224 -25.225  1.00  0.00    -0.263 OA
BRANCH   4   6
HETATM    6  O1  UNL     1     -26.389  21.237 -25.132  1.00  0.00    -0.321 OA
BRANCH   6   7
HETATM    7  C2  UNL     1     -26.213  20.876 -26.490  1.00  0.00     0.174 C 
HETATM    8  C1  UNL     1     -27.468  21.200 -27.236  1.00  0.00     0.034 C 
ENDBRANCH   6   7
ENDBRANCH   4   6
ENDBRANCH   1   4
BRANCH   1   9
HETATM    9  C6  UNL     1     -27.533  22.364 -22.645  1.00  0.00     0.063 C 
HETATM   10  N2  UNL     1     -28.384  21.410 -22.686  1.00  0.00    -0.302 N 
ATOM     11  H2  UNL     1     -28.493  20.878 -21.823  1.00  0.00     0.186 HD
BRANCH  10  12
HETATM   12  N3  UNL     1     -29.173  21.006 -23.741  1.00  0.00    -0.298 N 
ATOM     13  H3  UNL     1     -28.775  20.719 -24.634  1.00  0.00     0.187 HD
BRANCH  12  14
HETATM   14  C7  UNL     1     -30.579  21.011 -23.510  1.00  0.00     0.081 A 
HETATM   15  C8  UNL     1     -31.427  21.655 -24.376  1.00  0.00     0.035 A 
HETATM   16  C9  UNL     1     -32.785  21.676 -24.139  1.00  0.00     0.024 A 
HETATM   17  C10 UNL     1     -33.352  21.059 -23.035  1.00  0.00     0.026 A 
HETATM   18  C15 UNL     1     -32.469  20.419 -22.185  1.00  0.00    -0.008 A 
HETATM   19  C16 UNL     1     -33.045  19.736 -20.990  1.00  0.00     0.052 C 
HETATM   20  C17 UNL     1     -31.097  20.388 -22.409  1.00  0.00     0.101 A 
BRANCH  17  21
HETATM   21  C11 UNL     1     -34.775  21.105 -22.784  1.00  0.00    -0.058 C 
HETATM   22  C12 UNL     1     -35.965  21.163 -22.552  1.00  0.00    -0.024 C 
BRANCH  22  23
HETATM   23  C13 UNL     1     -37.364  21.219 -22.255  1.00  0.00     0.198 C 
HETATM   24  C14 UNL     1     -38.205  20.003 -22.162  1.00  0.00     0.106 C 
HETATM   25  O3  UNL     1     -37.890  22.341 -22.069  1.00  0.00    -0.284 OA
ENDBRANCH  22  23
ENDBRANCH  17  21
BRANCH  20  26
HETATM   26  O4  UNL     1     -30.332  19.710 -21.477  1.00  0.00    -0.358 OA
ATOM     27  H4  UNL     1     -29.834  18.925 -21.672  1.00  0.00     0.217 HD
ENDBRANCH  20  26
ENDBRANCH  12  14
ENDBRANCH  10  12
BRANCH   9  28
HETATM   28  C18 UNL     1     -26.845  22.579 -21.381  1.00  0.00    -0.010 A 
HETATM   29  C19 UNL     1     -27.560  22.696 -20.201  1.00  0.00     0.016 A 
HETATM   30  C20 UNL     1     -26.962  22.910 -18.990  1.00  0.00     0.043 A 
HETATM   31  C21 UNL     1     -25.596  23.016 -18.912  1.00  0.00     0.116 A 
HETATM   32  F1  UNL     1     -24.965  23.232 -17.711  1.00  0.00    -0.206 F 
HETATM   33  C22 UNL     1     -24.857  22.904 -20.063  1.00  0.00     0.043 A 
HETATM   34  C23 UNL     1     -25.482  22.686 -21.298  1.00  0.00     0.016 A 
ENDBRANCH   9  28
ENDBRANCH   1   9
TORSDOF 10
ENDMDL
MODEL 3
REMARK VINA RESULT: -7.736301145      2.834      4.173
REMARK  10 active torsions:
REMARK  status: ('A' for Active; 'I' for Inactive)
REMARK    1  A    between atoms: C2_2  and  O1_3 
REMARK    2  A    between atoms: O1_3  and  C3_4 
REMARK    3  A    between atoms: C3_4  and  C4_6 
REMARK    4  A    between atoms: C4_6  and  C6_9 
REMARK    5  A    between atoms: C6_9  and  C18_28 
REMARK    6  A    between atoms: N2_10  and  N3_12 
REMARK    7  A    between atoms: N3_12  and  C7_14 
REMARK    8  A    between atoms: C10_17  and  C11_18 
REMARK    9  A    between atoms: C12_19  and  C13_20 
REMARK   10  A    between atoms: C17_25  and  O4_26 
ROOT
HETATM    1  C4  UNL     1     -27.963  20.935 -20.805  1.00  0.00     0.244 C 
HETATM    2  C5  UNL     1     -28.699  19.692 -20.632  1.00  0.00     0.080 C 
HETATM    3  N1  UNL     1     -29.292  18.705 -20.498  1.00  0.00    -0.196 NA
ENDROOT
BRANCH   1   4
HETATM    4  C3  UNL     1     -27.733  21.245 -22.242  1.00  0.00     0.282 C 
HETATM    5  O2  UNL     1     -28.155  20.536 -23.188  1.00  0.00    -0.263 OA
BRANCH   4   6
HETATM    6  O1  UNL     1     -27.005  22.385 -22.593  1.00  0.00    -0.321 OA
BRANCH   6   7
HETATM    7  C2  UNL     1     -25.598  22.297 -22.724  1.00  0.00     0.174 C 
HETATM    8  C1  UNL     1     -24.967  22.989 -21.558  1.00  0.00     0.034 C 
ENDBRANCH   6   7
ENDBRANCH   4   6
ENDBRANCH   1   4
BRANCH   1   9
HETATM    9  C6  UNL     1     -28.676  22.021 -20.105  1.00  0.00     0.063 C 
HETATM   10  N2  UNL     1     -29.637  22.603 -20.715  1.00  0.00    -0.302 N 
ATOM     11  H2  UNL     1     -30.105  23.345 -20.195  1.00  0.00     0.186 HD
BRANCH  10  12
HETATM   12  N3  UNL     1     -30.124  22.361 -21.981  1.00  0.00    -0.298 N 
ATOM     13  H3  UNL     1     -29.546  22.475 -22.813  1.00  0.00     0.187 HD
BRANCH  12  14
HETATM   14  C7  UNL     1     -31.484  21.944 -22.060  1.00  0.00     0.081 A 
HETATM   15  C8  UNL     1     -31.995  21.051 -21.151  1.00  0.00     0.035 A 
HETATM   16  C9  UNL     1     -33.305  20.633 -21.243  1.00  0.00     0.024 A 
HETATM   17  C10 UNL     1     -34.158  21.084 -22.238  1.00  0.00     0.026 A 
HETATM   18  C15 UNL     1     -33.611  21.983 -23.135  1.00  0.00    -0.008 A 
HETATM   19  C16 UNL     1     -34.501  22.497 -24.216  1.00  0.00     0.052 C 
HETATM   20  C17 UNL     1     -32.291  22.416 -23.058  1.00  0.00     0.101 A 
BRANCH  17  21
HETATM   21  C11 UNL     1     -35.524  20.623 -22.338  1.00  0.00    -0.058 C 
HETATM   22  C12 UNL     1     -36.675  20.242 -22.394  1.00  0.00    -0.024 C 
BRANCH  22  23
HETATM   23  C13 UNL     1     -38.026  19.771 -22.444  1.00  0.00     0.198 C 
HETATM   24  C14 UNL     1     -38.506  18.849 -23.499  1.00  0.00     0.106 C 
HETATM   25  O3  UNL     1     -38.825  20.157 -21.560  1.00  0.00    -0.284 OA
ENDBRANCH  22  23
ENDBRANCH  17  21
BRANCH  20  26
HETATM   26  O4  UNL     1     -31.877  23.318 -24.022  1.00  0.00    -0.358 OA
ATOM     27  H4  UNL     1     -31.943  23.161 -24.956  1.00  0.00     0.217 HD
ENDBRANCH  20  26
ENDBRANCH  12  14
ENDBRANCH  10  12
BRANCH   9  28
HETATM   28  C18 UNL     1     -28.363  22.495 -18.765  1.00  0.00    -0.010 A 
HETATM   29  C19 UNL     1     -29.269  22.332 -17.731  1.00  0.00     0.016 A 
HETATM   30  C20 UNL     1     -29.029  22.770 -16.459  1.00  0.00     0.043 A 
HETATM   31  C21 UNL     1     -27.846  23.402 -16.166  1.00  0.00     0.116 A 
HETATM   32  F1  UNL     1     -27.574  23.854 -14.897  1.00  0.00    -0.206 F 
HETATM   33  C22 UNL     1     -26.926  23.579 -17.168  1.00  0.00     0.043 A 
HETATM   34  C23 UNL     1     -27.184  23.126 -18.468  1.00  0.00     0.016 A 
ENDBRANCH   9  28
ENDBRANCH   1   9
TORSDOF 10
ENDMDL
MODEL 4
REMARK VINA RESULT: -7.674468511      3.516      7.696
REMARK  10 active torsions:
REMARK  status: ('A' for Active; 'I' for Inactive)
REMARK    1  A    between atoms: C2_2  and  O1_3 
REMARK    2  A    between atoms: O1_3  and  C3_4 
REMARK    3  A    between atoms: C3_4  and  C4_6 
REMARK    4  A    between atoms: C4_6  and  C6_9 
REMARK    5  A    between atoms: C6_9  and  C18_28 
REMARK    6  A    between atoms: N2_10  and  N3_12 
REMARK    7  A    between atoms: N3_12  and  C7_14 
REMARK    8  A    between atoms: C10_17  and  C11_18 
REMARK    9  A    between atoms: C12_19  and  C13_20 
REMARK   10  A    between atoms: C17_25  and  O4_26 
ROOT
HETATM    1  C4  UNL     1     -29.122  21.896 -23.667  1.00  0.00     0.244 C 
HETATM    2  C5  UNL     1     -29.388  23.088 -24.457  1.00  0.00     0.080 C 
HETATM    3  N1  UNL     1     -29.597  24.036 -25.092  1.00  0.00    -0.196 NA
ENDROOT
BRANCH   1   4
HETATM    4  C3  UNL     1     -29.752  20.687 -24.263  1.00  0.00     0.282 C 
HETATM    5  O2  UNL     1     -30.460  20.705 -25.300  1.00  0.00    -0.263 OA
BRANCH   4   6
HETATM    6  O1  UNL     1     -29.568  19.443 -23.656  1.00  0.00    -0.321 OA
BRANCH   6   7
HETATM    7  C2  UNL     1     -30.698  18.697 -23.241  1.00  0.00     0.174 C 
HETATM    8  C1  UNL     1     -31.244  19.314 -21.993  1.00  0.00     0.034 C 
ENDBRANCH   6   7
ENDBRANCH   4   6
ENDBRANCH   1   4
BRANCH   1   9
HETATM    9  C6  UNL     1     -27.664  21.742 -23.500  1.00  0.00     0.063 C 
HETATM   10  N2  UNL     1     -27.235  21.164 -22.443  1.00  0.00    -0.302 N 
ATOM     11  H2  UNL     1     -26.222  21.076 -22.367  1.00  0.00     0.186 HD
BRANCH  10  12
HETATM   12  N3  UNL     1     -27.960  20.645 -21.392  1.00  0.00    -0.298 N 
ATOM     13  H3  UNL     1     -28.513  19.793 -21.487  1.00  0.00     0.187 HD
BRANCH  12  14
HETATM   14  C7  UNL     1     -27.891  21.366 -20.166  1.00  0.00     0.081 A 
HETATM   15  C8  UNL     1     -29.034  21.679 -19.474  1.00  0.00     0.035 A 
HETATM   16  C9  UNL     1     -28.966  22.395 -18.298  1.00  0.00     0.024 A 
HETATM   17  C10 UNL     1     -27.762  22.827 -17.764  1.00  0.00     0.026 A 
HETATM   18  C15 UNL     1     -26.631  22.493 -18.486  1.00  0.00    -0.008 A 
HETATM   19  C16 UNL     1     -25.316  22.934 -17.938  1.00  0.00     0.052 C 
HETATM   20  C17 UNL     1     -26.682  21.771 -19.673  1.00  0.00     0.101 A 
BRANCH  17  21
HETATM   21  C11 UNL     1     -27.703  23.596 -16.542  1.00  0.00    -0.058 C 
HETATM   22  C12 UNL     1     -27.639  24.262 -15.529  1.00  0.00    -0.024 C 
BRANCH  22  23
HETATM   23  C13 UNL     1     -27.537  25.044 -14.334  1.00  0.00     0.198 C 
HETATM   24  C14 UNL     1     -27.143  26.472 -14.352  1.00  0.00     0.106 C 
HETATM   25  O3  UNL     1     -27.790  24.494 -13.238  1.00  0.00    -0.284 OA
ENDBRANCH  22  23
ENDBRANCH  17  21
BRANCH  20  26
HETATM   26  O4  UNL     1     -25.472  21.506 -20.290  1.00  0.00    -0.358 OA
ATOM     27  H4  UNL     1     -25.043  20.659 -20.271  1.00  0.00     0.217 HD
ENDBRANCH  20  26
ENDBRANCH  12  14
ENDBRANCH  10  12
BRANCH   9  28
HETATM   28  C18 UNL     1     -26.662  22.211 -24.446  1.00  0.00    -0.010 A 
HETATM   29  C19 UNL     1     -25.804  23.244 -24.109  1.00  0.00     0.016 A 
HETATM   30  C20 UNL     1     -24.855  23.728 -24.966  1.00  0.00     0.043 A 
HETATM   31  C21 UNL     1     -24.726  23.186 -26.220  1.00  0.00     0.116 A 
HETATM   32  F1  UNL     1     -23.783  23.651 -27.104  1.00  0.00    -0.206 F 
HETATM   33  C22 UNL     1     -25.561  22.160 -26.585  1.00  0.00     0.043 A 
HETATM   34  C23 UNL     1     -26.530  21.673 -25.699  1.00  0.00     0.016 A 
ENDBRANCH   9  28
ENDBRANCH   1   9
TORSDOF 10
ENDMDL
MODEL 5
REMARK VINA RESULT: -7.673098574      3.965      7.887
REMARK  10 active torsions:
REMARK  status: ('A' for Active; 'I' for Inactive)
REMARK    1  A    between atoms: C2_2  and  O1_3 
REMARK    2  A    between atoms: O1_3  and  C3_4 
REMARK    3  A    between atoms: C3_4  and  C4_6 
REMARK    4  A    between atoms: C4_6  and  C6_9 
REMARK    5  A    between atoms: C6_9  and  C18_28 
REMARK    6  A    between atoms: N2_10  and  N3_12 
REMARK    7  A    between atoms: N3_12  and  C7_14 
REMARK    8  A    between atoms: C10_17  and  C11_18 
REMARK    9  A    between atoms: C12_19  and  C13_20 
REMARK   10  A    between atoms: C17_25  and  O4_26 
ROOT
HETATM    1  C4  UNL     1     -29.013  22.557 -23.591  1.00  0.00     0.244 C 
HETATM    2  C5  UNL     1     -29.051  23.952 -24.003  1.00  0.00     0.080 C 
HETATM    3  N1  UNL     1     -29.079  25.062 -24.338  1.00  0.00    -0.196 NA
ENDROOT
BRANCH   1   4
HETATM    4  C3  UNL     1     -29.858  21.700 -24.466  1.00  0.00     0.282 C 
HETATM    5  O2  UNL     1     -30.131  20.500 -24.218  1.00  0.00    -0.263 OA
BRANCH   4   6
HETATM    6  O1  UNL     1     -30.393  22.231 -25.642  1.00  0.00    -0.321 OA
BRANCH   6   7
HETATM    7  C2  UNL     1     -29.883  21.805 -26.892  1.00  0.00     0.174 C 
HETATM    8  C1  UNL     1     -29.390  23.002 -27.640  1.00  0.00     0.034 C 
ENDBRANCH   6   7
ENDBRANCH   4   6
ENDBRANCH   1   4
BRANCH   1   9
HETATM    9  C6  UNL     1     -27.610  22.104 -23.550  1.00  0.00     0.063 C 
HETATM   10  N2  UNL     1     -27.261  21.304 -22.615  1.00  0.00    -0.302 N 
ATOM     11  H2  UNL     1     -26.284  21.013 -22.624  1.00  0.00     0.186 HD
BRANCH  10  12
HETATM   12  N3  UNL     1     -28.031  20.783 -21.597  1.00  0.00    -0.298 N 
ATOM     13  H3  UNL     1     -28.620  19.962 -21.733  1.00  0.00     0.187 HD
BRANCH  12  14
HETATM   14  C7  UNL     1     -27.954  21.457 -20.345  1.00  0.00     0.081 A 
HETATM   15  C8  UNL     1     -29.096  21.791 -19.660  1.00  0.00     0.035 A 
HETATM   16  C9  UNL     1     -29.019  22.462 -18.459  1.00  0.00     0.024 A 
HETATM   17  C10 UNL     1     -27.808  22.827 -17.891  1.00  0.00     0.026 A 
HETATM   18  C15 UNL     1     -26.679  22.474 -18.607  1.00  0.00    -0.008 A 
HETATM   19  C16 UNL     1     -25.356  22.842 -18.023  1.00  0.00     0.052 C 
HETATM   20  C17 UNL     1     -26.738  21.796 -19.820  1.00  0.00     0.101 A 
BRANCH  17  21
HETATM   21  C11 UNL     1     -27.739  23.550 -16.641  1.00  0.00    -0.058 C 
HETATM   22  C12 UNL     1     -27.677  24.181 -15.606  1.00  0.00    -0.024 C 
BRANCH  22  23
HETATM   23  C13 UNL     1     -27.577  24.930 -14.391  1.00  0.00     0.198 C 
HETATM   24  C14 UNL     1     -27.475  24.279 -13.064  1.00  0.00     0.106 C 
HETATM   25  O3  UNL     1     -27.578  26.181 -14.458  1.00  0.00    -0.284 OA
ENDBRANCH  22  23
ENDBRANCH  17  21
BRANCH  20  26
HETATM   26  O4  UNL     1     -25.529  21.505 -20.428  1.00  0.00    -0.358 OA
ATOM     27  H4  UNL     1     -25.430  21.350 -21.359  1.00  0.00     0.217 HD
ENDBRANCH  20  26
ENDBRANCH  12  14
ENDBRANCH  10  12
BRANCH   9  28
HETATM   28  C18 UNL     1     -26.575  22.507 -24.491  1.00  0.00    -0.010 A 
HETATM   29  C19 UNL     1     -26.454  21.876 -25.717  1.00  0.00     0.016 A 
HETATM   30  C20 UNL     1     -25.493  22.209 -26.630  1.00  0.00     0.043 A 
HETATM   31  C21 UNL     1     -24.597  23.209 -26.345  1.00  0.00     0.116 A 
HETATM   32  F1  UNL     1     -23.619  23.566 -27.241  1.00  0.00    -0.206 F 
HETATM   33  C22 UNL     1     -24.690  23.856 -25.139  1.00  0.00     0.043 A 
HETATM   34  C23 UNL     1     -25.679  23.504 -24.211  1.00  0.00     0.016 A 
ENDBRANCH   9  28
ENDBRANCH   1   9
TORSDOF 10
ENDMDL
