MODEL 1
REMARK VINA RESULT: -4.549212269      0.000      0.000
REMARK  6 active torsions:
REMARK  status: ('A' for Active; 'I' for Inactive)
REMARK    1  A    between atoms: C3_6  and  C4_7 
REMARK    2  A    between atoms: N3_8  and  N4_10 
REMARK       I    between atoms: N4_10  and  C5_12 
REMARK    3  A    between atoms: C5_12  and  C6_14 
REMARK    4  A    between atoms: C7_19  and  S1_20 
REMARK    5  A    between atoms: S1_20  and  N7_21 
REMARK    6  A    between atoms: C9_28  and  O4_29 
ROOT
HETATM    1  N4  UNL     1      17.258  38.603  36.913  1.00  0.00    -0.265 N 
ATOM      2  H4  UNL     1      16.640  38.161  37.593  1.00  0.00     0.190 HD
HETATM    3  C5  UNL     1      18.517  38.008  36.645  1.00  0.00     0.289 C 
HETATM    4  O1  UNL     1      19.299  38.539  35.808  1.00  0.00    -0.264 OA
ENDROOT
BRANCH   3   5
HETATM    5  C6  UNL     1      18.937  36.791  37.313  1.00  0.00     0.145 A 
HETATM    6  N5  UNL     1      20.059  36.668  38.031  1.00  0.00    -0.293 N 
HETATM    7  N6  UNL     1      20.131  35.436  38.493  1.00  0.00    -0.286 N 
ATOM      8  H5  UNL     1      20.745  37.405  38.194  1.00  0.00     0.187 HD
HETATM    9  C7  UNL     1      19.071  34.711  38.101  1.00  0.00     0.190 A 
ATOM     10  H6  UNL     1      20.891  35.080  39.073  1.00  0.00     0.188 HD
HETATM   11  C8  UNL     1      18.293  35.575  37.337  1.00  0.00     0.121 A 
HETATM   12  N8  UNL     1      17.059  35.237  36.708  1.00  0.00    -0.097 NA
BRANCH   9  13
HETATM   13  S1  UNL     1      18.741  33.047  38.469  1.00  0.00     0.275 S 
HETATM   14  O2  UNL     1      19.352  32.625  39.755  1.00  0.00    -0.199 OA
HETATM   15  O3  UNL     1      19.307  32.203  37.360  1.00  0.00    -0.199 OA
BRANCH  13  16
HETATM   16  N7  UNL     1      17.036  32.756  38.500  1.00  0.00    -0.323 N 
ATOM     17  H72 UNL     1      16.462  32.824  39.340  1.00  0.00     0.169 HD
ATOM     18  H71 UNL     1      16.696  32.511  37.570  1.00  0.00     0.169 HD
ENDBRANCH  13  16
ENDBRANCH   9  13
ENDBRANCH   3   5
BRANCH   1  19
HETATM   19  N3  UNL     1      16.839  39.764  36.285  1.00  0.00    -0.309 N 
HETATM   20  C4  UNL     1      15.651  39.896  35.878  1.00  0.00     0.109 C 
ATOM     21  H3  UNL     1      17.502  40.526  36.149  1.00  0.00     0.186 HD
BRANCH  20  22
HETATM   22  C3  UNL     1      15.170  41.071  35.226  1.00  0.00     0.048 C 
HETATM   23  C2  UNL     1      15.652  41.504  34.077  1.00  0.00     0.069 C 
HETATM   24  N2  UNL     1      15.197  42.684  33.381  1.00  0.00    -0.324 N 
HETATM   25  C9  UNL     1      16.717  40.941  33.244  1.00  0.00     0.317 C 
HETATM   26  C1  UNL     1      15.990  42.914  32.428  1.00  0.00     0.234 C 
ATOM     27  H2  UNL     1      14.375  43.238  33.619  1.00  0.00     0.169 HD
HETATM   28  N1  UNL     1      15.818  44.032  31.530  1.00  0.00    -0.056 NA
HETATM   29  O5  UNL     1      17.007  42.016  32.339  1.00  0.00    -0.287 OA
BRANCH  25  30
HETATM   30  O4  UNL     1      16.330  39.807  32.530  1.00  0.00    -0.365 OA
ATOM     31  H4  UNL     1      16.942  39.084  32.600  1.00  0.00     0.213 HD
ENDBRANCH  25  30
ENDBRANCH  20  22
ENDBRANCH   1  19
TORSDOF 6
ENDMDL
MODEL 2
REMARK VINA RESULT: -4.450812307      3.154      8.900
REMARK  6 active torsions:
REMARK  status: ('A' for Active; 'I' for Inactive)
REMARK    1  A    between atoms: C3_6  and  C4_7 
REMARK    2  A    between atoms: N3_8  and  N4_10 
REMARK       I    between atoms: N4_10  and  C5_12 
REMARK    3  A    between atoms: C5_12  and  C6_14 
REMARK    4  A    between atoms: C7_19  and  S1_20 
REMARK    5  A    between atoms: S1_20  and  N7_21 
REMARK    6  A    between atoms: C9_28  and  O4_29 
ROOT
HETATM    1  N4  UNL     1      17.588  39.201  36.939  1.00  0.00    -0.265 N 
ATOM      2  H4  UNL     1      18.267  39.864  36.567  1.00  0.00     0.190 HD
HETATM    3  C5  UNL     1      16.228  39.327  36.556  1.00  0.00     0.289 C 
HETATM    4  O1  UNL     1      15.370  38.518  37.006  1.00  0.00    -0.264 OA
ENDROOT
BRANCH   3   5
HETATM    5  C6  UNL     1      15.790  40.372  35.650  1.00  0.00     0.145 A 
HETATM    6  N5  UNL     1      14.717  41.146  35.847  1.00  0.00    -0.293 N 
HETATM    7  N6  UNL     1      14.611  41.984  34.837  1.00  0.00    -0.286 N 
ATOM      8  H5  UNL     1      14.087  41.096  36.647  1.00  0.00     0.187 HD
HETATM    9  C7  UNL     1      15.599  41.794  33.947  1.00  0.00     0.190 A 
ATOM     10  H6  UNL     1      13.875  42.685  34.742  1.00  0.00     0.188 HD
HETATM   11  C8  UNL     1      16.367  40.755  34.461  1.00  0.00     0.121 A 
HETATM   12  N8  UNL     1      17.532  40.208  33.848  1.00  0.00    -0.097 NA
BRANCH   9  13
HETATM   13  S1  UNL     1      15.862  42.663  32.466  1.00  0.00     0.275 S 
HETATM   14  O2  UNL     1      16.357  44.041  32.705  1.00  0.00    -0.199 OA
HETATM   15  O3  UNL     1      14.552  42.736  31.729  1.00  0.00    -0.199 OA
BRANCH  13  16
HETATM   16  N7  UNL     1      16.965  41.806  31.445  1.00  0.00    -0.323 N 
ATOM     17  H72 UNL     1      17.974  41.787  31.588  1.00  0.00     0.169 HD
ATOM     18  H71 UNL     1      16.464  41.332  30.693  1.00  0.00     0.169 HD
ENDBRANCH  13  16
ENDBRANCH   9  13
ENDBRANCH   3   5
BRANCH   1  19
HETATM   19  N3  UNL     1      18.026  38.209  37.801  1.00  0.00    -0.309 N 
HETATM   20  C4  UNL     1      18.604  37.173  37.369  1.00  0.00     0.109 C 
ATOM     21  H3  UNL     1      17.879  38.318  38.804  1.00  0.00     0.186 HD
BRANCH  20  22
HETATM   22  C3  UNL     1      19.073  36.124  38.215  1.00  0.00     0.048 C 
HETATM   23  C2  UNL     1      18.865  34.847  37.960  1.00  0.00     0.069 C 
HETATM   24  N2  UNL     1      19.321  33.753  38.785  1.00  0.00    -0.324 N 
HETATM   25  C9  UNL     1      18.158  34.226  36.838  1.00  0.00     0.317 C 
HETATM   26  C1  UNL     1      18.793  32.690  38.362  1.00  0.00     0.234 C 
ATOM     27  H2  UNL     1      19.960  33.828  39.575  1.00  0.00     0.169 HD
HETATM   28  N1  UNL     1      19.042  31.405  38.973  1.00  0.00    -0.056 NA
HETATM   29  O5  UNL     1      17.976  32.876  37.292  1.00  0.00    -0.287 OA
BRANCH  25  30
HETATM   30  O4  UNL     1      18.881  34.235  35.645  1.00  0.00    -0.365 OA
ATOM     31  H4  UNL     1      18.789  35.040  35.149  1.00  0.00     0.213 HD
ENDBRANCH  25  30
ENDBRANCH  20  22
ENDBRANCH   1  19
TORSDOF 6
ENDMDL
MODEL 3
REMARK VINA RESULT: -4.382554659      4.174      8.955
REMARK  6 active torsions:
REMARK  status: ('A' for Active; 'I' for Inactive)
REMARK    1  A    between atoms: C3_6  and  C4_7 
REMARK    2  A    between atoms: N3_8  and  N4_10 
REMARK       I    between atoms: N4_10  and  C5_12 
REMARK    3  A    between atoms: C5_12  and  C6_14 
REMARK    4  A    between atoms: C7_19  and  S1_20 
REMARK    5  A    between atoms: S1_20  and  N7_21 
REMARK    6  A    between atoms: C9_28  and  O4_29 
ROOT
HETATM    1  N4  UNL     1      19.000  39.763  37.572  1.00  0.00    -0.265 N 
ATOM      2  H4  UNL     1      18.477  40.518  38.014  1.00  0.00     0.190 HD
HETATM    3  C5  UNL     1      18.668  39.385  36.247  1.00  0.00     0.289 C 
HETATM    4  O1  UNL     1      19.302  38.451  35.680  1.00  0.00    -0.264 OA
ENDROOT
BRANCH   3   5
HETATM    5  C6  UNL     1      17.606  40.048  35.513  1.00  0.00     0.145 A 
HETATM    6  N5  UNL     1      17.736  40.556  34.282  1.00  0.00    -0.293 N 
HETATM    7  N6  UNL     1      16.585  41.083  33.920  1.00  0.00    -0.286 N 
ATOM      8  H5  UNL     1      18.585  40.537  33.718  1.00  0.00     0.187 HD
HETATM    9  C7  UNL     1      15.664  40.943  34.889  1.00  0.00     0.190 A 
ATOM     10  H6  UNL     1      16.414  41.537  33.023  1.00  0.00     0.188 HD
HETATM   11  C8  UNL     1      16.312  40.277  35.923  1.00  0.00     0.121 A 
HETATM   12  N8  UNL     1      15.721  39.910  37.167  1.00  0.00    -0.097 NA
BRANCH   9  13
HETATM   13  S1  UNL     1      14.014  41.482  34.856  1.00  0.00     0.275 S 
HETATM   14  O2  UNL     1      13.376  41.254  33.535  1.00  0.00    -0.199 OA
HETATM   15  O3  UNL     1      13.997  42.955  35.158  1.00  0.00    -0.199 OA
BRANCH  13  16
HETATM   16  N7  UNL     1      13.095  40.705  36.099  1.00  0.00    -0.323 N 
ATOM     17  H72 UNL     1      12.409  39.970  35.925  1.00  0.00     0.169 HD
ATOM     18  H71 UNL     1      13.337  41.084  37.015  1.00  0.00     0.169 HD
ENDBRANCH  13  16
ENDBRANCH   9  13
ENDBRANCH   3   5
BRANCH   1  19
HETATM   19  N3  UNL     1      20.011  39.143  38.288  1.00  0.00    -0.309 N 
HETATM   20  C4  UNL     1      19.835  38.014  38.825  1.00  0.00     0.109 C 
ATOM     21  H3  UNL     1      20.914  39.607  38.382  1.00  0.00     0.186 HD
BRANCH  20  22
HETATM   22  C3  UNL     1      20.844  37.334  39.572  1.00  0.00     0.048 C 
HETATM   23  C2  UNL     1      20.954  37.428  40.882  1.00  0.00     0.069 C 
HETATM   24  N2  UNL     1      21.956  36.759  41.679  1.00  0.00    -0.324 N 
HETATM   25  C9  UNL     1      20.141  38.191  41.832  1.00  0.00     0.317 C 
HETATM   26  C1  UNL     1      21.898  37.213  42.854  1.00  0.00     0.234 C 
ATOM     27  H2  UNL     1      22.601  36.042  41.348  1.00  0.00     0.169 HD
HETATM   28  N1  UNL     1      22.773  36.751  43.907  1.00  0.00    -0.056 NA
HETATM   29  O5  UNL     1      20.944  38.167  43.022  1.00  0.00    -0.287 OA
BRANCH  25  30
HETATM   30  O4  UNL     1      18.893  37.621  42.086  1.00  0.00    -0.365 OA
ATOM     31  H4  UNL     1      18.941  36.758  42.480  1.00  0.00     0.213 HD
ENDBRANCH  25  30
ENDBRANCH  20  22
ENDBRANCH   1  19
TORSDOF 6
ENDMDL
MODEL 4
REMARK VINA RESULT: -4.352553107      4.119      8.904
REMARK  6 active torsions:
REMARK  status: ('A' for Active; 'I' for Inactive)
REMARK    1  A    between atoms: C3_6  and  C4_7 
REMARK    2  A    between atoms: N3_8  and  N4_10 
REMARK       I    between atoms: N4_10  and  C5_12 
REMARK    3  A    between atoms: C5_12  and  C6_14 
REMARK    4  A    between atoms: C7_19  and  S1_20 
REMARK    5  A    between atoms: S1_20  and  N7_21 
REMARK    6  A    between atoms: C9_28  and  O4_29 
ROOT
HETATM    1  N4  UNL     1      18.373  37.937  37.418  1.00  0.00    -0.265 N 
ATOM      2  H4  UNL     1      17.992  37.315  36.705  1.00  0.00     0.190 HD
HETATM    3  C5  UNL     1      18.265  39.338  37.231  1.00  0.00     0.289 C 
HETATM    4  O1  UNL     1      18.732  40.127  38.100  1.00  0.00    -0.264 OA
ENDROOT
BRANCH   3   5
HETATM    5  C6  UNL     1      17.626  39.899  36.056  1.00  0.00     0.145 A 
HETATM    6  N5  UNL     1      18.167  39.915  34.832  1.00  0.00    -0.293 N 
HETATM    7  N6  UNL     1      17.323  40.496  34.005  1.00  0.00    -0.286 N 
ATOM      8  H5  UNL     1      19.081  39.539  34.582  1.00  0.00     0.187 HD
HETATM    9  C7  UNL     1      16.207  40.881  34.647  1.00  0.00     0.190 A 
ATOM     10  H6  UNL     1      17.493  40.636  33.009  1.00  0.00     0.188 HD
HETATM   11  C8  UNL     1      16.392  40.501  35.972  1.00  0.00     0.121 A 
HETATM   12  N8  UNL     1      15.456  40.709  37.028  1.00  0.00    -0.097 NA
BRANCH   9  13
HETATM   13  S1  UNL     1      14.826  41.683  33.965  1.00  0.00     0.275 S 
HETATM   14  O2  UNL     1      13.859  40.726  33.371  1.00  0.00    -0.199 OA
HETATM   15  O3  UNL     1      15.312  42.617  32.891  1.00  0.00    -0.199 OA
BRANCH  13  16
HETATM   16  N7  UNL     1      14.038  42.658  35.158  1.00  0.00    -0.323 N 
ATOM     17  H72 UNL     1      14.471  42.941  36.037  1.00  0.00     0.169 HD
ATOM     18  H71 UNL     1      13.094  42.900  34.857  1.00  0.00     0.169 HD
ENDBRANCH  13  16
ENDBRANCH   9  13
ENDBRANCH   3   5
BRANCH   1  19
HETATM   19  N3  UNL     1      18.978  37.382  38.533  1.00  0.00    -0.309 N 
HETATM   20  C4  UNL     1      20.232  37.246  38.598  1.00  0.00     0.109 C 
ATOM     21  H3  UNL     1      18.400  37.079  39.316  1.00  0.00     0.186 HD
BRANCH  20  22
HETATM   22  C3  UNL     1      20.903  36.681  39.725  1.00  0.00     0.048 C 
HETATM   23  C2  UNL     1      21.006  37.300  40.885  1.00  0.00     0.069 C 
HETATM   24  N2  UNL     1      21.674  36.769  42.050  1.00  0.00    -0.324 N 
HETATM   25  C9  UNL     1      20.504  38.616  41.285  1.00  0.00     0.317 C 
HETATM   26  C1  UNL     1      21.756  37.683  42.913  1.00  0.00     0.234 C 
ATOM     27  H2  UNL     1      22.020  35.816  42.156  1.00  0.00     0.169 HD
HETATM   28  N1  UNL     1      22.374  37.479  44.202  1.00  0.00    -0.056 NA
HETATM   29  O5  UNL     1      21.213  38.862  42.509  1.00  0.00    -0.287 OA
BRANCH  25  30
HETATM   30  O4  UNL     1      19.129  38.645  41.515  1.00  0.00    -0.365 OA
ATOM     31  H4  UNL     1      18.625  38.149  40.882  1.00  0.00     0.213 HD
ENDBRANCH  25  30
ENDBRANCH  20  22
ENDBRANCH   1  19
TORSDOF 6
ENDMDL
MODEL 5
REMARK VINA RESULT: -4.232373195      3.792      4.486
REMARK  6 active torsions:
REMARK  status: ('A' for Active; 'I' for Inactive)
REMARK    1  A    between atoms: C3_6  and  C4_7 
REMARK    2  A    between atoms: N3_8  and  N4_10 
REMARK       I    between atoms: N4_10  and  C5_12 
REMARK    3  A    between atoms: C5_12  and  C6_14 
REMARK    4  A    between atoms: C7_19  and  S1_20 
REMARK    5  A    between atoms: S1_20  and  N7_21 
REMARK    6  A    between atoms: C9_28  and  O4_29 
ROOT
HETATM    1  N4  UNL     1      18.420  38.618  37.250  1.00  0.00    -0.265 N 
ATOM      2  H4  UNL     1      18.489  38.229  38.190  1.00  0.00     0.190 HD
HETATM    3  C5  UNL     1      18.322  37.730  36.148  1.00  0.00     0.289 C 
HETATM    4  O1  UNL     1      18.238  38.190  34.975  1.00  0.00    -0.264 OA
ENDROOT
BRANCH   3   5
HETATM    5  C6  UNL     1      18.317  36.291  36.333  1.00  0.00     0.145 A 
HETATM    6  N5  UNL     1      18.268  35.399  35.338  1.00  0.00    -0.293 N 
HETATM    7  N6  UNL     1      18.277  34.188  35.856  1.00  0.00    -0.286 N 
ATOM      8  H5  UNL     1      18.230  35.619  34.343  1.00  0.00     0.187 HD
HETATM    9  C7  UNL     1      18.331  34.238  37.198  1.00  0.00     0.190 A 
ATOM     10  H6  UNL     1      18.247  33.326  35.312  1.00  0.00     0.188 HD
HETATM   11  C8  UNL     1      18.357  35.591  37.517  1.00  0.00     0.121 A 
HETATM   12  N8  UNL     1      18.415  36.127  38.837  1.00  0.00    -0.097 NA
BRANCH   9  13
HETATM   13  S1  UNL     1      18.363  32.897  38.299  1.00  0.00     0.275 S 
HETATM   14  O2  UNL     1      17.013  32.570  38.824  1.00  0.00    -0.199 OA
HETATM   15  O3  UNL     1      19.260  33.260  39.451  1.00  0.00    -0.199 OA
BRANCH  13  16
HETATM   16  N7  UNL     1      19.058  31.504  37.543  1.00  0.00    -0.323 N 
ATOM     17  H72 UNL     1      19.968  31.501  37.082  1.00  0.00     0.169 HD
ATOM     18  H71 UNL     1      18.433  30.702  37.625  1.00  0.00     0.169 HD
ENDBRANCH  13  16
ENDBRANCH   9  13
ENDBRANCH   3   5
BRANCH   1  19
HETATM   19  N3  UNL     1      18.426  39.993  37.095  1.00  0.00    -0.309 N 
HETATM   20  C4  UNL     1      19.486  40.615  36.805  1.00  0.00     0.109 C 
ATOM     21  H3  UNL     1      17.557  40.514  37.216  1.00  0.00     0.186 HD
BRANCH  20  22
HETATM   22  C3  UNL     1      19.544  42.032  36.634  1.00  0.00     0.048 C 
HETATM   23  C2  UNL     1      20.668  42.718  36.701  1.00  0.00     0.069 C 
HETATM   24  N2  UNL     1      20.775  44.148  36.534  1.00  0.00    -0.324 N 
HETATM   25  C9  UNL     1      22.032  42.247  36.947  1.00  0.00     0.317 C 
HETATM   26  C1  UNL     1      21.945  44.498  36.847  1.00  0.00     0.234 C 
ATOM     27  H2  UNL     1      20.032  44.770  36.217  1.00  0.00     0.169 HD
HETATM   28  N1  UNL     1      22.383  45.874  36.791  1.00  0.00    -0.056 NA
HETATM   29  O5  UNL     1      22.736  43.464  37.238  1.00  0.00    -0.287 OA
BRANCH  25  30
HETATM   30  O4  UNL     1      22.613  41.610  35.850  1.00  0.00    -0.365 OA
ATOM     31  H4  UNL     1      22.516  42.089  35.036  1.00  0.00     0.213 HD
ENDBRANCH  25  30
ENDBRANCH  20  22
ENDBRANCH   1  19
TORSDOF 6
ENDMDL
