MODEL 1
REMARK VINA RESULT: -8.948686970      0.000      0.000
REMARK  6 active torsions:
REMARK  status: ('A' for Active; 'I' for Inactive)
REMARK    1  A    between atoms: O1_2  and  C2_3 
REMARK    2  A    between atoms: N2_9  and  C6_10 
REMARK    3  A    between atoms: C6_10  and  C7_11 
REMARK    4  A    between atoms: N5_16  and  C8_17 
REMARK    5  A    between atoms: C10_21  and  N7_22 
REMARK    6  A    between atoms: C11_27  and  N9_28 
ROOT
HETATM    1  C8  UNL     1      17.740  39.709  36.408  1.00  0.00     0.722 A 
HETATM    2  N6  UNL     1      16.447  40.039  36.581  1.00  0.00    -0.181 N 
ATOM      3  H6  UNL     1      15.887  39.806  37.400  1.00  0.00     0.184 HD
HETATM    4  C9  UNL     1      16.004  40.723  35.511  1.00  0.00     0.138 A 
HETATM    5  C10 UNL     1      14.802  41.286  35.167  1.00  0.00     0.146 A 
HETATM    6  N8  UNL     1      14.665  41.934  33.976  1.00  0.00    -0.175 N 
ATOM      7  H8  UNL     1      13.763  42.346  33.736  1.00  0.00     0.186 HD
HETATM    8  C11 UNL     1      15.684  42.040  33.111  1.00  0.00     0.679 A 
HETATM    9  N10 UNL     1      16.859  41.482  33.463  1.00  0.00    -0.174 N 
ATOM     10  H10 UNL     1      17.643  41.557  32.814  1.00  0.00     0.186 HD
HETATM   11  C12 UNL     1      17.054  40.832  34.625  1.00  0.00     0.167 A 
HETATM   12  N11 UNL     1      18.092  40.200  35.209  1.00  0.00    -0.170 N 
ATOM     13  H11 UNL     1      19.019  40.108  34.796  1.00  0.00     0.186 HD
ENDROOT
BRANCH   1  14
HETATM   14  N5  UNL     1      18.566  38.973  37.333  1.00  0.00    -0.004 N 
HETATM   15  N4  UNL     1      19.501  39.463  38.130  1.00  0.00    -0.204 N 
HETATM   16  N3  UNL     1      20.057  38.515  38.840  1.00  0.00    -0.267 N 
ATOM     17  H4  UNL     1      19.754  40.449  38.183  1.00  0.00     0.211 HD
HETATM   18  C7  UNL     1      19.472  37.376  38.499  1.00  0.00     0.153 A 
ATOM     19  H3  UNL     1      20.802  38.632  39.527  1.00  0.00     0.190 HD
HETATM   20  N12 UNL     1      18.546  37.671  37.562  1.00  0.00    -0.246 N 
ATOM     21  H12 UNL     1      17.931  36.999  37.104  1.00  0.00     0.191 HD
BRANCH  18  22
HETATM   22  C6  UNL     1      19.713  36.010  38.987  1.00  0.00     0.144 C 
BRANCH  22  23
HETATM   23  N2  UNL     1      19.317  34.974  38.135  1.00  0.00    -0.337 N 
HETATM   24  C2  UNL     1      18.683  33.836  38.685  1.00  0.00     0.243 C 
HETATM   25  C3  UNL     1      17.378  33.448  38.082  1.00  0.00     0.168 C 
HETATM   26  N1  UNL     1      17.032  34.142  36.872  1.00  0.00    -0.413 N 
HETATM   27  C4  UNL     1      18.147  34.474  36.026  1.00  0.00     0.159 C 
ATOM     28  H1  UNL     1      16.070  34.380  36.631  1.00  0.00     0.153 HD
HETATM   29  C5  UNL     1      19.259  35.174  36.751  1.00  0.00     0.085 C 
BRANCH  24  30
HETATM   30  O1  UNL     1      19.500  32.705  38.730  1.00  0.00    -0.369 OA
HETATM   31  C1  UNL     1      18.976  31.610  38.104  1.00  0.00     0.204 C 
ENDBRANCH  24  30
ENDBRANCH  22  23
ENDBRANCH  18  22
ENDBRANCH   1  14
BRANCH   5  32
HETATM   32  N7  UNL     1      13.809  41.199  35.976  1.00  0.00    -0.383 N 
ATOM     33  H72 UNL     1      13.943  41.355  36.975  1.00  0.00     0.157 HD
ATOM     34  H71 UNL     1      12.883  40.972  35.612  1.00  0.00     0.157 HD
ENDBRANCH   5  32
BRANCH   8  35
HETATM   35  N9  UNL     1      15.550  42.663  31.965  1.00  0.00    -0.234 N 
ATOM     36  H92 UNL     1      14.638  42.994  31.652  1.00  0.00     0.174 HD
ATOM     37  H91 UNL     1      16.349  42.835  31.355  1.00  0.00     0.174 HD
ENDBRANCH   8  35
TORSDOF 6
ENDMDL
MODEL 2
REMARK VINA RESULT: -8.272274249      0.647      1.690
REMARK  6 active torsions:
REMARK  status: ('A' for Active; 'I' for Inactive)
REMARK    1  A    between atoms: O1_2  and  C2_3 
REMARK    2  A    between atoms: N2_9  and  C6_10 
REMARK    3  A    between atoms: C6_10  and  C7_11 
REMARK    4  A    between atoms: N5_16  and  C8_17 
REMARK    5  A    between atoms: C10_21  and  N7_22 
REMARK    6  A    between atoms: C11_27  and  N9_28 
ROOT
HETATM    1  C8  UNL     1      17.540  39.469  36.710  1.00  0.00     0.722 A 
HETATM    2  N6  UNL     1      17.727  39.986  35.482  1.00  0.00    -0.181 N 
ATOM      3  H6  UNL     1      18.594  39.930  34.949  1.00  0.00     0.184 HD
HETATM    4  C9  UNL     1      16.599  40.585  35.063  1.00  0.00     0.138 A 
HETATM    5  C10 UNL     1      16.239  41.254  33.921  1.00  0.00     0.146 A 
HETATM    6  N8  UNL     1      14.981  41.761  33.792  1.00  0.00    -0.175 N 
ATOM      7  H8  UNL     1      14.730  42.256  32.937  1.00  0.00     0.186 HD
HETATM    8  C11 UNL     1      14.065  41.627  34.763  1.00  0.00     0.679 A 
HETATM    9  N10 UNL     1      14.433  40.967  35.879  1.00  0.00    -0.174 N 
ATOM     10  H10 UNL     1      13.745  40.859  36.624  1.00  0.00     0.186 HD
HETATM   11  C12 UNL     1      15.659  40.445  36.062  1.00  0.00     0.167 A 
HETATM   12  N11 UNL     1      16.274  39.760  37.047  1.00  0.00    -0.170 N 
ATOM     13  H11 UNL     1      15.835  39.499  37.930  1.00  0.00     0.186 HD
ENDROOT
BRANCH   1  14
HETATM   14  N5  UNL     1      18.516  38.752  37.494  1.00  0.00    -0.004 N 
HETATM   15  N4  UNL     1      19.532  39.266  38.165  1.00  0.00    -0.204 N 
HETATM   16  N3  UNL     1      20.219  38.330  38.768  1.00  0.00    -0.267 N 
ATOM     17  H4  UNL     1      19.751  40.262  38.208  1.00  0.00     0.211 HD
HETATM   18  C7  UNL     1      19.638  37.174  38.483  1.00  0.00     0.153 A 
ATOM     19  H3  UNL     1      21.047  38.465  39.348  1.00  0.00     0.190 HD
HETATM   20  N12 UNL     1      18.580  37.446  37.691  1.00  0.00    -0.246 N 
ATOM     21  H12 UNL     1      17.934  36.757  37.306  1.00  0.00     0.191 HD
BRANCH  18  22
HETATM   22  C6  UNL     1      19.999  35.810  38.899  1.00  0.00     0.144 C 
BRANCH  22  23
HETATM   23  N2  UNL     1      19.436  34.770  38.151  1.00  0.00    -0.337 N 
HETATM   24  C2  UNL     1      18.763  33.726  38.826  1.00  0.00     0.243 C 
HETATM   25  C3  UNL     1      17.378  33.426  38.369  1.00  0.00     0.168 C 
HETATM   26  N1  UNL     1      16.978  34.082  37.155  1.00  0.00    -0.413 N 
HETATM   27  C4  UNL     1      18.032  34.267  36.192  1.00  0.00     0.159 C 
ATOM     28  H1  UNL     1      16.022  34.394  36.988  1.00  0.00     0.153 HD
HETATM   29  C5  UNL     1      19.263  34.901  36.769  1.00  0.00     0.085 C 
BRANCH  24  30
HETATM   30  O1  UNL     1      19.481  32.529  38.865  1.00  0.00    -0.369 OA
HETATM   31  C1  UNL     1      18.957  31.534  38.089  1.00  0.00     0.204 C 
ENDBRANCH  24  30
ENDBRANCH  22  23
ENDBRANCH  18  22
ENDBRANCH   1  14
BRANCH   5  32
HETATM   32  N7  UNL     1      17.096  41.397  32.976  1.00  0.00    -0.383 N 
ATOM     33  H72 UNL     1      18.016  41.792  33.171  1.00  0.00     0.157 HD
ATOM     34  H71 UNL     1      16.850  41.113  32.027  1.00  0.00     0.157 HD
ENDBRANCH   5  32
BRANCH   8  35
HETATM   35  N9  UNL     1      12.855  42.116  34.637  1.00  0.00    -0.234 N 
ATOM     36  H92 UNL     1      12.696  43.005  34.164  1.00  0.00     0.174 HD
ATOM     37  H91 UNL     1      12.040  41.627  35.006  1.00  0.00     0.174 HD
ENDBRANCH   8  35
TORSDOF 6
ENDMDL
MODEL 3
REMARK VINA RESULT: -7.057397816      1.135      1.748
REMARK  6 active torsions:
REMARK  status: ('A' for Active; 'I' for Inactive)
REMARK    1  A    between atoms: O1_2  and  C2_3 
REMARK    2  A    between atoms: N2_9  and  C6_10 
REMARK    3  A    between atoms: C6_10  and  C7_11 
REMARK    4  A    between atoms: N5_16  and  C8_17 
REMARK    5  A    between atoms: C10_21  and  N7_22 
REMARK    6  A    between atoms: C11_27  and  N9_28 
ROOT
HETATM    1  C8  UNL     1      17.673  39.719  36.230  1.00  0.00     0.722 A 
HETATM    2  N6  UNL     1      16.385  40.073  36.397  1.00  0.00    -0.181 N 
ATOM      3  H6  UNL     1      15.812  39.833  37.205  1.00  0.00     0.184 HD
HETATM    4  C9  UNL     1      15.969  40.789  35.338  1.00  0.00     0.138 A 
HETATM    5  C10 UNL     1      14.782  41.385  34.994  1.00  0.00     0.146 A 
HETATM    6  N8  UNL     1      14.672  42.061  33.816  1.00  0.00    -0.175 N 
ATOM      7  H8  UNL     1      13.782  42.498  33.575  1.00  0.00     0.186 HD
HETATM    8  C11 UNL     1      15.703  42.166  32.965  1.00  0.00     0.679 A 
HETATM    9  N10 UNL     1      16.862  41.575  33.316  1.00  0.00    -0.174 N 
ATOM     10  H10 UNL     1      17.654  41.648  32.677  1.00  0.00     0.186 HD
HETATM   11  C12 UNL     1      17.030  40.896  34.466  1.00  0.00     0.167 A 
HETATM   12  N11 UNL     1      18.048  40.229  35.046  1.00  0.00    -0.170 N 
ATOM     13  H11 UNL     1      18.978  40.127  34.641  1.00  0.00     0.186 HD
ENDROOT
BRANCH   1  14
HETATM   14  N5  UNL     1      18.473  38.946  37.148  1.00  0.00    -0.004 N 
HETATM   15  N4  UNL     1      19.467  39.384  37.902  1.00  0.00    -0.204 N 
HETATM   16  N3  UNL     1      19.976  38.414  38.618  1.00  0.00    -0.267 N 
ATOM     17  H4  UNL     1      19.794  40.350  37.922  1.00  0.00     0.211 HD
HETATM   18  C7  UNL     1      19.299  37.314  38.325  1.00  0.00     0.153 A 
ATOM     19  H3  UNL     1      20.750  38.491  39.278  1.00  0.00     0.190 HD
HETATM   20  N12 UNL     1      18.366  37.655  37.410  1.00  0.00    -0.246 N 
ATOM     21  H12 UNL     1      17.689  37.019  36.989  1.00  0.00     0.191 HD
BRANCH  18  22
HETATM   22  C6  UNL     1      19.455  35.946  38.840  1.00  0.00     0.144 C 
BRANCH  22  23
HETATM   23  N2  UNL     1      18.544  35.000  38.358  1.00  0.00    -0.337 N 
HETATM   24  C2  UNL     1      18.709  34.493  37.048  1.00  0.00     0.243 C 
HETATM   25  C3  UNL     1      18.748  33.011  36.911  1.00  0.00     0.168 C 
HETATM   26  N1  UNL     1      18.392  32.276  38.093  1.00  0.00    -0.413 N 
HETATM   27  C4  UNL     1      17.384  32.899  38.910  1.00  0.00     0.159 C 
ATOM     28  H1  UNL     1      18.820  31.383  38.335  1.00  0.00     0.153 HD
HETATM   29  C5  UNL     1      17.680  34.334  39.234  1.00  0.00     0.085 C 
BRANCH  24  30
HETATM   30  O1  UNL     1      17.782  34.995  36.132  1.00  0.00    -0.369 OA
HETATM   31  C1  UNL     1      18.340  35.645  35.068  1.00  0.00     0.204 C 
ENDBRANCH  24  30
ENDBRANCH  22  23
ENDBRANCH  18  22
ENDBRANCH   1  14
BRANCH   5  32
HETATM   32  N7  UNL     1      13.779  41.300  35.790  1.00  0.00    -0.383 N 
ATOM     33  H72 UNL     1      13.737  41.878  36.630  1.00  0.00     0.157 HD
ATOM     34  H71 UNL     1      13.022  40.650  35.577  1.00  0.00     0.157 HD
ENDBRANCH   5  32
BRANCH   8  35
HETATM   35  N9  UNL     1      15.594  42.816  31.832  1.00  0.00    -0.234 N 
ATOM     36  H92 UNL     1      14.690  43.158  31.508  1.00  0.00     0.174 HD
ATOM     37  H91 UNL     1      16.406  42.999  31.242  1.00  0.00     0.174 HD
ENDBRANCH   8  35
TORSDOF 6
ENDMDL
MODEL 4
REMARK VINA RESULT: -6.613012588      2.665      8.004
REMARK  6 active torsions:
REMARK  status: ('A' for Active; 'I' for Inactive)
REMARK    1  A    between atoms: O1_2  and  C2_3 
REMARK    2  A    between atoms: N2_9  and  C6_10 
REMARK    3  A    between atoms: C6_10  and  C7_11 
REMARK    4  A    between atoms: N5_16  and  C8_17 
REMARK    5  A    between atoms: C10_21  and  N7_22 
REMARK    6  A    between atoms: C11_27  and  N9_28 
ROOT
HETATM    1  C8  UNL     1      18.227  36.811  37.517  1.00  0.00     0.722 A 
HETATM    2  N6  UNL     1      17.828  35.906  36.605  1.00  0.00    -0.181 N 
ATOM      3  H6  UNL     1      17.373  36.127  35.720  1.00  0.00     0.184 HD
HETATM    4  C9  UNL     1      18.119  34.666  37.036  1.00  0.00     0.138 A 
HETATM    5  C10 UNL     1      17.940  33.408  36.520  1.00  0.00     0.146 A 
HETATM    6  N8  UNL     1      18.357  32.315  37.219  1.00  0.00    -0.175 N 
ATOM      7  H8  UNL     1      18.216  31.387  36.821  1.00  0.00     0.186 HD
HETATM    8  C11 UNL     1      18.947  32.430  38.418  1.00  0.00     0.679 A 
HETATM    9  N10 UNL     1      19.116  33.672  38.912  1.00  0.00    -0.174 N 
ATOM     10  H10 UNL     1      19.564  33.773  39.823  1.00  0.00     0.186 HD
HETATM   11  C12 UNL     1      18.726  34.787  38.267  1.00  0.00     0.167 A 
HETATM   12  N11 UNL     1      18.771  36.110  38.524  1.00  0.00    -0.170 N 
ATOM     13  H11 UNL     1      19.166  36.522  39.368  1.00  0.00     0.186 HD
ENDROOT
BRANCH   1  14
HETATM   14  N5  UNL     1      18.088  38.244  37.418  1.00  0.00    -0.004 N 
HETATM   15  N4  UNL     1      18.814  39.159  38.037  1.00  0.00    -0.204 N 
HETATM   16  N3  UNL     1      18.419  40.365  37.720  1.00  0.00    -0.267 N 
ATOM     17  H4  UNL     1      19.580  38.952  38.677  1.00  0.00     0.211 HD
HETATM   18  C7  UNL     1      17.409  40.236  36.872  1.00  0.00     0.153 A 
ATOM     19  H3  UNL     1      18.815  41.241  38.061  1.00  0.00     0.190 HD
HETATM   20  N12 UNL     1      17.211  38.913  36.690  1.00  0.00    -0.246 N 
ATOM     21  H12 UNL     1      16.500  38.498  36.089  1.00  0.00     0.191 HD
BRANCH  18  22
HETATM   22  C6  UNL     1      16.600  41.268  36.206  1.00  0.00     0.144 C 
BRANCH  22  23
HETATM   23  N2  UNL     1      16.272  41.023  34.869  1.00  0.00    -0.337 N 
HETATM   24  C2  UNL     1      15.224  41.763  34.272  1.00  0.00     0.243 C 
HETATM   25  C3  UNL     1      15.547  42.457  32.995  1.00  0.00     0.168 C 
HETATM   26  N1  UNL     1      16.813  42.109  32.411  1.00  0.00    -0.413 N 
HETATM   27  C4  UNL     1      17.215  40.741  32.611  1.00  0.00     0.159 C 
ATOM     28  H1  UNL     1      17.383  42.779  31.896  1.00  0.00     0.153 HD
HETATM   29  C5  UNL     1      17.140  40.300  34.043  1.00  0.00     0.085 C 
BRANCH  24  30
HETATM   30  O1  UNL     1      14.052  41.027  34.089  1.00  0.00    -0.369 OA
HETATM   31  C1  UNL     1      13.134  41.176  35.090  1.00  0.00     0.204 C 
ENDBRANCH  24  30
ENDBRANCH  22  23
ENDBRANCH  18  22
ENDBRANCH   1  14
BRANCH   5  32
HETATM   32  N7  UNL     1      17.378  33.269  35.374  1.00  0.00    -0.383 N 
ATOM     33  H72 UNL     1      17.277  34.069  34.750  1.00  0.00     0.157 HD
ATOM     34  H71 UNL     1      17.032  32.352  35.092  1.00  0.00     0.157 HD
ENDBRANCH   5  32
BRANCH   8  35
HETATM   35  N9  UNL     1      19.347  31.378  39.090  1.00  0.00    -0.234 N 
ATOM     36  H92 UNL     1      19.646  30.531  38.608  1.00  0.00     0.174 HD
ATOM     37  H91 UNL     1      19.371  31.373  40.109  1.00  0.00     0.174 HD
ENDBRANCH   8  35
TORSDOF 6
ENDMDL
MODEL 5
REMARK VINA RESULT: -6.270996818      1.096      1.606
REMARK  6 active torsions:
REMARK  status: ('A' for Active; 'I' for Inactive)
REMARK    1  A    between atoms: O1_2  and  C2_3 
REMARK    2  A    between atoms: N2_9  and  C6_10 
REMARK    3  A    between atoms: C6_10  and  C7_11 
REMARK    4  A    between atoms: N5_16  and  C8_17 
REMARK    5  A    between atoms: C10_21  and  N7_22 
REMARK    6  A    between atoms: C11_27  and  N9_28 
ROOT
HETATM    1  C8  UNL     1      17.787  39.362  36.483  1.00  0.00     0.722 A 
HETATM    2  N6  UNL     1      16.486  39.657  36.660  1.00  0.00    -0.181 N 
ATOM      3  H6  UNL     1      15.918  39.350  37.448  1.00  0.00     0.184 HD
HETATM    4  C9  UNL     1      16.049  40.418  35.641  1.00  0.00     0.138 A 
HETATM    5  C10 UNL     1      14.843  40.987  35.323  1.00  0.00     0.146 A 
HETATM    6  N8  UNL     1      14.713  41.726  34.185  1.00  0.00    -0.175 N 
ATOM      7  H8  UNL     1      13.809  42.143  33.963  1.00  0.00     0.186 HD
HETATM    8  C11 UNL     1      15.745  41.919  33.350  1.00  0.00     0.679 A 
HETATM    9  N10 UNL     1      16.923  41.353  33.676  1.00  0.00    -0.174 N 
ATOM     10  H10 UNL     1      17.716  41.492  33.048  1.00  0.00     0.186 HD
HETATM   11  C12 UNL     1      17.111  40.614  34.785  1.00  0.00     0.167 A 
HETATM   12  N11 UNL     1      18.150  39.954  35.334  1.00  0.00    -0.170 N 
ATOM     13  H11 UNL     1      19.085  39.910  34.931  1.00  0.00     0.186 HD
ENDROOT
BRANCH   1  14
HETATM   14  N5  UNL     1      18.611  38.567  37.361  1.00  0.00    -0.004 N 
HETATM   15  N4  UNL     1      19.224  38.971  38.460  1.00  0.00    -0.204 N 
HETATM   16  N3  UNL     1      19.888  37.990  39.016  1.00  0.00    -0.267 N 
ATOM     17  H4  UNL     1      19.185  39.923  38.827  1.00  0.00     0.211 HD
HETATM   18  C7  UNL     1      19.705  36.917  38.261  1.00  0.00     0.153 A 
ATOM     19  H3  UNL     1      20.442  38.042  39.871  1.00  0.00     0.190 HD
HETATM   20  N12 UNL     1      18.910  37.286  37.234  1.00  0.00    -0.246 N 
ATOM     21  H12 UNL     1      18.590  36.675  36.483  1.00  0.00     0.191 HD
BRANCH  18  22
HETATM   22  C6  UNL     1      20.223  35.551  38.424  1.00  0.00     0.144 C 
BRANCH  22  23
HETATM   23  N2  UNL     1      19.282  34.520  38.319  1.00  0.00    -0.337 N 
HETATM   24  C2  UNL     1      18.451  34.464  37.176  1.00  0.00     0.243 C 
HETATM   25  C3  UNL     1      18.426  33.171  36.438  1.00  0.00     0.168 C 
HETATM   26  N1  UNL     1      19.076  32.074  37.101  1.00  0.00    -0.413 N 
HETATM   27  C4  UNL     1      18.969  32.087  38.536  1.00  0.00     0.159 C 
ATOM     28  H1  UNL     1      19.574  31.343  36.594  1.00  0.00     0.153 HD
HETATM   29  C5  UNL     1      19.360  33.399  39.152  1.00  0.00     0.085 C 
BRANCH  24  30
HETATM   30  O1  UNL     1      17.133  34.854  37.422  1.00  0.00    -0.369 OA
HETATM   31  C1  UNL     1      16.369  33.899  38.030  1.00  0.00     0.204 C 
ENDBRANCH  24  30
ENDBRANCH  22  23
ENDBRANCH  18  22
ENDBRANCH   1  14
BRANCH   5  32
HETATM   32  N7  UNL     1      13.838  40.819  36.105  1.00  0.00    -0.383 N 
ATOM     33  H72 UNL     1      13.872  40.115  36.842  1.00  0.00     0.157 HD
ATOM     34  H71 UNL     1      13.005  41.396  35.984  1.00  0.00     0.157 HD
ENDBRANCH   5  32
BRANCH   8  35
HETATM   35  N9  UNL     1      15.618  42.629  32.255  1.00  0.00    -0.234 N 
ATOM     36  H92 UNL     1      15.385  42.186  31.367  1.00  0.00     0.174 HD
ATOM     37  H91 UNL     1      15.748  43.640  32.258  1.00  0.00     0.174 HD
ENDBRANCH   8  35
TORSDOF 6
ENDMDL
