MODEL 1
REMARK VINA RESULT: -7.882673620      0.000      0.000
REMARK  9 active torsions:
REMARK  status: ('A' for Active; 'I' for Inactive)
REMARK    1  A    between atoms: C2_2  and  N1_3 
REMARK    2  A    between atoms: C2_2  and  C8_11 
REMARK       I    between atoms: N1_3  and  C3_4 
REMARK    3  A    between atoms: C3_4  and  O2_6 
REMARK    4  A    between atoms: O2_6  and  C4_7 
REMARK       I    between atoms: C8_11  and  N2_13 
REMARK    5  A    between atoms: N2_13  and  C9_15 
REMARK    6  A    between atoms: C9_15  and  C10_16 
REMARK    7  A    between atoms: C9_15  and  C16_29 
REMARK       I    between atoms: C10_16  and  N3_18 
REMARK    8  A    between atoms: N3_18  and  C11_19 
REMARK    9  A    between atoms: N4_23  and  N5_24 
ROOT
HETATM    1  C9  UNL     1     -37.594  -5.315 191.010  1.00  0.00     0.098 C 
ENDROOT
BRANCH   1   2
HETATM    2  N2  UNL     1     -37.942  -4.113 190.419  1.00  0.00    -0.319 N 
HETATM    3  C8  UNL     1     -39.047  -3.288 190.296  1.00  0.00     0.282 C 
HETATM    4  O3  UNL     1     -40.179  -3.726 190.704  1.00  0.00    -0.265 OA
ATOM      5  H2  UNL     1     -37.143  -3.714 189.925  1.00  0.00     0.169 HD
BRANCH   3   6
HETATM    6  C2  UNL     1     -38.924  -1.944 189.773  1.00  0.00     0.154 C 
HETATM    7  C1  UNL     1     -37.822  -1.964 188.697  1.00  0.00     0.091 C 
BRANCH   6   8
HETATM    8  N1  UNL     1     -39.690  -0.883 189.739  1.00  0.00    -0.345 NA
HETATM    9  C3  UNL     1     -40.474   0.263 189.877  1.00  0.00     0.441 C 
HETATM   10  O1  UNL     1     -40.795   1.039 190.769  1.00  0.00    -0.221 OA
BRANCH   9  11
HETATM   11  O2  UNL     1     -41.124   0.657 188.636  1.00  0.00    -0.282 OA
BRANCH  11  12
HETATM   12  C4  UNL     1     -40.677   1.313 187.533  1.00  0.00     0.062 C 
HETATM   13  C5  UNL     1     -39.554   0.736 186.756  1.00  0.00     0.046 C 
HETATM   14  C6  UNL     1     -41.879   1.303 186.520  1.00  0.00     0.046 C 
HETATM   15  C7  UNL     1     -40.339   2.779 187.734  1.00  0.00     0.046 C 
ENDBRANCH  11  12
ENDBRANCH   9  11
ENDBRANCH   6   8
ENDBRANCH   3   6
ENDBRANCH   1   2
BRANCH   1  16
HETATM   16  C10 UNL     1     -37.315  -5.251 192.514  1.00  0.00     0.334 C 
HETATM   17  O4  UNL     1     -37.936  -4.396 193.123  1.00  0.00    -0.250 OA
HETATM   18  N3  UNL     1     -36.402  -6.218 193.005  1.00  0.00    -0.395 NA
BRANCH  18  19
HETATM   19  C11 UNL     1     -35.552  -7.114 193.472  1.00  0.00     0.260 C 
HETATM   20  C12 UNL     1     -34.504  -7.865 192.704  1.00  0.00     0.051 C 
HETATM   21  C13 UNL     1     -33.746  -8.789 193.645  1.00  0.00     0.025 C 
HETATM   22  C14 UNL     1     -34.160  -8.763 195.079  1.00  0.00     0.152 C 
HETATM   23  N4  UNL     1     -34.155  -7.364 195.530  1.00  0.00    -0.265 N 
HETATM   24  C15 UNL     1     -34.834  -6.500 194.665  1.00  0.00     0.273 C 
HETATM   25  O5  UNL     1     -34.896  -5.290 194.803  1.00  0.00    -0.268 OA
BRANCH  23  26
HETATM   26  N5  UNL     1     -33.580  -6.873 196.694  1.00  0.00    -0.340 N 
ATOM     27  H52 UNL     1     -32.566  -6.799 196.773  1.00  0.00     0.177 HD
ATOM     28  H51 UNL     1     -34.076  -6.540 197.522  1.00  0.00     0.177 HD
ENDBRANCH  23  26
ENDBRANCH  18  19
ENDBRANCH   1  16
BRANCH   1  29
HETATM   29  C16 UNL     1     -36.946  -6.452 190.385  1.00  0.00     0.034 C 
HETATM   30  C17 UNL     1     -37.875  -7.220 189.429  1.00  0.00     0.016 C 
HETATM   31  C18 UNL     1     -35.713  -6.191 189.551  1.00  0.00     0.016 C 
ENDBRANCH   1  29
TORSDOF 9
ENDMDL
MODEL 2
REMARK VINA RESULT: -7.860501289      1.785      2.575
REMARK  9 active torsions:
REMARK  status: ('A' for Active; 'I' for Inactive)
REMARK    1  A    between atoms: C2_2  and  N1_3 
REMARK    2  A    between atoms: C2_2  and  C8_11 
REMARK       I    between atoms: N1_3  and  C3_4 
REMARK    3  A    between atoms: C3_4  and  O2_6 
REMARK    4  A    between atoms: O2_6  and  C4_7 
REMARK       I    between atoms: C8_11  and  N2_13 
REMARK    5  A    between atoms: N2_13  and  C9_15 
REMARK    6  A    between atoms: C9_15  and  C10_16 
REMARK    7  A    between atoms: C9_15  and  C16_29 
REMARK       I    between atoms: C10_16  and  N3_18 
REMARK    8  A    between atoms: N3_18  and  C11_19 
REMARK    9  A    between atoms: N4_23  and  N5_24 
ROOT
HETATM    1  C9  UNL     1     -37.306  -3.648 189.681  1.00  0.00     0.098 C 
ENDROOT
BRANCH   1   2
HETATM    2  N2  UNL     1     -38.503  -3.028 189.999  1.00  0.00    -0.319 N 
HETATM    3  C8  UNL     1     -39.438  -3.021 191.020  1.00  0.00     0.282 C 
HETATM    4  O3  UNL     1     -39.337  -3.905 191.941  1.00  0.00    -0.265 OA
ATOM      5  H2  UNL     1     -38.778  -2.383 189.259  1.00  0.00     0.169 HD
BRANCH   3   6
HETATM    6  C2  UNL     1     -40.472  -2.011 191.081  1.00  0.00     0.154 C 
HETATM    7  C1  UNL     1     -41.300  -2.271 192.354  1.00  0.00     0.091 C 
BRANCH   6   8
HETATM    8  N1  UNL     1     -40.648  -0.823 190.559  1.00  0.00    -0.345 NA
HETATM    9  C3  UNL     1     -40.770   0.507 190.155  1.00  0.00     0.441 C 
HETATM   10  O1  UNL     1     -40.526   1.618 190.609  1.00  0.00    -0.221 OA
BRANCH   9  11
HETATM   11  O2  UNL     1     -41.376   0.645 188.839  1.00  0.00    -0.282 OA
BRANCH  11  12
HETATM   12  C4  UNL     1     -40.922   1.168 187.669  1.00  0.00     0.062 C 
HETATM   13  C5  UNL     1     -40.292   2.511 187.676  1.00  0.00     0.046 C 
HETATM   14  C6  UNL     1     -39.764   0.213 187.201  1.00  0.00     0.046 C 
HETATM   15  C7  UNL     1     -41.918   1.177 186.524  1.00  0.00     0.046 C 
ENDBRANCH  11  12
ENDBRANCH   9  11
ENDBRANCH   6   8
ENDBRANCH   3   6
ENDBRANCH   1   2
BRANCH   1  16
HETATM   16  C10 UNL     1     -37.221  -5.135 190.036  1.00  0.00     0.334 C 
HETATM   17  O4  UNL     1     -38.036  -5.851 189.479  1.00  0.00    -0.250 OA
HETATM   18  N3  UNL     1     -36.184  -5.486 190.936  1.00  0.00    -0.395 NA
BRANCH  18  19
HETATM   19  C11 UNL     1     -35.220  -5.825 191.773  1.00  0.00     0.260 C 
HETATM   20  C12 UNL     1     -33.848  -5.225 191.875  1.00  0.00     0.051 C 
HETATM   21  C13 UNL     1     -33.072  -5.915 192.987  1.00  0.00     0.025 C 
HETATM   22  C14 UNL     1     -33.791  -6.991 193.732  1.00  0.00     0.152 C 
HETATM   23  N4  UNL     1     -35.077  -6.446 194.190  1.00  0.00    -0.265 N 
HETATM   24  C15 UNL     1     -35.794  -5.794 193.183  1.00  0.00     0.273 C 
HETATM   25  O5  UNL     1     -36.850  -5.208 193.352  1.00  0.00    -0.268 OA
BRANCH  23  26
HETATM   26  N5  UNL     1     -35.610  -6.549 195.468  1.00  0.00    -0.340 N 
ATOM     27  H52 UNL     1     -35.509  -7.416 195.996  1.00  0.00     0.177 HD
ATOM     28  H51 UNL     1     -36.101  -5.817 195.981  1.00  0.00     0.177 HD
ENDBRANCH  23  26
ENDBRANCH  18  19
ENDBRANCH   1  16
BRANCH   1  29
HETATM   29  C16 UNL     1     -35.994  -3.037 189.582  1.00  0.00     0.034 C 
HETATM   30  C17 UNL     1     -35.051  -3.796 188.633  1.00  0.00     0.016 C 
HETATM   31  C18 UNL     1     -35.917  -1.608 189.096  1.00  0.00     0.016 C 
ENDBRANCH   1  29
TORSDOF 9
ENDMDL
MODEL 3
REMARK VINA RESULT: -7.748536373      1.477      1.814
REMARK  9 active torsions:
REMARK  status: ('A' for Active; 'I' for Inactive)
REMARK    1  A    between atoms: C2_2  and  N1_3 
REMARK    2  A    between atoms: C2_2  and  C8_11 
REMARK       I    between atoms: N1_3  and  C3_4 
REMARK    3  A    between atoms: C3_4  and  O2_6 
REMARK    4  A    between atoms: O2_6  and  C4_7 
REMARK       I    between atoms: C8_11  and  N2_13 
REMARK    5  A    between atoms: N2_13  and  C9_15 
REMARK    6  A    between atoms: C9_15  and  C10_16 
REMARK    7  A    between atoms: C9_15  and  C16_29 
REMARK       I    between atoms: C10_16  and  N3_18 
REMARK    8  A    between atoms: N3_18  and  C11_19 
REMARK    9  A    between atoms: N4_23  and  N5_24 
ROOT
HETATM    1  C9  UNL     1     -38.047  -4.744 190.895  1.00  0.00     0.098 C 
ENDROOT
BRANCH   1   2
HETATM    2  N2  UNL     1     -38.667  -3.609 190.401  1.00  0.00    -0.319 N 
HETATM    3  C8  UNL     1     -39.841  -2.897 190.579  1.00  0.00     0.282 C 
HETATM    4  O3  UNL     1     -40.763  -3.418 191.300  1.00  0.00    -0.265 OA
ATOM      5  H2  UNL     1     -38.084  -3.163 189.693  1.00  0.00     0.169 HD
BRANCH   3   6
HETATM    6  C2  UNL     1     -40.009  -1.575 190.015  1.00  0.00     0.154 C 
HETATM    7  C1  UNL     1     -40.926  -0.779 190.963  1.00  0.00     0.091 C 
BRANCH   6   8
HETATM    8  N1  UNL     1     -39.350  -0.836 189.157  1.00  0.00    -0.345 NA
HETATM    9  C3  UNL     1     -38.506  -0.077 188.346  1.00  0.00     0.441 C 
HETATM   10  O1  UNL     1     -37.325   0.245 188.319  1.00  0.00    -0.221 OA
BRANCH   9  11
HETATM   11  O2  UNL     1     -39.199   0.534 187.223  1.00  0.00    -0.282 OA
BRANCH  11  12
HETATM   12  C4  UNL     1     -40.062   1.580 187.135  1.00  0.00     0.062 C 
HETATM   13  C5  UNL     1     -40.021   2.452 185.936  1.00  0.00     0.046 C 
HETATM   14  C6  UNL     1     -41.498   0.940 187.084  1.00  0.00     0.046 C 
HETATM   15  C7  UNL     1     -40.086   2.513 188.332  1.00  0.00     0.046 C 
ENDBRANCH  11  12
ENDBRANCH   9  11
ENDBRANCH   6   8
ENDBRANCH   3   6
ENDBRANCH   1   2
BRANCH   1  16
HETATM   16  C10 UNL     1     -37.698  -4.705 192.386  1.00  0.00     0.334 C 
HETATM   17  O4  UNL     1     -38.522  -4.158 193.099  1.00  0.00    -0.250 OA
HETATM   18  N3  UNL     1     -36.484  -5.343 192.742  1.00  0.00    -0.395 NA
BRANCH  18  19
HETATM   19  C11 UNL     1     -35.353  -5.935 193.085  1.00  0.00     0.260 C 
HETATM   20  C12 UNL     1     -34.014  -5.293 193.291  1.00  0.00     0.051 C 
HETATM   21  C13 UNL     1     -32.996  -6.352 193.689  1.00  0.00     0.025 C 
HETATM   22  C14 UNL     1     -33.503  -7.752 193.803  1.00  0.00     0.152 C 
HETATM   23  N4  UNL     1     -34.683  -7.739 194.680  1.00  0.00    -0.265 N 
HETATM   24  C15 UNL     1     -35.619  -6.759 194.337  1.00  0.00     0.273 C 
HETATM   25  O5  UNL     1     -36.635  -6.522 194.967  1.00  0.00    -0.268 OA
BRANCH  23  26
HETATM   26  N5  UNL     1     -34.930  -8.595 195.745  1.00  0.00    -0.340 N 
ATOM     27  H52 UNL     1     -35.024  -9.598 195.584  1.00  0.00     0.177 HD
ATOM     28  H51 UNL     1     -35.016  -8.333 196.727  1.00  0.00     0.177 HD
ENDBRANCH  23  26
ENDBRANCH  18  19
ENDBRANCH   1  16
BRANCH   1  29
HETATM   29  C16 UNL     1     -37.218  -5.685 190.167  1.00  0.00     0.034 C 
HETATM   30  C17 UNL     1     -38.034  -6.796 189.483  1.00  0.00     0.016 C 
HETATM   31  C18 UNL     1     -36.348  -5.146 189.056  1.00  0.00     0.016 C 
ENDBRANCH   1  29
TORSDOF 9
ENDMDL
MODEL 4
REMARK VINA RESULT: -7.637350598      2.790      5.074
REMARK  9 active torsions:
REMARK  status: ('A' for Active; 'I' for Inactive)
REMARK    1  A    between atoms: C2_2  and  N1_3 
REMARK    2  A    between atoms: C2_2  and  C8_11 
REMARK       I    between atoms: N1_3  and  C3_4 
REMARK    3  A    between atoms: C3_4  and  O2_6 
REMARK    4  A    between atoms: O2_6  and  C4_7 
REMARK       I    between atoms: C8_11  and  N2_13 
REMARK    5  A    between atoms: N2_13  and  C9_15 
REMARK    6  A    between atoms: C9_15  and  C10_16 
REMARK    7  A    between atoms: C9_15  and  C16_29 
REMARK       I    between atoms: C10_16  and  N3_18 
REMARK    8  A    between atoms: N3_18  and  C11_19 
REMARK    9  A    between atoms: N4_23  and  N5_24 
ROOT
HETATM    1  C9  UNL     1     -37.287  -4.678 191.822  1.00  0.00     0.098 C 
ENDROOT
BRANCH   1   2
HETATM    2  N2  UNL     1     -38.271  -3.724 191.630  1.00  0.00    -0.319 N 
HETATM    3  C8  UNL     1     -39.392  -3.522 190.842  1.00  0.00     0.282 C 
HETATM    4  O3  UNL     1     -39.611  -4.335 189.878  1.00  0.00    -0.265 OA
ATOM      5  H2  UNL     1     -38.128  -2.933 192.256  1.00  0.00     0.169 HD
BRANCH   3   6
HETATM    6  C2  UNL     1     -40.326  -2.454 191.129  1.00  0.00     0.154 C 
HETATM    7  C1  UNL     1     -40.853  -2.672 192.561  1.00  0.00     0.091 C 
BRANCH   6   8
HETATM    8  N1  UNL     1     -40.550  -1.257 190.650  1.00  0.00    -0.345 NA
HETATM    9  C3  UNL     1     -40.733   0.081 190.298  1.00  0.00     0.441 C 
HETATM   10  O1  UNL     1     -40.573   1.182 190.808  1.00  0.00    -0.221 OA
BRANCH   9  11
HETATM   11  O2  UNL     1     -41.293   0.243 188.964  1.00  0.00    -0.282 OA
BRANCH  11  12
HETATM   12  C4  UNL     1     -40.875   0.933 187.870  1.00  0.00     0.062 C 
HETATM   13  C5  UNL     1     -40.306   2.291 188.048  1.00  0.00     0.046 C 
HETATM   14  C6  UNL     1     -39.680   0.100 187.278  1.00  0.00     0.046 C 
HETATM   15  C7  UNL     1     -41.882   1.043 186.740  1.00  0.00     0.046 C 
ENDBRANCH  11  12
ENDBRANCH   9  11
ENDBRANCH   6   8
ENDBRANCH   3   6
ENDBRANCH   1   2
BRANCH   1  16
HETATM   16  C10 UNL     1     -36.448  -5.016 190.586  1.00  0.00     0.334 C 
HETATM   17  O4  UNL     1     -36.570  -6.155 190.169  1.00  0.00    -0.250 OA
HETATM   18  N3  UNL     1     -35.672  -3.948 190.069  1.00  0.00    -0.395 NA
BRANCH  18  19
HETATM   19  C11 UNL     1     -34.944  -2.960 189.579  1.00  0.00     0.260 C 
HETATM   20  C12 UNL     1     -33.850  -3.053 188.558  1.00  0.00     0.051 C 
HETATM   21  C13 UNL     1     -33.292  -1.665 188.281  1.00  0.00     0.025 C 
HETATM   22  C14 UNL     1     -33.917  -0.535 189.031  1.00  0.00     0.152 C 
HETATM   23  N4  UNL     1     -35.373  -0.611 188.839  1.00  0.00    -0.265 N 
HETATM   24  C15 UNL     1     -35.897  -1.886 189.073  1.00  0.00     0.273 C 
HETATM   25  O5  UNL     1     -37.064  -2.196 188.906  1.00  0.00    -0.268 OA
BRANCH  23  26
HETATM   26  N5  UNL     1     -36.216   0.434 188.487  1.00  0.00    -0.340 N 
ATOM     27  H52 UNL     1     -37.045   0.254 187.922  1.00  0.00     0.177 HD
ATOM     28  H51 UNL     1     -36.112   1.413 188.755  1.00  0.00     0.177 HD
ENDBRANCH  23  26
ENDBRANCH  18  19
ENDBRANCH   1  16
BRANCH   1  29
HETATM   29  C16 UNL     1     -37.276  -5.753 192.797  1.00  0.00     0.034 C 
HETATM   30  C17 UNL     1     -35.907  -5.934 193.473  1.00  0.00     0.016 C 
HETATM   31  C18 UNL     1     -38.239  -5.662 193.957  1.00  0.00     0.016 C 
ENDBRANCH   1  29
TORSDOF 9
ENDMDL
MODEL 5
REMARK VINA RESULT: -7.444365169      3.081      8.546
REMARK  9 active torsions:
REMARK  status: ('A' for Active; 'I' for Inactive)
REMARK    1  A    between atoms: C2_2  and  N1_3 
REMARK    2  A    between atoms: C2_2  and  C8_11 
REMARK       I    between atoms: N1_3  and  C3_4 
REMARK    3  A    between atoms: C3_4  and  O2_6 
REMARK    4  A    between atoms: O2_6  and  C4_7 
REMARK       I    between atoms: C8_11  and  N2_13 
REMARK    5  A    between atoms: N2_13  and  C9_15 
REMARK    6  A    between atoms: C9_15  and  C10_16 
REMARK    7  A    between atoms: C9_15  and  C16_29 
REMARK       I    between atoms: C10_16  and  N3_18 
REMARK    8  A    between atoms: N3_18  and  C11_19 
REMARK    9  A    between atoms: N4_23  and  N5_24 
ROOT
HETATM    1  C9  UNL     1     -34.760  -0.766 188.872  1.00  0.00     0.098 C 
ENDROOT
BRANCH   1   2
HETATM    2  N2  UNL     1     -35.377  -1.979 189.128  1.00  0.00    -0.319 N 
HETATM    3  C8  UNL     1     -35.120  -3.332 188.991  1.00  0.00     0.282 C 
HETATM    4  O3  UNL     1     -34.086  -3.689 188.326  1.00  0.00    -0.265 OA
ATOM      5  H2  UNL     1     -36.298  -1.830 189.541  1.00  0.00     0.169 HD
BRANCH   3   6
HETATM    6  C2  UNL     1     -35.962  -4.322 189.628  1.00  0.00     0.154 C 
HETATM    7  C1  UNL     1     -35.174  -5.645 189.667  1.00  0.00     0.091 C 
BRANCH   6   8
HETATM    8  N1  UNL     1     -37.001  -4.291 190.426  1.00  0.00    -0.345 NA
HETATM    9  C3  UNL     1     -38.197  -4.191 191.136  1.00  0.00     0.441 C 
HETATM   10  O1  UNL     1     -39.350  -3.838 190.924  1.00  0.00    -0.221 OA
BRANCH   9  11
HETATM   11  O2  UNL     1     -38.062  -4.590 192.529  1.00  0.00    -0.282 OA
BRANCH  11  12
HETATM   12  C4  UNL     1     -37.585  -5.716 193.121  1.00  0.00     0.062 C 
HETATM   13  C5  UNL     1     -38.173  -6.160 194.407  1.00  0.00     0.046 C 
HETATM   14  C6  UNL     1     -37.922  -6.889 192.130  1.00  0.00     0.046 C 
HETATM   15  C7  UNL     1     -36.079  -5.772 193.305  1.00  0.00     0.046 C 
ENDBRANCH  11  12
ENDBRANCH   9  11
ENDBRANCH   6   8
ENDBRANCH   3   6
ENDBRANCH   1   2
BRANCH   1  16
HETATM   16  C10 UNL     1     -35.445   0.111 187.820  1.00  0.00     0.334 C 
HETATM   17  O4  UNL     1     -34.752   0.417 186.865  1.00  0.00    -0.250 OA
HETATM   18  N3  UNL     1     -36.805   0.418 188.078  1.00  0.00    -0.395 NA
BRANCH  18  19
HETATM   19  C11 UNL     1     -38.073   0.710 188.309  1.00  0.00     0.260 C 
HETATM   20  C12 UNL     1     -39.033   1.398 187.384  1.00  0.00     0.051 C 
HETATM   21  C13 UNL     1     -40.392   1.519 188.058  1.00  0.00     0.025 C 
HETATM   22  C14 UNL     1     -40.506   0.947 189.433  1.00  0.00     0.152 C 
HETATM   23  N4  UNL     1     -40.011  -0.436 189.394  1.00  0.00    -0.265 N 
HETATM   24  C15 UNL     1     -38.771  -0.565 188.762  1.00  0.00     0.273 C 
HETATM   25  O5  UNL     1     -38.206  -1.625 188.554  1.00  0.00    -0.268 OA
BRANCH  23  26
HETATM   26  N5  UNL     1     -40.638  -1.553 189.929  1.00  0.00    -0.340 N 
ATOM     27  H52 UNL     1     -40.089  -2.374 190.186  1.00  0.00     0.177 HD
ATOM     28  H51 UNL     1     -41.634  -1.654 190.126  1.00  0.00     0.177 HD
ENDBRANCH  23  26
ENDBRANCH  18  19
ENDBRANCH   1  16
BRANCH   1  29
HETATM   29  C16 UNL     1     -33.354  -0.442 189.018  1.00  0.00     0.034 C 
HETATM   30  C17 UNL     1     -33.096   1.071 189.119  1.00  0.00     0.016 C 
HETATM   31  C18 UNL     1     -32.619  -1.011 190.209  1.00  0.00     0.016 C 
ENDBRANCH   1  29
TORSDOF 9
ENDMDL
