MODEL 1
REMARK VINA RESULT: -7.506036321      0.000      0.000
REMARK  9 active torsions:
REMARK  status: ('A' for Active; 'I' for Inactive)
REMARK    1  A    between atoms: C2_2  and  C4_4 
REMARK       I    between atoms: C4_4  and  N1_6 
REMARK    2  A    between atoms: N1_6  and  S1_8 
REMARK    3  A    between atoms: S1_8  and  N2_11 
REMARK       I    between atoms: N3_14  and  C7_15 
REMARK    4  A    between atoms: C7_15  and  C8_17 
REMARK    5  A    between atoms: C8_17  and  N4_18 
REMARK    6  A    between atoms: C8_17  and  C10_27 
REMARK    7  A    between atoms: N4_18  and  C9_20 
REMARK    8  A    between atoms: C9_20  and  O5_21 
REMARK    9  A    between atoms: N5_23  and  O6_25 
ROOT
HETATM    1  N2  UNL     1     -35.773  -4.090 188.890  1.00  0.00    -0.190 NA
HETATM    2  C5  UNL     1     -37.150  -3.867 188.495  1.00  0.00     0.129 C 
HETATM    3  C6  UNL     1     -37.692  -2.764 189.419  1.00  0.00     0.141 C 
HETATM    4  N3  UNL     1     -37.030  -1.564 189.013  1.00  0.00    -0.348 N 
HETATM    5  C7  UNL     1     -37.722  -0.384 188.681  1.00  0.00     0.243 C 
HETATM    6  O4  UNL     1     -36.937   0.565 188.299  1.00  0.00    -0.271 OA
HETATM    7  C14 UNL     1     -35.559  -1.649 188.968  1.00  0.00     0.141 C 
HETATM    8  C15 UNL     1     -35.178  -2.982 189.570  1.00  0.00     0.129 C 
ENDROOT
BRANCH   5   9
HETATM    9  C8  UNL     1     -39.183  -0.180 188.736  1.00  0.00     0.184 C 
BRANCH   9  10
HETATM   10  N4  UNL     1     -39.895  -1.239 189.424  1.00  0.00    -0.341 N 
ATOM     11  H4  UNL     1     -39.866  -2.148 188.963  1.00  0.00     0.164 HD
BRANCH  10  12
HETATM   12  C9  UNL     1     -40.613  -1.204 190.616  1.00  0.00     0.237 C 
HETATM   13  N5  UNL     1     -40.962  -2.361 191.144  1.00  0.00    -0.233 N 
ATOM     14  H5  UNL     1     -41.488  -2.357 192.017  1.00  0.00     0.198 HD
BRANCH  12  15
HETATM   15  O5  UNL     1     -41.033  -0.125 191.358  1.00  0.00    -0.331 OA
ATOM     16  H5  UNL     1     -41.829  -0.009 191.863  1.00  0.00     0.221 HD
ENDBRANCH  12  15
BRANCH  13  17
HETATM   17  O6  UNL     1     -40.651  -3.565 190.576  1.00  0.00    -0.287 OA
ATOM     18  H6  UNL     1     -40.016  -4.165 190.947  1.00  0.00     0.244 HD
ENDBRANCH  13  17
ENDBRANCH  10  12
ENDBRANCH   9  10
BRANCH   9  19
HETATM   19  C10 UNL     1     -39.796   0.057 187.363  1.00  0.00    -0.022 C 
HETATM   20  C11 UNL     1     -39.435   1.399 186.782  1.00  0.00     0.017 C 
HETATM   21  C12 UNL     1     -39.401  -1.004 186.362  1.00  0.00     0.017 C 
HETATM   22  C13 UNL     1     -41.309   0.027 187.424  1.00  0.00     0.017 C 
ENDBRANCH   9  19
ENDBRANCH   5   9
BRANCH   1  23
HETATM   23  S1  UNL     1     -35.728  -5.541 189.824  1.00  0.00     0.305 S 
HETATM   24  O2  UNL     1     -34.356  -6.184 189.781  1.00  0.00    -0.188 OA
HETATM   25  O3  UNL     1     -36.681  -6.568 189.266  1.00  0.00    -0.188 OA
BRANCH  23  26
HETATM   26  N1  UNL     1     -36.094  -5.169 191.465  1.00  0.00    -0.241 N 
HETATM   27  C4  UNL     1     -37.406  -5.331 191.966  1.00  0.00     0.235 C 
HETATM   28  O1  UNL     1     -38.358  -5.750 191.242  1.00  0.00    -0.272 OA
ATOM     29  H1  UNL     1     -35.356  -4.829 192.083  1.00  0.00     0.182 HD
BRANCH  27  30
HETATM   30  C2  UNL     1     -37.689  -5.004 193.376  1.00  0.00     0.071 C 
HETATM   31  C1  UNL     1     -37.994  -6.322 194.090  1.00  0.00     0.019 C 
HETATM   32  C3  UNL     1     -38.840  -4.042 193.480  1.00  0.00     0.019 C 
ENDBRANCH  27  30
ENDBRANCH  23  26
ENDBRANCH   1  23
TORSDOF 9
ENDMDL
MODEL 2
REMARK VINA RESULT: -7.214821665      2.178      3.366
REMARK  9 active torsions:
REMARK  status: ('A' for Active; 'I' for Inactive)
REMARK    1  A    between atoms: C2_2  and  C4_4 
REMARK       I    between atoms: C4_4  and  N1_6 
REMARK    2  A    between atoms: N1_6  and  S1_8 
REMARK    3  A    between atoms: S1_8  and  N2_11 
REMARK       I    between atoms: N3_14  and  C7_15 
REMARK    4  A    between atoms: C7_15  and  C8_17 
REMARK    5  A    between atoms: C8_17  and  N4_18 
REMARK    6  A    between atoms: C8_17  and  C10_27 
REMARK    7  A    between atoms: N4_18  and  C9_20 
REMARK    8  A    between atoms: C9_20  and  O5_21 
REMARK    9  A    between atoms: N5_23  and  O6_25 
ROOT
HETATM    1  N2  UNL     1     -36.030  -3.918 188.893  1.00  0.00    -0.190 NA
HETATM    2  C5  UNL     1     -37.423  -3.716 188.549  1.00  0.00     0.129 C 
HETATM    3  C6  UNL     1     -37.927  -2.565 189.435  1.00  0.00     0.141 C 
HETATM    4  N3  UNL     1     -37.286  -1.389 188.937  1.00  0.00    -0.348 N 
HETATM    5  C7  UNL     1     -37.993  -0.227 188.574  1.00  0.00     0.243 C 
HETATM    6  O4  UNL     1     -37.228   0.699 188.107  1.00  0.00    -0.271 OA
HETATM    7  C14 UNL     1     -35.818  -1.477 188.832  1.00  0.00     0.141 C 
HETATM    8  C15 UNL     1     -35.408  -2.776 189.486  1.00  0.00     0.129 C 
ENDROOT
BRANCH   5   9
HETATM    9  C8  UNL     1     -39.451  -0.020 188.682  1.00  0.00     0.184 C 
BRANCH   9  10
HETATM   10  N4  UNL     1     -40.141  -1.084 189.385  1.00  0.00    -0.341 N 
ATOM     11  H4  UNL     1     -40.224  -1.959 188.869  1.00  0.00     0.164 HD
BRANCH  10  12
HETATM   12  C9  UNL     1     -40.710  -1.093 190.656  1.00  0.00     0.237 C 
HETATM   13  N5  UNL     1     -40.956  -2.268 191.199  1.00  0.00    -0.233 N 
ATOM     14  H5  UNL     1     -41.372  -2.296 192.129  1.00  0.00     0.198 HD
BRANCH  12  15
HETATM   15  O5  UNL     1     -41.071  -0.040 191.464  1.00  0.00    -0.331 OA
ATOM     16  H5  UNL     1     -40.566   0.421 192.123  1.00  0.00     0.221 HD
ENDBRANCH  12  15
BRANCH  13  17
HETATM   17  O6  UNL     1     -40.678  -3.452 190.573  1.00  0.00    -0.287 OA
ATOM     18  H6  UNL     1     -40.002  -4.049 190.870  1.00  0.00     0.244 HD
ENDBRANCH  13  17
ENDBRANCH  10  12
ENDBRANCH   9  10
BRANCH   9  19
HETATM   19  C10 UNL     1     -40.111   0.231 187.333  1.00  0.00    -0.022 C 
HETATM   20  C11 UNL     1     -39.678   1.527 186.699  1.00  0.00     0.017 C 
HETATM   21  C12 UNL     1     -39.848  -0.881 186.344  1.00  0.00     0.017 C 
HETATM   22  C13 UNL     1     -41.617   0.319 187.467  1.00  0.00     0.017 C 
ENDBRANCH   9  19
ENDBRANCH   5   9
BRANCH   1  23
HETATM   23  S1  UNL     1     -35.941  -5.317 189.900  1.00  0.00     0.305 S 
HETATM   24  O2  UNL     1     -37.322  -5.814 190.279  1.00  0.00    -0.188 OA
HETATM   25  O3  UNL     1     -35.247  -4.999 191.201  1.00  0.00    -0.188 OA
BRANCH  23  26
HETATM   26  N1  UNL     1     -35.133  -6.578 189.049  1.00  0.00    -0.241 N 
HETATM   27  C4  UNL     1     -33.769  -6.452 188.698  1.00  0.00     0.235 C 
HETATM   28  O1  UNL     1     -33.089  -5.424 188.990  1.00  0.00    -0.272 OA
ATOM     29  H1  UNL     1     -35.644  -7.424 188.795  1.00  0.00     0.182 HD
BRANCH  27  30
HETATM   30  C2  UNL     1     -33.105  -7.549 187.969  1.00  0.00     0.071 C 
HETATM   31  C1  UNL     1     -31.836  -7.901 188.747  1.00  0.00     0.019 C 
HETATM   32  C3  UNL     1     -32.789  -7.136 186.558  1.00  0.00     0.019 C 
ENDBRANCH  27  30
ENDBRANCH  23  26
ENDBRANCH   1  23
TORSDOF 9
ENDMDL
MODEL 3
REMARK VINA RESULT: -7.198923036      2.079      2.893
REMARK  9 active torsions:
REMARK  status: ('A' for Active; 'I' for Inactive)
REMARK    1  A    between atoms: C2_2  and  C4_4 
REMARK       I    between atoms: C4_4  and  N1_6 
REMARK    2  A    between atoms: N1_6  and  S1_8 
REMARK    3  A    between atoms: S1_8  and  N2_11 
REMARK       I    between atoms: N3_14  and  C7_15 
REMARK    4  A    between atoms: C7_15  and  C8_17 
REMARK    5  A    between atoms: C8_17  and  N4_18 
REMARK    6  A    between atoms: C8_17  and  C10_27 
REMARK    7  A    between atoms: N4_18  and  C9_20 
REMARK    8  A    between atoms: C9_20  and  O5_21 
REMARK    9  A    between atoms: N5_23  and  O6_25 
ROOT
HETATM    1  N2  UNL     1     -35.763  -3.451 188.942  1.00  0.00    -0.190 NA
HETATM    2  C5  UNL     1     -37.080  -3.584 188.350  1.00  0.00     0.129 C 
HETATM    3  C6  UNL     1     -37.987  -2.582 189.083  1.00  0.00     0.141 C 
HETATM    4  N3  UNL     1     -37.557  -1.289 188.654  1.00  0.00    -0.348 N 
HETATM    5  C7  UNL     1     -38.437  -0.328 188.121  1.00  0.00     0.243 C 
HETATM    6  O4  UNL     1     -37.836   0.752 187.755  1.00  0.00    -0.271 OA
HETATM    7  C14 UNL     1     -36.114  -1.028 188.810  1.00  0.00     0.141 C 
HETATM    8  C15 UNL     1     -35.540  -2.193 189.583  1.00  0.00     0.129 C 
ENDROOT
BRANCH   5   9
HETATM    9  C8  UNL     1     -39.898  -0.470 187.964  1.00  0.00     0.184 C 
BRANCH   9  10
HETATM   10  N4  UNL     1     -40.394  -0.018 186.679  1.00  0.00    -0.341 N 
ATOM     11  H4  UNL     1     -40.819  -0.743 186.101  1.00  0.00     0.164 HD
BRANCH  10  12
HETATM   12  C9  UNL     1     -40.379   1.254 186.112  1.00  0.00     0.237 C 
HETATM   13  N5  UNL     1     -41.510   1.702 185.604  1.00  0.00    -0.233 N 
ATOM     14  H5  UNL     1     -41.520   2.631 185.184  1.00  0.00     0.198 HD
BRANCH  12  15
HETATM   15  O5  UNL     1     -39.342   2.150 185.990  1.00  0.00    -0.331 OA
ATOM     16  H5  UNL     1     -39.364   3.085 185.824  1.00  0.00     0.221 HD
ENDBRANCH  12  15
BRANCH  13  17
HETATM   17  O6  UNL     1     -42.671   0.979 185.614  1.00  0.00    -0.287 OA
ATOM     18  H6  UNL     1     -43.222   0.874 184.848  1.00  0.00     0.244 HD
ENDBRANCH  13  17
ENDBRANCH  10  12
ENDBRANCH   9  10
BRANCH   9  19
HETATM   19  C10 UNL     1     -40.678   0.195 189.089  1.00  0.00    -0.022 C 
HETATM   20  C11 UNL     1     -40.118   1.537 189.479  1.00  0.00     0.017 C 
HETATM   21  C12 UNL     1     -42.139   0.381 188.749  1.00  0.00     0.017 C 
HETATM   22  C13 UNL     1     -40.650  -0.646 190.348  1.00  0.00     0.017 C 
ENDBRANCH   9  19
ENDBRANCH   5   9
BRANCH   1  23
HETATM   23  S1  UNL     1     -35.535  -4.788 190.009  1.00  0.00     0.305 S 
HETATM   24  O2  UNL     1     -34.102  -4.869 190.495  1.00  0.00    -0.188 OA
HETATM   25  O3  UNL     1     -35.805  -6.092 189.302  1.00  0.00    -0.188 OA
BRANCH  23  26
HETATM   26  N1  UNL     1     -36.556  -4.595 191.383  1.00  0.00    -0.241 N 
HETATM   27  C4  UNL     1     -36.559  -5.556 192.420  1.00  0.00     0.235 C 
HETATM   28  O1  UNL     1     -35.822  -6.587 192.387  1.00  0.00    -0.272 OA
ATOM     29  H1  UNL     1     -37.165  -3.779 191.450  1.00  0.00     0.182 HD
BRANCH  27  30
HETATM   30  C2  UNL     1     -37.444  -5.364 193.584  1.00  0.00     0.071 C 
HETATM   31  C1  UNL     1     -38.002  -6.739 193.955  1.00  0.00     0.019 C 
HETATM   32  C3  UNL     1     -38.544  -4.391 193.263  1.00  0.00     0.019 C 
ENDBRANCH  27  30
ENDBRANCH  23  26
ENDBRANCH   1  23
TORSDOF 9
ENDMDL
MODEL 4
REMARK VINA RESULT: -7.015946667      8.250     10.715
REMARK  9 active torsions:
REMARK  status: ('A' for Active; 'I' for Inactive)
REMARK    1  A    between atoms: C2_2  and  C4_4 
REMARK       I    between atoms: C4_4  and  N1_6 
REMARK    2  A    between atoms: N1_6  and  S1_8 
REMARK    3  A    between atoms: S1_8  and  N2_11 
REMARK       I    between atoms: N3_14  and  C7_15 
REMARK    4  A    between atoms: C7_15  and  C8_17 
REMARK    5  A    between atoms: C8_17  and  N4_18 
REMARK    6  A    between atoms: C8_17  and  C10_27 
REMARK    7  A    between atoms: N4_18  and  C9_20 
REMARK    8  A    between atoms: C9_20  and  O5_21 
REMARK    9  A    between atoms: N5_23  and  O6_25 
ROOT
HETATM    1  N2  UNL     1     -32.040   5.165 188.047  1.00  0.00    -0.190 NA
HETATM    2  C5  UNL     1     -31.288   5.223 186.809  1.00  0.00     0.129 C 
HETATM    3  C6  UNL     1     -32.288   4.926 185.680  1.00  0.00     0.141 C 
HETATM    4  N3  UNL     1     -33.136   6.074 185.608  1.00  0.00    -0.348 N 
HETATM    5  C7  UNL     1     -33.367   6.781 184.412  1.00  0.00     0.243 C 
HETATM    6  O4  UNL     1     -34.126   7.810 184.579  1.00  0.00    -0.271 OA
HETATM    7  C14 UNL     1     -33.761   6.467 186.884  1.00  0.00     0.141 C 
HETATM    8  C15 UNL     1     -33.444   5.378 187.882  1.00  0.00     0.129 C 
ENDROOT
BRANCH   5   9
HETATM    9  C8  UNL     1     -32.830   6.446 183.079  1.00  0.00     0.184 C 
BRANCH   9  10
HETATM   10  N4  UNL     1     -33.047   5.067 182.691  1.00  0.00    -0.341 N 
ATOM     11  H4  UNL     1     -32.453   4.387 183.166  1.00  0.00     0.164 HD
BRANCH  10  12
HETATM   12  C9  UNL     1     -33.941   4.528 181.771  1.00  0.00     0.237 C 
HETATM   13  N5  UNL     1     -33.464   4.196 180.587  1.00  0.00    -0.233 N 
ATOM     14  H5  UNL     1     -34.103   3.801 179.899  1.00  0.00     0.198 HD
BRANCH  12  15
HETATM   15  O5  UNL     1     -35.288   4.278 181.896  1.00  0.00    -0.331 OA
ATOM     16  H5  UNL     1     -36.027   4.868 181.802  1.00  0.00     0.221 HD
ENDBRANCH  12  15
BRANCH  13  17
HETATM   17  O6  UNL     1     -32.151   4.359 180.240  1.00  0.00    -0.287 OA
ATOM     18  H6  UNL     1     -31.876   4.670 179.386  1.00  0.00     0.244 HD
ENDBRANCH  13  17
ENDBRANCH  10  12
ENDBRANCH   9  10
BRANCH   9  19
HETATM   19  C10 UNL     1     -31.358   6.806 182.931  1.00  0.00    -0.022 C 
HETATM   20  C11 UNL     1     -30.883   7.782 183.975  1.00  0.00     0.017 C 
HETATM   21  C12 UNL     1     -30.457   5.594 182.985  1.00  0.00     0.017 C 
HETATM   22  C13 UNL     1     -31.086   7.466 181.595  1.00  0.00     0.017 C 
ENDBRANCH   9  19
ENDBRANCH   5   9
BRANCH   1  23
HETATM   23  S1  UNL     1     -31.684   3.655 188.802  1.00  0.00     0.305 S 
HETATM   24  O2  UNL     1     -31.673   3.782 190.313  1.00  0.00    -0.188 OA
HETATM   25  O3  UNL     1     -30.307   3.175 188.420  1.00  0.00    -0.188 OA
BRANCH  23  26
HETATM   26  N1  UNL     1     -32.893   2.506 188.370  1.00  0.00    -0.241 N 
HETATM   27  C4  UNL     1     -32.800   1.164 188.804  1.00  0.00     0.235 C 
HETATM   28  O1  UNL     1     -31.839   0.751 189.519  1.00  0.00    -0.272 OA
ATOM     29  H1  UNL     1     -33.684   2.798 187.796  1.00  0.00     0.182 HD
BRANCH  27  30
HETATM   30  C2  UNL     1     -33.851   0.203 188.417  1.00  0.00     0.071 C 
HETATM   31  C1  UNL     1     -35.178   0.961 188.430  1.00  0.00     0.019 C 
HETATM   32  C3  UNL     1     -33.874  -0.968 189.360  1.00  0.00     0.019 C 
ENDBRANCH  27  30
ENDBRANCH  23  26
ENDBRANCH   1  23
TORSDOF 9
ENDMDL
MODEL 5
REMARK VINA RESULT: -6.826671367      1.679      1.948
REMARK  9 active torsions:
REMARK  status: ('A' for Active; 'I' for Inactive)
REMARK    1  A    between atoms: C2_2  and  C4_4 
REMARK       I    between atoms: C4_4  and  N1_6 
REMARK    2  A    between atoms: N1_6  and  S1_8 
REMARK    3  A    between atoms: S1_8  and  N2_11 
REMARK       I    between atoms: N3_14  and  C7_15 
REMARK    4  A    between atoms: C7_15  and  C8_17 
REMARK    5  A    between atoms: C8_17  and  N4_18 
REMARK    6  A    between atoms: C8_17  and  C10_27 
REMARK    7  A    between atoms: N4_18  and  C9_20 
REMARK    8  A    between atoms: C9_20  and  O5_21 
REMARK    9  A    between atoms: N5_23  and  O6_25 
ROOT
HETATM    1  N2  UNL     1     -36.005  -4.085 189.067  1.00  0.00    -0.190 NA
HETATM    2  C5  UNL     1     -37.395  -3.856 188.724  1.00  0.00     0.129 C 
HETATM    3  C6  UNL     1     -37.852  -2.644 189.551  1.00  0.00     0.141 C 
HETATM    4  N3  UNL     1     -37.179  -1.518 188.986  1.00  0.00    -0.348 N 
HETATM    5  C7  UNL     1     -37.853  -0.355 188.566  1.00  0.00     0.243 C 
HETATM    6  O4  UNL     1     -37.063   0.520 188.044  1.00  0.00    -0.271 OA
HETATM    7  C14 UNL     1     -35.716  -1.658 188.873  1.00  0.00     0.141 C 
HETATM    8  C15 UNL     1     -35.341  -2.934 189.592  1.00  0.00     0.129 C 
ENDROOT
BRANCH   5   9
HETATM    9  C8  UNL     1     -39.302  -0.095 188.676  1.00  0.00     0.184 C 
BRANCH   9  10
HETATM   10  N4  UNL     1     -40.023  -1.109 189.419  1.00  0.00    -0.341 N 
ATOM     11  H4  UNL     1     -40.059  -2.026 188.975  1.00  0.00     0.164 HD
BRANCH  10  12
HETATM   12  C9  UNL     1     -40.673  -1.023 190.648  1.00  0.00     0.237 C 
HETATM   13  N5  UNL     1     -41.016  -2.155 191.229  1.00  0.00    -0.233 N 
ATOM     14  H5  UNL     1     -41.494  -2.114 192.129  1.00  0.00     0.198 HD
BRANCH  12  15
HETATM   15  O5  UNL     1     -41.029   0.087 191.378  1.00  0.00    -0.331 OA
ATOM     16  H5  UNL     1     -40.713   0.980 191.318  1.00  0.00     0.221 HD
ENDBRANCH  12  15
BRANCH  13  17
HETATM   17  O6  UNL     1     -40.763  -3.383 190.683  1.00  0.00    -0.287 OA
ATOM     18  H6  UNL     1     -41.320  -4.138 190.824  1.00  0.00     0.244 HD
ENDBRANCH  13  17
ENDBRANCH  10  12
ENDBRANCH   9  10
BRANCH   9  19
HETATM   19  C10 UNL     1     -39.963   0.131 187.323  1.00  0.00    -0.022 C 
HETATM   20  C11 UNL     1     -39.583   1.447 186.696  1.00  0.00     0.017 C 
HETATM   21  C12 UNL     1     -39.643  -0.965 186.332  1.00  0.00     0.017 C 
HETATM   22  C13 UNL     1     -41.472   0.152 187.446  1.00  0.00     0.017 C 
ENDBRANCH   9  19
ENDBRANCH   5   9
BRANCH   1  23
HETATM   23  S1  UNL     1     -35.951  -5.431 190.147  1.00  0.00     0.305 S 
HETATM   24  O2  UNL     1     -35.603  -6.712 189.416  1.00  0.00    -0.188 OA
HETATM   25  O3  UNL     1     -37.300  -5.669 190.775  1.00  0.00    -0.188 OA
BRANCH  23  26
HETATM   26  N1  UNL     1     -34.742  -5.150 191.341  1.00  0.00    -0.241 N 
HETATM   27  C4  UNL     1     -34.536  -6.074 192.390  1.00  0.00     0.235 C 
HETATM   28  O1  UNL     1     -35.220  -7.135 192.499  1.00  0.00    -0.272 OA
ATOM     29  H1  UNL     1     -34.168  -4.308 191.290  1.00  0.00     0.182 HD
BRANCH  27  30
HETATM   30  C2  UNL     1     -33.493  -5.806 193.398  1.00  0.00     0.071 C 
HETATM   31  C1  UNL     1     -34.202  -5.629 194.741  1.00  0.00     0.019 C 
HETATM   32  C3  UNL     1     -32.696  -4.585 193.030  1.00  0.00     0.019 C 
ENDBRANCH  27  30
ENDBRANCH  23  26
ENDBRANCH   1  23
TORSDOF 9
ENDMDL
