MODEL 1
REMARK VINA RESULT: -6.732625858      0.000      0.000
REMARK  2 active torsions:
REMARK  status: ('A' for Active; 'I' for Inactive)
REMARK    1  A    between atoms: O1_2  and  C2_3 
REMARK    2  A    between atoms: C2_3  and  C3_4 
ROOT
HETATM    1  C3  UNL     1      31.333 -28.484 -26.934  1.00  0.00     0.112 C 
HETATM    2  C4  UNL     1      32.203 -27.790 -25.958  1.00  0.00     0.135 C 
HETATM    3  O2  UNL     1      32.276 -28.059 -24.786  1.00  0.00    -0.297 OA
HETATM    4  C5  UNL     1      33.051 -26.672 -26.477  1.00  0.00     0.079 C 
HETATM    5  C6  UNL     1      32.409 -26.198 -27.760  1.00  0.00     0.019 C 
HETATM    6  C7  UNL     1      30.883 -26.116 -27.612  1.00  0.00    -0.010 C 
HETATM    7  C8  UNL     1      30.560 -25.392 -26.308  1.00  0.00     0.018 C 
HETATM    8  C9  UNL     1      30.377 -25.261 -28.727  1.00  0.00     0.063 C 
HETATM    9  C10 UNL     1      29.650 -26.110 -29.752  1.00  0.00     0.256 C 
HETATM   10 CL1  UNL     1      29.480 -25.299 -31.308  1.00  0.00    -0.092 Cl
HETATM   11  O3  UNL     1      30.412 -27.296 -29.857  1.00  0.00    -0.220 OA
HETATM   12  O4  UNL     1      30.081 -28.032 -28.846  1.00  0.00    -0.232 OA
HETATM   13  C11 UNL     1      30.367 -27.515 -27.614  1.00  0.00     0.182 C 
ENDROOT
BRANCH   1  14
HETATM   14  C2  UNL     1      30.520 -29.580 -26.316  1.00  0.00     0.181 C 
BRANCH  14  15
HETATM   15  O1  UNL     1      31.142 -30.817 -26.363  1.00  0.00    -0.395 OA
HETATM   16  C1  UNL     1      30.318 -31.655 -27.134  1.00  0.00     0.201 C 
ENDBRANCH  14  15
ENDBRANCH   1  14
TORSDOF 2
ENDMDL
MODEL 2
REMARK VINA RESULT: -6.676055378      2.511      4.616
REMARK  2 active torsions:
REMARK  status: ('A' for Active; 'I' for Inactive)
REMARK    1  A    between atoms: O1_2  and  C2_3 
REMARK    2  A    between atoms: C2_3  and  C3_4 
ROOT
HETATM    1  C3  UNL     1      29.547 -26.656 -29.038  1.00  0.00     0.112 C 
HETATM    2  C4  UNL     1      29.589 -25.216 -28.695  1.00  0.00     0.135 C 
HETATM    3  O2  UNL     1      29.622 -24.316 -29.495  1.00  0.00    -0.297 OA
HETATM    4  C5  UNL     1      29.588 -24.864 -27.241  1.00  0.00     0.079 C 
HETATM    5  C6  UNL     1      30.075 -26.086 -26.497  1.00  0.00     0.019 C 
HETATM    6  C7  UNL     1      31.266 -26.730 -27.219  1.00  0.00    -0.010 C 
HETATM    7  C8  UNL     1      32.265 -25.634 -27.582  1.00  0.00     0.018 C 
HETATM    8  C9  UNL     1      31.941 -27.633 -26.241  1.00  0.00     0.063 C 
HETATM    9  C10 UNL     1      31.684 -29.084 -26.600  1.00  0.00     0.256 C 
HETATM   10 CL1  UNL     1      31.988 -30.181 -25.254  1.00  0.00    -0.092 Cl
HETATM   11  O3  UNL     1      30.335 -29.128 -27.020  1.00  0.00    -0.220 OA
HETATM   12  O4  UNL     1      30.321 -28.704 -28.242  1.00  0.00    -0.232 OA
HETATM   13  C11 UNL     1      30.726 -27.413 -28.430  1.00  0.00     0.182 C 
ENDROOT
BRANCH   1  14
HETATM   14  C2  UNL     1      29.559 -26.903 -30.516  1.00  0.00     0.181 C 
BRANCH  14  15
HETATM   15  O1  UNL     1      30.813 -26.762 -31.085  1.00  0.00    -0.395 OA
HETATM   16  C1  UNL     1      30.611 -26.358 -32.416  1.00  0.00     0.201 C 
ENDBRANCH  14  15
ENDBRANCH   1  14
TORSDOF 2
ENDMDL
MODEL 3
REMARK VINA RESULT: -5.229971183      3.508      6.093
REMARK  2 active torsions:
REMARK  status: ('A' for Active; 'I' for Inactive)
REMARK    1  A    between atoms: O1_2  and  C2_3 
REMARK    2  A    between atoms: C2_3  and  C3_4 
ROOT
HETATM    1  C3  UNL     1      29.792 -26.323 -32.891  1.00  0.00     0.112 C 
HETATM    2  C4  UNL     1      29.341 -25.061 -33.519  1.00  0.00     0.135 C 
HETATM    3  O2  UNL     1      29.778 -24.607 -34.546  1.00  0.00    -0.297 OA
HETATM    4  C5  UNL     1      28.260 -24.300 -32.818  1.00  0.00     0.079 C 
HETATM    5  C6  UNL     1      28.277 -24.751 -31.375  1.00  0.00     0.019 C 
HETATM    6  C7  UNL     1      29.715 -24.869 -30.854  1.00  0.00    -0.010 C 
HETATM    7  C8  UNL     1      30.480 -23.607 -31.247  1.00  0.00     0.018 C 
HETATM    8  C9  UNL     1      29.644 -24.893 -29.362  1.00  0.00     0.063 C 
HETATM    9  C10 UNL     1      29.959 -26.283 -28.843  1.00  0.00     0.256 C 
HETATM   10 CL1  UNL     1      29.405 -26.531 -27.189  1.00  0.00    -0.092 Cl
HETATM   11  O3  UNL     1      29.328 -27.167 -29.748  1.00  0.00    -0.220 OA
HETATM   12  O4  UNL     1      30.107 -27.252 -30.777  1.00  0.00    -0.232 OA
HETATM   13  C11 UNL     1      30.306 -26.091 -31.470  1.00  0.00     0.182 C 
ENDROOT
BRANCH   1  14
HETATM   14  C2  UNL     1      30.880 -27.004 -33.664  1.00  0.00     0.181 C 
BRANCH  14  15
HETATM   15  O1  UNL     1      30.635 -28.349 -33.887  1.00  0.00    -0.395 OA
HETATM   16  C1  UNL     1      29.239 -28.514 -33.869  1.00  0.00     0.201 C 
ENDBRANCH  14  15
ENDBRANCH   1  14
TORSDOF 2
ENDMDL
MODEL 4
REMARK VINA RESULT: -4.756364856      3.723      6.733
REMARK  2 active torsions:
REMARK  status: ('A' for Active; 'I' for Inactive)
REMARK    1  A    between atoms: O1_2  and  C2_3 
REMARK    2  A    between atoms: C2_3  and  C3_4 
ROOT
HETATM    1  C3  UNL     1      29.899 -24.232 -31.991  1.00  0.00     0.112 C 
HETATM    2  C4  UNL     1      29.719 -25.264 -33.037  1.00  0.00     0.135 C 
HETATM    3  O2  UNL     1      29.115 -25.105 -34.067  1.00  0.00    -0.297 OA
HETATM    4  C5  UNL     1      30.339 -26.602 -32.786  1.00  0.00     0.079 C 
HETATM    5  C6  UNL     1      30.541 -26.715 -31.292  1.00  0.00     0.019 C 
HETATM    6  C7  UNL     1      29.319 -26.182 -30.531  1.00  0.00    -0.010 C 
HETATM    7  C8  UNL     1      28.060 -26.776 -31.157  1.00  0.00     0.018 C 
HETATM    8  C9  UNL     1      29.405 -26.705 -29.135  1.00  0.00     0.063 C 
HETATM    9  C10 UNL     1      29.763 -25.587 -28.176  1.00  0.00     0.256 C 
HETATM   10 CL1  UNL     1      30.383 -26.184 -26.638  1.00  0.00    -0.092 Cl
HETATM   11  O3  UNL     1      30.721 -24.804 -28.861  1.00  0.00    -0.220 OA
HETATM   12  O4  UNL     1      30.059 -24.048 -29.674  1.00  0.00    -0.232 OA
HETATM   13  C11 UNL     1      29.347 -24.695 -30.644  1.00  0.00     0.182 C 
ENDROOT
BRANCH   1  14
HETATM   14  C2  UNL     1      29.236 -22.932 -32.334  1.00  0.00     0.181 C 
BRANCH  14  15
HETATM   15  O1  UNL     1      29.555 -21.907 -31.459  1.00  0.00    -0.395 OA
HETATM   16  C1  UNL     1      29.825 -20.774 -32.245  1.00  0.00     0.201 C 
ENDBRANCH  14  15
ENDBRANCH   1  14
TORSDOF 2
ENDMDL
MODEL 5
REMARK VINA RESULT: -4.620775849      9.527     11.595
REMARK  2 active torsions:
REMARK  status: ('A' for Active; 'I' for Inactive)
REMARK    1  A    between atoms: O1_2  and  C2_3 
REMARK    2  A    between atoms: C2_3  and  C3_4 
ROOT
HETATM    1  C3  UNL     1      24.632 -32.177 -36.595  1.00  0.00     0.112 C 
HETATM    2  C4  UNL     1      23.737 -31.160 -37.191  1.00  0.00     0.135 C 
HETATM    3  O2  UNL     1      23.192 -31.261 -38.260  1.00  0.00    -0.297 OA
HETATM    4  C5  UNL     1      23.498 -29.915 -36.395  1.00  0.00     0.079 C 
HETATM    5  C6  UNL     1      24.650 -29.791 -35.425  1.00  0.00     0.019 C 
HETATM    6  C7  UNL     1      25.983 -30.126 -36.109  1.00  0.00    -0.010 C 
HETATM    7  C8  UNL     1      26.047 -29.378 -37.439  1.00  0.00     0.018 C 
HETATM    8  C9  UNL     1      27.072 -29.582 -35.245  1.00  0.00     0.063 C 
HETATM    9  C10 UNL     1      27.810 -30.712 -34.554  1.00  0.00     0.256 C 
HETATM   10 CL1  UNL     1      28.735 -30.165 -33.157  1.00  0.00    -0.092 Cl
HETATM   11  O3  UNL     1      26.807 -31.640 -34.190  1.00  0.00    -0.220 OA
HETATM   12  O4  UNL     1      26.534 -32.318 -35.257  1.00  0.00    -0.232 OA
HETATM   13  C11 UNL     1      26.018 -31.604 -36.301  1.00  0.00     0.182 C 
ENDROOT
BRANCH   1  14
HETATM   14  C2  UNL     1      24.812 -33.380 -37.471  1.00  0.00     0.181 C 
BRANCH  14  15
HETATM   15  O1  UNL     1      25.866 -33.257 -38.361  1.00  0.00    -0.395 OA
HETATM   16  C1  UNL     1      25.543 -34.040 -39.482  1.00  0.00     0.201 C 
ENDBRANCH  14  15
ENDBRANCH   1  14
TORSDOF 2
ENDMDL
