MODEL 1
REMARK VINA RESULT: -6.003781684      0.000      0.000
REMARK  2 active torsions:
REMARK  status: ('A' for Active; 'I' for Inactive)
REMARK    1  A    between atoms: S1_2  and  C2_3 
REMARK    2  A    between atoms: C8_10  and  C9_11 
ROOT
HETATM    1  C2  UNL     1      29.672 -26.742 -27.912  1.00  0.00     0.186 C 
HETATM    2  C3  UNL     1      30.475 -25.538 -27.653  1.00  0.00     0.148 C 
HETATM    3  O1  UNL     1      30.466 -24.616 -28.413  1.00  0.00    -0.296 OA
HETATM    4  C4  UNL     1      31.289 -25.502 -26.429  1.00  0.00     0.089 C 
HETATM    5  C5  UNL     1      32.287 -26.638 -26.337  1.00  0.00    -0.023 C 
HETATM    6  C6  UNL     1      33.462 -26.258 -27.215  1.00  0.00     0.016 C 
HETATM    7  C7  UNL     1      32.814 -26.740 -24.921  1.00  0.00     0.016 C 
HETATM    8  C8  UNL     1      31.635 -27.920 -26.787  1.00  0.00     0.151 C 
HETATM    9  C10 UNL     1      30.171 -27.771 -26.947  1.00  0.00     0.161 C 
HETATM   10  O3  UNL     1      29.382 -28.446 -26.327  1.00  0.00    -0.295 OA
ENDROOT
BRANCH   8  11
HETATM   11  C9  UNL     1      31.912 -29.049 -25.864  1.00  0.00     0.231 C 
HETATM   12  O2  UNL     1      32.526 -28.967 -24.819  1.00  0.00    -0.279 OA
HETATM   13 CL1  UNL     1      31.318 -30.672 -26.271  1.00  0.00    -0.043 Cl
ENDBRANCH   8  11
BRANCH   1  14
HETATM   14  S1  UNL     1      29.847 -27.407 -29.562  1.00  0.00    -0.153 SA
HETATM   15  C1  UNL     1      28.963 -26.477 -30.821  1.00  0.00     0.091 C 
ENDBRANCH   1  14
TORSDOF 2
ENDMDL
MODEL 2
REMARK VINA RESULT: -5.158606818     10.242     12.306
REMARK  2 active torsions:
REMARK  status: ('A' for Active; 'I' for Inactive)
REMARK    1  A    between atoms: S1_2  and  C2_3 
REMARK    2  A    between atoms: C8_10  and  C9_11 
ROOT
HETATM    1  C2  UNL     1      24.719 -31.284 -33.912  1.00  0.00     0.186 C 
HETATM    2  C3  UNL     1      24.462 -32.542 -34.629  1.00  0.00     0.148 C 
HETATM    3  O1  UNL     1      24.891 -33.581 -34.224  1.00  0.00    -0.296 OA
HETATM    4  C4  UNL     1      23.660 -32.482 -35.860  1.00  0.00     0.089 C 
HETATM    5  C5  UNL     1      24.246 -31.569 -36.916  1.00  0.00    -0.023 C 
HETATM    6  C6  UNL     1      25.359 -32.342 -37.594  1.00  0.00     0.016 C 
HETATM    7  C7  UNL     1      23.204 -31.282 -37.977  1.00  0.00     0.016 C 
HETATM    8  C8  UNL     1      24.749 -30.305 -36.268  1.00  0.00     0.151 C 
HETATM    9  C10 UNL     1      24.315 -30.196 -34.857  1.00  0.00     0.161 C 
HETATM   10  O3  UNL     1      23.653 -29.267 -34.454  1.00  0.00    -0.295 OA
ENDROOT
BRANCH   8  11
HETATM   11  C9  UNL     1      24.328 -29.086 -37.003  1.00  0.00     0.231 C 
HETATM   12  O2  UNL     1      23.205 -28.623 -37.007  1.00  0.00    -0.279 OA
HETATM   13 CL1  UNL     1      25.523 -28.195 -37.966  1.00  0.00    -0.043 Cl
ENDBRANCH   8  11
BRANCH   1  14
HETATM   14  S1  UNL     1      26.430 -31.021 -33.470  1.00  0.00    -0.153 SA
HETATM   15  C1  UNL     1      27.591 -31.375 -34.797  1.00  0.00     0.091 C 
ENDBRANCH   1  14
TORSDOF 2
ENDMDL
MODEL 3
REMARK VINA RESULT: -5.043695335      8.906     11.128
REMARK  2 active torsions:
REMARK  status: ('A' for Active; 'I' for Inactive)
REMARK    1  A    between atoms: S1_2  and  C2_3 
REMARK    2  A    between atoms: C8_10  and  C9_11 
ROOT
HETATM    1  C2  UNL     1      27.516 -31.491 -34.184  1.00  0.00     0.186 C 
HETATM    2  C3  UNL     1      27.322 -32.587 -35.143  1.00  0.00     0.148 C 
HETATM    3  O1  UNL     1      28.245 -33.055 -35.740  1.00  0.00    -0.296 OA
HETATM    4  C4  UNL     1      25.955 -33.091 -35.347  1.00  0.00     0.089 C 
HETATM    5  C5  UNL     1      24.982 -32.023 -35.804  1.00  0.00    -0.023 C 
HETATM    6  C6  UNL     1      25.210 -31.833 -37.290  1.00  0.00     0.016 C 
HETATM    7  C7  UNL     1      23.563 -32.524 -35.639  1.00  0.00     0.016 C 
HETATM    8  C8  UNL     1      25.223 -30.755 -35.027  1.00  0.00     0.151 C 
HETATM    9  C10 UNL     1      26.145 -30.970 -33.888  1.00  0.00     0.161 C 
HETATM   10  O3  UNL     1      25.823 -30.740 -32.745  1.00  0.00    -0.295 OA
ENDROOT
BRANCH   8  11
HETATM   11  C9  UNL     1      23.963 -30.150 -34.527  1.00  0.00     0.231 C 
HETATM   12  O2  UNL     1      23.390 -30.467 -33.505  1.00  0.00    -0.279 OA
HETATM   13 CL1  UNL     1      23.192 -28.852 -35.461  1.00  0.00    -0.043 Cl
ENDBRANCH   8  11
BRANCH   1  14
HETATM   14  S1  UNL     1      28.498 -30.132 -34.802  1.00  0.00    -0.153 SA
HETATM   15  C1  UNL     1      30.271 -30.369 -34.619  1.00  0.00     0.091 C 
ENDBRANCH   1  14
TORSDOF 2
ENDMDL
MODEL 4
REMARK VINA RESULT: -4.867214426      9.752     11.792
REMARK  2 active torsions:
REMARK  status: ('A' for Active; 'I' for Inactive)
REMARK    1  A    between atoms: S1_2  and  C2_3 
REMARK    2  A    between atoms: C8_10  and  C9_11 
ROOT
HETATM    1  C2  UNL     1      25.556 -33.832 -36.229  1.00  0.00     0.186 C 
HETATM    2  C3  UNL     1      25.421 -32.900 -37.358  1.00  0.00     0.148 C 
HETATM    3  O1  UNL     1      25.830 -33.184 -38.444  1.00  0.00    -0.296 OA
HETATM    4  C4  UNL     1      24.767 -31.606 -37.110  1.00  0.00     0.089 C 
HETATM    5  C5  UNL     1      25.445 -30.786 -36.033  1.00  0.00    -0.023 C 
HETATM    6  C6  UNL     1      26.652 -30.133 -36.677  1.00  0.00     0.016 C 
HETATM    7  C7  UNL     1      24.527 -29.666 -35.590  1.00  0.00     0.016 C 
HETATM    8  C8  UNL     1      25.832 -31.681 -34.885  1.00  0.00     0.151 C 
HETATM    9  C10 UNL     1      25.233 -33.029 -35.007  1.00  0.00     0.161 C 
HETATM   10  O3  UNL     1      24.502 -33.491 -34.162  1.00  0.00    -0.295 OA
ENDROOT
BRANCH   8  11
HETATM   11  C9  UNL     1      25.464 -31.103 -33.568  1.00  0.00     0.231 C 
HETATM   12  O2  UNL     1      26.251 -30.734 -32.720  1.00  0.00    -0.279 OA
HETATM   13 CL1  UNL     1      23.750 -30.911 -33.150  1.00  0.00    -0.043 Cl
ENDBRANCH   8  11
BRANCH   1  14
HETATM   14  S1  UNL     1      27.196 -34.511 -36.022  1.00  0.00    -0.153 SA
HETATM   15  C1  UNL     1      27.415 -36.131 -36.772  1.00  0.00     0.091 C 
ENDBRANCH   1  14
TORSDOF 2
ENDMDL
MODEL 5
REMARK VINA RESULT: -4.843322896     10.638     12.377
REMARK  2 active torsions:
REMARK  status: ('A' for Active; 'I' for Inactive)
REMARK    1  A    between atoms: S1_2  and  C2_3 
REMARK    2  A    between atoms: C8_10  and  C9_11 
ROOT
HETATM    1  C2  UNL     1      24.352 -33.255 -36.623  1.00  0.00     0.186 C 
HETATM    2  C3  UNL     1      25.789 -33.213 -36.314  1.00  0.00     0.148 C 
HETATM    3  O1  UNL     1      26.366 -34.188 -35.932  1.00  0.00    -0.296 OA
HETATM    4  C4  UNL     1      26.496 -31.936 -36.491  1.00  0.00     0.089 C 
HETATM    5  C5  UNL     1      25.909 -30.806 -35.671  1.00  0.00    -0.023 C 
HETATM    6  C6  UNL     1      26.427 -30.978 -34.257  1.00  0.00     0.016 C 
HETATM    7  C7  UNL     1      26.443 -29.481 -36.173  1.00  0.00     0.016 C 
HETATM    8  C8  UNL     1      24.405 -30.864 -35.734  1.00  0.00     0.151 C 
HETATM    9  C10 UNL     1      23.930 -31.825 -36.755  1.00  0.00     0.161 C 
HETATM   10  O3  UNL     1      23.223 -31.491 -37.678  1.00  0.00    -0.295 OA
ENDROOT
BRANCH   8  11
HETATM   11  C9  UNL     1      23.798 -29.535 -35.995  1.00  0.00     0.231 C 
HETATM   12  O2  UNL     1      23.192 -28.869 -35.181  1.00  0.00    -0.279 OA
HETATM   13 CL1  UNL     1      23.942 -28.816 -37.612  1.00  0.00    -0.043 Cl
ENDBRANCH   8  11
BRANCH   1  14
HETATM   14  S1  UNL     1      23.345 -34.010 -35.355  1.00  0.00    -0.153 SA
HETATM   15  C1  UNL     1      23.934 -33.716 -33.682  1.00  0.00     0.091 C 
ENDBRANCH   1  14
TORSDOF 2
ENDMDL
