MODEL 1
REMARK VINA RESULT: -6.657165555      0.000      0.000
REMARK  3 active torsions:
REMARK  status: ('A' for Active; 'I' for Inactive)
REMARK    1  A    between atoms: C2_2  and  O2_4 
REMARK    2  A    between atoms: O2_4  and  C3_5 
REMARK    3  A    between atoms: C9_13  and  C10_14 
ROOT
HETATM    1  C3  UNL     1      30.263 -27.420 -28.235  1.00  0.00     0.279 C 
HETATM    2  O3  UNL     1      30.661 -27.325 -29.577  1.00  0.00    -0.342 OA
HETATM    3  C4  UNL     1      29.909 -26.375 -30.261  1.00  0.00     0.117 C 
HETATM    4  C5  UNL     1      28.461 -26.819 -30.419  1.00  0.00     0.054 C 
HETATM    5  C6  UNL     1      30.536 -26.233 -31.642  1.00  0.00     0.054 C 
HETATM    6  C7  UNL     1      29.968 -25.112 -29.507  1.00  0.00     0.161 C 
HETATM    7  O4  UNL     1      29.880 -24.061 -30.144  1.00  0.00    -0.295 OA
HETATM    8  C8  UNL     1      30.125 -25.011 -28.045  1.00  0.00     0.095 C 
HETATM    9  C9  UNL     1      30.824 -26.267 -27.504  1.00  0.00     0.072 C 
ENDROOT
BRANCH   1  10
HETATM   10  O2  UNL     1      30.532 -28.690 -27.787  1.00  0.00    -0.289 OA
BRANCH  10  11
HETATM   11  C2  UNL     1      30.655 -29.093 -26.479  1.00  0.00     0.257 C 
HETATM   12  C1  UNL     1      31.710 -30.005 -25.987  1.00  0.00     0.126 C 
HETATM   13  O1  UNL     1      29.780 -28.611 -25.719  1.00  0.00    -0.266 OA
ENDBRANCH  10  11
ENDBRANCH   1  10
BRANCH   9  14
HETATM   14  C10 UNL     1      32.276 -26.014 -27.806  1.00  0.00    -0.005 C 
HETATM   15  C11 UNL     1      33.126 -26.094 -26.788  1.00  0.00     0.081 C 
HETATM   16 CL1  UNL     1      32.612 -26.478 -25.155  1.00  0.00    -0.097 Cl
ENDBRANCH   9  14
TORSDOF 3
ENDMDL
MODEL 2
REMARK VINA RESULT: -5.258013241      2.799      5.679
REMARK  3 active torsions:
REMARK  status: ('A' for Active; 'I' for Inactive)
REMARK    1  A    between atoms: C2_2  and  O2_4 
REMARK    2  A    between atoms: O2_4  and  C3_5 
REMARK    3  A    between atoms: C9_13  and  C10_14 
ROOT
HETATM    1  C3  UNL     1      29.636 -24.756 -30.033  1.00  0.00     0.279 C 
HETATM    2  O3  UNL     1      30.742 -24.845 -29.174  1.00  0.00    -0.342 OA
HETATM    3  C4  UNL     1      30.501 -25.731 -28.129  1.00  0.00     0.117 C 
HETATM    4  C5  UNL     1      29.439 -25.194 -27.179  1.00  0.00     0.054 C 
HETATM    5  C6  UNL     1      31.813 -25.879 -27.370  1.00  0.00     0.054 C 
HETATM    6  C7  UNL     1      30.061 -27.011 -28.705  1.00  0.00     0.161 C 
HETATM    7  O4  UNL     1      30.325 -28.040 -28.080  1.00  0.00    -0.295 OA
HETATM    8  C8  UNL     1      29.325 -27.156 -29.974  1.00  0.00     0.095 C 
HETATM    9  C9  UNL     1      29.619 -25.958 -30.890  1.00  0.00     0.072 C 
ENDROOT
BRANCH   1  10
HETATM   10  O2  UNL     1      29.638 -23.516 -30.623  1.00  0.00    -0.289 OA
BRANCH  10  11
HETATM   11  C2  UNL     1      29.243 -23.213 -31.904  1.00  0.00     0.257 C 
HETATM   12  C1  UNL     1      28.532 -24.151 -32.798  1.00  0.00     0.126 C 
HETATM   13  O1  UNL     1      29.542 -22.046 -32.260  1.00  0.00    -0.266 OA
ENDBRANCH  10  11
ENDBRANCH   1  10
BRANCH   9  14
HETATM   14  C10 UNL     1      30.961 -26.294 -31.480  1.00  0.00    -0.005 C 
HETATM   15  C11 UNL     1      30.965 -26.943 -32.639  1.00  0.00     0.081 C 
HETATM   16 CL1  UNL     1      29.489 -27.401 -33.469  1.00  0.00    -0.097 Cl
ENDBRANCH   9  14
TORSDOF 3
ENDMDL
MODEL 3
REMARK VINA RESULT: -4.583392624      7.918      9.966
REMARK  3 active torsions:
REMARK  status: ('A' for Active; 'I' for Inactive)
REMARK    1  A    between atoms: C2_2  and  O2_4 
REMARK    2  A    between atoms: O2_4  and  C3_5 
REMARK    3  A    between atoms: C9_13  and  C10_14 
ROOT
HETATM    1  C3  UNL     1      26.649 -31.051 -34.716  1.00  0.00     0.279 C 
HETATM    2  O3  UNL     1      26.376 -31.459 -36.031  1.00  0.00    -0.342 OA
HETATM    3  C4  UNL     1      25.969 -32.788 -36.073  1.00  0.00     0.117 C 
HETATM    4  C5  UNL     1      27.108 -33.731 -35.708  1.00  0.00     0.054 C 
HETATM    5  C6  UNL     1      25.537 -33.068 -37.507  1.00  0.00     0.054 C 
HETATM    6  C7  UNL     1      24.854 -32.958 -35.128  1.00  0.00     0.161 C 
HETATM    7  O4  UNL     1      24.013 -33.822 -35.386  1.00  0.00    -0.295 OA
HETATM    8  C8  UNL     1      24.668 -32.173 -33.895  1.00  0.00     0.095 C 
HETATM    9  C9  UNL     1      25.364 -30.810 -34.031  1.00  0.00     0.072 C 
ENDROOT
BRANCH   1  10
HETATM   10  O2  UNL     1      27.584 -30.045 -34.754  1.00  0.00    -0.289 OA
BRANCH  10  11
HETATM   11  C2  UNL     1      28.795 -30.022 -34.107  1.00  0.00     0.257 C 
HETATM   12  C1  UNL     1      30.084 -30.371 -34.742  1.00  0.00     0.126 C 
HETATM   13  O1  UNL     1      28.717 -29.670 -32.904  1.00  0.00    -0.266 OA
ENDBRANCH  10  11
ENDBRANCH   1  10
BRANCH   9  14
HETATM   14  C10 UNL     1      24.391 -30.003 -34.845  1.00  0.00    -0.005 C 
HETATM   15  C11 UNL     1      23.499 -29.280 -34.177  1.00  0.00     0.081 C 
HETATM   16 CL1  UNL     1      23.433 -29.247 -32.424  1.00  0.00    -0.097 Cl
ENDBRANCH   9  14
TORSDOF 3
ENDMDL
MODEL 4
REMARK VINA RESULT: -4.580039154      8.524     10.860
REMARK  3 active torsions:
REMARK  status: ('A' for Active; 'I' for Inactive)
REMARK    1  A    between atoms: C2_2  and  O2_4 
REMARK    2  A    between atoms: O2_4  and  C3_5 
REMARK    3  A    between atoms: C9_13  and  C10_14 
ROOT
HETATM    1  C3  UNL     1      25.579 -30.608 -36.037  1.00  0.00     0.279 C 
HETATM    2  O3  UNL     1      24.514 -31.076 -35.252  1.00  0.00    -0.342 OA
HETATM    3  C4  UNL     1      24.244 -32.416 -35.514  1.00  0.00     0.117 C 
HETATM    4  C5  UNL     1      23.677 -32.605 -36.915  1.00  0.00     0.054 C 
HETATM    5  C6  UNL     1      23.201 -32.859 -34.496  1.00  0.00     0.054 C 
HETATM    6  C7  UNL     1      25.497 -33.174 -35.372  1.00  0.00     0.161 C 
HETATM    7  O4  UNL     1      25.416 -34.349 -35.010  1.00  0.00    -0.295 OA
HETATM    8  C8  UNL     1      26.843 -32.632 -35.631  1.00  0.00     0.095 C 
HETATM    9  C9  UNL     1      26.839 -31.107 -35.450  1.00  0.00     0.072 C 
ENDROOT
BRANCH   1  10
HETATM   10  O2  UNL     1      25.421 -29.258 -36.229  1.00  0.00    -0.289 OA
BRANCH  10  11
HETATM   11  C2  UNL     1      24.665 -28.647 -37.199  1.00  0.00     0.257 C 
HETATM   12  C1  UNL     1      23.193 -28.752 -37.293  1.00  0.00     0.126 C 
HETATM   13  O1  UNL     1      25.341 -27.976 -38.017  1.00  0.00    -0.266 OA
ENDBRANCH  10  11
ENDBRANCH   1  10
BRANCH   9  14
HETATM   14  C10 UNL     1      26.916 -30.934 -33.958  1.00  0.00    -0.005 C 
HETATM   15  C11 UNL     1      28.048 -30.442 -33.466  1.00  0.00     0.081 C 
HETATM   16 CL1  UNL     1      29.408 -30.001 -34.484  1.00  0.00    -0.097 Cl
ENDBRANCH   9  14
TORSDOF 3
ENDMDL
MODEL 5
REMARK VINA RESULT: -4.518654309      2.573      4.246
REMARK  3 active torsions:
REMARK  status: ('A' for Active; 'I' for Inactive)
REMARK    1  A    between atoms: C2_2  and  O2_4 
REMARK    2  A    between atoms: O2_4  and  C3_5 
REMARK    3  A    between atoms: C9_13  and  C10_14 
ROOT
HETATM    1  C3  UNL     1      31.249 -28.475 -27.115  1.00  0.00     0.279 C 
HETATM    2  O3  UNL     1      31.418 -27.763 -25.918  1.00  0.00    -0.342 OA
HETATM    3  C4  UNL     1      32.687 -27.200 -25.840  1.00  0.00     0.117 C 
HETATM    4  C5  UNL     1      33.763 -28.267 -25.696  1.00  0.00     0.054 C 
HETATM    5  C6  UNL     1      32.698 -26.318 -24.598  1.00  0.00     0.054 C 
HETATM    6  C7  UNL     1      32.917 -26.415 -27.063  1.00  0.00     0.161 C 
HETATM    7  O4  UNL     1      33.659 -25.434 -26.983  1.00  0.00    -0.295 OA
HETATM    8  C8  UNL     1      32.327 -26.716 -28.380  1.00  0.00     0.095 C 
HETATM    9  C9  UNL     1      31.020 -27.503 -28.202  1.00  0.00     0.072 C 
ENDROOT
BRANCH   1  10
HETATM   10  O2  UNL     1      30.327 -29.472 -26.907  1.00  0.00    -0.289 OA
BRANCH  10  11
HETATM   11  C2  UNL     1      30.590 -30.783 -26.592  1.00  0.00     0.257 C 
HETATM   12  C1  UNL     1      29.957 -31.941 -27.260  1.00  0.00     0.126 C 
HETATM   13  O1  UNL     1      31.432 -30.922 -25.671  1.00  0.00    -0.266 OA
ENDBRANCH  10  11
ENDBRANCH   1  10
BRANCH   9  14
HETATM   14  C10 UNL     1      30.018 -26.437 -27.853  1.00  0.00    -0.005 C 
HETATM   15  C11 UNL     1      29.281 -25.953 -28.847  1.00  0.00     0.081 C 
HETATM   16 CL1  UNL     1      29.444 -26.512 -30.502  1.00  0.00    -0.097 Cl
ENDBRANCH   9  14
TORSDOF 3
ENDMDL
