MODEL 1
REMARK VINA RESULT: -5.783343204      0.000      0.000
REMARK  3 active torsions:
REMARK  status: ('A' for Active; 'I' for Inactive)
REMARK    1  A    between atoms: C2_2  and  O2_4 
REMARK    2  A    between atoms: O2_4  and  C3_5 
REMARK    3  A    between atoms: C3_5  and  C4_6 
ROOT
HETATM    1  C3  UNL     1      30.723 -26.003 -27.904  1.00  0.00     0.114 C 
HETATM    2  C7  UNL     1      30.946 -27.260 -28.604  1.00  0.00     0.214 C 
HETATM    3  O3  UNL     1      31.200 -27.242 -29.959  1.00  0.00    -0.355 OA
HETATM    4  C8  UNL     1      30.233 -26.577 -30.698  1.00  0.00     0.295 A 
HETATM    5  O4  UNL     1      28.966 -26.696 -30.142  1.00  0.00    -0.343 OA
HETATM    6  C9  UNL     1      29.694 -25.408 -30.143  1.00  0.00     0.113 A 
HETATM    7  C10 UNL     1      28.936 -24.414 -30.955  1.00  0.00     0.051 C 
HETATM    8  C11 UNL     1      30.187 -24.930 -28.825  1.00  0.00     0.088 C 
ENDROOT
BRANCH   1   9
HETATM    9  O2  UNL     1      31.760 -25.533 -27.083  1.00  0.00    -0.304 OA
BRANCH   9  10
HETATM   10  C2  UNL     1      32.761 -26.353 -26.671  1.00  0.00     0.255 C 
HETATM   11  C1  UNL     1      32.833 -27.030 -25.353  1.00  0.00     0.126 C 
HETATM   12  O1  UNL     1      33.676 -26.539 -27.474  1.00  0.00    -0.266 OA
ENDBRANCH   9  10
ENDBRANCH   1   9
BRANCH   1  13
HETATM   13  C4  UNL     1      29.591 -26.235 -26.911  1.00  0.00     0.033 C 
HETATM   14  C5  UNL     1      29.405 -27.458 -26.442  1.00  0.00     0.007 C 
HETATM   15  C6  UNL     1      28.312 -27.716 -25.474  1.00  0.00     0.061 C 
HETATM   16 CL1  UNL     1      30.406 -28.828 -26.911  1.00  0.00    -0.090 Cl
ENDBRANCH   1  13
TORSDOF 3
ENDMDL
MODEL 2
REMARK VINA RESULT: -5.489795893      8.697     10.923
REMARK  3 active torsions:
REMARK  status: ('A' for Active; 'I' for Inactive)
REMARK    1  A    between atoms: C2_2  and  O2_4 
REMARK    2  A    between atoms: O2_4  and  C3_5 
REMARK    3  A    between atoms: C3_5  and  C4_6 
ROOT
HETATM    1  C3  UNL     1      24.967 -31.181 -35.304  1.00  0.00     0.114 C 
HETATM    2  C7  UNL     1      25.776 -31.727 -36.384  1.00  0.00     0.214 C 
HETATM    3  O3  UNL     1      26.942 -32.398 -36.082  1.00  0.00    -0.355 OA
HETATM    4  C8  UNL     1      27.821 -31.663 -35.302  1.00  0.00     0.295 A 
HETATM    5  O4  UNL     1      27.749 -30.300 -35.561  1.00  0.00    -0.343 OA
HETATM    6  C9  UNL     1      27.268 -30.873 -34.284  1.00  0.00     0.113 A 
HETATM    7  C10 UNL     1      28.083 -30.328 -33.162  1.00  0.00     0.051 C 
HETATM    8  C11 UNL     1      25.796 -30.875 -34.077  1.00  0.00     0.088 C 
ENDROOT
BRANCH   1   9
HETATM    9  O2  UNL     1      23.777 -31.856 -34.990  1.00  0.00    -0.304 OA
BRANCH   9  10
HETATM   10  C2  UNL     1      23.763 -32.888 -34.108  1.00  0.00     0.255 C 
HETATM   11  C1  UNL     1      24.348 -34.231 -34.342  1.00  0.00     0.126 C 
HETATM   12  O1  UNL     1      23.214 -32.671 -33.027  1.00  0.00    -0.266 OA
ENDBRANCH   9  10
ENDBRANCH   1   9
BRANCH   1  13
HETATM   13  C4  UNL     1      24.467 -29.817 -35.761  1.00  0.00     0.033 C 
HETATM   14  C5  UNL     1      23.696 -29.756 -36.834  1.00  0.00     0.007 C 
HETATM   15  C6  UNL     1      23.192 -28.443 -37.304  1.00  0.00     0.061 C 
HETATM   16 CL1  UNL     1      23.222 -31.177 -37.757  1.00  0.00    -0.090 Cl
ENDBRANCH   1  13
TORSDOF 3
ENDMDL
MODEL 3
REMARK VINA RESULT: -5.470809171      2.238      3.352
REMARK  3 active torsions:
REMARK  status: ('A' for Active; 'I' for Inactive)
REMARK    1  A    between atoms: C2_2  and  O2_4 
REMARK    2  A    between atoms: O2_4  and  C3_5 
REMARK    3  A    between atoms: C3_5  and  C4_6 
ROOT
HETATM    1  C3  UNL     1      30.556 -27.048 -27.224  1.00  0.00     0.114 C 
HETATM    2  C7  UNL     1      30.455 -25.676 -26.746  1.00  0.00     0.214 C 
HETATM    3  O3  UNL     1      29.377 -24.907 -27.127  1.00  0.00    -0.355 OA
HETATM    4  C8  UNL     1      29.205 -24.829 -28.500  1.00  0.00     0.295 A 
HETATM    5  O4  UNL     1      30.410 -24.881 -29.190  1.00  0.00    -0.343 OA
HETATM    6  C9  UNL     1      29.439 -25.995 -29.242  1.00  0.00     0.113 A 
HETATM    7  C10 UNL     1      28.956 -26.163 -30.642  1.00  0.00     0.051 C 
HETATM    8  C11 UNL     1      29.830 -27.243 -28.537  1.00  0.00     0.088 C 
ENDROOT
BRANCH   1   9
HETATM    9  O2  UNL     1      30.280 -28.070 -26.303  1.00  0.00    -0.304 OA
BRANCH   9  10
HETATM   10  C2  UNL     1      30.770 -29.325 -26.474  1.00  0.00     0.255 C 
HETATM   11  C1  UNL     1      31.883 -29.928 -25.701  1.00  0.00     0.126 C 
HETATM   12  O1  UNL     1      30.231 -30.004 -27.349  1.00  0.00    -0.266 OA
ENDBRANCH   9  10
ENDBRANCH   1   9
BRANCH   1  13
HETATM   13  C4  UNL     1      32.018 -27.297 -27.572  1.00  0.00     0.033 C 
HETATM   14  C5  UNL     1      32.944 -26.926 -26.703  1.00  0.00     0.007 C 
HETATM   15  C6  UNL     1      34.376 -27.155 -27.010  1.00  0.00     0.061 C 
HETATM   16 CL1  UNL     1      32.564 -26.159 -25.165  1.00  0.00    -0.090 Cl
ENDBRANCH   1  13
TORSDOF 3
ENDMDL
MODEL 4
REMARK VINA RESULT: -5.451087534      9.040     11.514
REMARK  3 active torsions:
REMARK  status: ('A' for Active; 'I' for Inactive)
REMARK    1  A    between atoms: C2_2  and  O2_4 
REMARK    2  A    between atoms: O2_4  and  C3_5 
REMARK    3  A    between atoms: C3_5  and  C4_6 
ROOT
HETATM    1  C3  UNL     1      25.310 -31.179 -36.420  1.00  0.00     0.114 C 
HETATM    2  C7  UNL     1      24.809 -31.839 -35.222  1.00  0.00     0.214 C 
HETATM    3  O3  UNL     1      25.060 -31.279 -33.988  1.00  0.00    -0.355 OA
HETATM    4  C8  UNL     1      26.405 -31.048 -33.744  1.00  0.00     0.295 A 
HETATM    5  O4  UNL     1      27.224 -31.988 -34.356  1.00  0.00    -0.343 OA
HETATM    6  C9  UNL     1      27.180 -30.582 -34.815  1.00  0.00     0.113 A 
HETATM    7  C10 UNL     1      28.519 -29.957 -34.622  1.00  0.00     0.051 C 
HETATM    8  C11 UNL     1      26.535 -30.340 -36.132  1.00  0.00     0.088 C 
ENDROOT
BRANCH   1   9
HETATM    9  O2  UNL     1      24.374 -30.501 -37.217  1.00  0.00    -0.304 OA
BRANCH   9  10
HETATM   10  C2  UNL     1      23.965 -29.244 -36.911  1.00  0.00     0.255 C 
HETATM   11  C1  UNL     1      23.192 -28.859 -35.705  1.00  0.00     0.126 C 
HETATM   12  O1  UNL     1      24.271 -28.362 -37.715  1.00  0.00    -0.266 OA
ENDBRANCH   9  10
ENDBRANCH   1   9
BRANCH   1  13
HETATM   13  C4  UNL     1      25.820 -32.268 -37.355  1.00  0.00     0.033 C 
HETATM   14  C5  UNL     1      24.935 -33.029 -37.977  1.00  0.00     0.007 C 
HETATM   15  C6  UNL     1      25.399 -34.097 -38.894  1.00  0.00     0.061 C 
HETATM   16 CL1  UNL     1      23.197 -32.841 -37.775  1.00  0.00    -0.090 Cl
ENDBRANCH   1  13
TORSDOF 3
ENDMDL
MODEL 5
REMARK VINA RESULT: -5.377600721      2.363      4.652
REMARK  3 active torsions:
REMARK  status: ('A' for Active; 'I' for Inactive)
REMARK    1  A    between atoms: C2_2  and  O2_4 
REMARK    2  A    between atoms: O2_4  and  C3_5 
REMARK    3  A    between atoms: C3_5  and  C4_6 
ROOT
HETATM    1  C3  UNL     1      31.138 -27.688 -26.834  1.00  0.00     0.114 C 
HETATM    2  C7  UNL     1      32.374 -27.422 -27.556  1.00  0.00     0.214 C 
HETATM    3  O3  UNL     1      33.582 -27.679 -26.943  1.00  0.00    -0.355 OA
HETATM    4  C8  UNL     1      33.731 -27.048 -25.718  1.00  0.00     0.295 A 
HETATM    5  O4  UNL     1      33.074 -25.825 -25.667  1.00  0.00    -0.343 OA
HETATM    6  C9  UNL     1      32.604 -26.990 -24.887  1.00  0.00     0.113 A 
HETATM    7  C10 UNL     1      32.698 -26.679 -23.432  1.00  0.00     0.051 C 
HETATM    8  C11 UNL     1      31.332 -27.613 -25.336  1.00  0.00     0.088 C 
ENDROOT
BRANCH   1   9
HETATM    9  O2  UNL     1      30.399 -28.817 -27.222  1.00  0.00    -0.304 OA
BRANCH   9  10
HETATM   10  C2  UNL     1      30.617 -30.031 -26.655  1.00  0.00     0.255 C 
HETATM   11  C1  UNL     1      31.836 -30.429 -25.911  1.00  0.00     0.126 C 
HETATM   12  O1  UNL     1      29.713 -30.858 -26.780  1.00  0.00    -0.266 OA
ENDBRANCH   9  10
ENDBRANCH   1   9
BRANCH   1  13
HETATM   13  C4  UNL     1      30.183 -26.542 -27.140  1.00  0.00     0.033 C 
HETATM   14  C5  UNL     1      29.961 -26.226 -28.405  1.00  0.00     0.007 C 
HETATM   15  C6  UNL     1      29.036 -25.116 -28.736  1.00  0.00     0.061 C 
HETATM   16 CL1  UNL     1      30.720 -27.070 -29.751  1.00  0.00    -0.090 Cl
ENDBRANCH   1  13
TORSDOF 3
ENDMDL
