MODEL 1
REMARK VINA RESULT: -4.200282837      0.000      0.000
REMARK  4 active torsions:
REMARK  status: ('A' for Active; 'I' for Inactive)
REMARK    1  A    between atoms: C2_2  and  N1_4 
REMARK    2  A    between atoms: N1_4  and  C5_6 
REMARK    3  A    between atoms: C7_13  and  C8_14 
REMARK    4  A    between atoms: C8_14  and  N5_15 
ROOT
HETATM    1  C5  UNL     1      23.558 -30.711 -36.579  1.00  0.00     0.102 A 
HETATM    2  N2  UNL     1      23.124 -31.122 -37.703  1.00  0.00    -0.319 N 
ATOM      3  H2  UNL     1      22.265 -30.697 -38.050  1.00  0.00     0.169 HD
HETATM    4  C6  UNL     1      23.717 -32.105 -38.511  1.00  0.00     0.190 A 
HETATM    5  N3  UNL     1      23.217 -32.547 -39.762  1.00  0.00    -0.063 NA
HETATM    6  N4  UNL     1      24.794 -32.633 -38.067  1.00  0.00    -0.356 N 
ATOM      7  H4  UNL     1      25.242 -33.349 -38.639  1.00  0.00     0.162 HD
HETATM    8  C7  UNL     1      25.420 -32.289 -36.820  1.00  0.00     0.127 A 
HETATM    9  C11 UNL     1      24.795 -31.254 -35.992  1.00  0.00     0.174 A 
HETATM   10 CL1  UNL     1      25.949 -29.878 -35.759  1.00  0.00    -0.115 Cl
ENDROOT
BRANCH   1  11
HETATM   11  N1  UNL     1      22.820 -29.677 -35.861  1.00  0.00    -0.370 N 
HETATM   12  C4  UNL     1      22.630 -28.406 -36.507  1.00  0.00     0.151 C 
BRANCH  11  13
HETATM   13  C2  UNL     1      22.303 -29.917 -34.559  1.00  0.00     0.077 C 
HETATM   14  C1  UNL     1      23.046 -29.162 -33.478  1.00  0.00     0.032 C 
HETATM   15  C3  UNL     1      20.858 -29.534 -34.524  1.00  0.00     0.032 C 
ENDBRANCH  11  13
ENDBRANCH   1  11
BRANCH   8  16
HETATM   16  C8  UNL     1      25.520 -33.647 -36.074  1.00  0.00     0.142 C 
BRANCH  16  17
HETATM   17  N5  UNL     1      26.879 -33.989 -36.078  1.00  0.00    -0.419 N 
HETATM   18  C9  UNL     1      27.757 -33.282 -35.254  1.00  0.00     0.142 C 
HETATM   19  C10 UNL     1      27.301 -35.159 -36.710  1.00  0.00     0.142 C 
ENDBRANCH  16  17
ENDBRANCH   8  16
TORSDOF 4
ENDMDL
MODEL 2
REMARK VINA RESULT: -4.111543162      3.435      5.583
REMARK  4 active torsions:
REMARK  status: ('A' for Active; 'I' for Inactive)
REMARK    1  A    between atoms: C2_2  and  N1_4 
REMARK    2  A    between atoms: N1_4  and  C5_6 
REMARK    3  A    between atoms: C7_13  and  C8_14 
REMARK    4  A    between atoms: C8_14  and  N5_15 
ROOT
HETATM    1  C5  UNL     1      22.897 -30.246 -34.609  1.00  0.00     0.102 A 
HETATM    2  N2  UNL     1      23.186 -29.396 -33.706  1.00  0.00    -0.319 N 
ATOM      3  H2  UNL     1      23.665 -28.548 -34.007  1.00  0.00     0.169 HD
HETATM    4  C6  UNL     1      22.908 -29.516 -32.336  1.00  0.00     0.190 A 
HETATM    5  N3  UNL     1      23.238 -28.555 -31.346  1.00  0.00    -0.063 NA
HETATM    6  N4  UNL     1      22.308 -30.584 -31.968  1.00  0.00    -0.356 N 
ATOM      7  H4  UNL     1      22.095 -30.691 -30.976  1.00  0.00     0.162 HD
HETATM    8  C7  UNL     1      21.911 -31.645 -32.852  1.00  0.00     0.127 A 
HETATM    9  C11 UNL     1      22.200 -31.501 -34.282  1.00  0.00     0.174 A 
HETATM   10 CL1  UNL     1      20.653 -31.537 -35.225  1.00  0.00    -0.115 Cl
ENDROOT
BRANCH   1  11
HETATM   11  N1  UNL     1      23.258 -29.969 -35.996  1.00  0.00    -0.370 N 
HETATM   12  C4  UNL     1      23.657 -31.072 -36.827  1.00  0.00     0.151 C 
BRANCH  11  13
HETATM   13  C2  UNL     1      23.218 -28.644 -36.512  1.00  0.00     0.077 C 
HETATM   14  C1  UNL     1      24.234 -28.405 -37.608  1.00  0.00     0.032 C 
HETATM   15  C3  UNL     1      21.848 -28.363 -37.038  1.00  0.00     0.032 C 
ENDBRANCH  11  13
ENDBRANCH   1  11
BRANCH   8  16
HETATM   16  C8  UNL     1      22.592 -32.901 -32.246  1.00  0.00     0.142 C 
BRANCH  16  17
HETATM   17  N5  UNL     1      21.703 -33.395 -31.283  1.00  0.00    -0.419 N 
HETATM   18  C9  UNL     1      20.489 -33.945 -31.701  1.00  0.00     0.142 C 
HETATM   19  C10 UNL     1      22.121 -33.547 -29.961  1.00  0.00     0.142 C 
ENDBRANCH  16  17
ENDBRANCH   8  16
TORSDOF 4
ENDMDL
MODEL 3
REMARK VINA RESULT: -4.090593882      2.443      5.497
REMARK  4 active torsions:
REMARK  status: ('A' for Active; 'I' for Inactive)
REMARK    1  A    between atoms: C2_2  and  N1_4 
REMARK    2  A    between atoms: N1_4  and  C5_6 
REMARK    3  A    between atoms: C7_13  and  C8_14 
REMARK    4  A    between atoms: C8_14  and  N5_15 
ROOT
HETATM    1  C5  UNL     1      24.131 -31.857 -36.738  1.00  0.00     0.102 A 
HETATM    2  N2  UNL     1      25.189 -31.155 -36.823  1.00  0.00    -0.319 N 
ATOM      3  H2  UNL     1      25.893 -31.460 -37.493  1.00  0.00     0.169 HD
HETATM    4  C6  UNL     1      25.477 -29.999 -36.080  1.00  0.00     0.190 A 
HETATM    5  N3  UNL     1      26.663 -29.229 -36.191  1.00  0.00    -0.063 NA
HETATM    6  N4  UNL     1      24.587 -29.625 -35.241  1.00  0.00    -0.356 N 
ATOM      7  H4  UNL     1      24.776 -28.786 -34.692  1.00  0.00     0.162 HD
HETATM    8  C7  UNL     1      23.339 -30.300 -35.017  1.00  0.00     0.127 A 
HETATM    9  C11 UNL     1      23.047 -31.499 -35.807  1.00  0.00     0.174 A 
HETATM   10 CL1  UNL     1      21.542 -31.240 -36.781  1.00  0.00    -0.115 Cl
ENDROOT
BRANCH   1  11
HETATM   11  N1  UNL     1      23.985 -33.037 -37.586  1.00  0.00    -0.370 N 
HETATM   12  C4  UNL     1      23.505 -34.251 -36.983  1.00  0.00     0.151 C 
BRANCH  11  13
HETATM   13  C2  UNL     1      24.308 -32.988 -38.970  1.00  0.00     0.077 C 
HETATM   14  C1  UNL     1      25.029 -34.228 -39.452  1.00  0.00     0.032 C 
HETATM   15  C3  UNL     1      23.054 -32.806 -39.762  1.00  0.00     0.032 C 
ENDBRANCH  11  13
ENDBRANCH   1  11
BRANCH   8  16
HETATM   16  C8  UNL     1      23.351 -30.597 -33.494  1.00  0.00     0.142 C 
BRANCH  16  17
HETATM   17  N5  UNL     1      22.477 -29.668 -32.913  1.00  0.00    -0.419 N 
HETATM   18  C9  UNL     1      21.117 -29.733 -33.223  1.00  0.00     0.142 C 
HETATM   19  C10 UNL     1      22.920 -28.852 -31.872  1.00  0.00     0.142 C 
ENDBRANCH  16  17
ENDBRANCH   8  16
TORSDOF 4
ENDMDL
MODEL 4
REMARK VINA RESULT: -4.054772560      2.131      5.772
REMARK  4 active torsions:
REMARK  status: ('A' for Active; 'I' for Inactive)
REMARK    1  A    between atoms: C2_2  and  N1_4 
REMARK    2  A    between atoms: N1_4  and  C5_6 
REMARK    3  A    between atoms: C7_13  and  C8_14 
REMARK    4  A    between atoms: C8_14  and  N5_15 
ROOT
HETATM    1  C5  UNL     1      25.062 -32.081 -36.558  1.00  0.00     0.102 A 
HETATM    2  N2  UNL     1      26.112 -31.492 -36.146  1.00  0.00    -0.319 N 
ATOM      3  H2  UNL     1      26.950 -32.064 -36.038  1.00  0.00     0.169 HD
HETATM    4  C6  UNL     1      26.228 -30.131 -35.826  1.00  0.00     0.190 A 
HETATM    5  N3  UNL     1      27.410 -29.494 -35.369  1.00  0.00    -0.063 NA
HETATM    6  N4  UNL     1      25.172 -29.422 -35.964  1.00  0.00    -0.356 N 
ATOM      7  H4  UNL     1      25.234 -28.430 -35.737  1.00  0.00     0.162 HD
HETATM    8  C7  UNL     1      23.903 -29.924 -36.416  1.00  0.00     0.127 A 
HETATM    9  C11 UNL     1      23.801 -31.346 -36.755  1.00  0.00     0.174 A 
HETATM   10 CL1  UNL     1      23.319 -31.526 -38.492  1.00  0.00    -0.115 Cl
ENDROOT
BRANCH   1  11
HETATM   11  N1  UNL     1      25.109 -33.511 -36.848  1.00  0.00    -0.370 N 
HETATM   12  C4  UNL     1      24.160 -34.368 -36.192  1.00  0.00     0.151 C 
BRANCH  11  13
HETATM   13  C2  UNL     1      26.067 -34.043 -37.754  1.00  0.00     0.077 C 
HETATM   14  C1  UNL     1      26.898 -35.155 -37.150  1.00  0.00     0.032 C 
HETATM   15  C3  UNL     1      25.364 -34.555 -38.970  1.00  0.00     0.032 C 
ENDBRANCH  11  13
ENDBRANCH   1  11
BRANCH   8  16
HETATM   16  C8  UNL     1      22.926 -29.528 -35.276  1.00  0.00     0.142 C 
BRANCH  16  17
HETATM   17  N5  UNL     1      21.765 -29.064 -35.908  1.00  0.00    -0.419 N 
HETATM   18  C9  UNL     1      21.887 -28.203 -37.001  1.00  0.00     0.142 C 
HETATM   19  C10 UNL     1      20.529 -29.635 -35.601  1.00  0.00     0.142 C 
ENDBRANCH  16  17
ENDBRANCH   8  16
TORSDOF 4
ENDMDL
MODEL 5
REMARK VINA RESULT: -4.040116770      2.133      5.336
REMARK  4 active torsions:
REMARK  status: ('A' for Active; 'I' for Inactive)
REMARK    1  A    between atoms: C2_2  and  N1_4 
REMARK    2  A    between atoms: N1_4  and  C5_6 
REMARK    3  A    between atoms: C7_13  and  C8_14 
REMARK    4  A    between atoms: C8_14  and  N5_15 
ROOT
HETATM    1  C5  UNL     1      23.912 -30.814 -36.153  1.00  0.00     0.102 A 
HETATM    2  N2  UNL     1      23.299 -29.909 -36.805  1.00  0.00    -0.319 N 
ATOM      3  H2  UNL     1      23.612 -29.736 -37.760  1.00  0.00     0.169 HD
HETATM    4  C6  UNL     1      22.234 -29.126 -36.334  1.00  0.00     0.190 A 
HETATM    5  N3  UNL     1      21.564 -28.123 -37.079  1.00  0.00    -0.063 NA
HETATM    6  N4  UNL     1      21.850 -29.351 -35.135  1.00  0.00    -0.356 N 
ATOM      7  H4  UNL     1      21.076 -28.793 -34.773  1.00  0.00     0.162 HD
HETATM    8  C7  UNL     1      22.430 -30.332 -34.260  1.00  0.00     0.127 A 
HETATM    9  C11 UNL     1      23.535 -31.148 -34.769  1.00  0.00     0.174 A 
HETATM   10 CL1  UNL     1      23.072 -32.899 -34.728  1.00  0.00    -0.115 Cl
ENDROOT
BRANCH   1  11
HETATM   11  N1  UNL     1      25.006 -31.541 -36.792  1.00  0.00    -0.370 N 
HETATM   12  C4  UNL     1      24.674 -32.578 -37.731  1.00  0.00     0.151 C 
BRANCH  11  13
HETATM   13  C2  UNL     1      26.361 -31.234 -36.493  1.00  0.00     0.077 C 
HETATM   14  C1  UNL     1      26.525 -29.905 -35.788  1.00  0.00     0.032 C 
HETATM   15  C3  UNL     1      26.936 -32.320 -35.641  1.00  0.00     0.032 C 
ENDBRANCH  11  13
ENDBRANCH   1  11
BRANCH   8  16
HETATM   16  C8  UNL     1      22.843 -29.509 -33.010  1.00  0.00     0.142 C 
BRANCH  16  17
HETATM   17  N5  UNL     1      21.942 -29.865 -31.999  1.00  0.00    -0.419 N 
HETATM   18  C9  UNL     1      22.069 -31.114 -31.387  1.00  0.00     0.142 C 
HETATM   19  C10 UNL     1      21.088 -28.904 -31.457  1.00  0.00     0.142 C 
ENDBRANCH  16  17
ENDBRANCH   8  16
TORSDOF 4
ENDMDL
