MODEL 1
REMARK VINA RESULT: -7.097419018      0.000      0.000
REMARK  6 active torsions:
REMARK  status: ('A' for Active; 'I' for Inactive)
REMARK    1  A    between atoms: C3_3  and  C4_4 
REMARK    2  A    between atoms: C4_4  and  O1_7 
REMARK    3  A    between atoms: O1_7  and  C7_8 
REMARK    4  A    between atoms: C7_8  and  C8_10 
REMARK    5  A    between atoms: C8_10  and  S1_11 
REMARK    6  A    between atoms: S1_11  and  C9_12 
ROOT
HETATM    1  C1  UNL     1      26.929 -28.126 -25.134  1.00  0.00     0.112 C 
HETATM    2  C2  UNL     1      28.150 -27.638 -25.767  1.00  0.00    -0.108 C 
HETATM    3  C3  UNL     1      29.152 -27.202 -26.279  1.00  0.00    -0.069 C 
ENDROOT
BRANCH   3   4
HETATM    4  C4  UNL     1      30.387 -26.625 -26.893  1.00  0.00     0.126 C 
HETATM    5  C5  UNL     1      31.142 -27.712 -27.591  1.00  0.00     0.061 C 
HETATM    6  C6  UNL     1      31.243 -26.107 -25.756  1.00  0.00     0.061 C 
BRANCH   4   7
HETATM    7  O1  UNL     1      29.965 -25.574 -27.682  1.00  0.00    -0.297 OA
BRANCH   7   8
HETATM    8  C7  UNL     1      29.982 -25.440 -29.045  1.00  0.00     0.270 C 
HETATM    9  O2  UNL     1      30.833 -24.700 -29.537  1.00  0.00    -0.264 OA
BRANCH   8  10
HETATM   10  C8  UNL     1      29.017 -26.146 -29.935  1.00  0.00     0.193 C 
BRANCH  10  11
HETATM   11  S1  UNL     1      29.571 -26.275 -31.632  1.00  0.00    -0.081 SA
BRANCH  11  12
HETATM   12  C9  UNL     1      29.420 -24.674 -32.411  1.00  0.00     0.176 A 
HETATM   13  N1  UNL     1      29.750 -23.493 -31.852  1.00  0.00    -0.263 N 
HETATM   14  N2  UNL     1      29.511 -22.535 -32.713  1.00  0.00    -0.226 N 
ATOM     15  H1  UNL     1      30.125 -23.365 -30.912  1.00  0.00     0.190 HD
HETATM   16  N3  UNL     1      29.035 -23.071 -33.812  1.00  0.00    -0.226 N 
ATOM     17  H2  UNL     1      29.670 -21.540 -32.556  1.00  0.00     0.210 HD
HETATM   18  N4  UNL     1      28.978 -24.369 -33.633  1.00  0.00    -0.263 N 
ATOM     19  H3  UNL     1      28.759 -22.567 -34.654  1.00  0.00     0.210 HD
ATOM     20  H4  UNL     1      28.647 -25.043 -34.324  1.00  0.00     0.190 HD
ENDBRANCH  11  12
ENDBRANCH  10  11
ENDBRANCH   8  10
ENDBRANCH   7   8
ENDBRANCH   4   7
ENDBRANCH   3   4
TORSDOF 6
ENDMDL
MODEL 2
REMARK VINA RESULT: -6.872441299      1.084      1.151
REMARK  6 active torsions:
REMARK  status: ('A' for Active; 'I' for Inactive)
REMARK    1  A    between atoms: C3_3  and  C4_4 
REMARK    2  A    between atoms: C4_4  and  O1_7 
REMARK    3  A    between atoms: O1_7  and  C7_8 
REMARK    4  A    between atoms: C7_8  and  C8_10 
REMARK    5  A    between atoms: C8_10  and  S1_11 
REMARK    6  A    between atoms: S1_11  and  C9_12 
ROOT
HETATM    1  C1  UNL     1      27.345 -27.961 -25.226  1.00  0.00     0.112 C 
HETATM    2  C2  UNL     1      28.496 -27.539 -26.019  1.00  0.00    -0.108 C 
HETATM    3  C3  UNL     1      29.430 -27.199 -26.703  1.00  0.00    -0.069 C 
ENDROOT
BRANCH   3   4
HETATM    4  C4  UNL     1      30.561 -26.779 -27.586  1.00  0.00     0.126 C 
HETATM    5  C5  UNL     1      31.356 -27.987 -27.972  1.00  0.00     0.061 C 
HETATM    6  C6  UNL     1      31.449 -25.870 -26.762  1.00  0.00     0.061 C 
BRANCH   4   7
HETATM    7  O1  UNL     1      29.992 -26.069 -28.623  1.00  0.00    -0.297 OA
BRANCH   7   8
HETATM    8  C7  UNL     1      29.581 -26.497 -29.857  1.00  0.00     0.270 C 
HETATM    9  O2  UNL     1      28.375 -26.661 -30.034  1.00  0.00    -0.264 OA
BRANCH   8  10
HETATM   10  C8  UNL     1      30.532 -26.769 -30.973  1.00  0.00     0.193 C 
BRANCH  10  11
HETATM   11  S1  UNL     1      29.826 -26.507 -32.596  1.00  0.00    -0.081 SA
BRANCH  11  12
HETATM   12  C9  UNL     1      29.564 -24.756 -32.834  1.00  0.00     0.176 A 
HETATM   13  N1  UNL     1      29.878 -23.786 -31.953  1.00  0.00    -0.263 N 
HETATM   14  N2  UNL     1      29.550 -22.626 -32.465  1.00  0.00    -0.226 N 
ATOM     15  H1  UNL     1      30.303 -23.931 -31.037  1.00  0.00     0.190 HD
HETATM   16  N3  UNL     1      29.031 -22.825 -33.653  1.00  0.00    -0.226 N 
ATOM     17  H2  UNL     1      29.677 -21.719 -32.015  1.00  0.00     0.210 HD
HETATM   18  N4  UNL     1      29.037 -24.117 -33.882  1.00  0.00    -0.263 N 
ATOM     19  H3  UNL     1      28.684 -22.105 -34.285  1.00  0.00     0.210 HD
ATOM     20  H4  UNL     1      28.692 -24.564 -34.731  1.00  0.00     0.190 HD
ENDBRANCH  11  12
ENDBRANCH  10  11
ENDBRANCH   8  10
ENDBRANCH   7   8
ENDBRANCH   4   7
ENDBRANCH   3   4
TORSDOF 6
ENDMDL
MODEL 3
REMARK VINA RESULT: -6.811783574      1.044      1.044
REMARK  6 active torsions:
REMARK  status: ('A' for Active; 'I' for Inactive)
REMARK    1  A    between atoms: C3_3  and  C4_4 
REMARK    2  A    between atoms: C4_4  and  O1_7 
REMARK    3  A    between atoms: O1_7  and  C7_8 
REMARK    4  A    between atoms: C7_8  and  C8_10 
REMARK    5  A    between atoms: C8_10  and  S1_11 
REMARK    6  A    between atoms: S1_11  and  C9_12 
ROOT
HETATM    1  C1  UNL     1      27.442 -28.469 -27.432  1.00  0.00     0.112 C 
HETATM    2  C2  UNL     1      28.744 -27.828 -27.272  1.00  0.00    -0.108 C 
HETATM    3  C3  UNL     1      29.825 -27.302 -27.175  1.00  0.00    -0.069 C 
ENDROOT
BRANCH   3   4
HETATM    4  C4  UNL     1      31.166 -26.644 -27.098  1.00  0.00     0.126 C 
HETATM    5  C5  UNL     1      32.218 -27.627 -27.502  1.00  0.00     0.061 C 
HETATM    6  C6  UNL     1      31.392 -26.275 -25.646  1.00  0.00     0.061 C 
BRANCH   4   7
HETATM    7  O1  UNL     1      31.074 -25.501 -27.865  1.00  0.00    -0.297 OA
BRANCH   7   8
HETATM    8  C7  UNL     1      30.408 -25.287 -29.043  1.00  0.00     0.270 C 
HETATM    9  O2  UNL     1      29.687 -24.292 -29.120  1.00  0.00    -0.264 OA
BRANCH   8  10
HETATM   10  C8  UNL     1      30.523 -26.204 -30.211  1.00  0.00     0.193 C 
BRANCH  10  11
HETATM   11  S1  UNL     1      29.111 -26.149 -31.309  1.00  0.00    -0.081 SA
BRANCH  11  12
HETATM   12  C9  UNL     1      29.178 -24.638 -32.259  1.00  0.00     0.176 A 
HETATM   13  N1  UNL     1      29.641 -23.451 -31.819  1.00  0.00    -0.263 N 
HETATM   14  N2  UNL     1      29.543 -22.573 -32.785  1.00  0.00    -0.226 N 
ATOM     15  H1  UNL     1      30.008 -23.266 -30.885  1.00  0.00     0.190 HD
HETATM   16  N3  UNL     1      29.027 -23.164 -33.836  1.00  0.00    -0.226 N 
ATOM     17  H2  UNL     1      29.821 -21.593 -32.730  1.00  0.00     0.210 HD
HETATM   18  N4  UNL     1      28.804 -24.418 -33.522  1.00  0.00    -0.263 N 
ATOM     19  H3  UNL     1      28.834 -22.727 -34.737  1.00  0.00     0.210 HD
ATOM     20  H4  UNL     1      28.406 -25.119 -34.147  1.00  0.00     0.190 HD
ENDBRANCH  11  12
ENDBRANCH  10  11
ENDBRANCH   8  10
ENDBRANCH   7   8
ENDBRANCH   4   7
ENDBRANCH   3   4
TORSDOF 6
ENDMDL
MODEL 4
REMARK VINA RESULT: -6.669541484      2.115      2.519
REMARK  6 active torsions:
REMARK  status: ('A' for Active; 'I' for Inactive)
REMARK    1  A    between atoms: C3_3  and  C4_4 
REMARK    2  A    between atoms: C4_4  and  O1_7 
REMARK    3  A    between atoms: O1_7  and  C7_8 
REMARK    4  A    between atoms: C7_8  and  C8_10 
REMARK    5  A    between atoms: C8_10  and  S1_11 
REMARK    6  A    between atoms: S1_11  and  C9_12 
ROOT
HETATM    1  C1  UNL     1      27.293 -27.957 -25.213  1.00  0.00     0.112 C 
HETATM    2  C2  UNL     1      28.448 -27.532 -25.998  1.00  0.00    -0.108 C 
HETATM    3  C3  UNL     1      29.400 -27.148 -26.632  1.00  0.00    -0.069 C 
ENDROOT
BRANCH   3   4
HETATM    4  C4  UNL     1      30.583 -26.638 -27.392  1.00  0.00     0.126 C 
HETATM    5  C5  UNL     1      31.230 -27.778 -28.113  1.00  0.00     0.061 C 
HETATM    6  C6  UNL     1      31.565 -26.102 -26.371  1.00  0.00     0.061 C 
BRANCH   4   7
HETATM    7  O1  UNL     1      30.113 -25.608 -28.180  1.00  0.00    -0.297 OA
BRANCH   7   8
HETATM    8  C7  UNL     1      29.757 -25.608 -29.503  1.00  0.00     0.270 C 
HETATM    9  O2  UNL     1      28.994 -26.493 -29.890  1.00  0.00    -0.264 OA
BRANCH   8  10
HETATM   10  C8  UNL     1      30.256 -24.593 -30.472  1.00  0.00     0.193 C 
BRANCH  10  11
HETATM   11  S1  UNL     1      29.508 -24.720 -32.093  1.00  0.00    -0.081 SA
BRANCH  11  12
HETATM   12  C9  UNL     1      30.012 -26.260 -32.842  1.00  0.00     0.176 A 
HETATM   13  N1  UNL     1      31.239 -26.536 -33.327  1.00  0.00    -0.263 N 
HETATM   14  N2  UNL     1      31.246 -27.759 -33.794  1.00  0.00    -0.226 N 
ATOM     15  H1  UNL     1      32.033 -25.896 -33.330  1.00  0.00     0.190 HD
HETATM   16  N3  UNL     1      30.054 -28.278 -33.623  1.00  0.00    -0.226 N 
ATOM     17  H2  UNL     1      32.045 -28.230 -34.220  1.00  0.00     0.210 HD
HETATM   18  N4  UNL     1      29.301 -27.373 -33.045  1.00  0.00    -0.263 N 
ATOM     19  H3  UNL     1      29.764 -29.218 -33.891  1.00  0.00     0.210 HD
ATOM     20  H4  UNL     1      28.322 -27.499 -32.789  1.00  0.00     0.190 HD
ENDBRANCH  11  12
ENDBRANCH  10  11
ENDBRANCH   8  10
ENDBRANCH   7   8
ENDBRANCH   4   7
ENDBRANCH   3   4
TORSDOF 6
ENDMDL
MODEL 5
REMARK VINA RESULT: -6.638217048      1.152      1.296
REMARK  6 active torsions:
REMARK  status: ('A' for Active; 'I' for Inactive)
REMARK    1  A    between atoms: C3_3  and  C4_4 
REMARK    2  A    between atoms: C4_4  and  O1_7 
REMARK    3  A    between atoms: O1_7  and  C7_8 
REMARK    4  A    between atoms: C7_8  and  C8_10 
REMARK    5  A    between atoms: C8_10  and  S1_11 
REMARK    6  A    between atoms: S1_11  and  C9_12 
ROOT
HETATM    1  C1  UNL     1      27.228 -27.975 -25.131  1.00  0.00     0.112 C 
HETATM    2  C2  UNL     1      28.372 -27.548 -25.931  1.00  0.00    -0.108 C 
HETATM    3  C3  UNL     1      29.300 -27.206 -26.621  1.00  0.00    -0.069 C 
ENDROOT
BRANCH   3   4
HETATM    4  C4  UNL     1      30.425 -26.784 -27.512  1.00  0.00     0.126 C 
HETATM    5  C5  UNL     1      31.715 -26.908 -26.763  1.00  0.00     0.061 C 
HETATM    6  C6  UNL     1      30.204 -25.322 -27.839  1.00  0.00     0.061 C 
BRANCH   4   7
HETATM    7  O1  UNL     1      30.311 -27.546 -28.657  1.00  0.00    -0.297 OA
BRANCH   7   8
HETATM    8  C7  UNL     1      30.360 -27.165 -29.971  1.00  0.00     0.270 C 
HETATM    9  O2  UNL     1      31.469 -26.976 -30.472  1.00  0.00    -0.264 OA
BRANCH   8  10
HETATM   10  C8  UNL     1      29.137 -26.972 -30.800  1.00  0.00     0.193 C 
BRANCH  10  11
HETATM   11  S1  UNL     1      29.485 -26.596 -32.515  1.00  0.00    -0.081 SA
BRANCH  11  12
HETATM   12  C9  UNL     1      29.422 -24.825 -32.741  1.00  0.00     0.176 A 
HETATM   13  N1  UNL     1      29.782 -23.902 -31.827  1.00  0.00    -0.263 N 
HETATM   14  N2  UNL     1      29.608 -22.709 -32.339  1.00  0.00    -0.226 N 
ATOM     15  H1  UNL     1      30.133 -24.099 -30.890  1.00  0.00     0.190 HD
HETATM   16  N3  UNL     1      29.144 -22.841 -33.558  1.00  0.00    -0.226 N 
ATOM     17  H2  UNL     1      29.801 -21.825 -31.868  1.00  0.00     0.210 HD
HETATM   18  N4  UNL     1      29.029 -24.124 -33.807  1.00  0.00    -0.263 N 
ATOM     19  H3  UNL     1      28.913 -22.082 -34.198  1.00  0.00     0.210 HD
ATOM     20  H4  UNL     1      28.692 -24.524 -34.683  1.00  0.00     0.190 HD
ENDBRANCH  11  12
ENDBRANCH  10  11
ENDBRANCH   8  10
ENDBRANCH   7   8
ENDBRANCH   4   7
ENDBRANCH   3   4
TORSDOF 6
ENDMDL
