MODEL 1
REMARK VINA RESULT: -6.342512451      0.000      0.000
REMARK  4 active torsions:
REMARK  status: ('A' for Active; 'I' for Inactive)
REMARK    1  A    between atoms: O1_2  and  C2_3 
REMARK    2  A    between atoms: C7_9  and  O2_10 
REMARK    3  A    between atoms: O2_10  and  S1_11 
REMARK    4  A    between atoms: C9_15  and  O5_16 
ROOT
HETATM    1  C2  UNL     1      58.062 -14.807 -24.216  1.00  0.00     0.107 A 
HETATM    2  C3  UNL     1      57.585 -13.761 -23.456  1.00  0.00     0.082 A 
HETATM    3  C4  UNL     1      57.454 -12.484 -23.991  1.00  0.00     0.128 A 
HETATM    4  F1  UNL     1      56.982 -11.446 -23.241  1.00  0.00    -0.205 F 
HETATM    5  C5  UNL     1      57.807 -12.253 -25.309  1.00  0.00     0.014 A 
HETATM    6  C6  UNL     1      57.651 -10.870 -25.843  1.00  0.00     0.054 C 
HETATM    7  C7  UNL     1      58.286 -13.287 -26.086  1.00  0.00     0.134 A 
HETATM    8  C9  UNL     1      58.402 -14.538 -25.521  1.00  0.00     0.135 A 
ENDROOT
BRANCH   7   9
HETATM    9  O2  UNL     1      58.618 -12.993 -27.382  1.00  0.00    -0.230 OA
BRANCH   9  10
HETATM   10  S1  UNL     1      57.826 -13.449 -28.771  1.00  0.00     0.266 S 
HETATM   11  C8  UNL     1      56.124 -12.942 -28.634  1.00  0.00     0.194 C 
HETATM   12  O3  UNL     1      58.384 -12.688 -29.963  1.00  0.00    -0.199 OA
HETATM   13  O4  UNL     1      57.822 -14.923 -29.028  1.00  0.00    -0.199 OA
ENDBRANCH   9  10
ENDBRANCH   7   9
BRANCH   8  14
HETATM   14  O5  UNL     1      58.882 -15.547 -26.318  1.00  0.00    -0.356 OA
ATOM     15  H5  UNL     1      58.793 -15.482 -27.262  1.00  0.00     0.218 HD
ENDBRANCH   8  14
BRANCH   1  16
HETATM   16  O1  UNL     1      58.217 -16.098 -23.750  1.00  0.00    -0.353 OA
HETATM   17  C1  UNL     1      58.508 -16.454 -22.435  1.00  0.00     0.210 C 
ENDBRANCH   1  16
TORSDOF 4
ENDMDL
MODEL 2
REMARK VINA RESULT: -6.019421071      0.989      1.235
REMARK  4 active torsions:
REMARK  status: ('A' for Active; 'I' for Inactive)
REMARK    1  A    between atoms: O1_2  and  C2_3 
REMARK    2  A    between atoms: C7_9  and  O2_10 
REMARK    3  A    between atoms: O2_10  and  S1_11 
REMARK    4  A    between atoms: C9_15  and  O5_16 
ROOT
HETATM    1  C2  UNL     1      58.116 -14.787 -24.310  1.00  0.00     0.107 A 
HETATM    2  C3  UNL     1      57.671 -13.757 -23.511  1.00  0.00     0.082 A 
HETATM    3  C4  UNL     1      57.415 -12.496 -24.037  1.00  0.00     0.128 A 
HETATM    4  F1  UNL     1      56.974 -11.473 -23.248  1.00  0.00    -0.205 F 
HETATM    5  C5  UNL     1      57.609 -12.264 -25.388  1.00  0.00     0.014 A 
HETATM    6  C6  UNL     1      57.323 -10.898 -25.912  1.00  0.00     0.054 C 
HETATM    7  C7  UNL     1      58.054 -13.282 -26.205  1.00  0.00     0.134 A 
HETATM    8  C9  UNL     1      58.297 -14.518 -25.647  1.00  0.00     0.135 A 
ENDROOT
BRANCH   7   9
HETATM    9  O2  UNL     1      58.226 -12.988 -27.532  1.00  0.00    -0.230 OA
BRANCH   9  10
HETATM   10  S1  UNL     1      57.223 -13.364 -28.803  1.00  0.00     0.266 S 
HETATM   11  C8  UNL     1      58.066 -12.955 -30.318  1.00  0.00     0.194 C 
HETATM   12  O3  UNL     1      56.991 -14.866 -28.858  1.00  0.00    -0.199 OA
HETATM   13  O4  UNL     1      55.926 -12.619 -28.812  1.00  0.00    -0.199 OA
ENDBRANCH   9  10
ENDBRANCH   7   9
BRANCH   8  14
HETATM   14  O5  UNL     1      58.740 -15.511 -26.485  1.00  0.00    -0.356 OA
ATOM     15  H5  UNL     1      58.351 -16.376 -26.434  1.00  0.00     0.218 HD
ENDBRANCH   8  14
BRANCH   1  16
HETATM   16  O1  UNL     1      58.390 -16.062 -23.855  1.00  0.00    -0.353 OA
HETATM   17  C1  UNL     1      58.381 -16.463 -22.521  1.00  0.00     0.210 C 
ENDBRANCH   1  16
TORSDOF 4
ENDMDL
MODEL 3
REMARK VINA RESULT: -5.063890877      3.655      6.111
REMARK  4 active torsions:
REMARK  status: ('A' for Active; 'I' for Inactive)
REMARK    1  A    between atoms: O1_2  and  C2_3 
REMARK    2  A    between atoms: C7_9  and  O2_10 
REMARK    3  A    between atoms: O2_10  and  S1_11 
REMARK    4  A    between atoms: C9_15  and  O5_16 
ROOT
HETATM    1  C2  UNL     1      54.736 -13.251 -29.625  1.00  0.00     0.107 A 
HETATM    2  C3  UNL     1      54.931 -14.140 -30.660  1.00  0.00     0.082 A 
HETATM    3  C4  UNL     1      56.203 -14.598 -30.985  1.00  0.00     0.128 A 
HETATM    4  F1  UNL     1      56.399 -15.478 -32.010  1.00  0.00    -0.205 F 
HETATM    5  C5  UNL     1      57.297 -14.158 -30.260  1.00  0.00     0.014 A 
HETATM    6  C6  UNL     1      58.642 -14.675 -30.641  1.00  0.00     0.054 C 
HETATM    7  C7  UNL     1      57.123 -13.269 -29.221  1.00  0.00     0.134 A 
HETATM    8  C9  UNL     1      55.847 -12.837 -28.928  1.00  0.00     0.135 A 
ENDROOT
BRANCH   7   9
HETATM    9  O2  UNL     1      58.245 -12.872 -28.543  1.00  0.00    -0.230 OA
BRANCH   9  10
HETATM   10  S1  UNL     1      58.616 -13.120 -26.941  1.00  0.00     0.266 S 
HETATM   11  C8  UNL     1      58.811 -11.529 -26.163  1.00  0.00     0.194 C 
HETATM   12  O3  UNL     1      57.445 -13.781 -26.231  1.00  0.00    -0.199 OA
HETATM   13  O4  UNL     1      59.884 -13.877 -26.708  1.00  0.00    -0.199 OA
ENDBRANCH   9  10
ENDBRANCH   7   9
BRANCH   8  14
HETATM   14  O5  UNL     1      55.706 -11.952 -27.889  1.00  0.00    -0.356 OA
ATOM     15  H5  UNL     1      56.402 -11.335 -27.699  1.00  0.00     0.218 HD
ENDBRANCH   8  14
BRANCH   1  16
HETATM   16  O1  UNL     1      53.503 -12.755 -29.248  1.00  0.00    -0.353 OA
HETATM   17  C1  UNL     1      52.436 -12.503 -30.107  1.00  0.00     0.210 C 
ENDBRANCH   1  16
TORSDOF 4
ENDMDL
MODEL 4
REMARK VINA RESULT: -4.764765947      2.941      3.949
REMARK  4 active torsions:
REMARK  status: ('A' for Active; 'I' for Inactive)
REMARK    1  A    between atoms: O1_2  and  C2_3 
REMARK    2  A    between atoms: C7_9  and  O2_10 
REMARK    3  A    between atoms: O2_10  and  S1_11 
REMARK    4  A    between atoms: C9_15  and  O5_16 
ROOT
HETATM    1  C2  UNL     1      57.013 -12.982 -25.787  1.00  0.00     0.107 A 
HETATM    2  C3  UNL     1      58.292 -13.492 -25.835  1.00  0.00     0.082 A 
HETATM    3  C4  UNL     1      58.884 -13.836 -27.045  1.00  0.00     0.128 A 
HETATM    4  F1  UNL     1      60.151 -14.341 -27.096  1.00  0.00    -0.205 F 
HETATM    5  C5  UNL     1      58.182 -13.666 -28.226  1.00  0.00     0.014 A 
HETATM    6  C6  UNL     1      58.854 -14.047 -29.501  1.00  0.00     0.054 C 
HETATM    7  C7  UNL     1      56.901 -13.157 -28.198  1.00  0.00     0.134 A 
HETATM    8  C9  UNL     1      56.347 -12.827 -26.980  1.00  0.00     0.135 A 
ENDROOT
BRANCH   7   9
HETATM    9  O2  UNL     1      56.260 -13.013 -29.400  1.00  0.00    -0.230 OA
BRANCH   9  10
HETATM   10  S1  UNL     1      54.870 -13.766 -29.917  1.00  0.00     0.266 S 
HETATM   11  C8  UNL     1      54.918 -13.865 -31.695  1.00  0.00     0.194 C 
HETATM   12  O3  UNL     1      54.844 -15.206 -29.428  1.00  0.00    -0.199 OA
HETATM   13  O4  UNL     1      53.606 -13.052 -29.555  1.00  0.00    -0.199 OA
ENDBRANCH   9  10
ENDBRANCH   7   9
BRANCH   8  14
HETATM   14  O5  UNL     1      55.071 -12.324 -26.985  1.00  0.00    -0.356 OA
ATOM     15  H5  UNL     1      54.416 -12.698 -26.407  1.00  0.00     0.218 HD
ENDBRANCH   8  14
BRANCH   1  16
HETATM   16  O1  UNL     1      56.364 -12.620 -24.622  1.00  0.00    -0.353 OA
HETATM   17  C1  UNL     1      56.919 -11.871 -23.587  1.00  0.00     0.210 C 
ENDBRANCH   1  16
TORSDOF 4
ENDMDL
MODEL 5
REMARK VINA RESULT: -4.619107218      3.277      5.525
REMARK  4 active torsions:
REMARK  status: ('A' for Active; 'I' for Inactive)
REMARK    1  A    between atoms: O1_2  and  C2_3 
REMARK    2  A    between atoms: C7_9  and  O2_10 
REMARK    3  A    between atoms: O2_10  and  S1_11 
REMARK    4  A    between atoms: C9_15  and  O5_16 
ROOT
HETATM    1  C2  UNL     1      55.684 -13.778 -28.885  1.00  0.00     0.107 A 
HETATM    2  C3  UNL     1      56.748 -14.470 -29.422  1.00  0.00     0.082 A 
HETATM    3  C4  UNL     1      57.995 -14.463 -28.806  1.00  0.00     0.128 A 
HETATM    4  F1  UNL     1      59.051 -15.147 -29.334  1.00  0.00    -0.205 F 
HETATM    5  C5  UNL     1      58.177 -13.751 -27.632  1.00  0.00     0.014 A 
HETATM    6  C6  UNL     1      59.529 -13.770 -27.004  1.00  0.00     0.054 C 
HETATM    7  C7  UNL     1      57.124 -13.053 -27.080  1.00  0.00     0.134 A 
HETATM    8  C9  UNL     1      55.904 -13.083 -27.719  1.00  0.00     0.135 A 
ENDROOT
BRANCH   7   9
HETATM    9  O2  UNL     1      57.369 -12.369 -25.919  1.00  0.00    -0.230 OA
BRANCH   9  10
HETATM   10  S1  UNL     1      56.934 -12.790 -24.370  1.00  0.00     0.266 S 
HETATM   11  C8  UNL     1      57.798 -14.287 -23.936  1.00  0.00     0.194 C 
HETATM   12  O3  UNL     1      57.421 -11.737 -23.387  1.00  0.00    -0.199 OA
HETATM   13  O4  UNL     1      55.475 -13.061 -24.187  1.00  0.00    -0.199 OA
ENDBRANCH   9  10
ENDBRANCH   7   9
BRANCH   8  14
HETATM   14  O5  UNL     1      54.876 -12.378 -27.145  1.00  0.00    -0.356 OA
ATOM     15  H5  UNL     1      54.981 -11.450 -26.975  1.00  0.00     0.218 HD
ENDBRANCH   8  14
BRANCH   1  16
HETATM   16  O1  UNL     1      54.421 -13.741 -29.443  1.00  0.00    -0.353 OA
HETATM   17  C1  UNL     1      54.135 -13.834 -30.803  1.00  0.00     0.210 C 
ENDBRANCH   1  16
TORSDOF 4
ENDMDL
