MODEL 1
REMARK VINA RESULT: -4.861483225      0.000      0.000
REMARK  5 active torsions:
REMARK  status: ('A' for Active; 'I' for Inactive)
REMARK    1  A    between atoms: N1_2  and  C2_4 
REMARK    2  A    between atoms: N2_9  and  C6_10 
REMARK    3  A    between atoms: C6_10  and  O1_11 
REMARK    4  A    between atoms: O1_11  and  S2_12 
REMARK    5  A    between atoms: S2_12  and  N3_13 
ROOT
HETATM    1  C2  UNL     1      58.264 -14.570 -25.096  1.00  0.00     0.148 A 
HETATM    2  S1  UNL     1      57.739 -14.112 -23.544  1.00  0.00    -0.064 SA
HETATM    3  C3  UNL     1      57.313 -12.502 -23.896  1.00  0.00     0.078 A 
HETATM    4  C4  UNL     1      57.605 -12.398 -25.226  1.00  0.00     0.018 A 
HETATM    5  C5  UNL     1      57.349 -11.057 -25.922  1.00  0.00     0.069 C 
HETATM    6  N2  UNL     1      58.091 -13.466 -25.828  1.00  0.00    -0.308 N 
ENDROOT
BRANCH   6   7
HETATM    7  C6  UNL     1      58.439 -13.454 -27.278  1.00  0.00     0.321 C 
BRANCH   7   8
HETATM    8  O1  UNL     1      57.731 -14.474 -27.873  1.00  0.00    -0.270 OA
BRANCH   8   9
HETATM    9  S2  UNL     1      56.841 -13.177 -29.300  1.00  0.00     0.160 SA
HETATM   10  F1  UNL     1      55.574 -13.364 -27.631  1.00  0.00    -0.128 F 
HETATM   11  S3  UNL     1      57.962 -13.406 -30.145  1.00  0.00     0.047 SA
BRANCH   9  12
HETATM   12  N3  UNL     1      55.438 -14.260 -30.003  1.00  0.00    -0.339 N 
ATOM     13  H32 UNL     1      55.380 -14.700 -30.921  1.00  0.00     0.167 HD
ATOM     14  H31 UNL     1      54.775 -14.281 -29.228  1.00  0.00     0.167 HD
ENDBRANCH   9  12
ENDBRANCH   8   9
ENDBRANCH   7   8
ENDBRANCH   6   7
BRANCH   1  15
HETATM   15  N1  UNL     1      58.735 -15.733 -25.515  1.00  0.00    -0.375 N 
HETATM   16  C1  UNL     1      58.677 -16.816 -24.547  1.00  0.00     0.148 C 
ATOM     17  H1  UNL     1      59.114 -15.861 -26.453  1.00  0.00     0.161 HD
ENDBRANCH   1  15
TORSDOF 5
ENDMDL
MODEL 2
REMARK VINA RESULT: -4.005123189      2.968      5.235
REMARK  5 active torsions:
REMARK  status: ('A' for Active; 'I' for Inactive)
REMARK    1  A    between atoms: N1_2  and  C2_4 
REMARK    2  A    between atoms: N2_9  and  C6_10 
REMARK    3  A    between atoms: C6_10  and  O1_11 
REMARK    4  A    between atoms: O1_11  and  S2_12 
REMARK    5  A    between atoms: S2_12  and  N3_13 
ROOT
HETATM    1  C2  UNL     1      55.584 -13.451 -29.106  1.00  0.00     0.148 A 
HETATM    2  S1  UNL     1      56.354 -13.948 -30.540  1.00  0.00    -0.064 SA
HETATM    3  C3  UNL     1      57.837 -14.439 -29.863  1.00  0.00     0.078 A 
HETATM    4  C4  UNL     1      57.658 -14.187 -28.533  1.00  0.00     0.018 A 
HETATM    5  C5  UNL     1      58.807 -14.509 -27.572  1.00  0.00     0.069 C 
HETATM    6  N2  UNL     1      56.498 -13.681 -28.159  1.00  0.00    -0.308 N 
ENDROOT
BRANCH   6   7
HETATM    7  C6  UNL     1      56.204 -13.375 -26.730  1.00  0.00     0.321 C 
BRANCH   7   8
HETATM    8  O1  UNL     1      56.364 -12.017 -26.566  1.00  0.00    -0.270 OA
BRANCH   8   9
HETATM    9  S2  UNL     1      57.912 -12.258 -25.132  1.00  0.00     0.160 SA
HETATM   10  F1  UNL     1      56.136 -13.118 -24.403  1.00  0.00    -0.128 F 
HETATM   11  S3  UNL     1      58.777 -11.547 -26.009  1.00  0.00     0.047 SA
BRANCH   9  12
HETATM   12  N3  UNL     1      57.406 -11.007 -23.785  1.00  0.00    -0.339 N 
ATOM     13  H32 UNL     1      56.493 -10.579 -23.632  1.00  0.00     0.167 HD
ATOM     14  H31 UNL     1      58.277 -10.886 -23.268  1.00  0.00     0.167 HD
ENDBRANCH   9  12
ENDBRANCH   8   9
ENDBRANCH   7   8
ENDBRANCH   6   7
BRANCH   1  15
HETATM   15  N1  UNL     1      54.372 -12.951 -28.933  1.00  0.00    -0.375 N 
HETATM   16  C1  UNL     1      53.489 -13.041 -30.084  1.00  0.00     0.148 C 
ATOM     17  H1  UNL     1      54.077 -12.531 -28.052  1.00  0.00     0.161 HD
ENDBRANCH   1  15
TORSDOF 5
ENDMDL
MODEL 3
REMARK VINA RESULT: -3.828719067      1.052      2.787
REMARK  5 active torsions:
REMARK  status: ('A' for Active; 'I' for Inactive)
REMARK    1  A    between atoms: N1_2  and  C2_4 
REMARK    2  A    between atoms: N2_9  and  C6_10 
REMARK    3  A    between atoms: C6_10  and  O1_11 
REMARK    4  A    between atoms: O1_11  and  S2_12 
REMARK    5  A    between atoms: S2_12  and  N3_13 
ROOT
HETATM    1  C2  UNL     1      57.784 -12.253 -25.439  1.00  0.00     0.148 A 
HETATM    2  S1  UNL     1      57.416 -12.506 -23.797  1.00  0.00    -0.064 SA
HETATM    3  C3  UNL     1      57.794 -14.163 -23.715  1.00  0.00     0.078 A 
HETATM    4  C4  UNL     1      58.194 -14.444 -24.990  1.00  0.00     0.018 A 
HETATM    5  C5  UNL     1      58.625 -15.878 -25.316  1.00  0.00     0.069 C 
HETATM    6  N2  UNL     1      58.184 -13.455 -25.863  1.00  0.00    -0.308 N 
ENDROOT
BRANCH   6   7
HETATM    7  C6  UNL     1      58.606 -13.659 -27.279  1.00  0.00     0.321 C 
BRANCH   7   8
HETATM    8  O1  UNL     1      57.736 -14.571 -27.833  1.00  0.00    -0.270 OA
BRANCH   8   9
HETATM    9  S2  UNL     1      56.955 -13.159 -29.213  1.00  0.00     0.160 SA
HETATM   10  F1  UNL     1      55.660 -13.323 -27.564  1.00  0.00    -0.128 F 
HETATM   11  S3  UNL     1      58.067 -13.432 -30.057  1.00  0.00     0.047 SA
BRANCH   9  12
HETATM   12  N3  UNL     1      55.488 -14.112 -29.972  1.00  0.00    -0.339 N 
ATOM     13  H32 UNL     1      54.973 -14.898 -29.576  1.00  0.00     0.167 HD
ATOM     14  H31 UNL     1      55.360 -13.631 -30.863  1.00  0.00     0.167 HD
ENDBRANCH   9  12
ENDBRANCH   8   9
ENDBRANCH   7   8
ENDBRANCH   6   7
BRANCH   1  15
HETATM   15  N1  UNL     1      57.705 -11.146 -26.157  1.00  0.00    -0.375 N 
HETATM   16  C1  UNL     1      58.913 -10.337 -26.195  1.00  0.00     0.148 C 
ATOM     17  H1  UNL     1      56.855 -10.877 -26.652  1.00  0.00     0.161 HD
ENDBRANCH   1  15
TORSDOF 5
ENDMDL
MODEL 4
REMARK VINA RESULT: -3.582463902      2.857      4.867
REMARK  5 active torsions:
REMARK  status: ('A' for Active; 'I' for Inactive)
REMARK    1  A    between atoms: N1_2  and  C2_4 
REMARK    2  A    between atoms: N2_9  and  C6_10 
REMARK    3  A    between atoms: C6_10  and  O1_11 
REMARK    4  A    between atoms: O1_11  and  S2_12 
REMARK    5  A    between atoms: S2_12  and  N3_13 
ROOT
HETATM    1  C2  UNL     1      58.167 -13.712 -26.459  1.00  0.00     0.148 A 
HETATM    2  S1  UNL     1      58.327 -12.141 -27.094  1.00  0.00    -0.064 SA
HETATM    3  C3  UNL     1      57.965 -11.268 -25.679  1.00  0.00     0.078 A 
HETATM    4  C4  UNL     1      57.733 -12.257 -24.766  1.00  0.00     0.018 A 
HETATM    5  C5  UNL     1      57.368 -11.852 -23.334  1.00  0.00     0.069 C 
HETATM    6  N2  UNL     1      57.840 -13.505 -25.180  1.00  0.00    -0.308 N 
ENDROOT
BRANCH   6   7
HETATM    7  C6  UNL     1      57.609 -14.655 -24.260  1.00  0.00     0.321 C 
BRANCH   7   8
HETATM    8  O1  UNL     1      58.713 -15.474 -24.350  1.00  0.00    -0.270 OA
BRANCH   8   9
HETATM    9  S2  UNL     1      58.024 -16.764 -22.811  1.00  0.00     0.160 SA
HETATM   10  F1  UNL     1      58.500 -14.884 -21.995  1.00  0.00    -0.128 F 
HETATM   11  S3  UNL     1      57.895 -17.791 -23.786  1.00  0.00     0.047 SA
BRANCH   9  12
HETATM   12  N3  UNL     1      59.634 -17.152 -21.866  1.00  0.00    -0.339 N 
ATOM     13  H32 UNL     1      60.517 -17.499 -22.240  1.00  0.00     0.167 HD
ATOM     14  H31 UNL     1      59.378 -16.924 -20.905  1.00  0.00     0.167 HD
ENDBRANCH   9  12
ENDBRANCH   8   9
ENDBRANCH   7   8
ENDBRANCH   6   7
BRANCH   1  15
HETATM   15  N1  UNL     1      58.320 -14.881 -27.058  1.00  0.00    -0.375 N 
HETATM   16  C1  UNL     1      57.855 -14.944 -28.434  1.00  0.00     0.148 C 
ATOM     17  H1  UNL     1      58.738 -15.683 -26.587  1.00  0.00     0.161 HD
ENDBRANCH   1  15
TORSDOF 5
ENDMDL
MODEL 5
REMARK VINA RESULT: -3.577465483      3.132      4.970
REMARK  5 active torsions:
REMARK  status: ('A' for Active; 'I' for Inactive)
REMARK    1  A    between atoms: N1_2  and  C2_4 
REMARK    2  A    between atoms: N2_9  and  C6_10 
REMARK    3  A    between atoms: C6_10  and  O1_11 
REMARK    4  A    between atoms: O1_11  and  S2_12 
REMARK    5  A    between atoms: S2_12  and  N3_13 
ROOT
HETATM    1  C2  UNL     1      57.482 -13.669 -30.469  1.00  0.00     0.148 A 
HETATM    2  S1  UNL     1      56.051 -14.214 -31.211  1.00  0.00    -0.064 SA
HETATM    3  C3  UNL     1      54.981 -13.921 -29.920  1.00  0.00     0.078 A 
HETATM    4  C4  UNL     1      55.802 -13.405 -28.960  1.00  0.00     0.018 A 
HETATM    5  C5  UNL     1      55.186 -13.006 -27.615  1.00  0.00     0.069 C 
HETATM    6  N2  UNL     1      57.082 -13.281 -29.255  1.00  0.00    -0.308 N 
ENDROOT
BRANCH   6   7
HETATM    7  C6  UNL     1      58.060 -12.726 -28.275  1.00  0.00     0.321 C 
BRANCH   7   8
HETATM    8  O1  UNL     1      58.788 -13.786 -27.785  1.00  0.00    -0.270 OA
BRANCH   8   9
HETATM    9  S2  UNL     1      58.868 -12.973 -25.825  1.00  0.00     0.160 SA
HETATM   10  F1  UNL     1      58.869 -15.073 -25.718  1.00  0.00    -0.128 F 
HETATM   11  S3  UNL     1      58.810 -11.676 -26.406  1.00  0.00     0.047 SA
BRANCH   9  12
HETATM   12  N3  UNL     1      57.110 -13.324 -25.175  1.00  0.00    -0.339 N 
ATOM     13  H32 UNL     1      56.599 -14.206 -25.182  1.00  0.00     0.167 HD
ATOM     14  H31 UNL     1      56.826 -12.408 -24.826  1.00  0.00     0.167 HD
ENDBRANCH   9  12
ENDBRANCH   8   9
ENDBRANCH   7   8
ENDBRANCH   6   7
BRANCH   1  15
HETATM   15  N1  UNL     1      58.713 -13.625 -30.950  1.00  0.00    -0.375 N 
HETATM   16  C1  UNL     1      59.219 -14.877 -31.489  1.00  0.00     0.148 C 
ATOM     17  H1  UNL     1      59.270 -12.771 -30.942  1.00  0.00     0.161 HD
ENDBRANCH   1  15
TORSDOF 5
ENDMDL
