MODEL 1
REMARK VINA RESULT: -6.624497647      0.000      0.000
REMARK  5 active torsions:
REMARK  status: ('A' for Active; 'I' for Inactive)
REMARK    1  A    between atoms: C2_2  and  O1_3 
REMARK    2  A    between atoms: O1_3  and  C3_4 
REMARK    3  A    between atoms: C3_4  and  C4_6 
REMARK    4  A    between atoms: C7_12  and  C8_13 
REMARK    5  A    between atoms: C8_13  and  O4_15 
ROOT
HETATM    1  C4  UNL     1      57.707 -12.847 -29.013  1.00  0.00     0.149 C 
HETATM    2  C5  UNL     1      58.097 -13.426 -30.353  1.00  0.00    -0.004 C 
HETATM    3  N1  UNL     1      59.063 -13.048 -31.097  1.00  0.00    -0.405 N 
ATOM      4  H11 UNL     1      59.326 -13.438 -32.001  1.00  0.00     0.155 HD
ATOM      5  H12 UNL     1      59.737 -12.300 -30.929  1.00  0.00     0.155 HD
HETATM    6  C6  UNL     1      57.121 -14.508 -30.594  1.00  0.00     0.069 C 
HETATM    7  C7  UNL     1      55.851 -14.136 -29.858  1.00  0.00     0.110 C 
HETATM    8  C10 UNL     1      56.208 -12.893 -29.080  1.00  0.00     0.115 C 
HETATM    9 CL1  UNL     1      55.600 -12.975 -27.397  1.00  0.00    -0.123 Cl
ENDROOT
BRANCH   1  10
HETATM   10  C3  UNL     1      58.236 -13.776 -27.974  1.00  0.00     0.270 C 
HETATM   11  O2  UNL     1      58.049 -15.019 -28.052  1.00  0.00    -0.264 OA
BRANCH  10  12
HETATM   12  O1  UNL     1      58.955 -13.318 -26.880  1.00  0.00    -0.321 OA
BRANCH  12  13
HETATM   13  C2  UNL     1      58.797 -11.964 -26.445  1.00  0.00     0.174 C 
HETATM   14  C1  UNL     1      58.068 -11.889 -25.144  1.00  0.00     0.034 C 
ENDBRANCH  12  13
ENDBRANCH  10  12
ENDBRANCH   1  10
BRANCH   7  15
HETATM   15  C8  UNL     1      54.755 -13.894 -30.834  1.00  0.00     0.264 C 
HETATM   16  O3  UNL     1      54.968 -13.764 -32.068  1.00  0.00    -0.265 OA
BRANCH  15  17
HETATM   17  O4  UNL     1      53.467 -13.809 -30.386  1.00  0.00    -0.326 OA
HETATM   18  C9  UNL     1      52.771 -12.598 -30.156  1.00  0.00     0.213 C 
ENDBRANCH  15  17
ENDBRANCH   7  15
TORSDOF 5
ENDMDL
MODEL 2
REMARK VINA RESULT: -6.246633762      2.633      3.916
REMARK  5 active torsions:
REMARK  status: ('A' for Active; 'I' for Inactive)
REMARK    1  A    between atoms: C2_2  and  O1_3 
REMARK    2  A    between atoms: O1_3  and  C3_4 
REMARK    3  A    between atoms: C3_4  and  C4_6 
REMARK    4  A    between atoms: C7_12  and  C8_13 
REMARK    5  A    between atoms: C8_13  and  O4_15 
ROOT
HETATM    1  C4  UNL     1      56.434 -14.464 -28.669  1.00  0.00     0.149 C 
HETATM    2  C5  UNL     1      55.799 -14.280 -30.027  1.00  0.00    -0.004 C 
HETATM    3  N1  UNL     1      54.695 -14.780 -30.428  1.00  0.00    -0.405 N 
ATOM      4  H11 UNL     1      54.267 -14.656 -31.345  1.00  0.00     0.155 HD
ATOM      5  H12 UNL     1      54.050 -15.384 -29.918  1.00  0.00     0.155 HD
HETATM    6  C6  UNL     1      56.733 -13.405 -30.765  1.00  0.00     0.069 C 
HETATM    7  C7  UNL     1      58.115 -13.647 -30.194  1.00  0.00     0.110 C 
HETATM    8  C10 UNL     1      57.890 -14.567 -29.019  1.00  0.00     0.115 C 
HETATM    9 CL1  UNL     1      58.823 -14.039 -27.584  1.00  0.00    -0.123 Cl
ENDROOT
BRANCH   1  10
HETATM   10  C3  UNL     1      56.146 -13.228 -27.889  1.00  0.00     0.270 C 
HETATM   11  O2  UNL     1      55.587 -12.233 -28.423  1.00  0.00    -0.264 OA
BRANCH  10  12
HETATM   12  O1  UNL     1      56.477 -13.114 -26.547  1.00  0.00    -0.321 OA
BRANCH  12  13
HETATM   13  C2  UNL     1      56.781 -11.827 -25.999  1.00  0.00     0.174 C 
HETATM   14  C1  UNL     1      57.171 -11.924 -24.562  1.00  0.00     0.034 C 
ENDBRANCH  12  13
ENDBRANCH  10  12
ENDBRANCH   1  10
BRANCH   7  15
HETATM   15  C8  UNL     1      58.988 -14.259 -31.230  1.00  0.00     0.264 C 
HETATM   16  O3  UNL     1      58.900 -15.473 -31.556  1.00  0.00    -0.265 OA
BRANCH  15  17
HETATM   17  O4  UNL     1      59.924 -13.487 -31.858  1.00  0.00    -0.326 OA
HETATM   18  C9  UNL     1      61.181 -13.952 -32.314  1.00  0.00     0.213 C 
ENDBRANCH  15  17
ENDBRANCH   7  15
TORSDOF 5
ENDMDL
MODEL 3
REMARK VINA RESULT: -5.396646598      2.282      5.279
REMARK  5 active torsions:
REMARK  status: ('A' for Active; 'I' for Inactive)
REMARK    1  A    between atoms: C2_2  and  O1_3 
REMARK    2  A    between atoms: O1_3  and  C3_4 
REMARK    3  A    between atoms: C3_4  and  C4_6 
REMARK    4  A    between atoms: C7_12  and  C8_13 
REMARK    5  A    between atoms: C8_13  and  O4_15 
ROOT
HETATM    1  C4  UNL     1      57.666 -13.886 -27.593  1.00  0.00     0.149 C 
HETATM    2  C5  UNL     1      59.006 -13.553 -26.980  1.00  0.00    -0.004 C 
HETATM    3  N1  UNL     1      60.051 -14.286 -26.984  1.00  0.00    -0.405 N 
ATOM      4  H11 UNL     1      60.956 -14.061 -26.571  1.00  0.00     0.155 HD
ATOM      5  H12 UNL     1      60.174 -15.213 -27.392  1.00  0.00     0.155 HD
HETATM    6  C6  UNL     1      58.828 -12.210 -26.390  1.00  0.00     0.069 C 
HETATM    7  C7  UNL     1      57.363 -12.072 -26.032  1.00  0.00     0.110 C 
HETATM    8  C10 UNL     1      56.714 -13.318 -26.581  1.00  0.00     0.115 C 
HETATM    9 CL1  UNL     1      55.187 -12.939 -27.438  1.00  0.00    -0.123 Cl
ENDROOT
BRANCH   1  10
HETATM   10  C3  UNL     1      57.591 -13.150 -28.886  1.00  0.00     0.270 C 
HETATM   11  O2  UNL     1      58.578 -12.506 -29.331  1.00  0.00    -0.264 OA
BRANCH  10  12
HETATM   12  O1  UNL     1      56.438 -13.141 -29.658  1.00  0.00    -0.321 OA
BRANCH  12  13
HETATM   13  C2  UNL     1      56.196 -14.206 -30.582  1.00  0.00     0.174 C 
HETATM   14  C1  UNL     1      54.743 -14.335 -30.898  1.00  0.00     0.034 C 
ENDBRANCH  12  13
ENDBRANCH  10  12
ENDBRANCH   1  10
BRANCH   7  15
HETATM   15  C8  UNL     1      57.215 -11.962 -24.556  1.00  0.00     0.264 C 
HETATM   16  O3  UNL     1      57.420 -10.885 -23.936  1.00  0.00    -0.265 OA
BRANCH  15  17
HETATM   17  O4  UNL     1      56.844 -13.063 -23.837  1.00  0.00    -0.326 OA
HETATM   18  C9  UNL     1      57.674 -14.182 -23.589  1.00  0.00     0.213 C 
ENDBRANCH  15  17
ENDBRANCH   7  15
TORSDOF 5
ENDMDL
MODEL 4
REMARK VINA RESULT: -5.372389653      2.377      5.263
REMARK  5 active torsions:
REMARK  status: ('A' for Active; 'I' for Inactive)
REMARK    1  A    between atoms: C2_2  and  O1_3 
REMARK    2  A    between atoms: O1_3  and  C3_4 
REMARK    3  A    between atoms: C3_4  and  C4_6 
REMARK    4  A    between atoms: C7_12  and  C8_13 
REMARK    5  A    between atoms: C8_13  and  O4_15 
ROOT
HETATM    1  C4  UNL     1      57.102 -14.230 -27.135  1.00  0.00     0.149 C 
HETATM    2  C5  UNL     1      58.393 -14.491 -26.395  1.00  0.00    -0.004 C 
HETATM    3  N1  UNL     1      58.685 -15.528 -25.710  1.00  0.00    -0.405 N 
ATOM      4  H11 UNL     1      59.557 -15.704 -25.210  1.00  0.00     0.155 HD
ATOM      5  H12 UNL     1      58.113 -16.355 -25.537  1.00  0.00     0.155 HD
HETATM    6  C6  UNL     1      59.220 -13.293 -26.646  1.00  0.00     0.069 C 
HETATM    7  C7  UNL     1      58.271 -12.136 -26.874  1.00  0.00     0.110 C 
HETATM    8  C10 UNL     1      56.899 -12.763 -26.893  1.00  0.00     0.115 C 
HETATM    9 CL1  UNL     1      55.907 -12.132 -28.246  1.00  0.00    -0.123 Cl
ENDROOT
BRANCH   1  10
HETATM   10  C3  UNL     1      57.367 -14.515 -28.573  1.00  0.00     0.270 C 
HETATM   11  O2  UNL     1      58.505 -14.325 -29.080  1.00  0.00    -0.264 OA
BRANCH  10  12
HETATM   12  O1  UNL     1      56.380 -15.002 -29.418  1.00  0.00    -0.321 OA
BRANCH  12  13
HETATM   13  C2  UNL     1      56.182 -14.396 -30.699  1.00  0.00     0.174 C 
HETATM   14  C1  UNL     1      54.731 -14.213 -30.998  1.00  0.00     0.034 C 
ENDBRANCH  12  13
ENDBRANCH  10  12
ENDBRANCH   1  10
BRANCH   7  15
HETATM   15  C8  UNL     1      58.420 -11.139 -25.781  1.00  0.00     0.264 C 
HETATM   16  O3  UNL     1      59.429 -10.392 -25.683  1.00  0.00    -0.265 OA
BRANCH  15  17
HETATM   17  O4  UNL     1      57.433 -11.021 -24.844  1.00  0.00    -0.326 OA
HETATM   18  C9  UNL     1      57.370 -11.763 -23.640  1.00  0.00     0.213 C 
ENDBRANCH  15  17
ENDBRANCH   7  15
TORSDOF 5
ENDMDL
MODEL 5
REMARK VINA RESULT: -5.343393963      2.769      5.059
REMARK  5 active torsions:
REMARK  status: ('A' for Active; 'I' for Inactive)
REMARK    1  A    between atoms: C2_2  and  O1_3 
REMARK    2  A    between atoms: O1_3  and  C3_4 
REMARK    3  A    between atoms: C3_4  and  C4_6 
REMARK    4  A    between atoms: C7_12  and  C8_13 
REMARK    5  A    between atoms: C8_13  and  O4_15 
ROOT
HETATM    1  C4  UNL     1      57.015 -14.297 -27.123  1.00  0.00     0.149 C 
HETATM    2  C5  UNL     1      58.343 -14.543 -26.447  1.00  0.00    -0.004 C 
HETATM    3  N1  UNL     1      58.670 -15.564 -25.753  1.00  0.00    -0.405 N 
ATOM      4  H11 UNL     1      59.566 -15.730 -25.297  1.00  0.00     0.155 HD
ATOM      5  H12 UNL     1      58.107 -16.385 -25.530  1.00  0.00     0.155 HD
HETATM    6  C6  UNL     1      59.157 -13.354 -26.771  1.00  0.00     0.069 C 
HETATM    7  C7  UNL     1      58.198 -12.200 -26.977  1.00  0.00     0.110 C 
HETATM    8  C10 UNL     1      56.826 -12.824 -26.907  1.00  0.00     0.115 C 
HETATM    9 CL1  UNL     1      55.765 -12.223 -28.220  1.00  0.00    -0.123 Cl
ENDROOT
BRANCH   1  10
HETATM   10  C3  UNL     1      57.202 -14.618 -28.566  1.00  0.00     0.270 C 
HETATM   11  O2  UNL     1      56.242 -15.018 -29.278  1.00  0.00    -0.264 OA
BRANCH  10  12
HETATM   12  O1  UNL     1      58.434 -14.491 -29.191  1.00  0.00    -0.321 OA
BRANCH  12  13
HETATM   13  C2  UNL     1      58.512 -14.546 -30.619  1.00  0.00     0.174 C 
HETATM   14  C1  UNL     1      58.294 -13.202 -31.230  1.00  0.00     0.034 C 
ENDBRANCH  12  13
ENDBRANCH  10  12
ENDBRANCH   1  10
BRANCH   7  15
HETATM   15  C8  UNL     1      58.406 -11.177 -25.918  1.00  0.00     0.264 C 
HETATM   16  O3  UNL     1      59.435 -10.451 -25.874  1.00  0.00    -0.265 OA
BRANCH  15  17
HETATM   17  O4  UNL     1      57.455 -11.011 -24.951  1.00  0.00    -0.326 OA
HETATM   18  C9  UNL     1      57.402 -11.736 -23.737  1.00  0.00     0.213 C 
ENDBRANCH  15  17
ENDBRANCH   7  15
TORSDOF 5
ENDMDL
