MODEL 1
REMARK VINA RESULT: -5.250252419      0.000      0.000
REMARK  4 active torsions:
REMARK  status: ('A' for Active; 'I' for Inactive)
REMARK    1  A    between atoms: S1_2  and  C2_3 
REMARK    2  A    between atoms: C2_3  and  S2_7 
REMARK    3  A    between atoms: S2_7  and  C3_8 
REMARK    4  A    between atoms: C3_8  and  C4_9 
REMARK       I    between atoms: C4_9  and  N2_11 
ROOT
HETATM    1  S2  UNL     1       1.735  21.566  14.213  1.00  0.00    -0.096 SA
ENDROOT
BRANCH   1   2
HETATM    2  C2  UNL     1       1.781  22.928  15.362  1.00  0.00     0.101 C 
HETATM    3  N1  UNL     1       1.159  22.787  16.466  1.00  0.00    -0.388 N 
ATOM      4  H12 UNL     1       1.186  23.567  17.123  1.00  0.00     0.157 HD
ATOM      5  H11 UNL     1       0.650  21.934  16.699  1.00  0.00     0.157 HD
BRANCH   2   6
HETATM    6  S1  UNL     1       2.673  24.423  14.952  1.00  0.00    -0.110 SA
HETATM    7  C1  UNL     1       3.992  24.101  13.766  1.00  0.00     0.097 C 
ENDBRANCH   2   6
ENDBRANCH   1   2
BRANCH   1   8
HETATM    8  C3  UNL     1       3.300  20.652  14.237  1.00  0.00     0.185 C 
BRANCH   8   9
HETATM    9  C4  UNL     1       3.077  19.194  14.083  1.00  0.00     0.243 C 
HETATM   10  O1  UNL     1       1.929  18.764  13.792  1.00  0.00    -0.271 OA
HETATM   11  N2  UNL     1       4.191  18.330  14.272  1.00  0.00    -0.264 N 
HETATM   12  C5  UNL     1       3.938  16.894  14.113  1.00  0.00     0.174 C 
HETATM   13 CL1  UNL     1       5.756  18.938  14.669  1.00  0.00     0.015 Cl
ENDBRANCH   8   9
ENDBRANCH   1   8
TORSDOF 4
ENDMDL
MODEL 2
REMARK VINA RESULT: -4.947271643      1.649      1.655
REMARK  4 active torsions:
REMARK  status: ('A' for Active; 'I' for Inactive)
REMARK    1  A    between atoms: S1_2  and  C2_3 
REMARK    2  A    between atoms: C2_3  and  S2_7 
REMARK    3  A    between atoms: S2_7  and  C3_8 
REMARK    4  A    between atoms: C3_8  and  C4_9 
REMARK       I    between atoms: C4_9  and  N2_11 
ROOT
HETATM    1  S2  UNL     1       1.814  21.571  13.888  1.00  0.00    -0.096 SA
ENDROOT
BRANCH   1   2
HETATM    2  C2  UNL     1       1.856  22.823  15.157  1.00  0.00     0.101 C 
HETATM    3  N1  UNL     1       1.214  22.589  16.233  1.00  0.00    -0.388 N 
ATOM      4  H12 UNL     1       1.239  23.306  16.959  1.00  0.00     0.157 HD
ATOM      5  H11 UNL     1       0.692  21.725  16.380  1.00  0.00     0.157 HD
BRANCH   2   6
HETATM    6  S1  UNL     1       2.771  24.337  14.899  1.00  0.00    -0.110 SA
HETATM    7  C1  UNL     1       4.148  24.093  13.763  1.00  0.00     0.097 C 
ENDBRANCH   2   6
ENDBRANCH   1   2
BRANCH   1   8
HETATM    8  C3  UNL     1       2.307  19.960  14.557  1.00  0.00     0.185 C 
BRANCH   8   9
HETATM    9  C4  UNL     1       3.783  19.809  14.566  1.00  0.00     0.243 C 
HETATM   10  O1  UNL     1       4.515  20.821  14.730  1.00  0.00    -0.271 OA
HETATM   11  N2  UNL     1       4.314  18.502  14.388  1.00  0.00    -0.264 N 
HETATM   12  C5  UNL     1       5.776  18.385  14.402  1.00  0.00     0.174 C 
HETATM   13 CL1  UNL     1       3.295  17.128  14.165  1.00  0.00     0.015 Cl
ENDBRANCH   8   9
ENDBRANCH   1   8
TORSDOF 4
ENDMDL
MODEL 3
REMARK VINA RESULT: -4.741761468      4.238      6.264
REMARK  4 active torsions:
REMARK  status: ('A' for Active; 'I' for Inactive)
REMARK    1  A    between atoms: S1_2  and  C2_3 
REMARK    2  A    between atoms: C2_3  and  S2_7 
REMARK    3  A    between atoms: S2_7  and  C3_8 
REMARK    4  A    between atoms: C3_8  and  C4_9 
REMARK       I    between atoms: C4_9  and  N2_11 
ROOT
HETATM    1  S2  UNL     1       1.662  16.582  12.077  1.00  0.00    -0.096 SA
ENDROOT
BRANCH   1   2
HETATM    2  C2  UNL     1       0.055  15.852  11.820  1.00  0.00     0.101 C 
HETATM    3  N1  UNL     1      -0.579  15.450  12.850  1.00  0.00    -0.388 N 
ATOM      4  H12 UNL     1      -1.498  15.033  12.703  1.00  0.00     0.157 HD
ATOM      5  H11 UNL     1      -0.197  15.536  13.793  1.00  0.00     0.157 HD
BRANCH   2   6
HETATM    6  S1  UNL     1      -0.613  15.704  10.168  1.00  0.00    -0.110 SA
HETATM    7  C1  UNL     1       0.355  14.563   9.163  1.00  0.00     0.097 C 
ENDBRANCH   2   6
ENDBRANCH   1   2
BRANCH   1   8
HETATM    8  C3  UNL     1       1.995  16.796  13.846  1.00  0.00     0.185 C 
BRANCH   8   9
HETATM    9  C4  UNL     1       2.661  18.093  14.118  1.00  0.00     0.243 C 
HETATM   10  O1  UNL     1       1.986  19.156  14.111  1.00  0.00    -0.271 OA
HETATM   11  N2  UNL     1       4.058  18.077  14.379  1.00  0.00    -0.264 N 
HETATM   12  C5  UNL     1       4.688  19.375  14.644  1.00  0.00     0.174 C 
HETATM   13 CL1  UNL     1       4.967  16.609  14.384  1.00  0.00     0.015 Cl
ENDBRANCH   8   9
ENDBRANCH   1   8
TORSDOF 4
ENDMDL
MODEL 4
REMARK VINA RESULT: -4.741414978      2.846      5.329
REMARK  4 active torsions:
REMARK  status: ('A' for Active; 'I' for Inactive)
REMARK    1  A    between atoms: S1_2  and  C2_3 
REMARK    2  A    between atoms: C2_3  and  S2_7 
REMARK    3  A    between atoms: S2_7  and  C3_8 
REMARK    4  A    between atoms: C3_8  and  C4_9 
REMARK       I    between atoms: C4_9  and  N2_11 
ROOT
HETATM    1  S2  UNL     1       2.350  19.621  13.972  1.00  0.00    -0.096 SA
ENDROOT
BRANCH   1   2
HETATM    2  C2  UNL     1       3.397  18.208  14.266  1.00  0.00     0.101 C 
HETATM    3  N1  UNL     1       2.832  17.071  14.374  1.00  0.00    -0.388 N 
ATOM      4  H12 UNL     1       3.432  16.263  14.542  1.00  0.00     0.157 HD
ATOM      5  H11 UNL     1       1.822  16.954  14.297  1.00  0.00     0.157 HD
BRANCH   2   6
HETATM    6  S1  UNL     1       5.169  18.412  14.400  1.00  0.00    -0.110 SA
HETATM    7  C1  UNL     1       6.018  16.822  14.421  1.00  0.00     0.097 C 
ENDBRANCH   2   6
ENDBRANCH   1   2
BRANCH   1   8
HETATM    8  C3  UNL     1       3.320  21.153  13.977  1.00  0.00     0.185 C 
BRANCH   8   9
HETATM    9  C4  UNL     1       2.551  22.278  14.561  1.00  0.00     0.243 C 
HETATM   10  O1  UNL     1       1.430  22.060  15.093  1.00  0.00    -0.271 OA
HETATM   11  N2  UNL     1       3.124  23.577  14.493  1.00  0.00    -0.264 N 
HETATM   12  C5  UNL     1       2.339  24.668  15.079  1.00  0.00     0.174 C 
HETATM   13 CL1  UNL     1       4.661  23.856  13.760  1.00  0.00     0.015 Cl
ENDBRANCH   8   9
ENDBRANCH   1   8
TORSDOF 4
ENDMDL
MODEL 5
REMARK VINA RESULT: -4.684887138      3.621      5.797
REMARK  4 active torsions:
REMARK  status: ('A' for Active; 'I' for Inactive)
REMARK    1  A    between atoms: S1_2  and  C2_3 
REMARK    2  A    between atoms: C2_3  and  S2_7 
REMARK    3  A    between atoms: S2_7  and  C3_8 
REMARK    4  A    between atoms: C3_8  and  C4_9 
REMARK       I    between atoms: C4_9  and  N2_11 
ROOT
HETATM    1  S2  UNL     1       3.118  18.173  13.663  1.00  0.00    -0.096 SA
ENDROOT
BRANCH   1   2
HETATM    2  C2  UNL     1       1.882  16.922  13.372  1.00  0.00     0.101 C 
HETATM    3  N1  UNL     1       1.250  16.474  14.384  1.00  0.00    -0.388 N 
ATOM      4  H12 UNL     1       0.544  15.758  14.217  1.00  0.00     0.157 HD
ATOM      5  H11 UNL     1       1.431  16.808  15.331  1.00  0.00     0.157 HD
BRANCH   2   6
HETATM    6  S1  UNL     1       1.565  16.337  11.712  1.00  0.00    -0.110 SA
HETATM    7  C1  UNL     1      -0.169  15.899  11.485  1.00  0.00     0.097 C 
ENDBRANCH   2   6
ENDBRANCH   1   2
BRANCH   1   8
HETATM    8  C3  UNL     1       2.358  19.692  14.297  1.00  0.00     0.185 C 
BRANCH   8   9
HETATM    9  C4  UNL     1       3.342  20.799  14.370  1.00  0.00     0.243 C 
HETATM   10  O1  UNL     1       4.547  20.549  14.641  1.00  0.00    -0.271 OA
HETATM   11  N2  UNL     1       2.872  22.119  14.126  1.00  0.00    -0.264 N 
HETATM   12  C5  UNL     1       3.869  23.191  14.206  1.00  0.00     0.174 C 
HETATM   13 CL1  UNL     1       1.218  22.442  13.757  1.00  0.00     0.015 Cl
ENDBRANCH   8   9
ENDBRANCH   1   8
TORSDOF 4
ENDMDL
