MODEL 1
REMARK VINA RESULT: -5.469598217      0.000      0.000
REMARK  3 active torsions:
REMARK  status: ('A' for Active; 'I' for Inactive)
REMARK    1  A    between atoms: C6_6  and  C7_7 
REMARK    2  A    between atoms: C7_7  and  N1_8 
REMARK    3  A    between atoms: N2_12  and  O3_14 
ROOT
HETATM    1  C1  UNL     1     -20.214  -0.272  25.519  1.00  0.00     0.015 C 
HETATM    2  C2  UNL     1     -21.382  -0.746  24.639  1.00  0.00    -0.043 C 
HETATM    3  C3  UNL     1     -22.601  -0.004  25.207  1.00  0.00     0.015 C 
HETATM    4  C4  UNL     1     -21.132  -0.383  23.232  1.00  0.00     0.010 C 
HETATM    5  C5  UNL     1     -21.163  -1.454  22.228  1.00  0.00     0.013 C 
HETATM    6  C6  UNL     1     -22.050  -2.607  22.480  1.00  0.00     0.057 C 
HETATM    7  C8  UNL     1     -22.460  -2.774  23.891  1.00  0.00     0.016 C 
HETATM    8  N2  UNL     1     -23.563  -3.399  24.201  1.00  0.00    -0.277 N 
ATOM      9  H2  UNL     1     -24.161  -3.782  23.469  1.00  0.00     0.193 HD
HETATM   10  C9  UNL     1     -21.564  -2.202  24.914  1.00  0.00     0.063 C 
ENDROOT
BRANCH   6  11
HETATM   11  C7  UNL     1     -21.340  -3.907  22.081  1.00  0.00     0.211 C 
BRANCH  11  12
HETATM   12  N1  UNL     1     -21.873  -4.393  20.824  1.00  0.00    -0.155 N 
HETATM   13  O1  UNL     1     -22.982  -4.977  20.735  1.00  0.00    -0.537 OA
HETATM   14  O2  UNL     1     -21.183  -4.241  19.638  1.00  0.00    -0.537 OA
ENDBRANCH  11  12
ENDBRANCH   6  11
BRANCH   8  15
HETATM   15  O3  UNL     1     -23.910  -3.533  25.523  1.00  0.00    -0.290 OA
ATOM     16  H3  UNL     1     -23.818  -2.788  26.105  1.00  0.00     0.244 HD
ENDBRANCH   8  15
TORSDOF 3
ENDMDL
MODEL 2
REMARK VINA RESULT: -5.138594826      2.876      4.713
REMARK  3 active torsions:
REMARK  status: ('A' for Active; 'I' for Inactive)
REMARK    1  A    between atoms: C6_6  and  C7_7 
REMARK    2  A    between atoms: C7_7  and  N1_8 
REMARK    3  A    between atoms: N2_12  and  O3_14 
ROOT
HETATM    1  C1  UNL     1     -23.660  -5.090  20.986  1.00  0.00     0.015 C 
HETATM    2  C2  UNL     1     -22.403  -4.704  21.782  1.00  0.00    -0.043 C 
HETATM    3  C3  UNL     1     -21.487  -5.930  21.648  1.00  0.00     0.015 C 
HETATM    4  C4  UNL     1     -21.787  -3.499  21.196  1.00  0.00     0.010 C 
HETATM    5  C5  UNL     1     -21.562  -2.344  22.074  1.00  0.00     0.013 C 
HETATM    6  C6  UNL     1     -21.303  -2.606  23.504  1.00  0.00     0.057 C 
HETATM    7  C8  UNL     1     -21.734  -3.940  23.974  1.00  0.00     0.016 C 
HETATM    8  N2  UNL     1     -21.177  -4.499  25.013  1.00  0.00    -0.277 N 
ATOM      9  H2  UNL     1     -20.431  -4.021  25.518  1.00  0.00     0.193 HD
HETATM   10  C9  UNL     1     -22.816  -4.595  23.212  1.00  0.00     0.063 C 
ENDROOT
BRANCH   6  11
HETATM   11  C7  UNL     1     -22.053  -1.583  24.365  1.00  0.00     0.211 C 
BRANCH  11  12
HETATM   12  N1  UNL     1     -21.194  -0.449  24.641  1.00  0.00    -0.155 N 
HETATM   13  O1  UNL     1     -20.403  -0.415  25.617  1.00  0.00    -0.537 OA
HETATM   14  O2  UNL     1     -21.198   0.674  23.838  1.00  0.00    -0.537 OA
ENDBRANCH  11  12
ENDBRANCH   6  11
BRANCH   8  15
HETATM   15  O3  UNL     1     -21.605  -5.739  25.419  1.00  0.00    -0.290 OA
ATOM     16  H3  UNL     1     -22.385  -5.808  25.957  1.00  0.00     0.244 HD
ENDBRANCH   8  15
TORSDOF 3
ENDMDL
MODEL 3
REMARK VINA RESULT: -4.342093014      2.704      4.748
REMARK  3 active torsions:
REMARK  status: ('A' for Active; 'I' for Inactive)
REMARK    1  A    between atoms: C6_6  and  C7_7 
REMARK    2  A    between atoms: C7_7  and  N1_8 
REMARK    3  A    between atoms: N2_12  and  O3_14 
ROOT
HETATM    1  C1  UNL     1     -21.722  -5.523  24.779  1.00  0.00     0.015 C 
HETATM    2  C2  UNL     1     -22.329  -4.415  23.903  1.00  0.00    -0.043 C 
HETATM    3  C3  UNL     1     -23.379  -5.147  23.054  1.00  0.00     0.015 C 
HETATM    4  C4  UNL     1     -22.944  -3.380  24.754  1.00  0.00     0.010 C 
HETATM    5  C5  UNL     1     -22.503  -1.991  24.576  1.00  0.00     0.013 C 
HETATM    6  C6  UNL     1     -22.054  -1.578  23.232  1.00  0.00     0.057 C 
HETATM    7  C8  UNL     1     -21.675  -2.695  22.339  1.00  0.00     0.016 C 
HETATM    8  N2  UNL     1     -21.723  -2.563  21.041  1.00  0.00    -0.277 N 
ATOM      9  H2  UNL     1     -22.026  -1.683  20.623  1.00  0.00     0.193 HD
HETATM   10  C9  UNL     1     -21.246  -3.948  22.989  1.00  0.00     0.063 C 
ENDROOT
BRANCH   6  11
HETATM   11  C7  UNL     1     -20.815  -0.682  23.350  1.00  0.00     0.211 C 
BRANCH  11  12
HETATM   12  N1  UNL     1     -20.974   0.233  24.462  1.00  0.00    -0.155 N 
HETATM   13  O1  UNL     1     -21.788   1.190  24.446  1.00  0.00    -0.537 OA
HETATM   14  O2  UNL     1     -20.229   0.104  25.617  1.00  0.00    -0.537 OA
ENDBRANCH  11  12
ENDBRANCH   6  11
BRANCH   8  15
HETATM   15  O3  UNL     1     -21.364  -3.623  20.245  1.00  0.00    -0.290 OA
ATOM     16  H3  UNL     1     -21.082  -3.459  19.353  1.00  0.00     0.244 HD
ENDBRANCH   8  15
TORSDOF 3
ENDMDL
MODEL 4
REMARK VINA RESULT: -4.030687084      2.862      4.683
REMARK  3 active torsions:
REMARK  status: ('A' for Active; 'I' for Inactive)
REMARK    1  A    between atoms: C6_6  and  C7_7 
REMARK    2  A    between atoms: C7_7  and  N1_8 
REMARK    3  A    between atoms: N2_12  and  O3_14 
ROOT
HETATM    1  C1  UNL     1     -22.964  -4.442  20.880  1.00  0.00     0.015 C 
HETATM    2  C2  UNL     1     -22.363  -4.159  22.266  1.00  0.00    -0.043 C 
HETATM    3  C3  UNL     1     -22.075  -5.555  22.838  1.00  0.00     0.015 C 
HETATM    4  C4  UNL     1     -21.129  -3.364  22.127  1.00  0.00     0.010 C 
HETATM    5  C5  UNL     1     -21.042  -2.094  22.860  1.00  0.00     0.013 C 
HETATM    6  C6  UNL     1     -21.774  -1.986  24.138  1.00  0.00     0.057 C 
HETATM    7  C8  UNL     1     -22.855  -2.979  24.316  1.00  0.00     0.016 C 
HETATM    8  N2  UNL     1     -23.255  -3.330  25.507  1.00  0.00    -0.277 N 
ATOM      9  H2  UNL     1     -22.824  -2.922  26.337  1.00  0.00     0.193 HD
HETATM   10  C9  UNL     1     -23.447  -3.543  23.087  1.00  0.00     0.063 C 
ENDROOT
BRANCH   6  11
HETATM   11  C7  UNL     1     -22.435  -0.606  24.243  1.00  0.00     0.211 C 
BRANCH  11  12
HETATM   12  N1  UNL     1     -21.716   0.213  25.197  1.00  0.00    -0.155 N 
HETATM   13  O1  UNL     1     -20.610  -0.126  25.689  1.00  0.00    -0.537 OA
HETATM   14  O2  UNL     1     -22.211   1.427  25.628  1.00  0.00    -0.537 OA
ENDBRANCH  11  12
ENDBRANCH   6  11
BRANCH   8  15
HETATM   15  O3  UNL     1     -24.262  -4.256  25.632  1.00  0.00    -0.290 OA
ATOM     16  H3  UNL     1     -25.129  -4.045  25.307  1.00  0.00     0.244 HD
ENDBRANCH   8  15
TORSDOF 3
ENDMDL
MODEL 5
REMARK VINA RESULT: -3.516629071      3.294      4.707
REMARK  3 active torsions:
REMARK  status: ('A' for Active; 'I' for Inactive)
REMARK    1  A    between atoms: C6_6  and  C7_7 
REMARK    2  A    between atoms: C7_7  and  N1_8 
REMARK    3  A    between atoms: N2_12  and  O3_14 
ROOT
HETATM    1  C1  UNL     1     -20.979  -4.173  20.441  1.00  0.00     0.015 C 
HETATM    2  C2  UNL     1     -21.904  -3.825  21.619  1.00  0.00    -0.043 C 
HETATM    3  C3  UNL     1     -22.475  -2.448  21.247  1.00  0.00     0.015 C 
HETATM    4  C4  UNL     1     -22.966  -4.839  21.742  1.00  0.00     0.010 C 
HETATM    5  C5  UNL     1     -23.123  -5.520  23.033  1.00  0.00     0.013 C 
HETATM    6  C6  UNL     1     -22.761  -4.772  24.253  1.00  0.00     0.057 C 
HETATM    7  C8  UNL     1     -21.874  -3.611  24.024  1.00  0.00     0.016 C 
HETATM    8  N2  UNL     1     -21.852  -2.608  24.859  1.00  0.00    -0.277 N 
ATOM      9  H2  UNL     1     -22.449  -2.612  25.686  1.00  0.00     0.193 HD
HETATM   10  C9  UNL     1     -21.029  -3.649  22.815  1.00  0.00     0.063 C 
ENDROOT
BRANCH   6  11
HETATM   11  C7  UNL     1     -22.018  -5.695  25.228  1.00  0.00     0.211 C 
BRANCH  11  12
HETATM   12  N1  UNL     1     -22.921  -6.136  26.272  1.00  0.00    -0.155 N 
HETATM   13  O1  UNL     1     -24.142  -5.844  26.284  1.00  0.00    -0.537 OA
HETATM   14  O2  UNL     1     -22.484  -6.912  27.326  1.00  0.00    -0.537 OA
ENDBRANCH  11  12
ENDBRANCH   6  11
BRANCH   8  15
HETATM   15  O3  UNL     1     -21.016  -1.547  24.612  1.00  0.00    -0.290 OA
ATOM     16  H3  UNL     1     -20.094  -1.711  24.450  1.00  0.00     0.244 HD
ENDBRANCH   8  15
TORSDOF 3
ENDMDL
