MODEL 1
REMARK VINA RESULT: -5.726068173      0.000      0.000
REMARK  4 active torsions:
REMARK  status: ('A' for Active; 'I' for Inactive)
REMARK    1  A    between atoms: C2_2  and  N1_3 
REMARK    2  A    between atoms: N1_3  and  C3_5 
REMARK    3  A    between atoms: C4_8  and  N3_9 
REMARK    4  A    between atoms: N3_9  and  C5_11 
ROOT
HETATM    1  C3  UNL     1     -21.940  -2.771  22.162  1.00  0.00     0.153 A 
HETATM    2  N2  UNL     1     -21.175  -1.744  22.499  1.00  0.00    -0.316 N 
ATOM      3  H2  UNL     1     -20.519  -1.354  21.823  1.00  0.00     0.170 HD
HETATM    4  C4  UNL     1     -21.261  -1.227  23.705  1.00  0.00     0.155 A 
HETATM    5  S1  UNL     1     -22.384  -1.941  24.775  1.00  0.00    -0.013 SA
HETATM    6  S2  UNL     1     -23.006  -3.357  23.360  1.00  0.00    -0.013 SA
ENDROOT
BRANCH   4   7
HETATM    7  N3  UNL     1     -20.510  -0.198  24.078  1.00  0.00    -0.340 N 
ATOM      8  H3  UNL     1     -20.044   0.363  23.365  1.00  0.00     0.164 HD
BRANCH   7   9
HETATM    9  C5  UNL     1     -20.341   0.142  25.447  1.00  0.00     0.266 C 
HETATM   10  C6  UNL     1     -20.714   1.576  25.765  1.00  0.00     0.069 C 
HETATM   11  F1  UNL     1     -19.024  -0.125  25.817  1.00  0.00    -0.227 F 
ENDBRANCH   7   9
ENDBRANCH   4   7
BRANCH   1  12
HETATM   12  N1  UNL     1     -21.877  -3.317  20.950  1.00  0.00    -0.370 N 
ATOM     13  H1  UNL     1     -22.228  -2.799  20.145  1.00  0.00     0.161 HD
BRANCH  12  14
HETATM   14  C2  UNL     1     -21.328  -4.613  20.764  1.00  0.00     0.117 C 
HETATM   15  C1  UNL     1     -22.439  -5.662  20.751  1.00  0.00     0.026 C 
ENDBRANCH  12  14
ENDBRANCH   1  12
TORSDOF 4
ENDMDL
MODEL 2
REMARK VINA RESULT: -5.646713966      1.271      1.271
REMARK  4 active torsions:
REMARK  status: ('A' for Active; 'I' for Inactive)
REMARK    1  A    between atoms: C2_2  and  N1_3 
REMARK    2  A    between atoms: N1_3  and  C3_5 
REMARK    3  A    between atoms: C4_8  and  N3_9 
REMARK    4  A    between atoms: N3_9  and  C5_11 
ROOT
HETATM    1  C3  UNL     1     -21.941  -2.703  22.224  1.00  0.00     0.153 A 
HETATM    2  N2  UNL     1     -21.091  -1.737  22.536  1.00  0.00    -0.316 N 
ATOM      3  H2  UNL     1     -20.414  -1.412  21.846  1.00  0.00     0.170 HD
HETATM    4  C4  UNL     1     -21.118  -1.196  23.734  1.00  0.00     0.155 A 
HETATM    5  S1  UNL     1     -22.283  -1.800  24.829  1.00  0.00    -0.013 SA
HETATM    6  S2  UNL     1     -23.036  -3.181  23.444  1.00  0.00    -0.013 SA
ENDROOT
BRANCH   4   7
HETATM    7  N3  UNL     1     -20.282  -0.226  24.081  1.00  0.00    -0.340 N 
ATOM      8  H3  UNL     1     -19.319  -0.462  24.322  1.00  0.00     0.164 HD
BRANCH   7   9
HETATM    9  C5  UNL     1     -20.695   1.133  24.125  1.00  0.00     0.266 C 
HETATM   10  C6  UNL     1     -21.050   1.612  25.518  1.00  0.00     0.069 C 
HETATM   11  F1  UNL     1     -21.763   1.306  23.249  1.00  0.00    -0.227 F 
ENDBRANCH   7   9
ENDBRANCH   4   7
BRANCH   1  12
HETATM   12  N1  UNL     1     -21.939  -3.271  21.021  1.00  0.00    -0.370 N 
ATOM     13  H1  UNL     1     -22.335  -2.769  20.226  1.00  0.00     0.161 HD
BRANCH  12  14
HETATM   14  C2  UNL     1     -21.393  -4.568  20.830  1.00  0.00     0.117 C 
HETATM   15  C1  UNL     1     -22.501  -5.619  20.859  1.00  0.00     0.026 C 
ENDBRANCH  12  14
ENDBRANCH   1  12
TORSDOF 4
ENDMDL
MODEL 3
REMARK VINA RESULT: -5.371410036      2.346      5.556
REMARK  4 active torsions:
REMARK  status: ('A' for Active; 'I' for Inactive)
REMARK    1  A    between atoms: C2_2  and  N1_3 
REMARK    2  A    between atoms: N1_3  and  C3_5 
REMARK    3  A    between atoms: C4_8  and  N3_9 
REMARK    4  A    between atoms: N3_9  and  C5_11 
ROOT
HETATM    1  C3  UNL     1     -21.354  -0.857  23.708  1.00  0.00     0.153 A 
HETATM    2  N2  UNL     1     -20.964  -1.715  22.778  1.00  0.00    -0.316 N 
ATOM      3  H2  UNL     1     -20.313  -1.418  22.051  1.00  0.00     0.170 HD
HETATM    4  C4  UNL     1     -21.414  -2.950  22.792  1.00  0.00     0.155 A 
HETATM    5  S1  UNL     1     -22.500  -3.365  24.044  1.00  0.00    -0.013 SA
HETATM    6  S2  UNL     1     -22.445  -1.445  24.883  1.00  0.00    -0.013 SA
ENDROOT
BRANCH   4   7
HETATM    7  N3  UNL     1     -21.045  -3.838  21.876  1.00  0.00    -0.340 N 
ATOM      8  H3  UNL     1     -20.109  -4.241  21.923  1.00  0.00     0.164 HD
BRANCH   7   9
HETATM    9  C5  UNL     1     -21.921  -4.239  20.833  1.00  0.00     0.266 C 
HETATM   10  C6  UNL     1     -22.555  -5.596  21.064  1.00  0.00     0.069 C 
HETATM   11  F1  UNL     1     -21.226  -4.211  19.626  1.00  0.00    -0.227 F 
ENDBRANCH   7   9
ENDBRANCH   4   7
BRANCH   1  12
HETATM   12  N1  UNL     1     -20.917   0.400  23.723  1.00  0.00    -0.370 N 
ATOM     13  H1  UNL     1     -21.181   1.034  22.969  1.00  0.00     0.161 HD
BRANCH  12  14
HETATM   14  C2  UNL     1     -20.087   0.869  24.775  1.00  0.00     0.117 C 
HETATM   15  C1  UNL     1     -20.859   1.841  25.666  1.00  0.00     0.026 C 
ENDBRANCH  12  14
ENDBRANCH   1  12
TORSDOF 4
ENDMDL
MODEL 4
REMARK VINA RESULT: -5.221373633      2.473      5.671
REMARK  4 active torsions:
REMARK  status: ('A' for Active; 'I' for Inactive)
REMARK    1  A    between atoms: C2_2  and  N1_3 
REMARK    2  A    between atoms: N1_3  and  C3_5 
REMARK    3  A    between atoms: C4_8  and  N3_9 
REMARK    4  A    between atoms: N3_9  and  C5_11 
ROOT
HETATM    1  C3  UNL     1     -21.217  -1.035  23.752  1.00  0.00     0.153 A 
HETATM    2  N2  UNL     1     -21.132  -1.892  22.746  1.00  0.00    -0.316 N 
ATOM      3  H2  UNL     1     -20.474  -1.722  21.986  1.00  0.00     0.170 HD
HETATM    4  C4  UNL     1     -21.896  -2.963  22.727  1.00  0.00     0.155 A 
HETATM    5  S1  UNL     1     -22.970  -3.171  24.039  1.00  0.00    -0.013 SA
HETATM    6  S2  UNL     1     -22.348  -1.403  24.978  1.00  0.00    -0.013 SA
ENDROOT
BRANCH   4   7
HETATM    7  N3  UNL     1     -21.837  -3.844  21.735  1.00  0.00    -0.340 N 
ATOM      8  H3  UNL     1     -21.166  -3.700  20.981  1.00  0.00     0.164 HD
BRANCH   7   9
HETATM    9  C5  UNL     1     -22.686  -4.982  21.700  1.00  0.00     0.266 C 
HETATM   10  C6  UNL     1     -22.025  -6.212  21.112  1.00  0.00     0.069 C 
HETATM   11  F1  UNL     1     -23.847  -4.655  21.002  1.00  0.00    -0.227 F 
ENDBRANCH   7   9
ENDBRANCH   4   7
BRANCH   1  12
HETATM   12  N1  UNL     1     -20.460   0.058  23.801  1.00  0.00    -0.370 N 
ATOM     13  H1  UNL     1     -20.229   0.550  22.938  1.00  0.00     0.161 HD
BRANCH  12  14
HETATM   14  C2  UNL     1     -19.969   0.547  25.040  1.00  0.00     0.117 C 
HETATM   15  C1  UNL     1     -20.759   1.781  25.474  1.00  0.00     0.026 C 
ENDBRANCH  12  14
ENDBRANCH   1  12
TORSDOF 4
ENDMDL
MODEL 5
REMARK VINA RESULT: -5.219922450      2.242      2.285
REMARK  4 active torsions:
REMARK  status: ('A' for Active; 'I' for Inactive)
REMARK    1  A    between atoms: C2_2  and  N1_3 
REMARK    2  A    between atoms: N1_3  and  C3_5 
REMARK    3  A    between atoms: C4_8  and  N3_9 
REMARK    4  A    between atoms: N3_9  and  C5_11 
ROOT
HETATM    1  C3  UNL     1     -22.275  -3.101  23.666  1.00  0.00     0.153 A 
HETATM    2  N2  UNL     1     -22.432  -2.279  24.692  1.00  0.00    -0.316 N 
ATOM      3  H2  UNL     1     -22.924  -2.595  25.528  1.00  0.00     0.170 HD
HETATM    4  C4  UNL     1     -21.955  -1.055  24.634  1.00  0.00     0.155 A 
HETATM    5  S1  UNL     1     -21.146  -0.606  23.198  1.00  0.00    -0.013 SA
HETATM    6  S2  UNL     1     -21.441  -2.482  22.310  1.00  0.00    -0.013 SA
ENDROOT
BRANCH   4   7
HETATM    7  N3  UNL     1     -22.093  -0.203  25.644  1.00  0.00    -0.340 N 
ATOM      8  H3  UNL     1     -22.559  -0.514  26.496  1.00  0.00     0.164 HD
BRANCH   7   9
HETATM    9  C5  UNL     1     -21.609   1.130  25.564  1.00  0.00     0.266 C 
HETATM   10  C6  UNL     1     -20.311   1.347  26.316  1.00  0.00     0.069 C 
HETATM   11  F1  UNL     1     -22.601   1.996  26.018  1.00  0.00    -0.227 F 
ENDBRANCH   7   9
ENDBRANCH   4   7
BRANCH   1  12
HETATM   12  N1  UNL     1     -22.746  -4.345  23.693  1.00  0.00    -0.370 N 
ATOM     13  H1  UNL     1     -23.603  -4.549  24.208  1.00  0.00     0.161 HD
BRANCH  12  14
HETATM   14  C2  UNL     1     -22.071  -5.392  23.012  1.00  0.00     0.117 C 
HETATM   15  C1  UNL     1     -22.794  -5.731  21.709  1.00  0.00     0.026 C 
ENDBRANCH  12  14
ENDBRANCH   1  12
TORSDOF 4
ENDMDL
