MODEL 1
REMARK VINA RESULT: -3.711406739      0.000      0.000
REMARK  3 active torsions:
REMARK  status: ('A' for Active; 'I' for Inactive)
REMARK    1  A    between atoms: C1_2  and  C2_3 
REMARK    2  A    between atoms: C2_3  and  O1_4 
REMARK    3  A    between atoms: O1_4  and  C3_5 
ROOT
HETATM    1  C3  UNL     1     -22.451  -4.039  24.018  1.00  0.00     0.271 C 
HETATM    2  N1  UNL     1     -21.389  -3.412  24.775  1.00  0.00    -0.309 N 
ATOM      3  H1  UNL     1     -20.822  -4.059  25.324  1.00  0.00     0.182 HD
HETATM    4  N2  UNL     1     -21.051  -2.231  24.871  1.00  0.00    -0.338 N 
ATOM      5  H2  UNL     1     -20.257  -2.022  25.476  1.00  0.00     0.179 HD
HETATM    6  C4  UNL     1     -21.678  -1.123  24.207  1.00  0.00     0.139 C 
HETATM    7  C5  UNL     1     -21.893  -1.387  22.739  1.00  0.00     0.024 C 
HETATM    8  C6  UNL     1     -21.265  -2.675  22.281  1.00  0.00     0.045 C 
HETATM    9  C7  UNL     1     -22.084  -3.888  22.565  1.00  0.00     0.170 C 
HETATM   10  C8  UNL     1     -23.274  -3.923  21.649  1.00  0.00     0.045 C 
HETATM   11  C9  UNL     1     -23.151  -5.230  20.889  1.00  0.00     0.030 C 
HETATM   12  C10 UNL     1     -22.307  -6.047  21.850  1.00  0.00     0.233 C 
HETATM   13  N3  UNL     1     -21.286  -5.049  22.207  1.00  0.00    -0.062 N 
ATOM     14  H31 UNL     1     -20.625  -5.351  22.923  1.00  0.00     0.278 HD
ATOM     15  H32 UNL     1     -20.584  -4.880  21.486  1.00  0.00     0.278 HD
ENDROOT
BRANCH   1  16
HETATM   16  O1  UNL     1     -23.654  -3.469  24.344  1.00  0.00    -0.361 OA
BRANCH  16  17
HETATM   17  C2  UNL     1     -24.224  -4.191  25.386  1.00  0.00     0.202 C 
BRANCH  17  18
HETATM   18  C1  UNL     1     -23.823  -5.638  25.375  1.00  0.00     0.248 C 
HETATM   19  F1  UNL     1     -24.409  -6.229  26.490  1.00  0.00    -0.253 F 
ENDBRANCH  17  18
ENDBRANCH  16  17
ENDBRANCH   1  16
TORSDOF 3
ENDMDL
MODEL 2
REMARK VINA RESULT: -3.637512649      2.384      3.801
REMARK  3 active torsions:
REMARK  status: ('A' for Active; 'I' for Inactive)
REMARK    1  A    between atoms: C1_2  and  C2_3 
REMARK    2  A    between atoms: C2_3  and  O1_4 
REMARK    3  A    between atoms: O1_4  and  C3_5 
ROOT
HETATM    1  C3  UNL     1     -21.792  -3.451  24.380  1.00  0.00     0.271 C 
HETATM    2  N1  UNL     1     -20.804  -3.318  23.331  1.00  0.00    -0.309 N 
ATOM      3  H1  UNL     1     -19.838  -3.396  23.649  1.00  0.00     0.182 HD
HETATM    4  N2  UNL     1     -20.930  -3.126  22.121  1.00  0.00    -0.338 N 
ATOM      5  H2  UNL     1     -20.075  -3.066  21.568  1.00  0.00     0.179 HD
HETATM    6  C4  UNL     1     -22.174  -2.980  21.419  1.00  0.00     0.139 C 
HETATM    7  C5  UNL     1     -23.164  -4.055  21.786  1.00  0.00     0.024 C 
HETATM    8  C6  UNL     1     -22.571  -5.114  22.673  1.00  0.00     0.045 C 
HETATM    9  C7  UNL     1     -22.522  -4.743  24.117  1.00  0.00     0.170 C 
HETATM   10  C8  UNL     1     -23.908  -4.767  24.695  1.00  0.00     0.045 C 
HETATM   11  C9  UNL     1     -23.846  -5.770  25.830  1.00  0.00     0.030 C 
HETATM   12  C10 UNL     1     -22.367  -5.738  26.168  1.00  0.00     0.233 C 
HETATM   13  N3  UNL     1     -21.794  -5.791  24.814  1.00  0.00    -0.062 N 
ATOM     14  H31 UNL     1     -20.778  -5.703  24.776  1.00  0.00     0.278 HD
ATOM     15  H32 UNL     1     -21.833  -6.708  24.369  1.00  0.00     0.278 HD
ENDROOT
BRANCH   1  16
HETATM   16  O1  UNL     1     -22.609  -2.351  24.394  1.00  0.00    -0.361 OA
BRANCH  16  17
HETATM   17  C2  UNL     1     -21.968  -1.325  25.077  1.00  0.00     0.202 C 
BRANCH  17  18
HETATM   18  C1  UNL     1     -21.935  -0.042  24.298  1.00  0.00     0.248 C 
HETATM   19  F1  UNL     1     -20.889  -0.148  23.387  1.00  0.00    -0.253 F 
ENDBRANCH  17  18
ENDBRANCH  16  17
ENDBRANCH   1  16
TORSDOF 3
ENDMDL
MODEL 3
REMARK VINA RESULT: -3.345000164      2.645      4.748
REMARK  3 active torsions:
REMARK  status: ('A' for Active; 'I' for Inactive)
REMARK    1  A    between atoms: C1_2  and  C2_3 
REMARK    2  A    between atoms: C2_3  and  O1_4 
REMARK    3  A    between atoms: O1_4  and  C3_5 
ROOT
HETATM    1  C3  UNL     1     -20.981  -2.183  23.690  1.00  0.00     0.271 C 
HETATM    2  N1  UNL     1     -21.266  -3.404  24.413  1.00  0.00    -0.309 N 
ATOM      3  H1  UNL     1     -20.446  -3.860  24.811  1.00  0.00     0.182 HD
HETATM    4  N2  UNL     1     -22.330  -3.986  24.630  1.00  0.00    -0.338 N 
ATOM      5  H2  UNL     1     -22.286  -4.848  25.173  1.00  0.00     0.179 HD
HETATM    6  C4  UNL     1     -23.627  -3.559  24.183  1.00  0.00     0.139 C 
HETATM    7  C5  UNL     1     -23.874  -2.100  24.467  1.00  0.00     0.024 C 
HETATM    8  C6  UNL     1     -22.780  -1.473  25.286  1.00  0.00     0.045 C 
HETATM    9  C7  UNL     1     -21.585  -1.061  24.494  1.00  0.00     0.170 C 
HETATM   10  C8  UNL     1     -21.916   0.147  23.665  1.00  0.00     0.045 C 
HETATM   11  C9  UNL     1     -20.930   1.212  24.104  1.00  0.00     0.030 C 
HETATM   12  C10 UNL     1     -19.799   0.356  24.644  1.00  0.00     0.233 C 
HETATM   13  N3  UNL     1     -20.568  -0.618  25.434  1.00  0.00    -0.062 N 
ATOM     14  H31 UNL     1     -20.012  -1.368  25.847  1.00  0.00     0.278 HD
ATOM     15  H32 UNL     1     -20.929  -0.261  26.318  1.00  0.00     0.278 HD
ENDROOT
BRANCH   1  16
HETATM   16  O1  UNL     1     -21.473  -2.272  22.414  1.00  0.00    -0.361 OA
BRANCH  16  17
HETATM   17  C2  UNL     1     -20.929  -3.395  21.802  1.00  0.00     0.202 C 
BRANCH  17  18
HETATM   18  C1  UNL     1     -21.890  -4.064  20.863  1.00  0.00     0.248 C 
HETATM   19  F1  UNL     1     -21.181  -4.364  19.703  1.00  0.00    -0.253 F 
ENDBRANCH  17  18
ENDBRANCH  16  17
ENDBRANCH   1  16
TORSDOF 3
ENDMDL
MODEL 4
REMARK VINA RESULT: -3.099772849      2.331      3.938
REMARK  3 active torsions:
REMARK  status: ('A' for Active; 'I' for Inactive)
REMARK    1  A    between atoms: C1_2  and  C2_3 
REMARK    2  A    between atoms: C2_3  and  O1_4 
REMARK    3  A    between atoms: O1_4  and  C3_5 
ROOT
HETATM    1  C3  UNL     1     -21.883  -4.966  23.646  1.00  0.00     0.271 C 
HETATM    2  N1  UNL     1     -21.714  -5.496  24.982  1.00  0.00    -0.309 N 
ATOM      3  H1  UNL     1     -20.743  -5.605  25.273  1.00  0.00     0.182 HD
HETATM    4  N2  UNL     1     -22.542  -5.838  25.828  1.00  0.00    -0.338 N 
ATOM      5  H2  UNL     1     -22.182  -6.189  26.715  1.00  0.00     0.179 HD
HETATM    6  C4  UNL     1     -23.969  -5.787  25.675  1.00  0.00     0.139 C 
HETATM    7  C5  UNL     1     -24.436  -4.461  25.133  1.00  0.00     0.024 C 
HETATM    8  C6  UNL     1     -23.326  -3.451  25.029  1.00  0.00     0.045 C 
HETATM    9  C7  UNL     1     -22.485  -3.594  23.805  1.00  0.00     0.170 C 
HETATM   10  C8  UNL     1     -23.261  -3.146  22.600  1.00  0.00     0.045 C 
HETATM   11  C9  UNL     1     -22.441  -2.022  21.996  1.00  0.00     0.030 C 
HETATM   12  C10 UNL     1     -21.057  -2.358  22.519  1.00  0.00     0.233 C 
HETATM   13  N3  UNL     1     -21.379  -2.657  23.923  1.00  0.00    -0.062 N 
ATOM     14  H31 UNL     1     -20.592  -2.993  24.480  1.00  0.00     0.278 HD
ATOM     15  H32 UNL     1     -21.571  -1.839  24.501  1.00  0.00     0.278 HD
ENDROOT
BRANCH   1  16
HETATM   16  O1  UNL     1     -22.653  -5.820  22.900  1.00  0.00    -0.361 OA
BRANCH  16  17
HETATM   17  C2  UNL     1     -21.895  -6.291  21.835  1.00  0.00     0.202 C 
BRANCH  17  18
HETATM   18  C1  UNL     1     -22.327  -5.714  20.518  1.00  0.00     0.248 C 
HETATM   19  F1  UNL     1     -21.410  -4.720  20.190  1.00  0.00    -0.253 F 
ENDBRANCH  17  18
ENDBRANCH  16  17
ENDBRANCH   1  16
TORSDOF 3
ENDMDL
MODEL 5
REMARK VINA RESULT: -3.011934431      4.766      6.425
REMARK  3 active torsions:
REMARK  status: ('A' for Active; 'I' for Inactive)
REMARK    1  A    between atoms: C1_2  and  C2_3 
REMARK    2  A    between atoms: C2_3  and  O1_4 
REMARK    3  A    between atoms: O1_4  and  C3_5 
ROOT
HETATM    1  C3  UNL     1     -26.078  -7.384  26.640  1.00  0.00     0.271 C 
HETATM    2  N1  UNL     1     -27.222  -7.284  27.521  1.00  0.00    -0.309 N 
ATOM      3  H1  UNL     1     -27.176  -7.888  28.342  1.00  0.00     0.182 HD
HETATM    4  N2  UNL     1     -28.242  -6.596  27.449  1.00  0.00    -0.338 N 
ATOM      5  H2  UNL     1     -28.924  -6.696  28.201  1.00  0.00     0.179 HD
HETATM    6  C4  UNL     1     -28.554  -5.667  26.400  1.00  0.00     0.139 C 
HETATM    7  C5  UNL     1     -27.399  -4.751  26.089  1.00  0.00     0.024 C 
HETATM    8  C6  UNL     1     -26.251  -4.915  27.046  1.00  0.00     0.045 C 
HETATM    9  C7  UNL     1     -25.354  -6.065  26.731  1.00  0.00     0.170 C 
HETATM   10  C8  UNL     1     -24.538  -5.754  25.511  1.00  0.00     0.045 C 
HETATM   11  C9  UNL     1     -23.094  -5.856  25.962  1.00  0.00     0.030 C 
HETATM   12  C10 UNL     1     -23.227  -6.783  27.156  1.00  0.00     0.233 C 
HETATM   13  N3  UNL     1     -24.396  -6.183  27.819  1.00  0.00    -0.062 N 
ATOM     14  H31 UNL     1     -24.735  -6.695  28.634  1.00  0.00     0.278 HD
ATOM     15  H32 UNL     1     -24.205  -5.313  28.317  1.00  0.00     0.278 HD
ENDROOT
BRANCH   1  16
HETATM   16  O1  UNL     1     -26.492  -7.697  25.372  1.00  0.00    -0.361 OA
BRANCH  16  17
HETATM   17  C2  UNL     1     -26.863  -9.036  25.339  1.00  0.00     0.202 C 
BRANCH  17  18
HETATM   18  C1  UNL     1     -28.103  -9.274  24.528  1.00  0.00     0.248 C 
HETATM   19  F1  UNL     1     -27.754 -10.145  23.501  1.00  0.00    -0.253 F 
ENDBRANCH  17  18
ENDBRANCH  16  17
ENDBRANCH   1  16
TORSDOF 3
ENDMDL
