MODEL 1
REMARK VINA RESULT: -5.908271873      0.000      0.000
REMARK  9 active torsions:
REMARK  status: ('A' for Active; 'I' for Inactive)
REMARK    1  A    between atoms: O1_2  and  C2_3 
REMARK    2  A    between atoms: C4_6  and  C5_7 
REMARK    3  A    between atoms: C5_7  and  O3_8 
REMARK    4  A    between atoms: O3_8  and  C6_9 
REMARK       I    between atoms: C6_9  and  N1_11 
REMARK    5  A    between atoms: N1_11  and  N2_12 
REMARK    6  A    between atoms: N1_11  and  N3_15 
REMARK    7  A    between atoms: N3_15  and  O5_16 
REMARK    8  A    between atoms: C7_18  and  N4_19 
REMARK    9  A    between atoms: C10_32  and  O7_33 
ROOT
HETATM    1  C2  UNL     1       0.985 -24.950 -18.889  1.00  0.00     0.179 C 
HETATM    2  C3  UNL     1       0.771 -26.421 -18.566  1.00  0.00     0.203 C 
HETATM    3  O2  UNL     1       0.750 -26.719 -17.231  1.00  0.00    -0.379 OA
HETATM    4  C4  UNL     1       1.753 -26.156 -16.514  1.00  0.00     0.179 C 
HETATM    5  C7  UNL     1       1.740 -24.676 -16.631  1.00  0.00     0.249 C 
HETATM    6  C8  UNL     1       2.113 -24.379 -18.086  1.00  0.00     0.138 C 
HETATM    7  N5  UNL     1       3.374 -25.094 -18.385  1.00  0.00    -0.323 N 
ATOM      8  H5  UNL     1       3.359 -25.985 -18.880  1.00  0.00     0.165 HD
HETATM    9  C9  UNL     1       4.608 -24.520 -17.973  1.00  0.00     0.335 C 
HETATM   10  O6  UNL     1       5.601 -25.282 -17.775  1.00  0.00    -0.246 OA
HETATM   11  N6  UNL     1       4.646 -23.119 -17.808  1.00  0.00    -0.254 N 
ATOM     12  H6  UNL     1       5.547 -22.644 -17.746  1.00  0.00     0.191 HD
HETATM   13  N7  UNL     1       3.498 -22.391 -17.729  1.00  0.00    -0.301 N 
ATOM     14  H7  UNL     1       3.453 -21.501 -17.234  1.00  0.00     0.183 HD
HETATM   15  C10 UNL     1       2.351 -22.958 -18.390  1.00  0.00     0.266 C 
ENDROOT
BRANCH   4  16
HETATM   16  C5  UNL     1       1.832 -26.652 -15.095  1.00  0.00     0.215 C 
BRANCH  16  17
HETATM   17  O3  UNL     1       1.542 -28.005 -14.923  1.00  0.00    -0.299 OA
BRANCH  17  18
HETATM   18  C6  UNL     1       0.332 -28.330 -14.318  1.00  0.00     0.399 C 
HETATM   19  O4  UNL     1       0.177 -27.993 -13.103  1.00  0.00    -0.235 OA
HETATM   20  N1  UNL     1      -0.713 -29.003 -14.977  1.00  0.00    -0.120 N 
BRANCH  20  21
HETATM   21  N2  UNL     1      -0.577 -29.427 -16.315  1.00  0.00    -0.320 N 
ATOM     22  H22 UNL     1      -0.255 -30.371 -16.530  1.00  0.00     0.178 HD
ATOM     23  H21 UNL     1      -0.799 -28.803 -17.090  1.00  0.00     0.178 HD
ENDBRANCH  20  21
BRANCH  20  24
HETATM   24  N3  UNL     1      -1.904 -29.243 -14.267  1.00  0.00     0.046 NA
BRANCH  24  25
HETATM   25  O5  UNL     1      -1.701 -29.999 -13.162  1.00  0.00    -0.275 OA
ATOM     26  H5  UNL     1      -1.171 -30.767 -13.342  1.00  0.00     0.240 HD
ENDBRANCH  24  25
ENDBRANCH  20  24
ENDBRANCH  17  18
ENDBRANCH  16  17
ENDBRANCH   4  16
BRANCH   5  27
HETATM   27  N4  UNL     1       2.514 -23.974 -15.673  1.00  0.00    -0.070 N 
ATOM     28  H43 UNL     1       3.465 -24.345 -15.658  1.00  0.00     0.274 HD
ATOM     29  H42 UNL     1       2.693 -23.025 -16.000  1.00  0.00     0.274 HD
ATOM     30  H41 UNL     1       2.135 -23.950 -14.727  1.00  0.00     0.274 HD
ENDBRANCH   5  27
BRANCH   1  31
HETATM   31  O1  UNL     1       1.138 -24.828 -20.246  1.00  0.00    -0.386 OA
HETATM   32  C1  UNL     1       0.355 -25.741 -20.935  1.00  0.00     0.202 C 
ENDBRANCH   1  31
BRANCH  15  33
HETATM   33  O7  UNL     1       2.624 -22.844 -19.761  1.00  0.00    -0.373 OA
ATOM     34  H7  UNL     1       3.556 -22.974 -19.889  1.00  0.00     0.212 HD
ENDBRANCH  15  33
TORSDOF 9
ENDMDL
MODEL 2
REMARK VINA RESULT: -5.699664767      3.478      6.773
REMARK  9 active torsions:
REMARK  status: ('A' for Active; 'I' for Inactive)
REMARK    1  A    between atoms: O1_2  and  C2_3 
REMARK    2  A    between atoms: C4_6  and  C5_7 
REMARK    3  A    between atoms: C5_7  and  O3_8 
REMARK    4  A    between atoms: O3_8  and  C6_9 
REMARK       I    between atoms: C6_9  and  N1_11 
REMARK    5  A    between atoms: N1_11  and  N2_12 
REMARK    6  A    between atoms: N1_11  and  N3_15 
REMARK    7  A    between atoms: N3_15  and  O5_16 
REMARK    8  A    between atoms: C7_18  and  N4_19 
REMARK    9  A    between atoms: C10_32  and  O7_33 
ROOT
HETATM    1  C2  UNL     1      -2.326 -26.862 -21.833  1.00  0.00     0.179 C 
HETATM    2  C3  UNL     1      -2.463 -25.718 -20.839  1.00  0.00     0.203 C 
HETATM    3  O2  UNL     1      -1.352 -24.929 -20.716  1.00  0.00    -0.379 OA
HETATM    4  C4  UNL     1      -0.189 -25.613 -20.584  1.00  0.00     0.179 C 
HETATM    5  C7  UNL     1       0.044 -26.515 -21.741  1.00  0.00     0.249 C 
HETATM    6  C8  UNL     1      -1.036 -27.596 -21.637  1.00  0.00     0.138 C 
HETATM    7  N5  UNL     1      -0.969 -28.172 -20.275  1.00  0.00    -0.323 N 
ATOM      8  H5  UNL     1      -1.622 -27.868 -19.553  1.00  0.00     0.165 HD
HETATM    9  C9  UNL     1       0.016 -29.156 -19.988  1.00  0.00     0.335 C 
HETATM   10  O6  UNL     1       0.407 -29.299 -18.792  1.00  0.00    -0.246 OA
HETATM   11  N6  UNL     1       0.501 -29.921 -21.072  1.00  0.00    -0.254 N 
ATOM     12  H6  UNL     1       1.020 -30.780 -20.888  1.00  0.00     0.191 HD
HETATM   13  N7  UNL     1       0.287 -29.528 -22.358  1.00  0.00    -0.301 N 
ATOM     14  H7  UNL     1       0.915 -29.790 -23.117  1.00  0.00     0.183 HD
HETATM   15  C10 UNL     1      -0.884 -28.719 -22.578  1.00  0.00     0.266 C 
ENDROOT
BRANCH   4  16
HETATM   16  C5  UNL     1       0.991 -24.739 -20.250  1.00  0.00     0.215 C 
BRANCH  16  17
HETATM   17  O3  UNL     1       1.187 -24.503 -18.890  1.00  0.00    -0.299 OA
BRANCH  17  18
HETATM   18  C6  UNL     1       2.268 -23.708 -18.526  1.00  0.00     0.399 C 
HETATM   19  O4  UNL     1       2.720 -22.901 -19.397  1.00  0.00    -0.235 OA
HETATM   20  N1  UNL     1       2.877 -23.751 -17.258  1.00  0.00    -0.120 N 
BRANCH  20  21
HETATM   21  N2  UNL     1       2.433 -24.651 -16.269  1.00  0.00    -0.320 N 
ATOM     22  H22 UNL     1       2.820 -25.594 -16.213  1.00  0.00     0.178 HD
ATOM     23  H21 UNL     1       1.722 -24.380 -15.590  1.00  0.00     0.178 HD
ENDBRANCH  20  21
BRANCH  20  24
HETATM   24  N3  UNL     1       3.941 -22.869 -17.000  1.00  0.00     0.046 NA
BRANCH  24  25
HETATM   25  O5  UNL     1       3.680 -22.035 -15.965  1.00  0.00    -0.275 OA
ATOM     26  H5  UNL     1       4.381 -22.022 -15.325  1.00  0.00     0.240 HD
ENDBRANCH  24  25
ENDBRANCH  20  24
ENDBRANCH  17  18
ENDBRANCH  16  17
ENDBRANCH   4  16
BRANCH   5  27
HETATM   27  N4  UNL     1       1.363 -27.015 -21.878  1.00  0.00    -0.070 N 
ATOM     28  H43 UNL     1       2.010 -26.439 -21.341  1.00  0.00     0.274 HD
ATOM     29  H42 UNL     1       1.451 -27.902 -21.381  1.00  0.00     0.274 HD
ATOM     30  H41 UNL     1       1.702 -27.120 -22.834  1.00  0.00     0.274 HD
ENDBRANCH   5  27
BRANCH   1  31
HETATM   31  O1  UNL     1      -3.444 -27.648 -21.736  1.00  0.00    -0.386 OA
HETATM   32  C1  UNL     1      -4.582 -26.976 -22.155  1.00  0.00     0.202 C 
ENDBRANCH   1  31
BRANCH  15  33
HETATM   33  O7  UNL     1      -1.970 -29.588 -22.400  1.00  0.00    -0.373 OA
ATOM     34  H7  UNL     1      -2.699 -29.260 -22.912  1.00  0.00     0.212 HD
ENDBRANCH  15  33
TORSDOF 9
ENDMDL
MODEL 3
REMARK VINA RESULT: -5.696947692      3.901      7.071
REMARK  9 active torsions:
REMARK  status: ('A' for Active; 'I' for Inactive)
REMARK    1  A    between atoms: O1_2  and  C2_3 
REMARK    2  A    between atoms: C4_6  and  C5_7 
REMARK    3  A    between atoms: C5_7  and  O3_8 
REMARK    4  A    between atoms: O3_8  and  C6_9 
REMARK       I    between atoms: C6_9  and  N1_11 
REMARK    5  A    between atoms: N1_11  and  N2_12 
REMARK    6  A    between atoms: N1_11  and  N3_15 
REMARK    7  A    between atoms: N3_15  and  O5_16 
REMARK    8  A    between atoms: C7_18  and  N4_19 
REMARK    9  A    between atoms: C10_32  and  O7_33 
ROOT
HETATM    1  C2  UNL     1      -2.116 -26.502 -21.911  1.00  0.00     0.179 C 
HETATM    2  C3  UNL     1      -2.194 -25.940 -20.500  1.00  0.00     0.203 C 
HETATM    3  O2  UNL     1      -0.995 -25.546 -19.973  1.00  0.00    -0.379 OA
HETATM    4  C4  UNL     1       0.012 -26.438 -20.135  1.00  0.00     0.179 C 
HETATM    5  C7  UNL     1       0.245 -26.737 -21.572  1.00  0.00     0.249 C 
HETATM    6  C8  UNL     1      -1.002 -27.495 -22.037  1.00  0.00     0.138 C 
HETATM    7  N5  UNL     1      -1.213 -28.630 -21.111  1.00  0.00    -0.323 N 
ATOM      8  H5  UNL     1      -1.897 -28.562 -20.357  1.00  0.00     0.165 HD
HETATM    9  C9  UNL     1      -0.451 -29.817 -21.286  1.00  0.00     0.335 C 
HETATM   10  O6  UNL     1      -0.251 -30.570 -20.287  1.00  0.00    -0.246 OA
HETATM   11  N6  UNL     1       0.042 -30.083 -22.582  1.00  0.00    -0.254 N 
ATOM     12  H6  UNL     1       0.384 -31.017 -22.809  1.00  0.00     0.191 HD
HETATM   13  N7  UNL     1       0.069 -29.110 -23.535  1.00  0.00    -0.301 N 
ATOM     14  H7  UNL     1       0.741 -29.120 -24.302  1.00  0.00     0.183 HD
HETATM   15  C10 UNL     1      -0.913 -28.066 -23.391  1.00  0.00     0.266 C 
ENDROOT
BRANCH   4  16
HETATM   16  C5  UNL     1       1.263 -26.081 -19.379  1.00  0.00     0.215 C 
BRANCH  16  17
HETATM   17  O3  UNL     1       1.914 -24.930 -19.821  1.00  0.00    -0.299 OA
BRANCH  17  18
HETATM   18  C6  UNL     1       2.217 -23.959 -18.872  1.00  0.00     0.399 C 
HETATM   19  O4  UNL     1       1.252 -23.479 -18.199  1.00  0.00    -0.235 OA
HETATM   20  N1  UNL     1       3.520 -23.491 -18.622  1.00  0.00    -0.120 N 
BRANCH  20  21
HETATM   21  N2  UNL     1       4.619 -23.968 -19.364  1.00  0.00    -0.320 N 
ATOM     22  H22 UNL     1       4.843 -24.964 -19.379  1.00  0.00     0.178 HD
ATOM     23  H21 UNL     1       5.210 -23.332 -19.899  1.00  0.00     0.178 HD
ENDBRANCH  20  21
BRANCH  20  24
HETATM   24  N3  UNL     1       3.701 -22.532 -17.610  1.00  0.00     0.046 NA
BRANCH  24  25
HETATM   25  O5  UNL     1       3.041 -21.378 -17.869  1.00  0.00    -0.275 OA
ATOM     26  H5  UNL     1       2.435 -21.144 -17.175  1.00  0.00     0.240 HD
ENDBRANCH  24  25
ENDBRANCH  20  24
ENDBRANCH  17  18
ENDBRANCH  16  17
ENDBRANCH   4  16
BRANCH   5  27
HETATM   27  N4  UNL     1       1.469 -27.381 -21.877  1.00  0.00    -0.070 N 
ATOM     28  H43 UNL     1       1.905 -27.722 -21.020  1.00  0.00     0.274 HD
ATOM     29  H42 UNL     1       1.288 -28.265 -22.353  1.00  0.00     0.274 HD
ATOM     30  H41 UNL     1       2.140 -26.830 -22.413  1.00  0.00     0.274 HD
ENDBRANCH   5  27
BRANCH   1  31
HETATM   31  O1  UNL     1      -3.352 -26.994 -22.244  1.00  0.00    -0.386 OA
HETATM   32  C1  UNL     1      -4.365 -26.343 -21.558  1.00  0.00     0.202 C 
ENDBRANCH   1  31
BRANCH  15  33
HETATM   33  O7  UNL     1      -2.141 -28.674 -23.690  1.00  0.00    -0.373 OA
ATOM     34  H7  UNL     1      -2.030 -29.615 -23.622  1.00  0.00     0.212 HD
ENDBRANCH  15  33
TORSDOF 9
ENDMDL
MODEL 4
REMARK VINA RESULT: -5.687193970      3.595      5.580
REMARK  9 active torsions:
REMARK  status: ('A' for Active; 'I' for Inactive)
REMARK    1  A    between atoms: O1_2  and  C2_3 
REMARK    2  A    between atoms: C4_6  and  C5_7 
REMARK    3  A    between atoms: C5_7  and  O3_8 
REMARK    4  A    between atoms: O3_8  and  C6_9 
REMARK       I    between atoms: C6_9  and  N1_11 
REMARK    5  A    between atoms: N1_11  and  N2_12 
REMARK    6  A    between atoms: N1_11  and  N3_15 
REMARK    7  A    between atoms: N3_15  and  O5_16 
REMARK    8  A    between atoms: C7_18  and  N4_19 
REMARK    9  A    between atoms: C10_32  and  O7_33 
ROOT
HETATM    1  C2  UNL     1       1.365 -26.651 -16.895  1.00  0.00     0.179 C 
HETATM    2  C3  UNL     1      -0.105 -26.284 -17.034  1.00  0.00     0.203 C 
HETATM    3  O2  UNL     1      -0.629 -26.480 -18.282  1.00  0.00    -0.379 OA
HETATM    4  C4  UNL     1       0.136 -26.005 -19.294  1.00  0.00     0.179 C 
HETATM    5  C7  UNL     1       1.487 -26.623 -19.288  1.00  0.00     0.249 C 
HETATM    6  C8  UNL     1       2.171 -26.090 -18.025  1.00  0.00     0.138 C 
HETATM    7  N5  UNL     1       2.076 -24.614 -18.047  1.00  0.00    -0.323 N 
ATOM      8  H5  UNL     1       1.358 -24.134 -17.503  1.00  0.00     0.165 HD
HETATM    9  C9  UNL     1       2.998 -23.872 -18.835  1.00  0.00     0.335 C 
HETATM   10  O6  UNL     1       2.663 -22.723 -19.251  1.00  0.00    -0.246 OA
HETATM   11  N6  UNL     1       4.246 -24.474 -19.106  1.00  0.00    -0.254 N 
ATOM     12  H6  UNL     1       5.015 -23.902 -19.457  1.00  0.00     0.191 HD
HETATM   13  N7  UNL     1       4.439 -25.808 -18.908  1.00  0.00    -0.301 N 
ATOM     14  H7  UNL     1       5.131 -26.340 -19.434  1.00  0.00     0.183 HD
HETATM   15  C10 UNL     1       3.602 -26.419 -17.908  1.00  0.00     0.266 C 
ENDROOT
BRANCH   4  16
HETATM   16  C5  UNL     1      -0.544 -26.049 -20.637  1.00  0.00     0.215 C 
BRANCH  16  17
HETATM   17  O3  UNL     1      -1.821 -25.490 -20.672  1.00  0.00    -0.299 OA
BRANCH  17  18
HETATM   18  C6  UNL     1      -2.856 -26.284 -21.154  1.00  0.00     0.399 C 
HETATM   19  O4  UNL     1      -2.618 -27.522 -21.314  1.00  0.00    -0.235 OA
HETATM   20  N1  UNL     1      -4.136 -25.792 -21.468  1.00  0.00    -0.120 N 
BRANCH  20  21
HETATM   21  N2  UNL     1      -4.440 -24.421 -21.340  1.00  0.00    -0.320 N 
ATOM     22  H22 UNL     1      -3.701 -23.738 -21.173  1.00  0.00     0.178 HD
ATOM     23  H21 UNL     1      -5.401 -24.086 -21.412  1.00  0.00     0.178 HD
ENDBRANCH  20  21
BRANCH  20  24
HETATM   24  N3  UNL     1      -5.110 -26.703 -21.914  1.00  0.00     0.046 NA
BRANCH  24  25
HETATM   25  O5  UNL     1      -4.790 -27.256 -23.108  1.00  0.00    -0.275 OA
ATOM     26  H5  UNL     1      -5.495 -27.786 -23.461  1.00  0.00     0.240 HD
ENDBRANCH  24  25
ENDBRANCH  20  24
ENDBRANCH  17  18
ENDBRANCH  16  17
ENDBRANCH   4  16
BRANCH   5  27
HETATM   27  N4  UNL     1       2.244 -26.462 -20.475  1.00  0.00    -0.070 N 
ATOM     28  H43 UNL     1       1.988 -27.182 -21.151  1.00  0.00     0.274 HD
ATOM     29  H42 UNL     1       1.936 -25.627 -20.974  1.00  0.00     0.274 HD
ATOM     30  H41 UNL     1       3.257 -26.441 -20.357  1.00  0.00     0.274 HD
ENDBRANCH   5  27
BRANCH   1  31
HETATM   31  O1  UNL     1       1.787 -26.260 -15.651  1.00  0.00    -0.386 OA
HETATM   32  C1  UNL     1       0.740 -25.776 -14.882  1.00  0.00     0.202 C 
ENDBRANCH   1  31
BRANCH  15  33
HETATM   33  O7  UNL     1       4.067 -25.916 -16.684  1.00  0.00    -0.373 OA
ATOM     34  H7  UNL     1       3.376 -25.389 -16.299  1.00  0.00     0.212 HD
ENDBRANCH  15  33
TORSDOF 9
ENDMDL
MODEL 5
REMARK VINA RESULT: -5.630567013      3.628      5.693
REMARK  9 active torsions:
REMARK  status: ('A' for Active; 'I' for Inactive)
REMARK    1  A    between atoms: O1_2  and  C2_3 
REMARK    2  A    between atoms: C4_6  and  C5_7 
REMARK    3  A    between atoms: C5_7  and  O3_8 
REMARK    4  A    between atoms: O3_8  and  C6_9 
REMARK       I    between atoms: C6_9  and  N1_11 
REMARK    5  A    between atoms: N1_11  and  N2_12 
REMARK    6  A    between atoms: N1_11  and  N3_15 
REMARK    7  A    between atoms: N3_15  and  O5_16 
REMARK    8  A    between atoms: C7_18  and  N4_19 
REMARK    9  A    between atoms: C10_32  and  O7_33 
ROOT
HETATM    1  C2  UNL     1       2.203 -24.065 -17.658  1.00  0.00     0.179 C 
HETATM    2  C3  UNL     1       2.417 -23.652 -19.107  1.00  0.00     0.203 C 
HETATM    3  O2  UNL     1       1.420 -24.026 -19.964  1.00  0.00    -0.379 OA
HETATM    4  C4  UNL     1       1.018 -25.314 -19.831  1.00  0.00     0.179 C 
HETATM    5  C7  UNL     1       0.536 -25.593 -18.455  1.00  0.00     0.249 C 
HETATM    6  C8  UNL     1       1.778 -25.498 -17.562  1.00  0.00     0.138 C 
HETATM    7  N5  UNL     1       2.816 -26.385 -18.135  1.00  0.00    -0.323 N 
ATOM      8  H5  UNL     1       3.563 -26.000 -18.711  1.00  0.00     0.165 HD
HETATM    9  C9  UNL     1       2.756 -27.780 -17.869  1.00  0.00     0.335 C 
HETATM   10  O6  UNL     1       3.292 -28.583 -18.689  1.00  0.00    -0.246 OA
HETATM   11  N6  UNL     1       2.093 -28.186 -16.690  1.00  0.00    -0.254 N 
ATOM     12  H6  UNL     1       2.226 -29.135 -16.339  1.00  0.00     0.191 HD
HETATM   13  N7  UNL     1       1.278 -27.329 -16.014  1.00  0.00    -0.301 N 
ATOM     14  H7  UNL     1       0.506 -27.658 -15.435  1.00  0.00     0.183 HD
HETATM   15  C10 UNL     1       1.577 -25.928 -16.169  1.00  0.00     0.266 C 
ENDROOT
BRANCH   4  16
HETATM   16  C5  UNL     1       0.068 -25.764 -20.909  1.00  0.00     0.215 C 
BRANCH  16  17
HETATM   17  O3  UNL     1      -1.268 -25.426 -20.701  1.00  0.00    -0.299 OA
BRANCH  17  18
HETATM   18  C6  UNL     1      -2.230 -26.366 -21.053  1.00  0.00     0.399 C 
HETATM   19  O4  UNL     1      -1.925 -27.592 -20.922  1.00  0.00    -0.235 OA
HETATM   20  N1  UNL     1      -3.507 -26.031 -21.540  1.00  0.00    -0.120 N 
BRANCH  20  21
HETATM   21  N2  UNL     1      -3.882 -24.686 -21.734  1.00  0.00    -0.320 N 
ATOM     22  H22 UNL     1      -4.257 -24.134 -20.962  1.00  0.00     0.178 HD
ATOM     23  H21 UNL     1      -3.785 -24.238 -22.645  1.00  0.00     0.178 HD
ENDBRANCH  20  21
BRANCH  20  24
HETATM   24  N3  UNL     1      -4.406 -27.074 -21.827  1.00  0.00     0.046 NA
BRANCH  24  25
HETATM   25  O5  UNL     1      -5.433 -26.667 -22.611  1.00  0.00    -0.275 OA
ATOM     26  H5  UNL     1      -6.022 -27.379 -22.832  1.00  0.00     0.240 HD
ENDBRANCH  24  25
ENDBRANCH  20  24
ENDBRANCH  17  18
ENDBRANCH  16  17
ENDBRANCH   4  16
BRANCH   5  27
HETATM   27  N4  UNL     1      -0.211 -26.786 -18.292  1.00  0.00    -0.070 N 
ATOM     28  H43 UNL     1      -0.274 -27.280 -19.182  1.00  0.00     0.274 HD
ATOM     29  H42 UNL     1       0.326 -27.461 -17.747  1.00  0.00     0.274 HD
ATOM     30  H41 UNL     1      -1.141 -26.677 -17.889  1.00  0.00     0.274 HD
ENDBRANCH   5  27
BRANCH   1  31
HETATM   31  O1  UNL     1       3.340 -23.764 -16.955  1.00  0.00    -0.386 OA
HETATM   32  C1  UNL     1       3.550 -22.396 -16.879  1.00  0.00     0.202 C 
ENDBRANCH   1  31
BRANCH  15  33
HETATM   33  O7  UNL     1       2.778 -25.730 -15.472  1.00  0.00    -0.373 OA
ATOM     34  H7  UNL     1       2.870 -26.430 -14.837  1.00  0.00     0.212 HD
ENDBRANCH  15  33
TORSDOF 9
ENDMDL
