MODEL 1
REMARK VINA RESULT: -6.168459137      0.000      0.000
REMARK  7 active torsions:
REMARK  status: ('A' for Active; 'I' for Inactive)
REMARK    1  A    between atoms: N1_2  and  C2_5 
REMARK    2  A    between atoms: C2_5  and  O1_6 
REMARK    3  A    between atoms: C2_5  and  C3_8 
REMARK    4  A    between atoms: C3_8  and  N2_9 
REMARK    5  A    between atoms: C4_15  and  N4_16 
REMARK    6  A    between atoms: C6_21  and  N5_22 
REMARK    7  A    between atoms: C10_30  and  O4_31 
ROOT
HETATM    1  C3  UNL     1       1.582 -26.633 -20.490  1.00  0.00     0.355 C 
HETATM    2  N3  UNL     1       1.016 -27.630 -19.660  1.00  0.00    -0.338 N 
ATOM      3  H3  UNL     1       0.295 -28.262 -20.009  1.00  0.00     0.160 HD
HETATM    4  C4  UNL     1       1.490 -27.717 -18.316  1.00  0.00     0.285 C 
HETATM    5  C5  UNL     1       2.924 -27.156 -18.387  1.00  0.00     0.110 C 
HETATM    6  C6  UNL     1       2.759 -25.700 -18.668  1.00  0.00     0.258 C 
HETATM    7  O6  UNL     1       2.282 -25.606 -19.990  1.00  0.00    -0.308 OA
ENDROOT
BRANCH   6   8
HETATM    8  N5  UNL     1       3.947 -24.887 -18.566  1.00  0.00    -0.201 N 
HETATM    9  C7  UNL     1       5.032 -25.174 -19.339  1.00  0.00     0.346 A 
HETATM   10  O2  UNL     1       4.937 -26.122 -20.144  1.00  0.00    -0.245 OA
HETATM   11  N6  UNL     1       6.136 -24.443 -19.218  1.00  0.00    -0.272 N 
HETATM   12  C8  UNL     1       6.236 -23.428 -18.365  1.00  0.00     0.282 A 
ATOM     13  H6  UNL     1       6.939 -24.670 -19.804  1.00  0.00     0.174 HD
HETATM   14  O3  UNL     1       7.293 -22.737 -18.254  1.00  0.00    -0.265 OA
HETATM   15  C9  UNL     1       5.138 -23.135 -17.582  1.00  0.00     0.180 A 
HETATM   16  C10 UNL     1       4.943 -22.149 -16.633  1.00  0.00     0.179 A 
HETATM   17  N8  UNL     1       3.991 -23.866 -17.684  1.00  0.00    -0.187 N 
HETATM   18  N7  UNL     1       3.711 -22.301 -16.196  1.00  0.00    -0.285 N 
HETATM   19  C11 UNL     1       3.103 -23.345 -16.823  1.00  0.00     0.348 A 
ATOM     20  H7  UNL     1       3.272 -21.717 -15.484  1.00  0.00     0.172 HD
HETATM   21  O5  UNL     1       1.936 -23.731 -16.627  1.00  0.00    -0.245 OA
BRANCH  16  22
HETATM   22  O4  UNL     1       5.907 -21.208 -16.258  1.00  0.00    -0.344 OA
ATOM     23  H4  UNL     1       5.781 -20.546 -15.588  1.00  0.00     0.219 HD
ENDBRANCH  16  22
ENDBRANCH   6   8
BRANCH   4  24
HETATM   24  N4  UNL     1       0.625 -26.907 -17.524  1.00  0.00    -0.058 N 
ATOM     25  H43 UNL     1       0.157 -26.175 -18.058  1.00  0.00     0.276 HD
ATOM     26  H42 UNL     1      -0.214 -27.397 -17.214  1.00  0.00     0.276 HD
ATOM     27  H41 UNL     1       1.187 -26.546 -16.753  1.00  0.00     0.276 HD
ENDBRANCH   4  24
BRANCH   1  28
HETATM   28  C2  UNL     1       0.360 -26.001 -21.205  1.00  0.00     0.404 C 
BRANCH  28  29
HETATM   29  N1  UNL     1       0.180 -26.631 -22.511  1.00  0.00    -0.046 N 
HETATM   30  C1  UNL     1      -1.200 -27.039 -22.697  1.00  0.00     0.270 C 
ATOM     31  H12 UNL     1       0.826 -27.408 -22.649  1.00  0.00     0.280 HD
ATOM     32  H11 UNL     1       0.501 -26.027 -23.269  1.00  0.00     0.280 HD
ENDBRANCH  28  29
BRANCH  28  33
HETATM   33  O1  UNL     1       0.487 -24.647 -21.346  1.00  0.00    -0.365 OA
ATOM     34  H1  UNL     1      -0.079 -24.198 -20.729  1.00  0.00     0.212 HD
ENDBRANCH  28  33
ENDBRANCH   1  28
BRANCH   1  35
HETATM   35  N2  UNL     1       2.240 -27.382 -21.586  1.00  0.00    -0.023 N 
ATOM     36  H23 UNL     1       2.031 -28.380 -21.610  1.00  0.00     0.280 HD
ATOM     37  H22 UNL     1       1.879 -27.182 -22.519  1.00  0.00     0.280 HD
ATOM     38  H21 UNL     1       3.224 -27.152 -21.448  1.00  0.00     0.280 HD
ENDBRANCH   1  35
TORSDOF 7
ENDMDL
MODEL 2
REMARK VINA RESULT: -6.071276306      3.047      4.216
REMARK  7 active torsions:
REMARK  status: ('A' for Active; 'I' for Inactive)
REMARK    1  A    between atoms: N1_2  and  C2_5 
REMARK    2  A    between atoms: C2_5  and  O1_6 
REMARK    3  A    between atoms: C2_5  and  C3_8 
REMARK    4  A    between atoms: C3_8  and  N2_9 
REMARK    5  A    between atoms: C4_15  and  N4_16 
REMARK    6  A    between atoms: C6_21  and  N5_22 
REMARK    7  A    between atoms: C10_30  and  O4_31 
ROOT
HETATM    1  C3  UNL     1      -1.131 -27.451 -22.267  1.00  0.00     0.355 C 
HETATM    2  N3  UNL     1      -0.747 -28.810 -22.363  1.00  0.00    -0.338 N 
ATOM      3  H3  UNL     1      -1.134 -29.419 -23.085  1.00  0.00     0.160 HD
HETATM    4  C4  UNL     1       0.201 -29.297 -21.414  1.00  0.00     0.285 C 
HETATM    5  C5  UNL     1       1.007 -28.046 -21.012  1.00  0.00     0.110 C 
HETATM    6  C6  UNL     1       0.052 -27.199 -20.240  1.00  0.00     0.258 C 
HETATM    7  O6  UNL     1      -0.893 -26.723 -21.169  1.00  0.00    -0.308 OA
ENDROOT
BRANCH   6   8
HETATM    8  N5  UNL     1       0.614 -26.060 -19.552  1.00  0.00    -0.201 N 
HETATM    9  C7  UNL     1       0.899 -24.924 -20.248  1.00  0.00     0.346 A 
HETATM   10  O2  UNL     1       0.624 -24.903 -21.465  1.00  0.00    -0.245 OA
HETATM   11  N6  UNL     1       1.447 -23.889 -19.618  1.00  0.00    -0.272 N 
HETATM   12  C8  UNL     1       1.734 -23.908 -18.320  1.00  0.00     0.282 A 
ATOM     13  H6  UNL     1       1.655 -23.046 -20.152  1.00  0.00     0.174 HD
HETATM   14  O3  UNL     1       2.258 -22.917 -17.727  1.00  0.00    -0.265 OA
HETATM   15  C9  UNL     1       1.444 -25.057 -17.613  1.00  0.00     0.180 A 
HETATM   16  C10 UNL     1       1.614 -25.362 -16.276  1.00  0.00     0.179 A 
HETATM   17  N8  UNL     1       0.882 -26.136 -18.231  1.00  0.00    -0.187 N 
HETATM   18  N7  UNL     1       1.158 -26.586 -16.119  1.00  0.00    -0.285 N 
HETATM   19  C11 UNL     1       0.701 -27.085 -17.301  1.00  0.00     0.348 A 
ATOM     20  H7  UNL     1       1.149 -27.093 -15.234  1.00  0.00     0.172 HD
HETATM   21  O5  UNL     1       0.207 -28.215 -17.471  1.00  0.00    -0.245 OA
BRANCH  16  22
HETATM   22  O4  UNL     1       2.168 -24.494 -15.330  1.00  0.00    -0.344 OA
ATOM     23  H4  UNL     1       3.053 -24.150 -15.368  1.00  0.00     0.219 HD
ENDBRANCH  16  22
ENDBRANCH   6   8
BRANCH   4  24
HETATM   24  N4  UNL     1      -0.548 -29.835 -20.327  1.00  0.00    -0.058 N 
ATOM     25  H43 UNL     1       0.021 -30.374 -19.674  1.00  0.00     0.276 HD
ATOM     26  H42 UNL     1      -0.865 -29.127 -19.666  1.00  0.00     0.276 HD
ATOM     27  H41 UNL     1      -1.311 -30.375 -20.736  1.00  0.00     0.276 HD
ENDBRANCH   4  24
BRANCH   1  28
HETATM   28  C2  UNL     1      -2.672 -27.484 -22.424  1.00  0.00     0.404 C 
BRANCH  28  29
HETATM   29  N1  UNL     1      -3.283 -26.599 -21.435  1.00  0.00    -0.046 N 
HETATM   30  C1  UNL     1      -4.692 -26.407 -21.720  1.00  0.00     0.270 C 
ATOM     31  H12 UNL     1      -2.787 -25.709 -21.366  1.00  0.00     0.280 HD
ATOM     32  H11 UNL     1      -3.131 -26.933 -20.483  1.00  0.00     0.280 HD
ENDBRANCH  28  29
BRANCH  28  33
HETATM   33  O1  UNL     1      -3.177 -28.749 -22.301  1.00  0.00    -0.365 OA
ATOM     34  H1  UNL     1      -3.450 -29.078 -23.150  1.00  0.00     0.212 HD
ENDBRANCH  28  33
ENDBRANCH   1  28
BRANCH   1  35
HETATM   35  N2  UNL     1      -0.693 -26.842 -23.545  1.00  0.00    -0.023 N 
ATOM     36  H23 UNL     1      -0.106 -27.441 -24.126  1.00  0.00     0.280 HD
ATOM     37  H22 UNL     1      -1.431 -26.723 -24.238  1.00  0.00     0.280 HD
ATOM     38  H21 UNL     1      -0.250 -25.977 -23.235  1.00  0.00     0.280 HD
ENDBRANCH   1  35
TORSDOF 7
ENDMDL
MODEL 3
REMARK VINA RESULT: -5.891336388      3.367      5.773
REMARK  7 active torsions:
REMARK  status: ('A' for Active; 'I' for Inactive)
REMARK    1  A    between atoms: N1_2  and  C2_5 
REMARK    2  A    between atoms: C2_5  and  O1_6 
REMARK    3  A    between atoms: C2_5  and  C3_8 
REMARK    4  A    between atoms: C3_8  and  N2_9 
REMARK    5  A    between atoms: C4_15  and  N4_16 
REMARK    6  A    between atoms: C6_21  and  N5_22 
REMARK    7  A    between atoms: C10_30  and  O4_31 
ROOT
HETATM    1  C3  UNL     1      -2.210 -27.686 -24.544  1.00  0.00     0.355 C 
HETATM    2  N3  UNL     1      -3.540 -27.675 -24.060  1.00  0.00    -0.338 N 
ATOM      3  H3  UNL     1      -4.333 -27.786 -24.692  1.00  0.00     0.160 HD
HETATM    4  C4  UNL     1      -3.730 -27.503 -22.656  1.00  0.00     0.285 C 
HETATM    5  C5  UNL     1      -2.432 -28.052 -22.031  1.00  0.00     0.110 C 
HETATM    6  C6  UNL     1      -1.370 -27.081 -22.422  1.00  0.00     0.258 C 
HETATM    7  O6  UNL     1      -1.184 -27.238 -23.809  1.00  0.00    -0.308 OA
ENDROOT
BRANCH   6   8
HETATM    8  N5  UNL     1      -0.087 -27.238 -21.780  1.00  0.00    -0.201 N 
HETATM    9  C7  UNL     1       0.677 -28.333 -22.054  1.00  0.00     0.346 A 
HETATM   10  O2  UNL     1       0.242 -29.149 -22.892  1.00  0.00    -0.245 OA
HETATM   11  N6  UNL     1       1.844 -28.490 -21.436  1.00  0.00    -0.272 N 
HETATM   12  C8  UNL     1       2.311 -27.618 -20.548  1.00  0.00     0.282 A 
ATOM     13  H6  UNL     1       2.404 -29.315 -21.652  1.00  0.00     0.174 HD
HETATM   14  O3  UNL     1       3.423 -27.777 -19.962  1.00  0.00    -0.265 OA
HETATM   15  C9  UNL     1       1.540 -26.508 -20.270  1.00  0.00     0.180 A 
HETATM   16  C10 UNL     1       1.765 -25.442 -19.420  1.00  0.00     0.179 A 
HETATM   17  N8  UNL     1       0.338 -26.317 -20.889  1.00  0.00    -0.187 N 
HETATM   18  N7  UNL     1       0.721 -24.649 -19.543  1.00  0.00    -0.285 N 
HETATM   19  C11 UNL     1      -0.169 -25.160 -20.438  1.00  0.00     0.348 A 
ATOM     20  H7  UNL     1       0.596 -23.773 -19.037  1.00  0.00     0.172 HD
HETATM   21  O5  UNL     1      -1.248 -24.636 -20.769  1.00  0.00    -0.245 OA
BRANCH  16  22
HETATM   22  O4  UNL     1       2.899 -25.297 -18.614  1.00  0.00    -0.344 OA
ATOM     23  H4  UNL     1       3.103 -24.519 -18.108  1.00  0.00     0.219 HD
ENDBRANCH  16  22
ENDBRANCH   6   8
BRANCH   4  24
HETATM   24  N4  UNL     1      -3.893 -26.104 -22.433  1.00  0.00    -0.058 N 
ATOM     25  H43 UNL     1      -3.419 -25.771 -21.594  1.00  0.00     0.276 HD
ATOM     26  H42 UNL     1      -3.385 -25.528 -23.104  1.00  0.00     0.276 HD
ATOM     27  H41 UNL     1      -4.896 -25.924 -22.427  1.00  0.00     0.276 HD
ENDBRANCH   4  24
BRANCH   1  28
HETATM   28  C2  UNL     1      -2.259 -26.776 -25.798  1.00  0.00     0.404 C 
BRANCH  28  29
HETATM   29  N1  UNL     1      -1.222 -27.189 -26.741  1.00  0.00    -0.046 N 
HETATM   30  C1  UNL     1      -1.262 -26.369 -27.937  1.00  0.00     0.270 C 
ATOM     31  H12 UNL     1      -1.285 -28.183 -26.962  1.00  0.00     0.280 HD
ATOM     32  H11 UNL     1      -0.297 -27.186 -26.311  1.00  0.00     0.280 HD
ENDBRANCH  28  29
BRANCH  28  33
HETATM   33  O1  UNL     1      -2.112 -25.454 -25.483  1.00  0.00    -0.365 OA
ATOM     34  H1  UNL     1      -2.836 -25.163 -24.940  1.00  0.00     0.212 HD
ENDBRANCH  28  33
ENDBRANCH   1  28
BRANCH   1  35
HETATM   35  N2  UNL     1      -2.032 -29.034 -25.134  1.00  0.00    -0.023 N 
ATOM     36  H23 UNL     1      -2.220 -29.092 -26.134  1.00  0.00     0.280 HD
ATOM     37  H22 UNL     1      -1.065 -29.351 -25.195  1.00  0.00     0.280 HD
ATOM     38  H21 UNL     1      -2.637 -29.611 -24.549  1.00  0.00     0.280 HD
ENDBRANCH   1  35
TORSDOF 7
ENDMDL
MODEL 4
REMARK VINA RESULT: -5.718488297      2.326      6.132
REMARK  7 active torsions:
REMARK  status: ('A' for Active; 'I' for Inactive)
REMARK    1  A    between atoms: N1_2  and  C2_5 
REMARK    2  A    between atoms: C2_5  and  O1_6 
REMARK    3  A    between atoms: C2_5  and  C3_8 
REMARK    4  A    between atoms: C3_8  and  N2_9 
REMARK    5  A    between atoms: C4_15  and  N4_16 
REMARK    6  A    between atoms: C6_21  and  N5_22 
REMARK    7  A    between atoms: C10_30  and  O4_31 
ROOT
HETATM    1  C3  UNL     1       5.136 -23.731 -18.078  1.00  0.00     0.355 C 
HETATM    2  N3  UNL     1       4.869 -22.385 -17.733  1.00  0.00    -0.338 N 
ATOM      3  H3  UNL     1       5.588 -21.665 -17.813  1.00  0.00     0.160 HD
HETATM    4  C4  UNL     1       3.557 -22.070 -17.268  1.00  0.00     0.285 C 
HETATM    5  C5  UNL     1       2.661 -23.143 -17.918  1.00  0.00     0.110 C 
HETATM    6  C6  UNL     1       3.037 -24.422 -17.249  1.00  0.00     0.258 C 
HETATM    7  O6  UNL     1       4.336 -24.734 -17.695  1.00  0.00    -0.308 OA
ENDROOT
BRANCH   6   8
HETATM    8  N5  UNL     1       2.190 -25.560 -17.515  1.00  0.00    -0.201 N 
HETATM    9  C7  UNL     1       2.186 -26.126 -18.754  1.00  0.00     0.346 A 
HETATM   10  O2  UNL     1       2.957 -25.649 -19.612  1.00  0.00    -0.245 OA
HETATM   11  N6  UNL     1       1.381 -27.153 -19.005  1.00  0.00    -0.272 N 
HETATM   12  C8  UNL     1       0.564 -27.666 -18.090  1.00  0.00     0.282 A 
ATOM     13  H6  UNL     1       1.390 -27.565 -19.938  1.00  0.00     0.174 HD
HETATM   14  O3  UNL     1      -0.203 -28.644 -18.338  1.00  0.00    -0.265 OA
HETATM   15  C9  UNL     1       0.567 -27.096 -16.833  1.00  0.00     0.180 A 
HETATM   16  C10 UNL     1      -0.150 -27.415 -15.695  1.00  0.00     0.179 A 
HETATM   17  N8  UNL     1       1.383 -26.041 -16.545  1.00  0.00    -0.187 N 
HETATM   18  N7  UNL     1       0.242 -26.569 -14.767  1.00  0.00    -0.285 N 
HETATM   19  C11 UNL     1       1.183 -25.715 -15.259  1.00  0.00     0.348 A 
ATOM     20  H7  UNL     1      -0.110 -26.554 -13.810  1.00  0.00     0.172 HD
HETATM   21  O5  UNL     1       1.746 -24.808 -14.620  1.00  0.00    -0.245 OA
BRANCH  16  22
HETATM   22  O4  UNL     1      -1.091 -28.446 -15.615  1.00  0.00    -0.344 OA
ATOM     23  H4  UNL     1      -2.027 -28.314 -15.519  1.00  0.00     0.219 HD
ENDBRANCH  16  22
ENDBRANCH   6   8
BRANCH   4  24
HETATM   24  N4  UNL     1       3.590 -22.175 -15.846  1.00  0.00    -0.058 N 
ATOM     25  H43 UNL     1       4.096 -22.996 -15.515  1.00  0.00     0.276 HD
ATOM     26  H42 UNL     1       4.182 -21.473 -15.405  1.00  0.00     0.276 HD
ATOM     27  H41 UNL     1       2.622 -22.144 -15.528  1.00  0.00     0.276 HD
ENDBRANCH   4  24
BRANCH   1  28
HETATM   28  C2  UNL     1       6.513 -24.019 -17.427  1.00  0.00     0.404 C 
BRANCH  28  29
HETATM   29  N1  UNL     1       6.542 -25.395 -16.935  1.00  0.00    -0.046 N 
HETATM   30  C1  UNL     1       7.292 -26.246 -17.839  1.00  0.00     0.270 C 
ATOM     31  H12 UNL     1       5.602 -25.757 -16.768  1.00  0.00     0.280 HD
ATOM     32  H11 UNL     1       6.899 -25.448 -15.981  1.00  0.00     0.280 HD
ENDBRANCH  28  29
BRANCH  28  33
HETATM   33  O1  UNL     1       6.797 -23.148 -16.411  1.00  0.00    -0.365 OA
ATOM     34  H1  UNL     1       6.652 -22.253 -16.695  1.00  0.00     0.212 HD
ENDBRANCH  28  33
ENDBRANCH   1  28
BRANCH   1  35
HETATM   35  N2  UNL     1       5.468 -23.693 -19.521  1.00  0.00    -0.023 N 
ATOM     36  H23 UNL     1       5.562 -22.757 -19.916  1.00  0.00     0.280 HD
ATOM     37  H22 UNL     1       6.415 -23.994 -19.752  1.00  0.00     0.280 HD
ATOM     38  H21 UNL     1       4.726 -24.260 -19.932  1.00  0.00     0.280 HD
ENDBRANCH   1  35
TORSDOF 7
ENDMDL
MODEL 5
REMARK VINA RESULT: -5.694898072      6.320      9.094
REMARK  7 active torsions:
REMARK  status: ('A' for Active; 'I' for Inactive)
REMARK    1  A    between atoms: N1_2  and  C2_5 
REMARK    2  A    between atoms: C2_5  and  O1_6 
REMARK    3  A    between atoms: C2_5  and  C3_8 
REMARK    4  A    between atoms: C3_8  and  N2_9 
REMARK    5  A    between atoms: C4_15  and  N4_16 
REMARK    6  A    between atoms: C6_21  and  N5_22 
REMARK    7  A    between atoms: C10_30  and  O4_31 
ROOT
HETATM    1  C3  UNL     1      -4.945 -28.680 -26.472  1.00  0.00     0.355 C 
HETATM    2  N3  UNL     1      -6.011 -29.511 -26.053  1.00  0.00    -0.338 N 
ATOM      3  H3  UNL     1      -6.700 -29.864 -26.717  1.00  0.00     0.160 HD
HETATM    4  C4  UNL     1      -6.087 -29.836 -24.664  1.00  0.00     0.285 C 
HETATM    5  C5  UNL     1      -4.629 -29.740 -24.176  1.00  0.00     0.110 C 
HETATM    6  C6  UNL     1      -4.292 -28.288 -24.238  1.00  0.00     0.258 C 
HETATM    7  O6  UNL     1      -4.225 -27.957 -25.605  1.00  0.00    -0.308 OA
ENDROOT
BRANCH   6   8
HETATM    8  N5  UNL     1      -3.049 -27.890 -23.622  1.00  0.00    -0.201 N 
HETATM    9  C7  UNL     1      -1.866 -28.295 -24.163  1.00  0.00     0.346 A 
HETATM   10  O2  UNL     1      -1.908 -28.975 -25.208  1.00  0.00    -0.245 OA
HETATM   11  N6  UNL     1      -0.724 -27.953 -23.574  1.00  0.00    -0.272 N 
HETATM   12  C8  UNL     1      -0.678 -27.222 -22.464  1.00  0.00     0.282 A 
ATOM     13  H6  UNL     1       0.153 -28.264 -23.991  1.00  0.00     0.174 HD
HETATM   14  O3  UNL     1       0.415 -26.902 -21.908  1.00  0.00    -0.265 OA
HETATM   15  C9  UNL     1      -1.875 -26.809 -21.915  1.00  0.00     0.180 A 
HETATM   16  C10 UNL     1      -2.138 -26.043 -20.796  1.00  0.00     0.179 A 
HETATM   17  N8  UNL     1      -3.063 -27.144 -22.497  1.00  0.00    -0.187 N 
HETATM   18  N7  UNL     1      -3.448 -25.932 -20.729  1.00  0.00    -0.285 N 
HETATM   19  C11 UNL     1      -4.041 -26.595 -21.760  1.00  0.00     0.348 A 
ATOM     20  H7  UNL     1      -3.950 -25.419 -20.004  1.00  0.00     0.172 HD
HETATM   21  O5  UNL     1      -5.266 -26.667 -21.969  1.00  0.00    -0.245 OA
BRANCH  16  22
HETATM   22  O4  UNL     1      -1.160 -25.522 -19.944  1.00  0.00    -0.344 OA
ATOM     23  H4  UNL     1      -0.231 -25.710 -20.013  1.00  0.00     0.219 HD
ENDBRANCH  16  22
ENDBRANCH   6   8
BRANCH   4  24
HETATM   24  N4  UNL     1      -6.931 -28.859 -24.061  1.00  0.00    -0.058 N 
ATOM     25  H43 UNL     1      -7.163 -29.071 -23.090  1.00  0.00     0.276 HD
ATOM     26  H42 UNL     1      -6.459 -27.971 -23.889  1.00  0.00     0.276 HD
ATOM     27  H41 UNL     1      -7.751 -28.769 -24.660  1.00  0.00     0.276 HD
ENDBRANCH   4  24
BRANCH   1  28
HETATM   28  C2  UNL     1      -5.620 -27.654 -27.418  1.00  0.00     0.404 C 
BRANCH  28  29
HETATM   29  N1  UNL     1      -4.762 -26.479 -27.554  1.00  0.00    -0.046 N 
HETATM   30  C1  UNL     1      -4.703 -26.045 -28.937  1.00  0.00     0.270 C 
ATOM     31  H12 UNL     1      -3.831 -26.643 -27.169  1.00  0.00     0.280 HD
ATOM     32  H11 UNL     1      -5.053 -25.724 -26.932  1.00  0.00     0.280 HD
ENDBRANCH  28  29
BRANCH  28  33
HETATM   33  O1  UNL     1      -6.861 -27.284 -26.978  1.00  0.00    -0.365 OA
ATOM     34  H1  UNL     1      -6.979 -26.347 -27.078  1.00  0.00     0.212 HD
ENDBRANCH  28  33
ENDBRANCH   1  28
BRANCH   1  35
HETATM   35  N2  UNL     1      -4.163 -29.515 -27.413  1.00  0.00    -0.023 N 
ATOM     36  H23 UNL     1      -3.152 -29.481 -27.278  1.00  0.00     0.280 HD
ATOM     37  H22 UNL     1      -4.249 -30.521 -27.269  1.00  0.00     0.280 HD
ATOM     38  H21 UNL     1      -4.485 -29.182 -28.322  1.00  0.00     0.280 HD
ENDBRANCH   1  35
TORSDOF 7
ENDMDL
