MODEL 1
REMARK VINA RESULT: -6.590695545      0.000      0.000
REMARK  7 active torsions:
REMARK  status: ('A' for Active; 'I' for Inactive)
REMARK       I    between atoms: C1_2  and  N2_4 
REMARK    1  A    between atoms: N2_4  and  N3_6 
REMARK       I    between atoms: N3_6  and  C2_8 
REMARK    2  A    between atoms: C2_8  and  C3_10 
REMARK    3  A    between atoms: C3_10  and  N4_11 
REMARK    4  A    between atoms: C4_16  and  C5_17 
REMARK       I    between atoms: C5_17  and  N7_19 
REMARK    5  A    between atoms: N7_19  and  C6_21 
REMARK    6  A    between atoms: C8_26  and  O4_27 
REMARK    7  A    between atoms: C9_29  and  O5_30 
ROOT
HETATM    1  N4  UNL     1       1.682 -24.493 -17.818  1.00  0.00    -0.209 N 
HETATM    2  N5  UNL     1       1.608 -23.698 -18.871  1.00  0.00    -0.224 N 
ATOM      3  H5  UNL     1       2.070 -22.793 -18.963  1.00  0.00     0.210 HD
HETATM    4  N6  UNL     1       0.840 -24.261 -19.781  1.00  0.00    -0.264 N 
ATOM      5  H6  UNL     1       0.612 -23.861 -20.691  1.00  0.00     0.190 HD
HETATM    6  C4  UNL     1       0.404 -25.445 -19.322  1.00  0.00     0.206 A 
HETATM    7  N10 UNL     1       0.948 -25.552 -18.102  1.00  0.00    -0.262 N 
ATOM      8  H10 UNL     1       0.812 -26.345 -17.476  1.00  0.00     0.190 HD
ENDROOT
BRANCH   6   9
HETATM    9  C5  UNL     1      -0.471 -26.385 -20.032  1.00  0.00     0.289 C 
HETATM   10  O3  UNL     1      -0.690 -27.533 -19.564  1.00  0.00    -0.264 OA
HETATM   11  N7  UNL     1      -1.048 -25.941 -21.250  1.00  0.00    -0.332 N 
ATOM     12  H7  UNL     1      -0.859 -25.006 -21.612  1.00  0.00     0.164 HD
BRANCH  11  13
HETATM   13  C6  UNL     1      -1.916 -26.857 -21.963  1.00  0.00     0.230 C 
HETATM   14  N8  UNL     1      -1.466 -26.975 -23.326  1.00  0.00    -0.117 NA
HETATM   15  N9  UNL     1      -2.485 -26.865 -24.248  1.00  0.00    -0.335 N 
HETATM   16  C7  UNL     1      -3.653 -27.636 -23.992  1.00  0.00     0.169 C 
ATOM     17  H9  UNL     1      -2.405 -26.265 -25.069  1.00  0.00     0.175 HD
HETATM   18  C8  UNL     1      -4.169 -27.508 -22.585  1.00  0.00     0.169 C 
HETATM   19  C9  UNL     1      -3.368 -26.419 -21.896  1.00  0.00     0.188 C 
BRANCH  18  20
HETATM   20  O4  UNL     1      -5.543 -27.214 -22.550  1.00  0.00    -0.391 OA
ATOM     21  H4  UNL     1      -5.799 -26.618 -23.244  1.00  0.00     0.210 HD
ENDBRANCH  18  20
BRANCH  19  22
HETATM   22  O5  UNL     1      -3.612 -25.238 -22.552  1.00  0.00    -0.389 OA
ATOM     23  H5  UNL     1      -3.442 -24.468 -22.021  1.00  0.00     0.210 HD
ENDBRANCH  19  22
ENDBRANCH  11  13
ENDBRANCH   6   9
BRANCH   1  24
HETATM   24  C3  UNL     1       2.447 -24.243 -16.584  1.00  0.00     0.275 C 
BRANCH  24  25
HETATM   25  C2  UNL     1       3.504 -23.267 -16.931  1.00  0.00     0.257 C 
HETATM   26  N3  UNL     1       4.803 -23.655 -17.327  1.00  0.00    -0.265 N 
ATOM     27  H3  UNL     1       5.051 -24.642 -17.387  1.00  0.00     0.190 HD
HETATM   28  O2  UNL     1       3.227 -22.053 -16.870  1.00  0.00    -0.270 OA
BRANCH  26  29
HETATM   29  N2  UNL     1       5.741 -22.673 -17.635  1.00  0.00    -0.251 N 
HETATM   30  C1  UNL     1       6.332 -22.622 -18.927  1.00  0.00     0.347 C 
HETATM   31  N1  UNL     1       7.289 -21.629 -19.261  1.00  0.00    -0.038 NA
HETATM   32  O1  UNL     1       6.019 -23.463 -19.805  1.00  0.00    -0.249 OA
ATOM     33  H2  UNL     1       6.004 -21.984 -16.930  1.00  0.00     0.191 HD
ENDBRANCH  26  29
ENDBRANCH  24  25
ENDBRANCH   1  24
TORSDOF 7
ENDMDL
MODEL 2
REMARK VINA RESULT: -6.545170488      4.057      6.087
REMARK  7 active torsions:
REMARK  status: ('A' for Active; 'I' for Inactive)
REMARK       I    between atoms: C1_2  and  N2_4 
REMARK    1  A    between atoms: N2_4  and  N3_6 
REMARK       I    between atoms: N3_6  and  C2_8 
REMARK    2  A    between atoms: C2_8  and  C3_10 
REMARK    3  A    between atoms: C3_10  and  N4_11 
REMARK    4  A    between atoms: C4_16  and  C5_17 
REMARK       I    between atoms: C5_17  and  N7_19 
REMARK    5  A    between atoms: N7_19  and  C6_21 
REMARK    6  A    between atoms: C8_26  and  O4_27 
REMARK    7  A    between atoms: C9_29  and  O5_30 
ROOT
HETATM    1  N4  UNL     1      -0.935 -27.092 -22.414  1.00  0.00    -0.209 N 
HETATM    2  N5  UNL     1      -2.209 -26.811 -22.203  1.00  0.00    -0.224 N 
ATOM      3  H5  UNL     1      -2.640 -26.666 -21.290  1.00  0.00     0.210 HD
HETATM    4  N6  UNL     1      -2.833 -26.748 -23.362  1.00  0.00    -0.264 N 
ATOM      5  H6  UNL     1      -3.824 -26.547 -23.489  1.00  0.00     0.190 HD
HETATM    6  C4  UNL     1      -1.956 -26.990 -24.350  1.00  0.00     0.206 A 
HETATM    7  N10 UNL     1      -0.792 -27.199 -23.721  1.00  0.00    -0.262 N 
ATOM      8  H10 UNL     1       0.088 -27.413 -24.190  1.00  0.00     0.190 HD
ENDROOT
BRANCH   6   9
HETATM    9  C5  UNL     1      -2.250 -27.009 -25.787  1.00  0.00     0.289 C 
HETATM   10  O3  UNL     1      -3.313 -27.531 -26.215  1.00  0.00    -0.264 OA
HETATM   11  N7  UNL     1      -1.294 -26.418 -26.653  1.00  0.00    -0.332 N 
ATOM     12  H7  UNL     1      -0.439 -26.000 -26.287  1.00  0.00     0.164 HD
BRANCH  11  13
HETATM   13  C6  UNL     1      -1.571 -26.428 -28.076  1.00  0.00     0.230 C 
HETATM   14  N8  UNL     1      -0.351 -26.690 -28.796  1.00  0.00    -0.117 NA
HETATM   15  N9  UNL     1      -0.147 -25.830 -29.855  1.00  0.00    -0.335 N 
HETATM   16  C7  UNL     1      -1.256 -25.622 -30.721  1.00  0.00     0.169 C 
ATOM     17  H9  UNL     1       0.750 -25.370 -30.008  1.00  0.00     0.175 HD
HETATM   18  C8  UNL     1      -2.540 -25.312 -30.001  1.00  0.00     0.169 C 
HETATM   19  C9  UNL     1      -2.212 -25.129 -28.530  1.00  0.00     0.188 C 
BRANCH  18  20
HETATM   20  O4  UNL     1      -3.173 -24.169 -30.517  1.00  0.00    -0.391 OA
ATOM     21  H4  UNL     1      -4.098 -24.145 -30.303  1.00  0.00     0.210 HD
ENDBRANCH  18  20
BRANCH  19  22
HETATM   22  O5  UNL     1      -1.383 -24.042 -28.416  1.00  0.00    -0.389 OA
ATOM     23  H5  UNL     1      -1.616 -23.326 -28.995  1.00  0.00     0.210 HD
ENDBRANCH  19  22
ENDBRANCH  11  13
ENDBRANCH   6   9
BRANCH   1  24
HETATM   24  C3  UNL     1       0.110 -27.242 -21.386  1.00  0.00     0.275 C 
BRANCH  24  25
HETATM   25  C2  UNL     1       0.459 -25.877 -20.935  1.00  0.00     0.257 C 
HETATM   26  N3  UNL     1       0.777 -25.573 -19.592  1.00  0.00    -0.265 N 
ATOM     27  H3  UNL     1       0.776 -26.305 -18.883  1.00  0.00     0.190 HD
HETATM   28  O2  UNL     1       0.471 -24.963 -21.782  1.00  0.00    -0.270 OA
BRANCH  26  29
HETATM   29  N2  UNL     1       1.093 -24.260 -19.250  1.00  0.00    -0.251 N 
HETATM   30  C1  UNL     1       2.450 -23.854 -19.132  1.00  0.00     0.347 C 
HETATM   31  N1  UNL     1       2.793 -22.521 -18.785  1.00  0.00    -0.038 NA
HETATM   32  O1  UNL     1       3.380 -24.673 -19.332  1.00  0.00    -0.249 OA
ATOM     33  H2  UNL     1       0.345 -23.586 -19.084  1.00  0.00     0.191 HD
ENDBRANCH  26  29
ENDBRANCH  24  25
ENDBRANCH   1  24
TORSDOF 7
ENDMDL
MODEL 3
REMARK VINA RESULT: -6.495668680      3.253      5.549
REMARK  7 active torsions:
REMARK  status: ('A' for Active; 'I' for Inactive)
REMARK       I    between atoms: C1_2  and  N2_4 
REMARK    1  A    between atoms: N2_4  and  N3_6 
REMARK       I    between atoms: N3_6  and  C2_8 
REMARK    2  A    between atoms: C2_8  and  C3_10 
REMARK    3  A    between atoms: C3_10  and  N4_11 
REMARK    4  A    between atoms: C4_16  and  C5_17 
REMARK       I    between atoms: C5_17  and  N7_19 
REMARK    5  A    between atoms: N7_19  and  C6_21 
REMARK    6  A    between atoms: C8_26  and  O4_27 
REMARK    7  A    between atoms: C9_29  and  O5_30 
ROOT
HETATM    1  N4  UNL     1       1.702 -24.924 -15.536  1.00  0.00    -0.209 N 
HETATM    2  N5  UNL     1       2.673 -24.153 -15.993  1.00  0.00    -0.224 N 
ATOM      3  H5  UNL     1       3.386 -23.698 -15.422  1.00  0.00     0.210 HD
HETATM    4  N6  UNL     1       2.571 -24.065 -17.304  1.00  0.00    -0.264 N 
ATOM      5  H6  UNL     1       3.193 -23.531 -17.910  1.00  0.00     0.190 HD
HETATM    6  C4  UNL     1       1.519 -24.791 -17.715  1.00  0.00     0.206 A 
HETATM    7  N10 UNL     1       1.007 -25.306 -16.590  1.00  0.00    -0.262 N 
ATOM      8  H10 UNL     1       0.189 -25.914 -16.553  1.00  0.00     0.190 HD
ENDROOT
BRANCH   6   9
HETATM    9  C5  UNL     1       1.066 -24.957 -19.101  1.00  0.00     0.289 C 
HETATM   10  O3  UNL     1       1.649 -24.353 -20.040  1.00  0.00    -0.264 OA
HETATM   11  N7  UNL     1      -0.039 -25.817 -19.324  1.00  0.00    -0.332 N 
ATOM     12  H7  UNL     1      -0.497 -26.298 -18.550  1.00  0.00     0.164 HD
BRANCH  11  13
HETATM   13  C6  UNL     1      -0.497 -25.993 -20.688  1.00  0.00     0.230 C 
HETATM   14  N8  UNL     1      -1.845 -25.500 -20.804  1.00  0.00    -0.117 NA
HETATM   15  N9  UNL     1      -2.689 -26.366 -21.466  1.00  0.00    -0.335 N 
HETATM   16  C7  UNL     1      -2.201 -26.912 -22.686  1.00  0.00     0.169 C 
ATOM     17  H9  UNL     1      -3.611 -26.604 -21.101  1.00  0.00     0.175 HD
HETATM   18  C8  UNL     1      -0.807 -27.467 -22.591  1.00  0.00     0.169 C 
HETATM   19  C9  UNL     1      -0.400 -27.442 -21.129  1.00  0.00     0.188 C 
BRANCH  18  20
HETATM   20  O4  UNL     1      -0.720 -28.770 -23.111  1.00  0.00    -0.391 OA
ATOM     21  H4  UNL     1       0.132 -29.160 -22.957  1.00  0.00     0.210 HD
ENDBRANCH  18  20
BRANCH  19  22
HETATM   22  O5  UNL     1      -1.244 -28.279 -20.443  1.00  0.00    -0.389 OA
ATOM     23  H5  UNL     1      -2.156 -28.182 -20.690  1.00  0.00     0.210 HD
ENDBRANCH  19  22
ENDBRANCH  11  13
ENDBRANCH   6   9
BRANCH   1  24
HETATM   24  C3  UNL     1       1.462 -25.288 -14.128  1.00  0.00     0.275 C 
BRANCH  24  25
HETATM   25  C2  UNL     1       0.264 -26.157 -14.114  1.00  0.00     0.257 C 
HETATM   26  N3  UNL     1       0.326 -27.540 -13.830  1.00  0.00    -0.265 N 
ATOM     27  H3  UNL     1       1.218 -27.985 -13.620  1.00  0.00     0.190 HD
HETATM   28  O2  UNL     1      -0.841 -25.638 -14.364  1.00  0.00    -0.270 OA
BRANCH  26  29
HETATM   29  N2  UNL     1      -0.850 -28.287 -13.839  1.00  0.00    -0.251 N 
HETATM   30  C1  UNL     1      -1.168 -29.114 -14.950  1.00  0.00     0.347 C 
HETATM   31  N1  UNL     1      -2.360 -29.883 -14.979  1.00  0.00    -0.038 NA
HETATM   32  O1  UNL     1      -0.395 -29.180 -15.937  1.00  0.00    -0.249 OA
ATOM     33  H2  UNL     1      -1.486 -28.240 -13.043  1.00  0.00     0.191 HD
ENDBRANCH  26  29
ENDBRANCH  24  25
ENDBRANCH   1  24
TORSDOF 7
ENDMDL
MODEL 4
REMARK VINA RESULT: -6.459459313      2.757      8.869
REMARK  7 active torsions:
REMARK  status: ('A' for Active; 'I' for Inactive)
REMARK       I    between atoms: C1_2  and  N2_4 
REMARK    1  A    between atoms: N2_4  and  N3_6 
REMARK       I    between atoms: N3_6  and  C2_8 
REMARK    2  A    between atoms: C2_8  and  C3_10 
REMARK    3  A    between atoms: C3_10  and  N4_11 
REMARK    4  A    between atoms: C4_16  and  C5_17 
REMARK       I    between atoms: C5_17  and  N7_19 
REMARK    5  A    between atoms: N7_19  and  C6_21 
REMARK    6  A    between atoms: C8_26  and  O4_27 
REMARK    7  A    between atoms: C9_29  and  O5_30 
ROOT
HETATM    1  N4  UNL     1      -1.272 -27.538 -23.150  1.00  0.00    -0.209 N 
HETATM    2  N5  UNL     1      -0.036 -28.000 -23.078  1.00  0.00    -0.224 N 
ATOM      3  H5  UNL     1       0.382 -28.676 -23.719  1.00  0.00     0.210 HD
HETATM    4  N6  UNL     1       0.570 -27.450 -22.045  1.00  0.00    -0.264 N 
ATOM      5  H6  UNL     1       1.531 -27.632 -21.759  1.00  0.00     0.190 HD
HETATM    6  C4  UNL     1      -0.280 -26.611 -21.430  1.00  0.00     0.206 A 
HETATM    7  N10 UNL     1      -1.409 -26.695 -22.144  1.00  0.00    -0.262 N 
ATOM      8  H10 UNL     1      -2.263 -26.176 -21.939  1.00  0.00     0.190 HD
ENDROOT
BRANCH   6   9
HETATM    9  C5  UNL     1       0.008 -25.801 -20.241  1.00  0.00     0.289 C 
HETATM   10  O3  UNL     1      -0.811 -25.753 -19.286  1.00  0.00    -0.264 OA
HETATM   11  N7  UNL     1       1.235 -25.088 -20.222  1.00  0.00    -0.332 N 
ATOM     12  H7  UNL     1       1.886 -25.140 -21.006  1.00  0.00     0.164 HD
BRANCH  11  13
HETATM   13  C6  UNL     1       1.534 -24.283 -19.055  1.00  0.00     0.230 C 
HETATM   14  N8  UNL     1       2.453 -23.237 -19.420  1.00  0.00    -0.117 NA
HETATM   15  N9  UNL     1       3.511 -23.109 -18.545  1.00  0.00    -0.335 N 
HETATM   16  C7  UNL     1       3.185 -23.088 -17.161  1.00  0.00     0.169 C 
ATOM     17  H9  UNL     1       4.474 -23.034 -18.872  1.00  0.00     0.175 HD
HETATM   18  C8  UNL     1       2.252 -24.189 -16.738  1.00  0.00     0.169 C 
HETATM   19  C9  UNL     1       2.082 -25.129 -17.919  1.00  0.00     0.188 C 
BRANCH  18  20
HETATM   20  O4  UNL     1       2.728 -24.883 -15.613  1.00  0.00    -0.391 OA
ATOM     21  H4  UNL     1       2.069 -24.959 -14.934  1.00  0.00     0.210 HD
ENDBRANCH  18  20
BRANCH  19  22
HETATM   22  O5  UNL     1       3.306 -25.684 -18.194  1.00  0.00    -0.389 OA
ATOM     23  H5  UNL     1       3.266 -26.616 -18.378  1.00  0.00     0.210 HD
ENDBRANCH  19  22
ENDBRANCH  11  13
ENDBRANCH   6   9
BRANCH   1  24
HETATM   24  C3  UNL     1      -2.281 -27.890 -24.163  1.00  0.00     0.275 C 
BRANCH  24  25
HETATM   25  C2  UNL     1      -2.264 -26.809 -25.173  1.00  0.00     0.257 C 
HETATM   26  N3  UNL     1      -3.090 -26.819 -26.320  1.00  0.00    -0.265 N 
ATOM     27  H3  UNL     1      -3.736 -27.589 -26.483  1.00  0.00     0.190 HD
HETATM   28  O2  UNL     1      -1.485 -25.852 -24.996  1.00  0.00    -0.270 OA
BRANCH  26  29
HETATM   29  N2  UNL     1      -3.010 -25.761 -27.222  1.00  0.00    -0.251 N 
HETATM   30  C1  UNL     1      -2.169 -25.853 -28.365  1.00  0.00     0.347 C 
HETATM   31  N1  UNL     1      -2.073 -24.787 -29.297  1.00  0.00    -0.038 NA
HETATM   32  O1  UNL     1      -1.488 -26.887 -28.573  1.00  0.00    -0.249 OA
ATOM     33  H2  UNL     1      -3.558 -24.916 -27.063  1.00  0.00     0.191 HD
ENDBRANCH  26  29
ENDBRANCH  24  25
ENDBRANCH   1  24
TORSDOF 7
ENDMDL
MODEL 5
REMARK VINA RESULT: -6.442652687      2.390      4.082
REMARK  7 active torsions:
REMARK  status: ('A' for Active; 'I' for Inactive)
REMARK       I    between atoms: C1_2  and  N2_4 
REMARK    1  A    between atoms: N2_4  and  N3_6 
REMARK       I    between atoms: N3_6  and  C2_8 
REMARK    2  A    between atoms: C2_8  and  C3_10 
REMARK    3  A    between atoms: C3_10  and  N4_11 
REMARK    4  A    between atoms: C4_16  and  C5_17 
REMARK       I    between atoms: C5_17  and  N7_19 
REMARK    5  A    between atoms: N7_19  and  C6_21 
REMARK    6  A    between atoms: C8_26  and  O4_27 
REMARK    7  A    between atoms: C9_29  and  O5_30 
ROOT
HETATM    1  N4  UNL     1       1.733 -24.317 -17.953  1.00  0.00    -0.209 N 
HETATM    2  N5  UNL     1       1.809 -23.642 -19.087  1.00  0.00    -0.224 N 
ATOM      3  H5  UNL     1       2.349 -22.788 -19.232  1.00  0.00     0.210 HD
HETATM    4  N6  UNL     1       1.075 -24.248 -19.998  1.00  0.00    -0.264 N 
ATOM      5  H6  UNL     1       0.955 -23.938 -20.962  1.00  0.00     0.190 HD
HETATM    6  C4  UNL     1       0.509 -25.339 -19.456  1.00  0.00     0.206 A 
HETATM    7  N10 UNL     1       0.941 -25.346 -18.188  1.00  0.00    -0.262 N 
ATOM      8  H10 UNL     1       0.691 -26.052 -17.497  1.00  0.00     0.190 HD
ENDROOT
BRANCH   6   9
HETATM    9  C5  UNL     1      -0.378 -26.287 -20.139  1.00  0.00     0.289 C 
HETATM   10  O3  UNL     1      -0.616 -27.416 -19.634  1.00  0.00    -0.264 OA
HETATM   11  N7  UNL     1      -0.944 -25.875 -21.373  1.00  0.00    -0.332 N 
ATOM     12  H7  UNL     1      -0.739 -24.955 -21.765  1.00  0.00     0.164 HD
BRANCH  11  13
HETATM   13  C6  UNL     1      -1.823 -26.801 -22.059  1.00  0.00     0.230 C 
HETATM   14  N8  UNL     1      -1.433 -26.891 -23.442  1.00  0.00    -0.117 NA
HETATM   15  N9  UNL     1      -2.495 -26.791 -24.317  1.00  0.00    -0.335 N 
HETATM   16  C7  UNL     1      -3.633 -27.590 -24.019  1.00  0.00     0.169 C 
ATOM     17  H9  UNL     1      -2.465 -26.179 -25.132  1.00  0.00     0.175 HD
HETATM   18  C8  UNL     1      -4.088 -27.492 -22.589  1.00  0.00     0.169 C 
HETATM   19  C9  UNL     1      -3.280 -26.395 -21.921  1.00  0.00     0.188 C 
BRANCH  18  20
HETATM   20  O4  UNL     1      -5.465 -27.229 -22.488  1.00  0.00    -0.391 OA
ATOM     21  H4  UNL     1      -5.659 -26.594 -21.810  1.00  0.00     0.210 HD
ENDBRANCH  18  20
BRANCH  19  22
HETATM   22  O5  UNL     1      -3.578 -25.211 -22.549  1.00  0.00    -0.389 OA
ATOM     23  H5  UNL     1      -4.504 -24.997 -22.533  1.00  0.00     0.210 HD
ENDBRANCH  19  22
ENDBRANCH  11  13
ENDBRANCH   6   9
BRANCH   1  24
HETATM   24  C3  UNL     1       2.411 -23.984 -16.688  1.00  0.00     0.275 C 
BRANCH  24  25
HETATM   25  C2  UNL     1       2.251 -25.157 -15.800  1.00  0.00     0.257 C 
HETATM   26  N3  UNL     1       1.504 -25.113 -14.602  1.00  0.00    -0.265 N 
ATOM     27  H3  UNL     1       1.044 -24.252 -14.312  1.00  0.00     0.190 HD
HETATM   28  O2  UNL     1       2.801 -26.225 -16.132  1.00  0.00    -0.270 OA
BRANCH  26  29
HETATM   29  N2  UNL     1       1.405 -26.263 -13.822  1.00  0.00    -0.251 N 
HETATM   30  C1  UNL     1       0.149 -26.902 -13.639  1.00  0.00     0.347 C 
HETATM   31  N1  UNL     1       0.026 -28.074 -12.849  1.00  0.00    -0.038 NA
HETATM   32  O1  UNL     1      -0.886 -26.438 -14.177  1.00  0.00    -0.249 OA
ATOM     33  H2  UNL     1       2.239 -26.649 -13.379  1.00  0.00     0.191 HD
ENDBRANCH  26  29
ENDBRANCH  24  25
ENDBRANCH   1  24
TORSDOF 7
ENDMDL
