MODEL 1
REMARK VINA RESULT: -7.465516040      0.000      0.000
REMARK  9 active torsions:
REMARK  status: ('A' for Active; 'I' for Inactive)
REMARK    1  A    between atoms: C2_2  and  C3_3 
REMARK    2  A    between atoms: C3_3  and  C4_4 
REMARK    3  A    between atoms: C4_4  and  C5_5 
REMARK    4  A    between atoms: C4_4  and  C8_8 
REMARK    5  A    between atoms: C5_5  and  C6_6 
REMARK    6  A    between atoms: C8_8  and  C9_10 
REMARK    7  A    between atoms: C9_10  and  C10_11 
REMARK    8  A    between atoms: C10_11  and  C11_12 
REMARK    9  A    between atoms: C14_15  and  C15_16 
ROOT
HETATM    1  C9  UNL     1       6.603 -23.486   0.467  1.00  0.00     0.083 C 
ENDROOT
BRANCH   1   2
HETATM    2  C8  UNL     1       7.366 -22.563   1.315  1.00  0.00     0.132 C 
HETATM    3  O1  UNL     1       7.996 -23.038   2.301  1.00  0.00    -0.298 OA
BRANCH   2   4
HETATM    4  C4  UNL     1       7.518 -21.099   1.179  1.00  0.00     0.062 C 
BRANCH   4   5
HETATM    5  C3  UNL     1       7.304 -20.689  -0.286  1.00  0.00     0.038 C 
BRANCH   5   6
HETATM    6  C2  UNL     1       6.275 -19.655  -0.466  1.00  0.00    -0.036 C 
HETATM    7  C1  UNL     1       6.644 -18.381  -0.560  1.00  0.00     0.007 C 
ENDBRANCH   5   6
ENDBRANCH   4   5
BRANCH   4   8
HETATM    8  C5  UNL     1       8.864 -20.550   1.569  1.00  0.00     0.038 C 
BRANCH   8   9
HETATM    9  C6  UNL     1       9.838 -20.584   0.449  1.00  0.00    -0.036 C 
HETATM   10  C7  UNL     1      11.070 -20.148   0.604  1.00  0.00     0.007 C 
ENDBRANCH   8   9
ENDBRANCH   4   8
ENDBRANCH   2   4
ENDBRANCH   1   2
BRANCH   1  11
HETATM   11  C10 UNL     1       7.418 -24.378  -0.385  1.00  0.00     0.046 C 
BRANCH  11  12
HETATM   12  C11 UNL     1       7.193 -24.154  -1.841  1.00  0.00    -0.052 A 
HETATM   13  C12 UNL     1       6.297 -23.208  -2.271  1.00  0.00     0.008 A 
HETATM   14  C13 UNL     1       6.034 -22.957  -3.601  1.00  0.00     0.015 A 
HETATM   15  C14 UNL     1       6.725 -23.712  -4.544  1.00  0.00     0.002 A 
HETATM   16  C16 UNL     1       7.624 -24.660  -4.103  1.00  0.00     0.021 A 
HETATM   17  C17 UNL     1       7.886 -24.912  -2.771  1.00  0.00    -0.055 A 
HETATM   18  C18 UNL     1       8.857 -25.933  -2.323  1.00  0.00     0.049 C 
BRANCH  15  19
HETATM   19  C15 UNL     1       6.496 -23.502  -5.962  1.00  0.00     0.269 C 
HETATM   20  O2  UNL     1       5.798 -22.552  -6.387  1.00  0.00    -0.301 OA
ENDBRANCH  15  19
ENDBRANCH  11  12
ENDBRANCH   1  11
TORSDOF 9
ENDMDL
MODEL 2
REMARK VINA RESULT: -7.368387441      1.027      1.029
REMARK  9 active torsions:
REMARK  status: ('A' for Active; 'I' for Inactive)
REMARK    1  A    between atoms: C2_2  and  C3_3 
REMARK    2  A    between atoms: C3_3  and  C4_4 
REMARK    3  A    between atoms: C4_4  and  C5_5 
REMARK    4  A    between atoms: C4_4  and  C8_8 
REMARK    5  A    between atoms: C5_5  and  C6_6 
REMARK    6  A    between atoms: C8_8  and  C9_10 
REMARK    7  A    between atoms: C9_10  and  C10_11 
REMARK    8  A    between atoms: C10_11  and  C11_12 
REMARK    9  A    between atoms: C14_15  and  C15_16 
ROOT
HETATM    1  C9  UNL     1       6.936 -23.526   0.089  1.00  0.00     0.083 C 
ENDROOT
BRANCH   1   2
HETATM    2  C8  UNL     1       7.372 -22.680   1.206  1.00  0.00     0.132 C 
HETATM    3  O1  UNL     1       7.963 -23.229   2.177  1.00  0.00    -0.298 OA
BRANCH   2   4
HETATM    4  C4  UNL     1       7.219 -21.218   1.369  1.00  0.00     0.062 C 
BRANCH   4   5
HETATM    5  C3  UNL     1       6.381 -20.651   0.213  1.00  0.00     0.038 C 
BRANCH   5   6
HETATM    6  C2  UNL     1       6.747 -19.279  -0.164  1.00  0.00    -0.036 C 
HETATM    7  C1  UNL     1       6.293 -18.777  -1.308  1.00  0.00     0.007 C 
ENDBRANCH   5   6
ENDBRANCH   4   5
BRANCH   4   8
HETATM    8  C5  UNL     1       8.502 -20.432   1.374  1.00  0.00     0.038 C 
BRANCH   8   9
HETATM    9  C6  UNL     1       9.501 -20.970   0.416  1.00  0.00    -0.036 C 
HETATM   10  C7  UNL     1      10.714 -20.463   0.338  1.00  0.00     0.007 C 
ENDBRANCH   8   9
ENDBRANCH   4   8
ENDBRANCH   2   4
ENDBRANCH   1   2
BRANCH   1  11
HETATM   11  C10 UNL     1       7.997 -23.902  -0.867  1.00  0.00     0.046 C 
BRANCH  11  12
HETATM   12  C11 UNL     1       7.716 -23.443  -2.257  1.00  0.00    -0.052 A 
HETATM   13  C12 UNL     1       7.256 -22.173  -2.492  1.00  0.00     0.008 A 
HETATM   14  C13 UNL     1       6.967 -21.688  -3.750  1.00  0.00     0.015 A 
HETATM   15  C14 UNL     1       7.160 -22.547  -4.828  1.00  0.00     0.002 A 
HETATM   16  C16 UNL     1       7.623 -23.823  -4.582  1.00  0.00     0.021 A 
HETATM   17  C17 UNL     1       7.912 -24.308  -3.322  1.00  0.00    -0.055 A 
HETATM   18  C18 UNL     1       8.410 -25.680  -3.085  1.00  0.00     0.049 C 
BRANCH  15  19
HETATM   19  C15 UNL     1       6.875 -22.104  -6.180  1.00  0.00     0.269 C 
HETATM   20  O2  UNL     1       7.689 -21.415  -6.837  1.00  0.00    -0.301 OA
ENDBRANCH  15  19
ENDBRANCH  11  12
ENDBRANCH   1  11
TORSDOF 9
ENDMDL
MODEL 3
REMARK VINA RESULT: -7.339208696      3.162      5.168
REMARK  9 active torsions:
REMARK  status: ('A' for Active; 'I' for Inactive)
REMARK    1  A    between atoms: C2_2  and  C3_3 
REMARK    2  A    between atoms: C3_3  and  C4_4 
REMARK    3  A    between atoms: C4_4  and  C5_5 
REMARK    4  A    between atoms: C4_4  and  C8_8 
REMARK    5  A    between atoms: C5_5  and  C6_6 
REMARK    6  A    between atoms: C8_8  and  C9_10 
REMARK    7  A    between atoms: C9_10  and  C10_11 
REMARK    8  A    between atoms: C10_11  and  C11_12 
REMARK    9  A    between atoms: C14_15  and  C15_16 
ROOT
HETATM    1  C9  UNL     1       6.544 -19.244  -0.464  1.00  0.00     0.083 C 
ENDROOT
BRANCH   1   2
HETATM    2  C8  UNL     1       6.368 -20.548   0.187  1.00  0.00     0.132 C 
HETATM    3  O1  UNL     1       5.203 -20.891   0.531  1.00  0.00    -0.298 OA
BRANCH   2   4
HETATM    4  C4  UNL     1       7.393 -21.563   0.509  1.00  0.00     0.062 C 
BRANCH   4   5
HETATM    5  C3  UNL     1       8.641 -20.876   1.085  1.00  0.00     0.038 C 
BRANCH   5   6
HETATM    6  C2  UNL     1       9.806 -20.924   0.191  1.00  0.00    -0.036 C 
HETATM    7  C1  UNL     1      10.875 -20.188   0.479  1.00  0.00     0.007 C 
ENDBRANCH   5   6
ENDBRANCH   4   5
BRANCH   4   8
HETATM    8  C5  UNL     1       7.875 -22.386  -0.655  1.00  0.00     0.038 C 
BRANCH   8   9
HETATM    9  C6  UNL     1       6.955 -23.507  -0.978  1.00  0.00    -0.036 C 
HETATM   10  C7  UNL     1       6.308 -23.550  -2.123  1.00  0.00     0.007 C 
ENDBRANCH   8   9
ENDBRANCH   4   8
ENDBRANCH   2   4
ENDBRANCH   1   2
BRANCH   1  11
HETATM   11  C10 UNL     1       6.555 -19.274  -1.941  1.00  0.00     0.046 C 
BRANCH  11  12
HETATM   12  C11 UNL     1       7.908 -19.030  -2.517  1.00  0.00    -0.052 A 
HETATM   13  C12 UNL     1       8.761 -18.129  -1.933  1.00  0.00     0.008 A 
HETATM   14  C13 UNL     1      10.020 -17.848  -2.419  1.00  0.00     0.015 A 
HETATM   15  C14 UNL     1      10.432 -18.526  -3.562  1.00  0.00     0.002 A 
HETATM   16  C16 UNL     1       9.568 -19.431  -4.142  1.00  0.00     0.021 A 
HETATM   17  C17 UNL     1       8.306 -19.711  -3.656  1.00  0.00    -0.055 A 
HETATM   18  C18 UNL     1       7.398 -20.688  -4.295  1.00  0.00     0.049 C 
BRANCH  15  19
HETATM   19  C15 UNL     1      11.745 -18.279  -4.129  1.00  0.00     0.269 C 
HETATM   20  O2  UNL     1      12.417 -19.190  -4.667  1.00  0.00    -0.301 OA
ENDBRANCH  15  19
ENDBRANCH  11  12
ENDBRANCH   1  11
TORSDOF 9
ENDMDL
MODEL 4
REMARK VINA RESULT: -7.305236484      5.297      8.148
REMARK  9 active torsions:
REMARK  status: ('A' for Active; 'I' for Inactive)
REMARK    1  A    between atoms: C2_2  and  C3_3 
REMARK    2  A    between atoms: C3_3  and  C4_4 
REMARK    3  A    between atoms: C4_4  and  C5_5 
REMARK    4  A    between atoms: C4_4  and  C8_8 
REMARK    5  A    between atoms: C5_5  and  C6_6 
REMARK    6  A    between atoms: C8_8  and  C9_10 
REMARK    7  A    between atoms: C9_10  and  C10_11 
REMARK    8  A    between atoms: C10_11  and  C11_12 
REMARK    9  A    between atoms: C14_15  and  C15_16 
ROOT
HETATM    1  C9  UNL     1       9.529 -19.965  -6.224  1.00  0.00     0.083 C 
ENDROOT
BRANCH   1   2
HETATM    2  C8  UNL     1       8.078 -19.922  -6.435  1.00  0.00     0.132 C 
HETATM    3  O1  UNL     1       7.647 -19.853  -7.620  1.00  0.00    -0.298 OA
BRANCH   2   4
HETATM    4  C4  UNL     1       6.998 -19.951  -5.425  1.00  0.00     0.062 C 
BRANCH   4   5
HETATM    5  C3  UNL     1       6.015 -21.086  -5.749  1.00  0.00     0.038 C 
BRANCH   5   6
HETATM    6  C2  UNL     1       6.482 -22.412  -5.323  1.00  0.00    -0.036 C 
HETATM    7  C1  UNL     1       6.387 -23.436  -6.165  1.00  0.00     0.007 C 
ENDBRANCH   5   6
ENDBRANCH   4   5
BRANCH   4   8
HETATM    8  C5  UNL     1       6.169 -18.699  -5.331  1.00  0.00     0.038 C 
BRANCH   8   9
HETATM    9  C6  UNL     1       6.469 -17.909  -4.110  1.00  0.00    -0.036 C 
HETATM   10  C7  UNL     1       6.703 -16.615  -4.176  1.00  0.00     0.007 C 
ENDBRANCH   8   9
ENDBRANCH   4   8
ENDBRANCH   2   4
ENDBRANCH   1   2
BRANCH   1  11
HETATM   11  C10 UNL     1       9.981 -19.574  -4.872  1.00  0.00     0.046 C 
BRANCH  11  12
HETATM   12  C11 UNL     1      10.338 -18.130  -4.774  1.00  0.00    -0.052 A 
HETATM   13  C12 UNL     1      10.721 -17.430  -5.890  1.00  0.00     0.008 A 
HETATM   14  C13 UNL     1      11.072 -16.098  -5.868  1.00  0.00     0.015 A 
HETATM   15  C14 UNL     1      11.029 -15.443  -4.641  1.00  0.00     0.002 A 
HETATM   16  C16 UNL     1      10.642 -16.155  -3.525  1.00  0.00     0.021 A 
HETATM   17  C17 UNL     1      10.291 -17.490  -3.547  1.00  0.00    -0.055 A 
HETATM   18  C18 UNL     1       9.876 -18.231  -2.336  1.00  0.00     0.049 C 
BRANCH  15  19
HETATM   19  C15 UNL     1      11.388 -14.040  -4.544  1.00  0.00     0.269 C 
HETATM   20  O2  UNL     1      10.740 -13.147  -5.140  1.00  0.00    -0.301 OA
ENDBRANCH  15  19
ENDBRANCH  11  12
ENDBRANCH   1  11
TORSDOF 9
ENDMDL
MODEL 5
REMARK VINA RESULT: -7.300338019      4.789      6.868
REMARK  9 active torsions:
REMARK  status: ('A' for Active; 'I' for Inactive)
REMARK    1  A    between atoms: C2_2  and  C3_3 
REMARK    2  A    between atoms: C3_3  and  C4_4 
REMARK    3  A    between atoms: C4_4  and  C5_5 
REMARK    4  A    between atoms: C4_4  and  C8_8 
REMARK    5  A    between atoms: C5_5  and  C6_6 
REMARK    6  A    between atoms: C8_8  and  C9_10 
REMARK    7  A    between atoms: C9_10  and  C10_11 
REMARK    8  A    between atoms: C10_11  and  C11_12 
REMARK    9  A    between atoms: C14_15  and  C15_16 
ROOT
HETATM    1  C9  UNL     1       8.693 -18.962  -6.760  1.00  0.00     0.083 C 
ENDROOT
BRANCH   1   2
HETATM    2  C8  UNL     1       9.858 -19.284  -5.929  1.00  0.00     0.132 C 
HETATM    3  O1  UNL     1      10.164 -20.499  -5.771  1.00  0.00    -0.298 OA
BRANCH   2   4
HETATM    4  C4  UNL     1      10.769 -18.359  -5.221  1.00  0.00     0.062 C 
BRANCH   4   5
HETATM    5  C3  UNL     1      11.069 -18.901  -3.815  1.00  0.00     0.038 C 
BRANCH   5   6
HETATM    6  C2  UNL     1      10.221 -18.321  -2.765  1.00  0.00    -0.036 C 
HETATM    7  C1  UNL     1       9.988 -19.021  -1.659  1.00  0.00     0.007 C 
ENDBRANCH   5   6
ENDBRANCH   4   5
BRANCH   4   8
HETATM    8  C5  UNL     1      10.243 -16.963  -5.021  1.00  0.00     0.038 C 
BRANCH   8   9
HETATM    9  C6  UNL     1      11.161 -15.928  -5.561  1.00  0.00    -0.036 C 
HETATM   10  C7  UNL     1      11.946 -15.232  -4.765  1.00  0.00     0.007 C 
ENDBRANCH   8   9
ENDBRANCH   4   8
ENDBRANCH   2   4
ENDBRANCH   1   2
BRANCH   1  11
HETATM   11  C10 UNL     1       7.406 -19.504  -6.277  1.00  0.00     0.046 C 
BRANCH  11  12
HETATM   12  C11 UNL     1       6.996 -18.939  -4.961  1.00  0.00    -0.052 A 
HETATM   13  C12 UNL     1       6.669 -17.612  -4.843  1.00  0.00     0.008 A 
HETATM   14  C13 UNL     1       6.291 -17.024  -3.655  1.00  0.00     0.015 A 
HETATM   15  C14 UNL     1       6.241 -17.835  -2.525  1.00  0.00     0.002 A 
HETATM   16  C16 UNL     1       6.571 -19.168  -2.653  1.00  0.00     0.021 A 
HETATM   17  C17 UNL     1       6.950 -19.756  -3.843  1.00  0.00    -0.055 A 
HETATM   18  C18 UNL     1       7.297 -21.190  -3.955  1.00  0.00     0.049 C 
BRANCH  15  19
HETATM   19  C15 UNL     1       5.853 -17.281  -1.241  1.00  0.00     0.269 C 
HETATM   20  O2  UNL     1       4.984 -16.384  -1.142  1.00  0.00    -0.301 OA
ENDBRANCH  15  19
ENDBRANCH  11  12
ENDBRANCH   1  11
TORSDOF 9
ENDMDL
