MODEL 1
REMARK VINA RESULT: -7.185561957      0.000      0.000
REMARK  9 active torsions:
REMARK  status: ('A' for Active; 'I' for Inactive)
REMARK    1  A    between atoms: C2_2  and  C3_3 
REMARK    2  A    between atoms: C3_3  and  C4_4 
REMARK    3  A    between atoms: C6_6  and  C7_7 
REMARK    4  A    between atoms: C7_7  and  O1_8 
REMARK    5  A    between atoms: C7_7  and  C8_10 
REMARK    6  A    between atoms: C11_13  and  O2_14 
REMARK    7  A    between atoms: O2_14  and  C12_15 
REMARK    8  A    between atoms: C14_17  and  C15_18 
REMARK    9  A    between atoms: C16_19  and  C17_20 
ROOT
HETATM    1  C4  UNL     1       6.888 -22.920  -3.122  1.00  0.00    -0.041 A 
HETATM    2  C5  UNL     1       7.084 -22.418  -4.499  1.00  0.00     0.022 A 
HETATM    3  C6  UNL     1       7.550 -21.091  -4.637  1.00  0.00     0.000 A 
HETATM    4  C10 UNL     1       7.799 -20.371  -3.512  1.00  0.00     0.052 A 
HETATM    5  C11 UNL     1       7.615 -20.865  -2.207  1.00  0.00     0.080 A 
HETATM    6  C14 UNL     1       7.148 -22.140  -2.098  1.00  0.00     0.004 A 
ENDROOT
BRANCH   3   7
HETATM    7  C7  UNL     1       7.594 -20.584  -5.899  1.00  0.00     0.075 C 
BRANCH   7   8
HETATM    8  O1  UNL     1       7.917 -21.440  -6.972  1.00  0.00    -0.360 OA
ATOM      9  H1  UNL     1       8.266 -21.067  -7.773  1.00  0.00     0.217 HD
ENDBRANCH   7   8
BRANCH   7  10
HETATM   10  C8  UNL     1       7.374 -19.270  -6.581  1.00  0.00     0.027 C 
HETATM   11  C9  UNL     1       6.607 -18.310  -6.349  1.00  0.00     0.014 C 
ENDBRANCH   7  10
ENDBRANCH   3   7
BRANCH   1  12
HETATM   12  C3  UNL     1       6.614 -24.365  -3.076  1.00  0.00     0.066 C 
BRANCH  12  13
HETATM   13  C2  UNL     1       7.799 -25.224  -3.193  1.00  0.00    -0.032 C 
HETATM   14  C1  UNL     1       8.712 -25.637  -2.415  1.00  0.00     0.007 C 
ENDBRANCH  12  13
ENDBRANCH   1  12
BRANCH   5  15
HETATM   15  O2  UNL     1       7.911 -20.057  -1.086  1.00  0.00    -0.351 OA
BRANCH  15  16
HETATM   16  C12 UNL     1       9.319 -19.724  -0.985  1.00  0.00     0.171 C 
HETATM   17  C13 UNL     1       9.903 -20.566   0.177  1.00  0.00     0.034 C 
ENDBRANCH  15  16
ENDBRANCH   5  15
BRANCH   6  18
HETATM   18  C15 UNL     1       6.830 -22.559  -0.674  1.00  0.00     0.011 C 
HETATM   19  C16 UNL     1       5.895 -22.455   0.160  1.00  0.00    -0.026 C 
BRANCH  19  20
HETATM   20  C17 UNL     1       6.153 -23.094   1.537  1.00  0.00     0.022 C 
HETATM   21  C18 UNL     1       7.618 -23.038   1.880  1.00  0.00     0.009 C 
ENDBRANCH  19  20
ENDBRANCH   6  18
TORSDOF 9
ENDMDL
MODEL 2
REMARK VINA RESULT: -7.172399590      2.410      4.754
REMARK  9 active torsions:
REMARK  status: ('A' for Active; 'I' for Inactive)
REMARK    1  A    between atoms: C2_2  and  C3_3 
REMARK    2  A    between atoms: C3_3  and  C4_4 
REMARK    3  A    between atoms: C6_6  and  C7_7 
REMARK    4  A    between atoms: C7_7  and  O1_8 
REMARK    5  A    between atoms: C7_7  and  C8_10 
REMARK    6  A    between atoms: C11_13  and  O2_14 
REMARK    7  A    between atoms: O2_14  and  C12_15 
REMARK    8  A    between atoms: C14_17  and  C15_18 
REMARK    9  A    between atoms: C16_19  and  C17_20 
ROOT
HETATM    1  C4  UNL     1       6.466 -20.856  -0.507  1.00  0.00    -0.041 A 
HETATM    2  C5  UNL     1       6.202 -19.401  -0.442  1.00  0.00     0.022 A 
HETATM    3  C6  UNL     1       6.486 -18.646  -1.602  1.00  0.00     0.000 A 
HETATM    4  C10 UNL     1       6.963 -19.294  -2.696  1.00  0.00     0.052 A 
HETATM    5  C11 UNL     1       7.201 -20.680  -2.747  1.00  0.00     0.080 A 
HETATM    6  C14 UNL     1       6.938 -21.386  -1.611  1.00  0.00     0.004 A 
ENDROOT
BRANCH   3   7
HETATM    7  C7  UNL     1       6.379 -17.294  -1.494  1.00  0.00     0.075 C 
BRANCH   7   8
HETATM    8  O1  UNL     1       5.192 -16.737  -0.977  1.00  0.00    -0.360 OA
ATOM      9  H1  UNL     1       4.968 -15.840  -1.194  1.00  0.00     0.217 HD
ENDBRANCH   7   8
BRANCH   7  10
HETATM   10  C8  UNL     1       7.216 -16.084  -1.771  1.00  0.00     0.027 C 
HETATM   11  C9  UNL     1       7.446 -15.042  -1.120  1.00  0.00     0.014 C 
ENDBRANCH   7  10
ENDBRANCH   3   7
BRANCH   1  12
HETATM   12  C3  UNL     1       5.941 -21.583   0.660  1.00  0.00     0.066 C 
BRANCH  12  13
HETATM   13  C2  UNL     1       6.950 -21.970   1.654  1.00  0.00    -0.032 C 
HETATM   14  C1  UNL     1       7.595 -23.023   1.944  1.00  0.00     0.007 C 
ENDBRANCH  12  13
ENDBRANCH   1  12
BRANCH   5  15
HETATM   15  O2  UNL     1       7.685 -21.282  -3.930  1.00  0.00    -0.351 OA
BRANCH  15  16
HETATM   16  C12 UNL     1       6.750 -21.193  -5.034  1.00  0.00     0.171 C 
HETATM   17  C13 UNL     1       6.182 -22.616  -5.265  1.00  0.00     0.034 C 
ENDBRANCH  15  16
ENDBRANCH   5  15
BRANCH   6  18
HETATM   18  C15 UNL     1       7.356 -22.844  -1.682  1.00  0.00     0.011 C 
HETATM   19  C16 UNL     1       6.830 -23.977  -1.826  1.00  0.00    -0.026 C 
BRANCH  19  20
HETATM   20  C17 UNL     1       7.799 -25.173  -1.794  1.00  0.00     0.022 C 
HETATM   21  C18 UNL     1       8.346 -25.449  -3.170  1.00  0.00     0.009 C 
ENDBRANCH  19  20
ENDBRANCH   6  18
TORSDOF 9
ENDMDL
MODEL 3
REMARK VINA RESULT: -7.043582126      2.428      4.422
REMARK  9 active torsions:
REMARK  status: ('A' for Active; 'I' for Inactive)
REMARK    1  A    between atoms: C2_2  and  C3_3 
REMARK    2  A    between atoms: C3_3  and  C4_4 
REMARK    3  A    between atoms: C6_6  and  C7_7 
REMARK    4  A    between atoms: C7_7  and  O1_8 
REMARK    5  A    between atoms: C7_7  and  C8_10 
REMARK    6  A    between atoms: C11_13  and  O2_14 
REMARK    7  A    between atoms: O2_14  and  C12_15 
REMARK    8  A    between atoms: C14_17  and  C15_18 
REMARK    9  A    between atoms: C16_19  and  C17_20 
ROOT
HETATM    1  C4  UNL     1       7.222 -20.387  -3.023  1.00  0.00    -0.041 A 
HETATM    2  C5  UNL     1       7.070 -18.923  -2.871  1.00  0.00     0.022 A 
HETATM    3  C6  UNL     1       6.701 -18.446  -1.593  1.00  0.00     0.000 A 
HETATM    4  C10 UNL     1       6.524 -19.347  -0.592  1.00  0.00     0.052 A 
HETATM    5  C11 UNL     1       6.680 -20.736  -0.749  1.00  0.00     0.080 A 
HETATM    6  C14 UNL     1       7.018 -21.175  -1.993  1.00  0.00     0.004 A 
ENDROOT
BRANCH   3   7
HETATM    7  C7  UNL     1       6.423 -17.118  -1.492  1.00  0.00     0.075 C 
BRANCH   7   8
HETATM    8  O1  UNL     1       5.184 -16.714  -0.955  1.00  0.00    -0.360 OA
ATOM      9  H1  UNL     1       4.414 -16.723  -1.511  1.00  0.00     0.217 HD
ENDBRANCH   7   8
BRANCH   7  10
HETATM   10  C8  UNL     1       7.094 -15.813  -1.792  1.00  0.00     0.027 C 
HETATM   11  C9  UNL     1       7.458 -14.859  -1.071  1.00  0.00     0.014 C 
ENDBRANCH   7  10
ENDBRANCH   3   7
BRANCH   1  12
HETATM   12  C3  UNL     1       7.814 -20.767  -4.315  1.00  0.00     0.066 C 
BRANCH  12  13
HETATM   13  C2  UNL     1       6.847 -20.985  -5.399  1.00  0.00    -0.032 C 
HETATM   14  C1  UNL     1       6.136 -21.949  -5.814  1.00  0.00     0.007 C 
ENDBRANCH  12  13
ENDBRANCH   1  12
BRANCH   5  15
HETATM   15  O2  UNL     1       6.492 -21.607   0.348  1.00  0.00    -0.351 OA
BRANCH  15  16
HETATM   16  C12 UNL     1       7.597 -21.583   1.286  1.00  0.00     0.171 C 
HETATM   17  C13 UNL     1       7.704 -23.002   1.901  1.00  0.00     0.034 C 
ENDBRANCH  15  16
ENDBRANCH   5  15
BRANCH   6  18
HETATM   18  C15 UNL     1       7.024 -22.688  -2.132  1.00  0.00     0.011 C 
HETATM   19  C16 UNL     1       6.243 -23.613  -2.470  1.00  0.00    -0.026 C 
BRANCH  19  20
HETATM   20  C17 UNL     1       6.819 -25.038  -2.389  1.00  0.00     0.022 C 
HETATM   21  C18 UNL     1       8.124 -25.125  -3.136  1.00  0.00     0.009 C 
ENDBRANCH  19  20
ENDBRANCH   6  18
TORSDOF 9
ENDMDL
MODEL 4
REMARK VINA RESULT: -7.039824851      0.837      1.030
REMARK  9 active torsions:
REMARK  status: ('A' for Active; 'I' for Inactive)
REMARK    1  A    between atoms: C2_2  and  C3_3 
REMARK    2  A    between atoms: C3_3  and  C4_4 
REMARK    3  A    between atoms: C6_6  and  C7_7 
REMARK    4  A    between atoms: C7_7  and  O1_8 
REMARK    5  A    between atoms: C7_7  and  C8_10 
REMARK    6  A    between atoms: C11_13  and  O2_14 
REMARK    7  A    between atoms: O2_14  and  C12_15 
REMARK    8  A    between atoms: C14_17  and  C15_18 
REMARK    9  A    between atoms: C16_19  and  C17_20 
ROOT
HETATM    1  C4  UNL     1       6.777 -22.863  -3.131  1.00  0.00    -0.041 A 
HETATM    2  C5  UNL     1       6.972 -22.383  -4.517  1.00  0.00     0.022 A 
HETATM    3  C6  UNL     1       7.543 -21.100  -4.675  1.00  0.00     0.000 A 
HETATM    4  C10 UNL     1       7.887 -20.402  -3.562  1.00  0.00     0.052 A 
HETATM    5  C11 UNL     1       7.704 -20.875  -2.250  1.00  0.00     0.080 A 
HETATM    6  C14 UNL     1       7.134 -22.106  -2.120  1.00  0.00     0.004 A 
ENDROOT
BRANCH   3   7
HETATM    7  C7  UNL     1       7.590 -20.603  -5.941  1.00  0.00     0.075 C 
BRANCH   7   8
HETATM    8  O1  UNL     1       7.948 -21.458  -7.003  1.00  0.00    -0.360 OA
ATOM      9  H1  UNL     1       7.750 -21.197  -7.895  1.00  0.00     0.217 HD
ENDBRANCH   7   8
BRANCH   7  10
HETATM   10  C8  UNL     1       7.345 -19.300  -6.636  1.00  0.00     0.027 C 
HETATM   11  C9  UNL     1       6.626 -18.314  -6.364  1.00  0.00     0.014 C 
ENDBRANCH   7  10
ENDBRANCH   3   7
BRANCH   1  12
HETATM   12  C3  UNL     1       6.384 -24.280  -3.069  1.00  0.00     0.066 C 
BRANCH  12  13
HETATM   13  C2  UNL     1       7.493 -25.236  -3.182  1.00  0.00    -0.032 C 
HETATM   14  C1  UNL     1       8.588 -25.446  -2.579  1.00  0.00     0.007 C 
ENDBRANCH  12  13
ENDBRANCH   1  12
BRANCH   5  15
HETATM   15  O2  UNL     1       8.102 -20.093  -1.143  1.00  0.00    -0.351 OA
BRANCH  15  16
HETATM   16  C12 UNL     1       7.805 -18.683  -1.310  1.00  0.00     0.171 C 
HETATM   17  C13 UNL     1       6.421 -18.430  -0.660  1.00  0.00     0.034 C 
ENDBRANCH  15  16
ENDBRANCH   5  15
BRANCH   6  18
HETATM   18  C15 UNL     1       6.827 -22.493  -0.684  1.00  0.00     0.011 C 
HETATM   19  C16 UNL     1       5.871 -22.437   0.131  1.00  0.00    -0.026 C 
BRANCH  19  20
HETATM   20  C17 UNL     1       6.158 -22.995   1.537  1.00  0.00     0.022 C 
HETATM   21  C18 UNL     1       7.641 -23.062   1.788  1.00  0.00     0.009 C 
ENDBRANCH  19  20
ENDBRANCH   6  18
TORSDOF 9
ENDMDL
MODEL 5
REMARK VINA RESULT: -6.897633869      2.259      3.654
REMARK  9 active torsions:
REMARK  status: ('A' for Active; 'I' for Inactive)
REMARK    1  A    between atoms: C2_2  and  C3_3 
REMARK    2  A    between atoms: C3_3  and  C4_4 
REMARK    3  A    between atoms: C6_6  and  C7_7 
REMARK    4  A    between atoms: C7_7  and  O1_8 
REMARK    5  A    between atoms: C7_7  and  C8_10 
REMARK    6  A    between atoms: C11_13  and  O2_14 
REMARK    7  A    between atoms: O2_14  and  C12_15 
REMARK    8  A    between atoms: C14_17  and  C15_18 
REMARK    9  A    between atoms: C16_19  and  C17_20 
ROOT
HETATM    1  C4  UNL     1       7.257 -21.114  -3.643  1.00  0.00    -0.041 A 
HETATM    2  C5  UNL     1       6.897 -19.715  -3.963  1.00  0.00     0.022 A 
HETATM    3  C6  UNL     1       6.550 -18.879  -2.878  1.00  0.00     0.000 A 
HETATM    4  C10 UNL     1       6.582 -19.399  -1.624  1.00  0.00     0.052 A 
HETATM    5  C11 UNL     1       6.935 -20.729  -1.334  1.00  0.00     0.080 A 
HETATM    6  C14 UNL     1       7.247 -21.523  -2.396  1.00  0.00     0.004 A 
ENDROOT
BRANCH   3   7
HETATM    7  C7  UNL     1       6.083 -17.638  -3.185  1.00  0.00     0.075 C 
BRANCH   7   8
HETATM    8  O1  UNL     1       4.776 -17.280  -2.798  1.00  0.00    -0.360 OA
ATOM      9  H1  UNL     1       4.485 -16.384  -2.921  1.00  0.00     0.217 HD
ENDBRANCH   7   8
BRANCH   7  10
HETATM   10  C8  UNL     1       6.575 -16.400  -3.868  1.00  0.00     0.027 C 
HETATM   11  C9  UNL     1       7.632 -15.739  -3.772  1.00  0.00     0.014 C 
ENDBRANCH   7  10
ENDBRANCH   3   7
BRANCH   1  12
HETATM   12  C3  UNL     1       7.808 -21.838  -4.800  1.00  0.00     0.066 C 
BRANCH  12  13
HETATM   13  C2  UNL     1       6.806 -22.450  -5.682  1.00  0.00    -0.032 C 
HETATM   14  C1  UNL     1       6.294 -23.601  -5.829  1.00  0.00     0.007 C 
ENDBRANCH  12  13
ENDBRANCH   1  12
BRANCH   5  15
HETATM   15  O2  UNL     1       6.957 -21.191   0.002  1.00  0.00    -0.351 OA
BRANCH  15  16
HETATM   16  C12 UNL     1       5.654 -21.152   0.636  1.00  0.00     0.171 C 
HETATM   17  C13 UNL     1       5.458 -22.510   1.358  1.00  0.00     0.034 C 
ENDBRANCH  15  16
ENDBRANCH   5  15
BRANCH   6  18
HETATM   18  C15 UNL     1       7.471 -22.980  -2.032  1.00  0.00     0.011 C 
HETATM   19  C16 UNL     1       6.798 -24.024  -1.835  1.00  0.00    -0.026 C 
BRANCH  19  20
HETATM   20  C17 UNL     1       7.605 -25.276  -1.447  1.00  0.00     0.022 C 
HETATM   21  C18 UNL     1       8.680 -25.550  -2.466  1.00  0.00     0.009 C 
ENDBRANCH  19  20
ENDBRANCH   6  18
TORSDOF 9
ENDMDL
