MODEL 1
REMARK VINA RESULT: -7.026129343      0.000      0.000
REMARK  10 active torsions:
REMARK  status: ('A' for Active; 'I' for Inactive)
REMARK    1  A    between atoms: C2_2  and  C3_3 
REMARK    2  A    between atoms: C3_3  and  C4_4 
REMARK    3  A    between atoms: C4_4  and  C5_5 
REMARK    4  A    between atoms: C5_5  and  C6_6 
REMARK    5  A    between atoms: C6_6  and  C7_7 
REMARK    6  A    between atoms: C7_7  and  C8_9 
REMARK    7  A    between atoms: C8_9  and  C9_10 
REMARK    8  A    between atoms: C9_10  and  O2_11 
REMARK    9  A    between atoms: C9_10  and  C10_13 
REMARK   10  A    between atoms: C10_13  and  C11_14 
ROOT
HETATM    1  C9  UNL     1       8.173 -20.402   1.113  1.00  0.00     0.129 C 
ENDROOT
BRANCH   1   2
HETATM    2  C8  UNL     1       7.042 -21.365   1.295  1.00  0.00     0.110 C 
BRANCH   2   3
HETATM    3  C7  UNL     1       7.562 -22.745   1.379  1.00  0.00     0.129 C 
HETATM    4  O1  UNL     1       8.075 -23.142   2.399  1.00  0.00    -0.298 OA
BRANCH   3   5
HETATM    5  C6  UNL     1       7.466 -23.673   0.210  1.00  0.00     0.078 C 
BRANCH   5   6
HETATM    6  C5  UNL     1       6.237 -23.197  -0.566  1.00  0.00     0.007 C 
BRANCH   6   7
HETATM    7  C4  UNL     1       6.289 -23.664  -1.991  1.00  0.00     0.000 C 
BRANCH   7   8
HETATM    8  C3  UNL     1       7.665 -24.197  -2.281  1.00  0.00    -0.000 C 
BRANCH   8   9
HETATM    9  C2  UNL     1       7.925 -24.261  -3.753  1.00  0.00    -0.005 C 
HETATM   10  C1  UNL     1       6.601 -24.257  -4.506  1.00  0.00     0.005 C 
ENDBRANCH   8   9
ENDBRANCH   7   8
ENDBRANCH   6   7
ENDBRANCH   5   6
ENDBRANCH   3   5
ENDBRANCH   2   3
ENDBRANCH   1   2
BRANCH   1  11
HETATM   11  O2  UNL     1       9.148 -20.677   2.133  1.00  0.00    -0.395 OA
ATOM     12  H2  UNL     1       9.836 -20.026   2.058  1.00  0.00     0.210 HD
ENDBRANCH   1  11
BRANCH   1  13
HETATM   13  C10 UNL     1       8.844 -20.591  -0.216  1.00  0.00     0.070 C 
BRANCH  13  14
HETATM   14  C11 UNL     1       8.003 -20.020  -1.288  1.00  0.00    -0.055 A 
HETATM   15  C12 UNL     1       7.829 -20.522  -2.537  1.00  0.00     0.013 A 
HETATM   16  C13 UNL     1       7.023 -19.915  -3.493  1.00  0.00    -0.061 A 
HETATM   17  C14 UNL     1       6.860 -20.498  -4.851  1.00  0.00     0.048 C 
HETATM   18  C15 UNL     1       6.374 -18.752  -3.151  1.00  0.00     0.013 A 
HETATM   19  C16 UNL     1       6.525 -18.202  -1.881  1.00  0.00    -0.061 A 
HETATM   20  C17 UNL     1       5.819 -16.934  -1.501  1.00  0.00     0.048 C 
HETATM   21  C18 UNL     1       7.333 -18.836  -0.961  1.00  0.00     0.013 A 
ENDBRANCH  13  14
ENDBRANCH   1  13
TORSDOF 10
ENDMDL
MODEL 2
REMARK VINA RESULT: -6.982762693      0.184      1.911
REMARK  10 active torsions:
REMARK  status: ('A' for Active; 'I' for Inactive)
REMARK    1  A    between atoms: C2_2  and  C3_3 
REMARK    2  A    between atoms: C3_3  and  C4_4 
REMARK    3  A    between atoms: C4_4  and  C5_5 
REMARK    4  A    between atoms: C5_5  and  C6_6 
REMARK    5  A    between atoms: C6_6  and  C7_7 
REMARK    6  A    between atoms: C7_7  and  C8_9 
REMARK    7  A    between atoms: C8_9  and  C9_10 
REMARK    8  A    between atoms: C9_10  and  O2_11 
REMARK    9  A    between atoms: C9_10  and  C10_13 
REMARK   10  A    between atoms: C10_13  and  C11_14 
ROOT
HETATM    1  C9  UNL     1       8.171 -20.432   1.160  1.00  0.00     0.129 C 
ENDROOT
BRANCH   1   2
HETATM    2  C8  UNL     1       7.036 -21.395   1.323  1.00  0.00     0.110 C 
BRANCH   2   3
HETATM    3  C7  UNL     1       7.554 -22.776   1.403  1.00  0.00     0.129 C 
HETATM    4  O1  UNL     1       8.056 -23.182   2.425  1.00  0.00    -0.298 OA
BRANCH   3   5
HETATM    5  C6  UNL     1       7.469 -23.696   0.226  1.00  0.00     0.078 C 
BRANCH   5   6
HETATM    6  C5  UNL     1       6.286 -23.175  -0.592  1.00  0.00     0.007 C 
BRANCH   6   7
HETATM    7  C4  UNL     1       6.352 -23.672  -2.005  1.00  0.00     0.000 C 
BRANCH   7   8
HETATM    8  C3  UNL     1       7.753 -24.134  -2.297  1.00  0.00    -0.000 C 
BRANCH   8   9
HETATM    9  C2  UNL     1       7.834 -24.817  -3.625  1.00  0.00    -0.005 C 
HETATM   10  C1  UNL     1       6.629 -24.432  -4.473  1.00  0.00     0.005 C 
ENDBRANCH   8   9
ENDBRANCH   7   8
ENDBRANCH   6   7
ENDBRANCH   5   6
ENDBRANCH   3   5
ENDBRANCH   2   3
ENDBRANCH   1   2
BRANCH   1  11
HETATM   11  O2  UNL     1       9.180 -20.779   2.123  1.00  0.00    -0.395 OA
ATOM     12  H2  UNL     1       9.416 -19.987   2.592  1.00  0.00     0.210 HD
ENDBRANCH   1  11
BRANCH   1  13
HETATM   13  C10 UNL     1       8.790 -20.543  -0.203  1.00  0.00     0.070 C 
BRANCH  13  14
HETATM   14  C11 UNL     1       7.933 -19.868  -1.199  1.00  0.00    -0.055 A 
HETATM   15  C12 UNL     1       7.221 -18.726  -1.017  1.00  0.00     0.013 A 
HETATM   16  C13 UNL     1       6.430 -18.159  -2.008  1.00  0.00    -0.061 A 
HETATM   17  C14 UNL     1       5.665 -16.907  -1.766  1.00  0.00     0.048 C 
HETATM   18  C15 UNL     1       6.369 -18.789  -3.228  1.00  0.00     0.013 A 
HETATM   19  C16 UNL     1       7.082 -19.962  -3.459  1.00  0.00    -0.061 A 
HETATM   20  C17 UNL     1       7.020 -20.653  -4.789  1.00  0.00     0.048 C 
HETATM   21  C18 UNL     1       7.857 -20.491  -2.450  1.00  0.00     0.013 A 
ENDBRANCH  13  14
ENDBRANCH   1  13
TORSDOF 10
ENDMDL
MODEL 3
REMARK VINA RESULT: -6.894027810      1.169      4.745
REMARK  10 active torsions:
REMARK  status: ('A' for Active; 'I' for Inactive)
REMARK    1  A    between atoms: C2_2  and  C3_3 
REMARK    2  A    between atoms: C3_3  and  C4_4 
REMARK    3  A    between atoms: C4_4  and  C5_5 
REMARK    4  A    between atoms: C5_5  and  C6_6 
REMARK    5  A    between atoms: C6_6  and  C7_7 
REMARK    6  A    between atoms: C7_7  and  C8_9 
REMARK    7  A    between atoms: C8_9  and  C9_10 
REMARK    8  A    between atoms: C9_10  and  O2_11 
REMARK    9  A    between atoms: C9_10  and  C10_13 
REMARK   10  A    between atoms: C10_13  and  C11_14 
ROOT
HETATM    1  C9  UNL     1       7.891 -22.593   1.109  1.00  0.00     0.129 C 
ENDROOT
BRANCH   1   2
HETATM    2  C8  UNL     1       7.843 -21.107   1.289  1.00  0.00     0.110 C 
BRANCH   2   3
HETATM    3  C7  UNL     1       8.760 -20.454   0.333  1.00  0.00     0.129 C 
HETATM    4  O1  UNL     1       9.955 -20.485   0.514  1.00  0.00    -0.298 OA
BRANCH   3   5
HETATM    5  C6  UNL     1       8.231 -19.744  -0.873  1.00  0.00     0.078 C 
BRANCH   5   6
HETATM    6  C5  UNL     1       6.765 -19.457  -0.546  1.00  0.00     0.007 C 
BRANCH   6   7
HETATM    7  C4  UNL     1       6.129 -18.627  -1.621  1.00  0.00     0.000 C 
BRANCH   7   8
HETATM    8  C3  UNL     1       6.645 -19.079  -2.959  1.00  0.00    -0.000 C 
BRANCH   8   9
HETATM    9  C2  UNL     1       6.175 -18.177  -4.056  1.00  0.00    -0.005 C 
HETATM   10  C1  UNL     1       6.319 -18.885  -5.397  1.00  0.00     0.005 C 
ENDBRANCH   8   9
ENDBRANCH   7   8
ENDBRANCH   6   7
ENDBRANCH   5   6
ENDBRANCH   3   5
ENDBRANCH   2   3
ENDBRANCH   1   2
BRANCH   1  11
HETATM   11  O2  UNL     1       7.942 -23.188   2.417  1.00  0.00    -0.395 OA
ATOM     12  H2  UNL     1       8.095 -24.119   2.304  1.00  0.00     0.210 HD
ENDBRANCH   1  11
BRANCH   1  13
HETATM   13  C10 UNL     1       6.652 -23.100   0.430  1.00  0.00     0.070 C 
BRANCH  13  14
HETATM   14  C11 UNL     1       6.959 -23.458  -0.970  1.00  0.00    -0.055 A 
HETATM   15  C12 UNL     1       6.534 -22.811  -2.085  1.00  0.00     0.013 A 
HETATM   16  C13 UNL     1       6.863 -23.221  -3.372  1.00  0.00    -0.061 A 
HETATM   17  C14 UNL     1       6.375 -22.483  -4.567  1.00  0.00     0.048 C 
HETATM   18  C15 UNL     1       7.655 -24.335  -3.515  1.00  0.00     0.013 A 
HETATM   19  C16 UNL     1       8.113 -25.029  -2.399  1.00  0.00    -0.061 A 
HETATM   20  C17 UNL     1       8.979 -26.245  -2.548  1.00  0.00     0.048 C 
HETATM   21  C18 UNL     1       7.766 -24.589  -1.139  1.00  0.00     0.013 A 
ENDBRANCH  13  14
ENDBRANCH   1  13
TORSDOF 10
ENDMDL
MODEL 4
REMARK VINA RESULT: -6.885043451      1.982      4.753
REMARK  10 active torsions:
REMARK  status: ('A' for Active; 'I' for Inactive)
REMARK    1  A    between atoms: C2_2  and  C3_3 
REMARK    2  A    between atoms: C3_3  and  C4_4 
REMARK    3  A    between atoms: C4_4  and  C5_5 
REMARK    4  A    between atoms: C5_5  and  C6_6 
REMARK    5  A    between atoms: C6_6  and  C7_7 
REMARK    6  A    between atoms: C7_7  and  C8_9 
REMARK    7  A    between atoms: C8_9  and  C9_10 
REMARK    8  A    between atoms: C9_10  and  O2_11 
REMARK    9  A    between atoms: C9_10  and  C10_13 
REMARK   10  A    between atoms: C10_13  and  C11_14 
ROOT
HETATM    1  C9  UNL     1       7.126 -19.927  -1.386  1.00  0.00     0.129 C 
ENDROOT
BRANCH   1   2
HETATM    2  C8  UNL     1       8.232 -19.001  -0.985  1.00  0.00     0.110 C 
BRANCH   2   3
HETATM    3  C7  UNL     1       9.451 -19.775  -0.674  1.00  0.00     0.129 C 
HETATM    4  O1  UNL     1      10.529 -19.403  -1.073  1.00  0.00    -0.298 OA
BRANCH   3   5
HETATM    5  C6  UNL     1       9.374 -21.030   0.138  1.00  0.00     0.078 C 
BRANCH   5   6
HETATM    6  C5  UNL     1       8.941 -20.568   1.530  1.00  0.00     0.007 C 
BRANCH   6   7
HETATM    7  C4  UNL     1       7.670 -21.248   1.947  1.00  0.00     0.000 C 
BRANCH   7   8
HETATM    8  C3  UNL     1       7.706 -22.679   1.487  1.00  0.00    -0.000 C 
BRANCH   8   9
HETATM    9  C2  UNL     1       6.326 -23.238   1.344  1.00  0.00    -0.005 C 
HETATM   10  C1  UNL     1       5.337 -22.105   1.104  1.00  0.00     0.005 C 
ENDBRANCH   8   9
ENDBRANCH   7   8
ENDBRANCH   6   7
ENDBRANCH   5   6
ENDBRANCH   3   5
ENDBRANCH   2   3
ENDBRANCH   1   2
BRANCH   1  11
HETATM   11  O2  UNL     1       5.883 -19.303  -1.024  1.00  0.00    -0.395 OA
ATOM     12  H2  UNL     1       5.445 -19.045  -1.826  1.00  0.00     0.210 HD
ENDBRANCH   1  11
BRANCH   1  13
HETATM   13  C10 UNL     1       7.107 -20.143  -2.872  1.00  0.00     0.070 C 
BRANCH  13  14
HETATM   14  C11 UNL     1       6.988 -21.585  -3.167  1.00  0.00    -0.055 A 
HETATM   15  C12 UNL     1       7.134 -22.609  -2.287  1.00  0.00     0.013 A 
HETATM   16  C13 UNL     1       7.014 -23.945  -2.650  1.00  0.00    -0.061 A 
HETATM   17  C14 UNL     1       7.183 -25.036  -1.654  1.00  0.00     0.048 C 
HETATM   18  C15 UNL     1       6.734 -24.237  -3.964  1.00  0.00     0.013 A 
HETATM   19  C16 UNL     1       6.576 -23.219  -4.900  1.00  0.00    -0.061 A 
HETATM   20  C17 UNL     1       6.270 -23.531  -6.335  1.00  0.00     0.048 C 
HETATM   21  C18 UNL     1       6.702 -21.906  -4.499  1.00  0.00     0.013 A 
ENDBRANCH  13  14
ENDBRANCH   1  13
TORSDOF 10
ENDMDL
MODEL 5
REMARK VINA RESULT: -6.855683424      2.184      5.220
REMARK  10 active torsions:
REMARK  status: ('A' for Active; 'I' for Inactive)
REMARK    1  A    between atoms: C2_2  and  C3_3 
REMARK    2  A    between atoms: C3_3  and  C4_4 
REMARK    3  A    between atoms: C4_4  and  C5_5 
REMARK    4  A    between atoms: C5_5  and  C6_6 
REMARK    5  A    between atoms: C6_6  and  C7_7 
REMARK    6  A    between atoms: C7_7  and  C8_9 
REMARK    7  A    between atoms: C8_9  and  C9_10 
REMARK    8  A    between atoms: C9_10  and  O2_11 
REMARK    9  A    between atoms: C9_10  and  C10_13 
REMARK   10  A    between atoms: C10_13  and  C11_14 
ROOT
HETATM    1  C9  UNL     1       7.040 -18.973  -0.851  1.00  0.00     0.129 C 
ENDROOT
BRANCH   1   2
HETATM    2  C8  UNL     1       7.118 -17.567  -1.361  1.00  0.00     0.110 C 
BRANCH   2   3
HETATM    3  C7  UNL     1       5.790 -17.126  -1.831  1.00  0.00     0.129 C 
HETATM    4  O1  UNL     1       5.030 -16.566  -1.077  1.00  0.00    -0.298 OA
BRANCH   3   5
HETATM    5  C6  UNL     1       5.361 -17.363  -3.246  1.00  0.00     0.078 C 
BRANCH   5   6
HETATM    6  C5  UNL     1       6.609 -17.083  -4.085  1.00  0.00     0.007 C 
BRANCH   6   7
HETATM    7  C4  UNL     1       6.662 -17.986  -5.281  1.00  0.00     0.000 C 
BRANCH   7   8
HETATM    8  C3  UNL     1       6.094 -19.328  -4.909  1.00  0.00    -0.000 C 
BRANCH   8   9
HETATM    9  C2  UNL     1       6.967 -20.441  -5.395  1.00  0.00    -0.005 C 
HETATM   10  C1  UNL     1       6.114 -21.667  -5.691  1.00  0.00     0.005 C 
ENDBRANCH   8   9
ENDBRANCH   7   8
ENDBRANCH   6   7
ENDBRANCH   5   6
ENDBRANCH   3   5
ENDBRANCH   2   3
ENDBRANCH   1   2
BRANCH   1  11
HETATM   11  O2  UNL     1       5.654 -19.355  -0.836  1.00  0.00    -0.395 OA
ATOM     12  H2  UNL     1       5.501 -19.854  -0.042  1.00  0.00     0.210 HD
ENDBRANCH   1  11
BRANCH   1  13
HETATM   13  C10 UNL     1       7.761 -19.925  -1.760  1.00  0.00     0.070 C 
BRANCH  13  14
HETATM   14  C11 UNL     1       7.508 -21.316  -1.333  1.00  0.00    -0.055 A 
HETATM   15  C12 UNL     1       7.151 -22.357  -2.127  1.00  0.00     0.013 A 
HETATM   16  C13 UNL     1       6.921 -23.639  -1.642  1.00  0.00    -0.061 A 
HETATM   17  C14 UNL     1       6.530 -24.751  -2.548  1.00  0.00     0.048 C 
HETATM   18  C15 UNL     1       7.064 -23.856  -0.292  1.00  0.00     0.013 A 
HETATM   19  C16 UNL     1       7.429 -22.817   0.560  1.00  0.00    -0.061 A 
HETATM   20  C17 UNL     1       7.587 -23.048   2.034  1.00  0.00     0.048 C 
HETATM   21  C18 UNL     1       7.648 -21.560   0.038  1.00  0.00     0.013 A 
ENDBRANCH  13  14
ENDBRANCH   1  13
TORSDOF 10
ENDMDL
