MODEL 1
REMARK VINA RESULT: -8.311029919      0.000      0.000
REMARK  10 active torsions:
REMARK  status: ('A' for Active; 'I' for Inactive)
REMARK    1  A    between atoms: C3_3  and  O1_4 
REMARK    2  A    between atoms: C9_11  and  C10_12 
REMARK    3  A    between atoms: C10_12  and  C11_13 
REMARK    4  A    between atoms: C11_13  and  C12_14 
REMARK    5  A    between atoms: C12_14  and  C13_15 
REMARK    6  A    between atoms: C13_15  and  C14_16 
REMARK    7  A    between atoms: C14_16  and  C15_17 
REMARK    8  A    between atoms: C15_17  and  N1_18 
REMARK       I    between atoms: N1_18  and  C16_19 
REMARK    9  A    between atoms: C16_19  and  C17_21 
REMARK       I    between atoms: C17_21  and  N2_23 
REMARK   10  A    between atoms: N2_23  and  C18_25 
ROOT
HETATM    1  C1  UNL     1      46.908   4.483  10.703  1.00  0.00     0.015 C 
HETATM    2  C2  UNL     1      46.832   5.566  10.227  1.00  0.00    -0.079 C 
HETATM    3  C3  UNL     1      46.771   6.910   9.646  1.00  0.00     0.124 C 
HETATM    4  C4  UNL     1      48.049   7.680   9.957  1.00  0.00     0.057 C 
HETATM    5  C5  UNL     1      47.782   8.830  10.926  1.00  0.00    -0.002 C 
HETATM    6  C6  UNL     1      47.136   8.203  12.142  1.00  0.00     0.006 C 
HETATM    7  C7  UNL     1      45.805   7.664  11.716  1.00  0.00     0.009 C 
HETATM    8  C8  UNL     1      45.626   7.717  10.222  1.00  0.00     0.037 C 
HETATM    9  C9  UNL     1      45.750   9.116   9.653  1.00  0.00     0.002 C 
HETATM   10  C23 UNL     1      46.875   9.884  10.267  1.00  0.00    -0.033 C 
HETATM   11  C24 UNL     1      47.762  10.574   9.221  1.00  0.00     0.010 C 
HETATM   12  C25 UNL     1      47.924  12.038   9.442  1.00  0.00     0.001 C 
HETATM   13  C26 UNL     1      48.595  12.260  10.762  1.00  0.00     0.000 C 
HETATM   14  C27 UNL     1      47.852  11.518  11.818  1.00  0.00     0.001 C 
HETATM   15  C28 UNL     1      46.546  10.906  11.278  1.00  0.00     0.010 C 
ENDROOT
BRANCH   3  16
HETATM   16  O1  UNL     1      46.645   6.743   8.257  1.00  0.00    -0.377 OA
ATOM     17  H1  UNL     1      47.409   6.256   7.971  1.00  0.00     0.211 HD
ENDBRANCH   3  16
BRANCH   9  18
HETATM   18  C10 UNL     1      44.485   9.788   9.362  1.00  0.00     0.006 C 
BRANCH  18  19
HETATM   19  C11 UNL     1      44.116  10.168   7.984  1.00  0.00     0.000 C 
BRANCH  19  20
HETATM   20  C12 UNL     1      42.939   9.352   7.502  1.00  0.00     0.000 C 
BRANCH  20  21
HETATM   21  C13 UNL     1      43.416   7.988   6.946  1.00  0.00     0.006 C 
BRANCH  21  22
HETATM   22  C14 UNL     1      42.696   7.785   5.650  1.00  0.00     0.060 C 
BRANCH  22  23
HETATM   23  C15 UNL     1      41.780   6.609   5.557  1.00  0.00     0.159 C 
BRANCH  23  24
HETATM   24  N1  UNL     1      42.167   5.421   6.093  1.00  0.00    -0.380 NA
HETATM   25  C16 UNL     1      42.554   4.229   6.627  1.00  0.00     0.383 C 
HETATM   26  O2  UNL     1      42.459   3.077   6.088  1.00  0.00    -0.246 OA
BRANCH  25  27
HETATM   27  C17 UNL     1      43.162   4.169   7.983  1.00  0.00     0.324 C 
HETATM   28  O3  UNL     1      44.240   4.810   8.186  1.00  0.00    -0.261 OA
HETATM   29  N2  UNL     1      42.553   3.428   8.984  1.00  0.00    -0.347 N 
ATOM     30  H2  UNL     1      41.679   2.962   8.740  1.00  0.00     0.163 HD
BRANCH  29  31
HETATM   31  C18 UNL     1      43.028   3.245  10.344  1.00  0.00     0.085 C 
HETATM   32  C19 UNL     1      43.981   2.128  10.476  1.00  0.00     0.025 C 
HETATM   33  C20 UNL     1      43.321   1.086  11.326  1.00  0.00     0.002 C 
HETATM   34  C21 UNL     1      41.847   1.402  11.359  1.00  0.00     0.002 C 
HETATM   35  C22 UNL     1      41.774   2.884  11.159  1.00  0.00     0.025 C 
ENDBRANCH  29  31
ENDBRANCH  25  27
ENDBRANCH  23  24
ENDBRANCH  22  23
ENDBRANCH  21  22
ENDBRANCH  20  21
ENDBRANCH  19  20
ENDBRANCH  18  19
ENDBRANCH   9  18
TORSDOF 10
ENDMDL
MODEL 2
REMARK VINA RESULT: -8.309271060      4.016      9.352
REMARK  10 active torsions:
REMARK  status: ('A' for Active; 'I' for Inactive)
REMARK    1  A    between atoms: C3_3  and  O1_4 
REMARK    2  A    between atoms: C9_11  and  C10_12 
REMARK    3  A    between atoms: C10_12  and  C11_13 
REMARK    4  A    between atoms: C11_13  and  C12_14 
REMARK    5  A    between atoms: C12_14  and  C13_15 
REMARK    6  A    between atoms: C13_15  and  C14_16 
REMARK    7  A    between atoms: C14_16  and  C15_17 
REMARK    8  A    between atoms: C15_17  and  N1_18 
REMARK       I    between atoms: N1_18  and  C16_19 
REMARK    9  A    between atoms: C16_19  and  C17_21 
REMARK       I    between atoms: C17_21  and  N2_23 
REMARK   10  A    between atoms: N2_23  and  C18_25 
ROOT
HETATM    1  C1  UNL     1      40.152   3.438   5.175  1.00  0.00     0.015 C 
HETATM    2  C2  UNL     1      40.596   2.842   6.098  1.00  0.00    -0.079 C 
HETATM    3  C3  UNL     1      41.137   2.076   7.224  1.00  0.00     0.124 C 
HETATM    4  C4  UNL     1      40.677   0.625   7.146  1.00  0.00     0.057 C 
HETATM    5  C5  UNL     1      39.702   0.290   8.273  1.00  0.00    -0.002 C 
HETATM    6  C6  UNL     1      38.576   1.293   8.154  1.00  0.00     0.006 C 
HETATM    7  C7  UNL     1      39.146   2.646   8.450  1.00  0.00     0.009 C 
HETATM    8  C8  UNL     1      40.648   2.616   8.552  1.00  0.00     0.037 C 
HETATM    9  C9  UNL     1      41.156   1.668   9.621  1.00  0.00     0.002 C 
HETATM   10  C23 UNL     1      40.411   0.373   9.636  1.00  0.00    -0.033 C 
HETATM   11  C24 UNL     1      41.344  -0.846   9.675  1.00  0.00     0.010 C 
HETATM   12  C25 UNL     1      41.060  -1.784  10.798  1.00  0.00     0.001 C 
HETATM   13  C26 UNL     1      39.674  -2.329  10.639  1.00  0.00     0.000 C 
HETATM   14  C27 UNL     1      38.720  -1.197  10.476  1.00  0.00     0.001 C 
HETATM   15  C28 UNL     1      39.404   0.166  10.693  1.00  0.00     0.010 C 
ENDROOT
BRANCH   3  16
HETATM   16  O1  UNL     1      42.535   2.137   7.119  1.00  0.00    -0.377 OA
ATOM     17  H1  UNL     1      42.871   2.247   8.001  1.00  0.00     0.211 HD
ENDBRANCH   3  16
BRANCH   9  18
HETATM   18  C10 UNL     1      41.546   2.297  10.882  1.00  0.00     0.006 C 
BRANCH  18  19
HETATM   19  C11 UNL     1      42.706   1.811  11.656  1.00  0.00     0.000 C 
BRANCH  19  20
HETATM   20  C12 UNL     1      43.825   1.388  10.735  1.00  0.00     0.000 C 
BRANCH  20  21
HETATM   21  C13 UNL     1      45.133   2.136  11.092  1.00  0.00     0.006 C 
BRANCH  21  22
HETATM   22  C14 UNL     1      45.374   3.116   9.987  1.00  0.00     0.060 C 
BRANCH  22  23
HETATM   23  C15 UNL     1      45.019   4.542  10.253  1.00  0.00     0.159 C 
BRANCH  23  24
HETATM   24  N1  UNL     1      43.870   5.049   9.733  1.00  0.00    -0.380 NA
HETATM   25  C16 UNL     1      42.717   5.557   9.216  1.00  0.00     0.383 C 
HETATM   26  O2  UNL     1      41.672   5.906   9.860  1.00  0.00    -0.246 OA
BRANCH  25  27
HETATM   27  C17 UNL     1      42.569   5.759   7.750  1.00  0.00     0.324 C 
HETATM   28  O3  UNL     1      43.221   4.995   6.971  1.00  0.00    -0.261 OA
HETATM   29  N2  UNL     1      41.737   6.757   7.267  1.00  0.00    -0.347 N 
ATOM     30  H2  UNL     1      41.235   7.309   7.963  1.00  0.00     0.163 HD
BRANCH  29  31
HETATM   31  C18 UNL     1      41.505   7.099   5.875  1.00  0.00     0.085 C 
HETATM   32  C19 UNL     1      42.042   8.423   5.511  1.00  0.00     0.025 C 
HETATM   33  C20 UNL     1      40.872   9.296   5.179  1.00  0.00     0.002 C 
HETATM   34  C21 UNL     1      39.640   8.625   5.731  1.00  0.00     0.002 C 
HETATM   35  C22 UNL     1      39.974   7.165   5.731  1.00  0.00     0.025 C 
ENDBRANCH  29  31
ENDBRANCH  25  27
ENDBRANCH  23  24
ENDBRANCH  22  23
ENDBRANCH  21  22
ENDBRANCH  20  21
ENDBRANCH  19  20
ENDBRANCH  18  19
ENDBRANCH   9  18
TORSDOF 10
ENDMDL
MODEL 3
REMARK VINA RESULT: -8.122469762      1.908      3.094
REMARK  10 active torsions:
REMARK  status: ('A' for Active; 'I' for Inactive)
REMARK    1  A    between atoms: C3_3  and  O1_4 
REMARK    2  A    between atoms: C9_11  and  C10_12 
REMARK    3  A    between atoms: C10_12  and  C11_13 
REMARK    4  A    between atoms: C11_13  and  C12_14 
REMARK    5  A    between atoms: C12_14  and  C13_15 
REMARK    6  A    between atoms: C13_15  and  C14_16 
REMARK    7  A    between atoms: C14_16  and  C15_17 
REMARK    8  A    between atoms: C15_17  and  N1_18 
REMARK       I    between atoms: N1_18  and  C16_19 
REMARK    9  A    between atoms: C16_19  and  C17_21 
REMARK       I    between atoms: C17_21  and  N2_23 
REMARK   10  A    between atoms: N2_23  and  C18_25 
ROOT
HETATM    1  C1  UNL     1      47.867   7.905  16.018  1.00  0.00     0.015 C 
HETATM    2  C2  UNL     1      47.758   7.639  14.868  1.00  0.00    -0.079 C 
HETATM    3  C3  UNL     1      47.652   7.328  13.439  1.00  0.00     0.124 C 
HETATM    4  C4  UNL     1      48.574   8.233  12.631  1.00  0.00     0.057 C 
HETATM    5  C5  UNL     1      47.777   9.218  11.777  1.00  0.00    -0.002 C 
HETATM    6  C6  UNL     1      46.881   9.965  12.740  1.00  0.00     0.006 C 
HETATM    7  C7  UNL     1      45.906   8.978  13.304  1.00  0.00     0.009 C 
HETATM    8  C8  UNL     1      46.249   7.563  12.920  1.00  0.00     0.037 C 
HETATM    9  C9  UNL     1      46.297   7.344  11.421  1.00  0.00     0.002 C 
HETATM   10  C23 UNL     1      46.974   8.465  10.702  1.00  0.00    -0.033 C 
HETATM   11  C24 UNL     1      48.022   7.974   9.693  1.00  0.00     0.010 C 
HETATM   12  C25 UNL     1      47.820   8.498   8.314  1.00  0.00     0.001 C 
HETATM   13  C26 UNL     1      47.938   9.991   8.338  1.00  0.00     0.000 C 
HETATM   14  C27 UNL     1      47.029  10.536   9.384  1.00  0.00     0.001 C 
HETATM   15  C28 UNL     1      46.131   9.441   9.990  1.00  0.00     0.010 C 
ENDROOT
BRANCH   3  16
HETATM   16  O1  UNL     1      48.048   5.990  13.288  1.00  0.00    -0.377 OA
ATOM     17  H1  UNL     1      47.263   5.495  13.082  1.00  0.00     0.211 HD
ENDBRANCH   3  16
BRANCH   9  18
HETATM   18  C10 UNL     1      45.109   6.721  10.840  1.00  0.00     0.006 C 
BRANCH  18  19
HETATM   19  C11 UNL     1      45.144   5.343  10.312  1.00  0.00     0.000 C 
BRANCH  19  20
HETATM   20  C12 UNL     1      44.368   5.246   9.019  1.00  0.00     0.000 C 
BRANCH  20  21
HETATM   21  C13 UNL     1      44.267   6.635   8.343  1.00  0.00     0.006 C 
BRANCH  21  22
HETATM   22  C14 UNL     1      42.882   6.732   7.783  1.00  0.00     0.060 C 
BRANCH  22  23
HETATM   23  C15 UNL     1      42.634   6.080   6.462  1.00  0.00     0.159 C 
BRANCH  23  24
HETATM   24  N1  UNL     1      42.305   4.761   6.424  1.00  0.00    -0.380 NA
HETATM   25  C16 UNL     1      41.977   3.440   6.382  1.00  0.00     0.383 C 
HETATM   26  O2  UNL     1      41.982   2.677   5.358  1.00  0.00    -0.246 OA
BRANCH  25  27
HETATM   27  C17 UNL     1      41.553   2.725   7.615  1.00  0.00     0.324 C 
HETATM   28  O3  UNL     1      40.310   2.529   7.797  1.00  0.00    -0.261 OA
HETATM   29  N2  UNL     1      42.502   2.294   8.529  1.00  0.00    -0.347 N 
ATOM     30  H2  UNL     1      43.477   2.475   8.293  1.00  0.00     0.163 HD
BRANCH  29  31
HETATM   31  C18 UNL     1      42.253   1.610   9.786  1.00  0.00     0.085 C 
HETATM   32  C19 UNL     1      42.734   2.366  10.957  1.00  0.00     0.025 C 
HETATM   33  C20 UNL     1      43.847   1.571  11.566  1.00  0.00     0.002 C 
HETATM   34  C21 UNL     1      44.292   0.561  10.539  1.00  0.00     0.002 C 
HETATM   35  C22 UNL     1      43.075   0.312   9.703  1.00  0.00     0.025 C 
ENDBRANCH  29  31
ENDBRANCH  25  27
ENDBRANCH  23  24
ENDBRANCH  22  23
ENDBRANCH  21  22
ENDBRANCH  20  21
ENDBRANCH  19  20
ENDBRANCH  18  19
ENDBRANCH   9  18
TORSDOF 10
ENDMDL
MODEL 4
REMARK VINA RESULT: -8.065402129      2.635      8.744
REMARK  10 active torsions:
REMARK  status: ('A' for Active; 'I' for Inactive)
REMARK    1  A    between atoms: C3_3  and  O1_4 
REMARK    2  A    between atoms: C9_11  and  C10_12 
REMARK    3  A    between atoms: C10_12  and  C11_13 
REMARK    4  A    between atoms: C11_13  and  C12_14 
REMARK    5  A    between atoms: C12_14  and  C13_15 
REMARK    6  A    between atoms: C13_15  and  C14_16 
REMARK    7  A    between atoms: C14_16  and  C15_17 
REMARK    8  A    between atoms: C15_17  and  N1_18 
REMARK       I    between atoms: N1_18  and  C16_19 
REMARK    9  A    between atoms: C16_19  and  C17_21 
REMARK       I    between atoms: C17_21  and  N2_23 
REMARK   10  A    between atoms: N2_23  and  C18_25 
ROOT
HETATM    1  C1  UNL     1      44.656   3.121  10.441  1.00  0.00     0.015 C 
HETATM    2  C2  UNL     1      43.521   2.800  10.325  1.00  0.00    -0.079 C 
HETATM    3  C3  UNL     1      42.118   2.393  10.215  1.00  0.00     0.124 C 
HETATM    4  C4  UNL     1      41.712   1.556  11.423  1.00  0.00     0.057 C 
HETATM    5  C5  UNL     1      41.454   0.103  11.030  1.00  0.00    -0.002 C 
HETATM    6  C6  UNL     1      42.722  -0.373  10.356  1.00  0.00     0.006 C 
HETATM    7  C7  UNL     1      42.877   0.407   9.087  1.00  0.00     0.009 C 
HETATM    8  C8  UNL     1      41.881   1.532   8.991  1.00  0.00     0.037 C 
HETATM    9  C9  UNL     1      40.441   1.064   9.060  1.00  0.00     0.002 C 
HETATM   10  C23 UNL     1      40.233   0.010  10.098  1.00  0.00    -0.033 C 
HETATM   11  C24 UNL     1      39.022   0.297  10.998  1.00  0.00     0.010 C 
HETATM   12  C25 UNL     1      38.038  -0.820  11.056  1.00  0.00     0.001 C 
HETATM   13  C26 UNL     1      38.707  -2.029  11.636  1.00  0.00     0.000 C 
HETATM   14  C27 UNL     1      39.962  -2.301  10.881  1.00  0.00     0.001 C 
HETATM   15  C28 UNL     1      40.100  -1.387   9.649  1.00  0.00     0.010 C 
ENDROOT
BRANCH   3  16
HETATM   16  O1  UNL     1      41.358   3.573  10.178  1.00  0.00    -0.377 OA
ATOM     17  H1  UNL     1      40.708   3.500  10.868  1.00  0.00     0.211 HD
ENDBRANCH   3  16
BRANCH   9  18
HETATM   18  C10 UNL     1      39.753   0.964   7.774  1.00  0.00     0.006 C 
BRANCH  18  19
HETATM   19  C11 UNL     1      39.761   2.081   6.808  1.00  0.00     0.000 C 
BRANCH  19  20
HETATM   20  C12 UNL     1      39.185   3.331   7.432  1.00  0.00     0.000 C 
BRANCH  20  21
HETATM   21  C13 UNL     1      40.058   4.561   7.081  1.00  0.00     0.006 C 
BRANCH  21  22
HETATM   22  C14 UNL     1      41.166   4.059   6.210  1.00  0.00     0.060 C 
BRANCH  22  23
HETATM   23  C15 UNL     1      42.563   4.363   6.641  1.00  0.00     0.159 C 
BRANCH  23  24
HETATM   24  N1  UNL     1      42.766   5.209   7.685  1.00  0.00    -0.380 NA
HETATM   25  C16 UNL     1      42.967   6.055   8.734  1.00  0.00     0.383 C 
HETATM   26  O2  UNL     1      42.117   6.396   9.622  1.00  0.00    -0.246 OA
BRANCH  25  27
HETATM   27  C17 UNL     1      44.290   6.702   8.942  1.00  0.00     0.324 C 
HETATM   28  O3  UNL     1      44.927   7.108   7.920  1.00  0.00    -0.261 OA
HETATM   29  N2  UNL     1      44.796   6.848  10.224  1.00  0.00    -0.347 N 
ATOM     30  H2  UNL     1      44.209   6.513  10.988  1.00  0.00     0.163 HD
BRANCH  29  31
HETATM   31  C18 UNL     1      46.075   7.429  10.595  1.00  0.00     0.085 C 
HETATM   32  C19 UNL     1      47.066   6.420  11.012  1.00  0.00     0.025 C 
HETATM   33  C20 UNL     1      47.347   6.655  12.465  1.00  0.00     0.002 C 
HETATM   34  C21 UNL     1      46.239   7.526  13.001  1.00  0.00     0.002 C 
HETATM   35  C22 UNL     1      45.772   8.314  11.816  1.00  0.00     0.025 C 
ENDBRANCH  29  31
ENDBRANCH  25  27
ENDBRANCH  23  24
ENDBRANCH  22  23
ENDBRANCH  21  22
ENDBRANCH  20  21
ENDBRANCH  19  20
ENDBRANCH  18  19
ENDBRANCH   9  18
TORSDOF 10
ENDMDL
MODEL 5
REMARK VINA RESULT: -8.058280050      3.339      8.798
REMARK  10 active torsions:
REMARK  status: ('A' for Active; 'I' for Inactive)
REMARK    1  A    between atoms: C3_3  and  O1_4 
REMARK    2  A    between atoms: C9_11  and  C10_12 
REMARK    3  A    between atoms: C10_12  and  C11_13 
REMARK    4  A    between atoms: C11_13  and  C12_14 
REMARK    5  A    between atoms: C12_14  and  C13_15 
REMARK    6  A    between atoms: C13_15  and  C14_16 
REMARK    7  A    between atoms: C14_16  and  C15_17 
REMARK    8  A    between atoms: C15_17  and  N1_18 
REMARK       I    between atoms: N1_18  and  C16_19 
REMARK    9  A    between atoms: C16_19  and  C17_21 
REMARK       I    between atoms: C17_21  and  N2_23 
REMARK   10  A    between atoms: N2_23  and  C18_25 
ROOT
HETATM    1  C1  UNL     1      36.462  -1.963   9.384  1.00  0.00     0.015 C 
HETATM    2  C2  UNL     1      37.636  -1.809   9.317  1.00  0.00    -0.079 C 
HETATM    3  C3  UNL     1      39.089  -1.624   9.268  1.00  0.00     0.124 C 
HETATM    4  C4  UNL     1      39.650  -1.463  10.675  1.00  0.00     0.057 C 
HETATM    5  C5  UNL     1      40.164  -0.043  10.908  1.00  0.00    -0.002 C 
HETATM    6  C6  UNL     1      38.997   0.872  10.609  1.00  0.00     0.006 C 
HETATM    7  C7  UNL     1      38.691   0.746   9.148  1.00  0.00     0.009 C 
HETATM    8  C8  UNL     1      39.466  -0.373   8.503  1.00  0.00     0.037 C 
HETATM    9  C9  UNL     1      40.967  -0.216   8.638  1.00  0.00     0.002 C 
HETATM   10  C23 UNL     1      41.373   0.243  10.001  1.00  0.00    -0.033 C 
HETATM   11  C24 UNL     1      42.519  -0.592  10.590  1.00  0.00     0.010 C 
HETATM   12  C25 UNL     1      43.690   0.220  11.027  1.00  0.00     0.001 C 
HETATM   13  C26 UNL     1      43.257   1.153  12.116  1.00  0.00     0.000 C 
HETATM   14  C27 UNL     1      42.065   1.919  11.656  1.00  0.00     0.001 C 
HETATM   15  C28 UNL     1      41.753   1.657  10.171  1.00  0.00     0.010 C 
ENDROOT
BRANCH   3  16
HETATM   16  O1  UNL     1      39.622  -2.780   8.674  1.00  0.00    -0.377 OA
ATOM     17  H1  UNL     1      40.534  -2.825   8.936  1.00  0.00     0.211 HD
ENDBRANCH   3  16
BRANCH   9  18
HETATM   18  C10 UNL     1      41.651   0.314   7.460  1.00  0.00     0.006 C 
BRANCH  18  19
HETATM   19  C11 UNL     1      40.979   1.252   6.538  1.00  0.00     0.000 C 
BRANCH  19  20
HETATM   20  C12 UNL     1      41.572   2.637   6.658  1.00  0.00     0.000 C 
BRANCH  20  21
HETATM   21  C13 UNL     1      40.551   3.609   7.301  1.00  0.00     0.006 C 
BRANCH  21  22
HETATM   22  C14 UNL     1      39.850   4.293   6.169  1.00  0.00     0.060 C 
BRANCH  22  23
HETATM   23  C15 UNL     1      40.310   5.669   5.815  1.00  0.00     0.159 C 
BRANCH  23  24
HETATM   24  N1  UNL     1      41.513   6.105   6.273  1.00  0.00    -0.380 NA
HETATM   25  C16 UNL     1      42.719   6.545   6.727  1.00  0.00     0.383 C 
HETATM   26  O2  UNL     1      43.626   7.139   6.054  1.00  0.00    -0.246 OA
BRANCH  25  27
HETATM   27  C17 UNL     1      43.108   6.351   8.150  1.00  0.00     0.324 C 
HETATM   28  O3  UNL     1      42.287   6.711   9.051  1.00  0.00    -0.261 OA
HETATM   29  N2  UNL     1      44.338   5.792   8.463  1.00  0.00    -0.347 N 
ATOM     30  H2  UNL     1      44.925   5.513   7.678  1.00  0.00     0.163 HD
BRANCH  29  31
HETATM   31  C18 UNL     1      44.876   5.562   9.792  1.00  0.00     0.085 C 
HETATM   32  C19 UNL     1      46.327   5.813   9.876  1.00  0.00     0.025 C 
HETATM   33  C20 UNL     1      46.984   4.497  10.160  1.00  0.00     0.002 C 
HETATM   34  C21 UNL     1      45.981   3.417   9.843  1.00  0.00     0.002 C 
HETATM   35  C22 UNL     1      44.648   4.064  10.060  1.00  0.00     0.025 C 
ENDBRANCH  29  31
ENDBRANCH  25  27
ENDBRANCH  23  24
ENDBRANCH  22  23
ENDBRANCH  21  22
ENDBRANCH  20  21
ENDBRANCH  19  20
ENDBRANCH  18  19
ENDBRANCH   9  18
TORSDOF 10
ENDMDL
