MODEL 1
REMARK VINA RESULT: -8.213240446      0.000      0.000
REMARK  9 active torsions:
REMARK  status: ('A' for Active; 'I' for Inactive)
REMARK    1  A    between atoms: C2_2  and  C3_3 
REMARK    2  A    between atoms: C3_3  and  C4_4 
REMARK    3  A    between atoms: C4_4  and  C5_5 
REMARK    4  A    between atoms: C5_5  and  C6_6 
REMARK    5  A    between atoms: C6_6  and  C7_7 
REMARK    6  A    between atoms: C7_7  and  C8_8 
REMARK    7  A    between atoms: C8_8  and  N1_9 
REMARK       I    between atoms: N1_9  and  C9_11 
REMARK    8  A    between atoms: C11_15  and  C12_16 
REMARK       I    between atoms: N6_32  and  C24_33 
REMARK    9  A    between atoms: C24_33  and  C25_35 
ROOT
HETATM    1  C5  UNL     1      39.778  -0.281   7.484  1.00  0.00    -0.033 C 
HETATM    2  C10 UNL     1      39.148  -1.087   8.609  1.00  0.00     0.020 C 
HETATM    3  C11 UNL     1      40.294  -1.258   9.538  1.00  0.00    -0.034 C 
HETATM    4  C15 UNL     1      41.400  -1.512   8.496  1.00  0.00     0.018 C 
HETATM    5  C16 UNL     1      41.248  -0.130   7.860  1.00  0.00     0.029 C 
HETATM    6  C17 UNL     1      41.535   0.716   9.008  1.00  0.00     0.085 C 
HETATM    7  C18 UNL     1      40.658   0.112  10.088  1.00  0.00     0.048 C 
HETATM    8  C19 UNL     1      42.944   0.584   9.546  1.00  0.00     0.062 A 
HETATM    9  N4  UNL     1      44.067  -0.046   9.292  1.00  0.00    -0.352 N 
ATOM     10  H4  UNL     1      44.217  -0.707   8.530  1.00  0.00     0.166 HD
HETATM   11  C20 UNL     1      44.983   0.321  10.196  1.00  0.00     0.181 A 
HETATM   12  N5  UNL     1      44.411   1.201  11.027  1.00  0.00    -0.354 N 
ATOM     13  H5  UNL     1      44.877   1.650  11.816  1.00  0.00     0.166 HD
HETATM   14  C21 UNL     1      43.132   1.407  10.667  1.00  0.00     0.037 A 
HETATM   15  C22 UNL     1      42.112   2.317  11.234  1.00  0.00     0.079 C 
HETATM   16  C23 UNL     1      41.166   2.829  10.148  1.00  0.00     0.133 C 
HETATM   17  N6  UNL     1      41.471   2.141   8.906  1.00  0.00    -0.336 N 
HETATM   18  C24 UNL     1      41.762   2.885   7.774  1.00  0.00     0.220 C 
HETATM   19  O1  UNL     1      42.164   2.398   6.658  1.00  0.00    -0.273 OA
ENDROOT
BRANCH   1  20
HETATM   20  C4  UNL     1      39.676  -1.057   6.223  1.00  0.00     0.010 C 
BRANCH  20  21
HETATM   21  C3  UNL     1      39.137  -2.458   6.390  1.00  0.00     0.000 C 
BRANCH  21  22
HETATM   22  C2  UNL     1      37.666  -2.376   5.938  1.00  0.00    -0.005 C 
HETATM   23  C1  UNL     1      36.837  -3.336   6.769  1.00  0.00     0.005 C 
ENDBRANCH  21  22
ENDBRANCH  20  21
ENDBRANCH   1  20
BRANCH   1  24
HETATM   24  C6  UNL     1      38.992   0.963   7.355  1.00  0.00     0.011 C 
BRANCH  24  25
HETATM   25  C7  UNL     1      38.638   1.210   5.905  1.00  0.00     0.020 C 
BRANCH  25  26
HETATM   26  C8  UNL     1      38.854   2.709   5.621  1.00  0.00     0.122 C 
BRANCH  26  27
HETATM   27  N1  UNL     1      39.913   2.877   4.644  1.00  0.00    -0.367 N 
HETATM   28  C9  UNL     1      40.256   4.029   4.182  1.00  0.00     0.196 C 
HETATM   29  N2  UNL     1      41.306   4.087   3.227  1.00  0.00    -0.067 NA
HETATM   30  N3  UNL     1      39.596   5.187   4.626  1.00  0.00    -0.067 NA
ATOM     31  H1  UNL     1      40.406   2.049   4.309  1.00  0.00     0.161 HD
ENDBRANCH  26  27
ENDBRANCH  25  26
ENDBRANCH  24  25
ENDBRANCH   1  24
BRANCH   3  32
HETATM   32  C12 UNL     1      40.200  -2.320  10.545  1.00  0.00    -0.014 C 
HETATM   33  C13 UNL     1      38.951  -2.164  11.377  1.00  0.00     0.010 C 
HETATM   34  C14 UNL     1      41.378  -2.463  11.445  1.00  0.00     0.010 C 
ENDBRANCH   3  32
BRANCH  18  35
HETATM   35  C25 UNL     1      41.639   4.390   7.728  1.00  0.00     0.098 C 
HETATM   36  C26 UNL     1      42.660   5.018   6.810  1.00  0.00     0.014 C 
ENDBRANCH  18  35
TORSDOF 9
ENDMDL
MODEL 2
REMARK VINA RESULT: -7.914181464      1.554      1.856
REMARK  9 active torsions:
REMARK  status: ('A' for Active; 'I' for Inactive)
REMARK    1  A    between atoms: C2_2  and  C3_3 
REMARK    2  A    between atoms: C3_3  and  C4_4 
REMARK    3  A    between atoms: C4_4  and  C5_5 
REMARK    4  A    between atoms: C5_5  and  C6_6 
REMARK    5  A    between atoms: C6_6  and  C7_7 
REMARK    6  A    between atoms: C7_7  and  C8_8 
REMARK    7  A    between atoms: C8_8  and  N1_9 
REMARK       I    between atoms: N1_9  and  C9_11 
REMARK    8  A    between atoms: C11_15  and  C12_16 
REMARK       I    between atoms: N6_32  and  C24_33 
REMARK    9  A    between atoms: C24_33  and  C25_35 
ROOT
HETATM    1  C5  UNL     1      39.623  -0.646   7.428  1.00  0.00    -0.033 C 
HETATM    2  C10 UNL     1      38.822  -0.849   8.704  1.00  0.00     0.020 C 
HETATM    3  C11 UNL     1      39.865  -0.674   9.747  1.00  0.00    -0.034 C 
HETATM    4  C15 UNL     1      41.017  -1.419   9.049  1.00  0.00     0.018 C 
HETATM    5  C16 UNL     1      41.065  -0.440   7.876  1.00  0.00     0.029 C 
HETATM    6  C17 UNL     1      41.347   0.800   8.585  1.00  0.00     0.085 C 
HETATM    7  C18 UNL     1      40.327   0.774   9.707  1.00  0.00     0.048 C 
HETATM    8  C19 UNL     1      42.686   0.825   9.291  1.00  0.00     0.062 A 
HETATM    9  N4  UNL     1      43.752   0.080   9.462  1.00  0.00    -0.352 N 
ATOM     10  H4  UNL     1      43.893  -0.853   9.074  1.00  0.00     0.166 HD
HETATM   11  C20 UNL     1      44.626   0.744  10.229  1.00  0.00     0.181 A 
HETATM   12  N5  UNL     1      44.086   1.929  10.536  1.00  0.00    -0.354 N 
ATOM     13  H5  UNL     1      44.531   2.644  11.112  1.00  0.00     0.166 HD
HETATM   14  C21 UNL     1      42.869   2.038   9.975  1.00  0.00     0.037 A 
HETATM   15  C22 UNL     1      41.909   3.164   9.979  1.00  0.00     0.079 C 
HETATM   16  C23 UNL     1      41.114   3.215   8.675  1.00  0.00     0.133 C 
HETATM   17  N6  UNL     1      41.443   2.042   7.884  1.00  0.00    -0.336 N 
HETATM   18  C24 UNL     1      41.903   2.206   6.588  1.00  0.00     0.220 C 
HETATM   19  O1  UNL     1      42.339   1.263   5.838  1.00  0.00    -0.273 OA
ENDROOT
BRANCH   1  20
HETATM   20  C4  UNL     1      39.542  -1.882   6.610  1.00  0.00     0.010 C 
BRANCH  20  21
HETATM   21  C3  UNL     1      38.528  -2.891   7.095  1.00  0.00     0.000 C 
BRANCH  21  22
HETATM   22  C2  UNL     1      37.455  -2.942   5.990  1.00  0.00    -0.005 C 
HETATM   23  C1  UNL     1      36.237  -2.161   6.446  1.00  0.00     0.005 C 
ENDBRANCH  21  22
ENDBRANCH  20  21
ENDBRANCH   1  20
BRANCH   1  24
HETATM   24  C6  UNL     1      38.987   0.466   6.693  1.00  0.00     0.011 C 
BRANCH  24  25
HETATM   25  C7  UNL     1      39.115   0.249   5.202  1.00  0.00     0.020 C 
BRANCH  25  26
HETATM   26  C8  UNL     1      37.803   0.724   4.548  1.00  0.00     0.122 C 
BRANCH  26  27
HETATM   27  N1  UNL     1      37.920   0.658   3.103  1.00  0.00    -0.367 N 
HETATM   28  C9  UNL     1      37.937   1.708   2.359  1.00  0.00     0.196 C 
HETATM   29  N2  UNL     1      38.054   1.537   0.954  1.00  0.00    -0.067 NA
HETATM   30  N3  UNL     1      37.842   2.983   2.943  1.00  0.00    -0.067 NA
ATOM     31  H1  UNL     1      37.991  -0.258   2.660  1.00  0.00     0.161 HD
ENDBRANCH  26  27
ENDBRANCH  25  26
ENDBRANCH  24  25
ENDBRANCH   1  24
BRANCH   3  32
HETATM   32  C12 UNL     1      39.577  -1.191  11.089  1.00  0.00    -0.014 C 
HETATM   33  C13 UNL     1      39.663  -2.697  11.116  1.00  0.00     0.010 C 
HETATM   34  C14 UNL     1      38.280  -0.760  11.682  1.00  0.00     0.010 C 
ENDBRANCH   3  32
BRANCH  18  35
HETATM   35  C25 UNL     1      41.944   3.550   5.897  1.00  0.00     0.098 C 
HETATM   36  C26 UNL     1      40.814   3.717   4.909  1.00  0.00     0.014 C 
ENDBRANCH  18  35
TORSDOF 9
ENDMDL
MODEL 3
REMARK VINA RESULT: -7.867034159      2.198      5.568
REMARK  9 active torsions:
REMARK  status: ('A' for Active; 'I' for Inactive)
REMARK    1  A    between atoms: C2_2  and  C3_3 
REMARK    2  A    between atoms: C3_3  and  C4_4 
REMARK    3  A    between atoms: C4_4  and  C5_5 
REMARK    4  A    between atoms: C5_5  and  C6_6 
REMARK    5  A    between atoms: C6_6  and  C7_7 
REMARK    6  A    between atoms: C7_7  and  C8_8 
REMARK    7  A    between atoms: C8_8  and  N1_9 
REMARK       I    between atoms: N1_9  and  C9_11 
REMARK    8  A    between atoms: C11_15  and  C12_16 
REMARK       I    between atoms: N6_32  and  C24_33 
REMARK    9  A    between atoms: C24_33  and  C25_35 
ROOT
HETATM    1  C5  UNL     1      42.230   4.069   8.935  1.00  0.00    -0.033 C 
HETATM    2  C10 UNL     1      43.539   3.417   9.349  1.00  0.00     0.020 C 
HETATM    3  C11 UNL     1      43.063   2.279  10.175  1.00  0.00    -0.034 C 
HETATM    4  C15 UNL     1      41.916   2.994  10.914  1.00  0.00     0.018 C 
HETATM    5  C16 UNL     1      41.134   3.267   9.628  1.00  0.00     0.029 C 
HETATM    6  C17 UNL     1      40.934   1.907   9.152  1.00  0.00     0.085 C 
HETATM    7  C18 UNL     1      42.326   1.314   9.261  1.00  0.00     0.048 C 
HETATM    8  C19 UNL     1      40.083   1.045  10.062  1.00  0.00     0.062 A 
HETATM    9  N4  UNL     1      39.399   1.125  11.179  1.00  0.00    -0.352 N 
ATOM     10  H4  UNL     1      39.309   1.957  11.762  1.00  0.00     0.166 HD
HETATM   11  C20 UNL     1      38.838  -0.065  11.428  1.00  0.00     0.181 A 
HETATM   12  N5  UNL     1      39.184  -0.898  10.438  1.00  0.00    -0.354 N 
ATOM     13  H5  UNL     1      38.897  -1.875  10.368  1.00  0.00     0.166 HD
HETATM   14  C21 UNL     1      39.963  -0.257   9.550  1.00  0.00     0.037 A 
HETATM   15  C22 UNL     1      40.550  -0.726   8.275  1.00  0.00     0.079 C 
HETATM   16  C23 UNL     1      40.644   0.412   7.260  1.00  0.00     0.133 C 
HETATM   17  N6  UNL     1      40.264   1.651   7.915  1.00  0.00    -0.336 N 
HETATM   18  C24 UNL     1      39.249   2.422   7.371  1.00  0.00     0.220 C 
HETATM   19  O1  UNL     1      38.744   3.464   7.918  1.00  0.00    -0.273 OA
ENDROOT
BRANCH   1  20
HETATM   20  C4  UNL     1      42.206   5.463   9.444  1.00  0.00     0.010 C 
BRANCH  20  21
HETATM   21  C3  UNL     1      43.565   6.033   9.777  1.00  0.00     0.000 C 
BRANCH  21  22
HETATM   22  C2  UNL     1      43.731   7.244   8.838  1.00  0.00    -0.005 C 
HETATM   23  C1  UNL     1      45.166   7.302   8.352  1.00  0.00     0.005 C 
ENDBRANCH  21  22
ENDBRANCH  20  21
ENDBRANCH   1  20
BRANCH   1  24
HETATM   24  C6  UNL     1      42.207   4.089   7.458  1.00  0.00     0.011 C 
BRANCH  24  25
HETATM   25  C7  UNL     1      41.420   5.283   6.963  1.00  0.00     0.020 C 
BRANCH  25  26
HETATM   26  C8  UNL     1      41.601   5.359   5.435  1.00  0.00     0.122 C 
BRANCH  26  27
HETATM   27  N1  UNL     1      40.346   5.051   4.774  1.00  0.00    -0.367 N 
HETATM   28  C9  UNL     1      40.289   4.458   3.633  1.00  0.00     0.196 C 
HETATM   29  N2  UNL     1      39.011   4.202   3.069  1.00  0.00    -0.067 NA
HETATM   30  N3  UNL     1      41.474   4.080   2.979  1.00  0.00    -0.067 NA
ATOM     31  H1  UNL     1      39.474   5.316   5.232  1.00  0.00     0.161 HD
ENDBRANCH  26  27
ENDBRANCH  25  26
ENDBRANCH  24  25
ENDBRANCH   1  24
BRANCH   3  32
HETATM   32  C12 UNL     1      44.027   1.650  11.085  1.00  0.00    -0.014 C 
HETATM   33  C13 UNL     1      44.943   0.714  10.336  1.00  0.00     0.010 C 
HETATM   34  C14 UNL     1      43.440   0.937  12.254  1.00  0.00     0.010 C 
ENDBRANCH   3  32
BRANCH  18  35
HETATM   35  C25 UNL     1      38.609   2.109   6.038  1.00  0.00     0.098 C 
HETATM   36  C26 UNL     1      37.282   2.810   5.866  1.00  0.00     0.014 C 
ENDBRANCH  18  35
TORSDOF 9
ENDMDL
MODEL 4
REMARK VINA RESULT: -7.758162148      2.008      5.406
REMARK  9 active torsions:
REMARK  status: ('A' for Active; 'I' for Inactive)
REMARK    1  A    between atoms: C2_2  and  C3_3 
REMARK    2  A    between atoms: C3_3  and  C4_4 
REMARK    3  A    between atoms: C4_4  and  C5_5 
REMARK    4  A    between atoms: C5_5  and  C6_6 
REMARK    5  A    between atoms: C6_6  and  C7_7 
REMARK    6  A    between atoms: C7_7  and  C8_8 
REMARK    7  A    between atoms: C8_8  and  N1_9 
REMARK       I    between atoms: N1_9  and  C9_11 
REMARK    8  A    between atoms: C11_15  and  C12_16 
REMARK       I    between atoms: N6_32  and  C24_33 
REMARK    9  A    between atoms: C24_33  and  C25_35 
ROOT
HETATM    1  C5  UNL     1      41.686   3.704   8.387  1.00  0.00    -0.033 C 
HETATM    2  C10 UNL     1      43.034   3.417   9.031  1.00  0.00     0.020 C 
HETATM    3  C11 UNL     1      42.670   2.404  10.055  1.00  0.00    -0.034 C 
HETATM    4  C15 UNL     1      41.340   3.021  10.528  1.00  0.00     0.018 C 
HETATM    5  C16 UNL     1      40.674   2.867   9.161  1.00  0.00     0.029 C 
HETATM    6  C17 UNL     1      40.767   1.425   8.988  1.00  0.00     0.085 C 
HETATM    7  C18 UNL     1      42.219   1.147   9.329  1.00  0.00     0.048 C 
HETATM    8  C19 UNL     1      39.980   0.622  10.003  1.00  0.00     0.062 A 
HETATM    9  N4  UNL     1      39.171   0.797  11.021  1.00  0.00    -0.352 N 
ATOM     10  H4  UNL     1      38.873   1.698  11.394  1.00  0.00     0.166 HD
HETATM   11  C20 UNL     1      38.798  -0.401  11.489  1.00  0.00     0.181 A 
HETATM   12  N5  UNL     1      39.392  -1.338  10.739  1.00  0.00    -0.354 N 
ATOM     13  H5  UNL     1      39.289  -2.344  10.869  1.00  0.00     0.166 HD
HETATM   14  C21 UNL     1      40.145  -0.756   9.790  1.00  0.00     0.037 A 
HETATM   15  C22 UNL     1      40.944  -1.356   8.699  1.00  0.00     0.079 C 
HETATM   16  C23 UNL     1      40.956  -0.456   7.463  1.00  0.00     0.133 C 
HETATM   17  N6  UNL     1      40.295   0.794   7.795  1.00  0.00    -0.336 N 
HETATM   18  C24 UNL     1      39.232   1.225   7.019  1.00  0.00     0.220 C 
HETATM   19  O1  UNL     1      38.495   2.240   7.280  1.00  0.00    -0.273 OA
ENDROOT
BRANCH   1  20
HETATM   20  C4  UNL     1      41.366   5.142   8.568  1.00  0.00     0.010 C 
BRANCH  20  21
HETATM   21  C3  UNL     1      42.526   5.991   9.027  1.00  0.00     0.000 C 
BRANCH  21  22
HETATM   22  C2  UNL     1      42.447   7.271   8.173  1.00  0.00    -0.005 C 
HETATM   23  C1  UNL     1      43.395   7.142   6.996  1.00  0.00     0.005 C 
ENDBRANCH  21  22
ENDBRANCH  20  21
ENDBRANCH   1  20
BRANCH   1  24
HETATM   24  C6  UNL     1      41.829   3.414   6.946  1.00  0.00     0.011 C 
BRANCH  24  25
HETATM   25  C7  UNL     1      41.012   4.393   6.132  1.00  0.00     0.020 C 
BRANCH  25  26
HETATM   26  C8  UNL     1      40.805   3.779   4.734  1.00  0.00     0.122 C 
BRANCH  26  27
HETATM   27  N1  UNL     1      39.853   4.574   3.982  1.00  0.00    -0.367 N 
HETATM   28  C9  UNL     1      38.991   4.052   3.181  1.00  0.00     0.196 C 
HETATM   29  N2  UNL     1      38.102   4.918   2.490  1.00  0.00    -0.067 NA
HETATM   30  N3  UNL     1      38.947   2.658   3.010  1.00  0.00    -0.067 NA
ATOM     31  H1  UNL     1      39.867   5.588   4.092  1.00  0.00     0.161 HD
ENDBRANCH  26  27
ENDBRANCH  25  26
ENDBRANCH  24  25
ENDBRANCH   1  24
BRANCH   3  32
HETATM   32  C12 UNL     1      43.618   2.175  11.151  1.00  0.00    -0.014 C 
HETATM   33  C13 UNL     1      45.012   1.951  10.618  1.00  0.00     0.010 C 
HETATM   34  C14 UNL     1      43.265   1.074  12.090  1.00  0.00     0.010 C 
ENDBRANCH   3  32
BRANCH  18  35
HETATM   35  C25 UNL     1      38.810   0.527   5.747  1.00  0.00     0.098 C 
HETATM   36  C26 UNL     1      37.554  -0.290   5.935  1.00  0.00     0.014 C 
ENDBRANCH  18  35
TORSDOF 9
ENDMDL
MODEL 5
REMARK VINA RESULT: -7.740742207      2.287      6.648
REMARK  9 active torsions:
REMARK  status: ('A' for Active; 'I' for Inactive)
REMARK    1  A    between atoms: C2_2  and  C3_3 
REMARK    2  A    between atoms: C3_3  and  C4_4 
REMARK    3  A    between atoms: C4_4  and  C5_5 
REMARK    4  A    between atoms: C5_5  and  C6_6 
REMARK    5  A    between atoms: C6_6  and  C7_7 
REMARK    6  A    between atoms: C7_7  and  C8_8 
REMARK    7  A    between atoms: C8_8  and  N1_9 
REMARK       I    between atoms: N1_9  and  C9_11 
REMARK    8  A    between atoms: C11_15  and  C12_16 
REMARK       I    between atoms: N6_32  and  C24_33 
REMARK    9  A    between atoms: C24_33  and  C25_35 
ROOT
HETATM    1  C5  UNL     1      41.781   1.766   9.354  1.00  0.00    -0.033 C 
HETATM    2  C10 UNL     1      41.510   3.076  10.078  1.00  0.00     0.020 C 
HETATM    3  C11 UNL     1      41.347   4.021   8.944  1.00  0.00    -0.034 C 
HETATM    4  C15 UNL     1      42.467   3.485   8.033  1.00  0.00     0.018 C 
HETATM    5  C16 UNL     1      41.809   2.115   7.870  1.00  0.00     0.029 C 
HETATM    6  C17 UNL     1      40.538   2.507   7.278  1.00  0.00     0.085 C 
HETATM    7  C18 UNL     1      40.085   3.631   8.190  1.00  0.00     0.048 C 
HETATM    8  C19 UNL     1      40.658   3.152   5.913  1.00  0.00     0.062 A 
HETATM    9  N4  UNL     1      41.567   3.463   5.019  1.00  0.00    -0.352 N 
ATOM     10  H4  UNL     1      42.569   3.299   5.110  1.00  0.00     0.166 HD
HETATM   11  C20 UNL     1      40.962   4.029   3.967  1.00  0.00     0.181 A 
HETATM   12  N5  UNL     1      39.648   4.067   4.219  1.00  0.00    -0.354 N 
ATOM     13  H5  UNL     1      38.942   4.447   3.588  1.00  0.00     0.166 HD
HETATM   14  C21 UNL     1      39.396   3.528   5.424  1.00  0.00     0.037 A 
HETATM   15  C22 UNL     1      38.112   3.295   6.121  1.00  0.00     0.079 C 
HETATM   16  C23 UNL     1      38.174   2.037   6.986  1.00  0.00     0.133 C 
HETATM   17  N6  UNL     1      39.536   1.533   6.976  1.00  0.00    -0.336 N 
HETATM   18  C24 UNL     1      39.771   0.222   6.594  1.00  0.00     0.220 C 
HETATM   19  O1  UNL     1      40.930  -0.298   6.427  1.00  0.00    -0.273 OA
ENDROOT
BRANCH   1  20
HETATM   20  C4  UNL     1      43.117   1.262   9.759  1.00  0.00     0.010 C 
BRANCH  20  21
HETATM   21  C3  UNL     1      43.645   1.847  11.047  1.00  0.00     0.000 C 
BRANCH  21  22
HETATM   22  C2  UNL     1      45.161   2.008  10.820  1.00  0.00    -0.005 C 
HETATM   23  C1  UNL     1      45.430   3.366  10.201  1.00  0.00     0.005 C 
ENDBRANCH  21  22
ENDBRANCH  20  21
ENDBRANCH   1  20
BRANCH   1  24
HETATM   24  C6  UNL     1      40.745   0.810   9.795  1.00  0.00     0.011 C 
BRANCH  24  25
HETATM   25  C7  UNL     1      40.186   1.227  11.137  1.00  0.00     0.020 C 
BRANCH  25  26
HETATM   26  C8  UNL     1      39.025   0.271  11.475  1.00  0.00     0.122 C 
BRANCH  26  27
HETATM   27  N1  UNL     1      37.878   0.573  10.639  1.00  0.00    -0.367 N 
HETATM   28  C9  UNL     1      37.255  -0.328   9.963  1.00  0.00     0.196 C 
HETATM   29  N2  UNL     1      36.144   0.070   9.174  1.00  0.00    -0.067 NA
HETATM   30  N3  UNL     1      37.680  -1.666  10.020  1.00  0.00    -0.067 NA
ATOM     31  H1  UNL     1      37.553   1.538  10.585  1.00  0.00     0.161 HD
ENDBRANCH  26  27
ENDBRANCH  25  26
ENDBRANCH  24  25
ENDBRANCH   1  24
BRANCH   3  32
HETATM   32  C12 UNL     1      41.475   5.454   9.229  1.00  0.00    -0.014 C 
HETATM   33  C13 UNL     1      40.873   6.280   8.120  1.00  0.00     0.010 C 
HETATM   34  C14 UNL     1      42.857   5.934   9.509  1.00  0.00     0.010 C 
ENDBRANCH   3  32
BRANCH  18  35
HETATM   35  C25 UNL     1      38.658  -0.764   6.323  1.00  0.00     0.098 C 
HETATM   36  C26 UNL     1      39.088  -2.190   6.572  1.00  0.00     0.014 C 
ENDBRANCH  18  35
TORSDOF 9
ENDMDL
