MODEL 1
REMARK VINA RESULT: -8.072329903      0.000      0.000
REMARK  10 active torsions:
REMARK  status: ('A' for Active; 'I' for Inactive)
REMARK    1  A    between atoms: C2_2  and  N1_3 
REMARK       I    between atoms: N1_3  and  C3_4 
REMARK    2  A    between atoms: N1_3  and  C15_22 
REMARK    3  A    between atoms: C3_4  and  C4_6 
REMARK    4  A    between atoms: C7_9  and  N2_10 
REMARK       I    between atoms: N2_10  and  C8_12 
REMARK       I    between atoms: C8_12  and  N3_14 
REMARK    5  A    between atoms: N3_14  and  C9_16 
REMARK    6  A    between atoms: C15_22  and  C16_23 
REMARK    7  A    between atoms: C15_22  and  C24_34 
REMARK       I    between atoms: C16_23  and  N4_25 
REMARK    8  A    between atoms: N4_25  and  C17_27 
REMARK    9  A    between atoms: C17_27  and  C19_29 
REMARK   10  A    between atoms: C17_27  and  C21_31 
ROOT
HETATM    1  N1  UNL     1      42.581   4.623   7.984  1.00  0.00    -0.338 N 
HETATM    2  C3  UNL     1      41.765   5.742   8.112  1.00  0.00     0.226 C 
HETATM    3  O1  UNL     1      41.637   6.267   9.284  1.00  0.00    -0.273 OA
ENDROOT
BRANCH   1   4
HETATM    4  C2  UNL     1      42.649   4.046   6.606  1.00  0.00     0.122 C 
HETATM    5  C1  UNL     1      41.678   2.914   6.481  1.00  0.00     0.026 C 
ENDBRANCH   1   4
BRANCH   1   6
HETATM    6  C15 UNL     1      43.384   3.902   8.930  1.00  0.00     0.182 C 
BRANCH   6   7
HETATM    7  C16 UNL     1      44.673   4.604   9.176  1.00  0.00     0.241 C 
HETATM    8  O3  UNL     1      45.773   4.196   8.687  1.00  0.00    -0.271 OA
HETATM    9  N4  UNL     1      44.716   5.758   9.981  1.00  0.00    -0.350 N 
ATOM     10  H4  UNL     1      43.844   6.104  10.381  1.00  0.00     0.163 HD
BRANCH   9  11
HETATM   11  C17 UNL     1      45.935   6.476  10.269  1.00  0.00     0.032 C 
HETATM   12  C18 UNL     1      45.537   7.606  11.246  1.00  0.00     0.039 C 
BRANCH  11  13
HETATM   13  C19 UNL     1      47.022   5.706  10.908  1.00  0.00     0.026 C 
HETATM   14  C20 UNL     1      47.365   6.100  12.326  1.00  0.00     0.007 C 
ENDBRANCH  11  13
BRANCH  11  15
HETATM   15  C21 UNL     1      46.360   7.231   9.020  1.00  0.00     0.005 C 
HETATM   16  C22 UNL     1      47.563   8.112   9.409  1.00  0.00     0.012 C 
HETATM   17  C23 UNL     1      45.323   8.113   8.430  1.00  0.00     0.012 C 
ENDBRANCH  11  15
ENDBRANCH   9  11
ENDBRANCH   6   7
BRANCH   6  18
HETATM   18  C24 UNL     1      42.704   3.367  10.129  1.00  0.00     0.009 C 
HETATM   19  C25 UNL     1      43.387   2.390  11.008  1.00  0.00     0.012 C 
HETATM   20  C26 UNL     1      41.298   2.882   9.884  1.00  0.00     0.012 C 
ENDBRANCH   6  18
ENDBRANCH   1   6
BRANCH   2  21
HETATM   21  C4  UNL     1      41.011   6.442   7.068  1.00  0.00     0.101 A 
HETATM   22  C5  UNL     1      40.653   7.862   7.547  1.00  0.00     0.018 A 
HETATM   23  C6  UNL     1      39.243   7.576   7.162  1.00  0.00     0.027 A 
HETATM   24  C7  UNL     1      39.612   6.146   6.731  1.00  0.00     0.099 A 
BRANCH  24  25
HETATM   25  N2  UNL     1      39.319   6.066   5.304  1.00  0.00    -0.338 N 
HETATM   26  C8  UNL     1      38.661   4.935   4.781  1.00  0.00     0.316 C 
HETATM   27  O2  UNL     1      38.298   3.970   5.490  1.00  0.00    -0.247 OA
HETATM   28  N3  UNL     1      38.368   4.820   3.385  1.00  0.00    -0.339 N 
ATOM     29  H3  UNL     1      38.627   5.598   2.778  1.00  0.00     0.164 HD
ATOM     30  H2  UNL     1      39.590   6.829   4.684  1.00  0.00     0.164 HD
BRANCH  28  31
HETATM   31  C9  UNL     1      37.734   3.685   2.782  1.00  0.00     0.086 C 
HETATM   32  C10 UNL     1      38.702   2.759   2.115  1.00  0.00     0.025 C 
HETATM   33  C11 UNL     1      38.061   1.689   1.287  1.00  0.00     0.002 C 
HETATM   34  C12 UNL     1      36.921   2.189   0.455  1.00  0.00     0.000 C 
HETATM   35  C13 UNL     1      35.907   2.863   1.379  1.00  0.00     0.002 C 
HETATM   36  C14 UNL     1      36.597   4.115   1.880  1.00  0.00     0.025 C 
ENDBRANCH  28  31
ENDBRANCH  24  25
ENDBRANCH   2  21
TORSDOF 10
ENDMDL
MODEL 2
REMARK VINA RESULT: -7.701093780      2.022      4.765
REMARK  10 active torsions:
REMARK  status: ('A' for Active; 'I' for Inactive)
REMARK    1  A    between atoms: C2_2  and  N1_3 
REMARK       I    between atoms: N1_3  and  C3_4 
REMARK    2  A    between atoms: N1_3  and  C15_22 
REMARK    3  A    between atoms: C3_4  and  C4_6 
REMARK    4  A    between atoms: C7_9  and  N2_10 
REMARK       I    between atoms: N2_10  and  C8_12 
REMARK       I    between atoms: C8_12  and  N3_14 
REMARK    5  A    between atoms: N3_14  and  C9_16 
REMARK    6  A    between atoms: C15_22  and  C16_23 
REMARK    7  A    between atoms: C15_22  and  C24_34 
REMARK       I    between atoms: C16_23  and  N4_25 
REMARK    8  A    between atoms: N4_25  and  C17_27 
REMARK    9  A    between atoms: C17_27  and  C19_29 
REMARK   10  A    between atoms: C17_27  and  C21_31 
ROOT
HETATM    1  N1  UNL     1      42.600   4.285   8.879  1.00  0.00    -0.338 N 
HETATM    2  C3  UNL     1      41.858   5.456   8.761  1.00  0.00     0.226 C 
HETATM    3  O1  UNL     1      41.413   6.002   9.841  1.00  0.00    -0.273 OA
ENDROOT
BRANCH   1   4
HETATM    4  C2  UNL     1      43.047   3.688   7.583  1.00  0.00     0.122 C 
HETATM    5  C1  UNL     1      41.885   3.049   6.890  1.00  0.00     0.026 C 
ENDBRANCH   1   4
BRANCH   1   6
HETATM    6  C15 UNL     1      43.028   3.527  10.019  1.00  0.00     0.182 C 
BRANCH   6   7
HETATM    7  C16 UNL     1      41.990   2.541  10.423  1.00  0.00     0.241 C 
HETATM    8  O3  UNL     1      41.254   2.710  11.446  1.00  0.00    -0.271 OA
HETATM    9  N4  UNL     1      41.792   1.364   9.676  1.00  0.00    -0.350 N 
ATOM     10  H4  UNL     1      42.369   1.211   8.850  1.00  0.00     0.163 HD
BRANCH   9  11
HETATM   11  C17 UNL     1      40.811   0.363  10.023  1.00  0.00     0.032 C 
HETATM   12  C18 UNL     1      41.578  -0.723  10.811  1.00  0.00     0.039 C 
BRANCH  11  13
HETATM   13  C19 UNL     1      39.683   0.806  10.869  1.00  0.00     0.026 C 
HETATM   14  C20 UNL     1      38.819  -0.291  11.445  1.00  0.00     0.007 C 
ENDBRANCH  11  13
BRANCH  11  15
HETATM   15  C21 UNL     1      40.387  -0.361   8.756  1.00  0.00     0.005 C 
HETATM   16  C22 UNL     1      41.669  -0.654   7.951  1.00  0.00     0.012 C 
HETATM   17  C23 UNL     1      39.461   0.392   7.876  1.00  0.00     0.012 C 
ENDBRANCH  11  15
ENDBRANCH   9  11
ENDBRANCH   6   7
BRANCH   6  18
HETATM   18  C24 UNL     1      44.421   3.029  10.018  1.00  0.00     0.009 C 
HETATM   19  C25 UNL     1      44.825   1.921  10.914  1.00  0.00     0.012 C 
HETATM   20  C26 UNL     1      45.469   4.110  10.098  1.00  0.00     0.012 C 
ENDBRANCH   6  18
ENDBRANCH   1   6
BRANCH   2  21
HETATM   21  C4  UNL     1      41.506   6.190   7.542  1.00  0.00     0.101 A 
HETATM   22  C5  UNL     1      41.555   7.706   7.814  1.00  0.00     0.018 A 
HETATM   23  C6  UNL     1      40.190   7.799   7.227  1.00  0.00     0.027 A 
HETATM   24  C7  UNL     1      40.141   6.277   7.006  1.00  0.00     0.099 A 
BRANCH  24  25
HETATM   25  N2  UNL     1      40.024   6.083   5.564  1.00  0.00    -0.338 N 
HETATM   26  C8  UNL     1      39.143   5.110   5.052  1.00  0.00     0.316 C 
HETATM   27  O2  UNL     1      38.429   4.386   5.782  1.00  0.00    -0.247 OA
HETATM   28  N3  UNL     1      39.012   4.886   3.645  1.00  0.00    -0.339 N 
ATOM     29  H3  UNL     1      39.560   5.474   3.016  1.00  0.00     0.164 HD
ATOM     30  H2  UNL     1      40.581   6.651   4.926  1.00  0.00     0.164 HD
BRANCH  28  31
HETATM   31  C9  UNL     1      38.163   3.891   3.059  1.00  0.00     0.086 C 
HETATM   32  C10 UNL     1      38.922   2.837   2.316  1.00  0.00     0.025 C 
HETATM   33  C11 UNL     1      38.064   1.914   1.508  1.00  0.00     0.002 C 
HETATM   34  C12 UNL     1      36.979   2.622   0.757  1.00  0.00     0.000 C 
HETATM   35  C13 UNL     1      36.148   3.429   1.753  1.00  0.00     0.002 C 
HETATM   36  C14 UNL     1      37.066   4.532   2.236  1.00  0.00     0.025 C 
ENDBRANCH  28  31
ENDBRANCH  24  25
ENDBRANCH   2  21
TORSDOF 10
ENDMDL
MODEL 3
REMARK VINA RESULT: -7.640678836      2.617      5.294
REMARK  10 active torsions:
REMARK  status: ('A' for Active; 'I' for Inactive)
REMARK    1  A    between atoms: C2_2  and  N1_3 
REMARK       I    between atoms: N1_3  and  C3_4 
REMARK    2  A    between atoms: N1_3  and  C15_22 
REMARK    3  A    between atoms: C3_4  and  C4_6 
REMARK    4  A    between atoms: C7_9  and  N2_10 
REMARK       I    between atoms: N2_10  and  C8_12 
REMARK       I    between atoms: C8_12  and  N3_14 
REMARK    5  A    between atoms: N3_14  and  C9_16 
REMARK    6  A    between atoms: C15_22  and  C16_23 
REMARK    7  A    between atoms: C15_22  and  C24_34 
REMARK       I    between atoms: C16_23  and  N4_25 
REMARK    8  A    between atoms: N4_25  and  C17_27 
REMARK    9  A    between atoms: C17_27  and  C19_29 
REMARK   10  A    between atoms: C17_27  and  C21_31 
ROOT
HETATM    1  N1  UNL     1      41.280   3.663   9.075  1.00  0.00    -0.338 N 
HETATM    2  C3  UNL     1      41.357   5.044   8.931  1.00  0.00     0.226 C 
HETATM    3  O1  UNL     1      41.605   5.750   9.982  1.00  0.00    -0.273 OA
ENDROOT
BRANCH   1   4
HETATM    4  C2  UNL     1      40.949   2.915   7.823  1.00  0.00     0.122 C 
HETATM    5  C1  UNL     1      42.095   2.995   6.866  1.00  0.00     0.026 C 
ENDBRANCH   1   4
BRANCH   1   6
HETATM    6  C15 UNL     1      41.461   2.801  10.207  1.00  0.00     0.182 C 
BRANCH   6   7
HETATM    7  C16 UNL     1      40.800   1.487   9.986  1.00  0.00     0.241 C 
HETATM    8  O3  UNL     1      39.648   1.219  10.453  1.00  0.00    -0.271 OA
HETATM    9  N4  UNL     1      41.445   0.477   9.248  1.00  0.00    -0.350 N 
ATOM     10  H4  UNL     1      42.369   0.672   8.863  1.00  0.00     0.163 HD
BRANCH   9  11
HETATM   11  C17 UNL     1      40.863  -0.823   9.009  1.00  0.00     0.032 C 
HETATM   12  C18 UNL     1      41.799  -1.524   7.997  1.00  0.00     0.039 C 
BRANCH  11  13
HETATM   13  C19 UNL     1      40.735  -1.716  10.180  1.00  0.00     0.026 C 
HETATM   14  C20 UNL     1      41.991  -1.920  10.995  1.00  0.00     0.007 C 
ENDBRANCH  11  13
BRANCH  11  15
HETATM   15  C21 UNL     1      39.575  -0.641   8.224  1.00  0.00     0.005 C 
HETATM   16  C22 UNL     1      38.672  -1.847   8.547  1.00  0.00     0.012 C 
HETATM   17  C23 UNL     1      39.736  -0.576   6.751  1.00  0.00     0.012 C 
ENDBRANCH  11  15
ENDBRANCH   9  11
ENDBRANCH   6   7
BRANCH   6  18
HETATM   18  C24 UNL     1      42.811   2.748  10.810  1.00  0.00     0.009 C 
HETATM   19  C25 UNL     1      44.019   2.854   9.960  1.00  0.00     0.012 C 
HETATM   20  C26 UNL     1      43.015   1.616  11.785  1.00  0.00     0.012 C 
ENDBRANCH   6  18
ENDBRANCH   1   6
BRANCH   2  21
HETATM   21  C4  UNL     1      41.200   5.842   7.710  1.00  0.00     0.101 A 
HETATM   22  C5  UNL     1      41.522   7.319   8.008  1.00  0.00     0.018 A 
HETATM   23  C6  UNL     1      40.224   7.673   7.369  1.00  0.00     0.027 A 
HETATM   24  C7  UNL     1      39.900   6.189   7.122  1.00  0.00     0.099 A 
BRANCH  24  25
HETATM   25  N2  UNL     1      39.809   6.031   5.674  1.00  0.00    -0.338 N 
HETATM   26  C8  UNL     1      38.969   5.044   5.123  1.00  0.00     0.316 C 
HETATM   27  O2  UNL     1      38.270   4.276   5.822  1.00  0.00    -0.247 OA
HETATM   28  N3  UNL     1      38.865   4.856   3.708  1.00  0.00    -0.339 N 
ATOM     29  H3  UNL     1      39.401   5.480   3.103  1.00  0.00     0.164 HD
ATOM     30  H2  UNL     1      40.355   6.636   5.060  1.00  0.00     0.164 HD
BRANCH  28  31
HETATM   31  C9  UNL     1      38.058   3.851   3.082  1.00  0.00     0.086 C 
HETATM   32  C10 UNL     1      38.865   2.810   2.373  1.00  0.00     0.025 C 
HETATM   33  C11 UNL     1      38.059   1.876   1.525  1.00  0.00     0.002 C 
HETATM   34  C12 UNL     1      36.999   2.570   0.726  1.00  0.00     0.000 C 
HETATM   35  C13 UNL     1      36.111   3.362   1.685  1.00  0.00     0.002 C 
HETATM   36  C14 UNL     1      36.990   4.478   2.211  1.00  0.00     0.025 C 
ENDBRANCH  28  31
ENDBRANCH  24  25
ENDBRANCH   2  21
TORSDOF 10
ENDMDL
MODEL 4
REMARK VINA RESULT: -7.499303762      2.531      5.496
REMARK  10 active torsions:
REMARK  status: ('A' for Active; 'I' for Inactive)
REMARK    1  A    between atoms: C2_2  and  N1_3 
REMARK       I    between atoms: N1_3  and  C3_4 
REMARK    2  A    between atoms: N1_3  and  C15_22 
REMARK    3  A    between atoms: C3_4  and  C4_6 
REMARK    4  A    between atoms: C7_9  and  N2_10 
REMARK       I    between atoms: N2_10  and  C8_12 
REMARK       I    between atoms: C8_12  and  N3_14 
REMARK    5  A    between atoms: N3_14  and  C9_16 
REMARK    6  A    between atoms: C15_22  and  C16_23 
REMARK    7  A    between atoms: C15_22  and  C24_34 
REMARK       I    between atoms: C16_23  and  N4_25 
REMARK    8  A    between atoms: N4_25  and  C17_27 
REMARK    9  A    between atoms: C17_27  and  C19_29 
REMARK   10  A    between atoms: C17_27  and  C21_31 
ROOT
HETATM    1  N1  UNL     1      41.310   3.899   8.780  1.00  0.00    -0.338 N 
HETATM    2  C3  UNL     1      41.286   5.286   8.679  1.00  0.00     0.226 C 
HETATM    3  O1  UNL     1      41.481   5.975   9.752  1.00  0.00    -0.273 OA
ENDROOT
BRANCH   1   4
HETATM    4  C2  UNL     1      41.037   3.168   7.504  1.00  0.00     0.122 C 
HETATM    5  C1  UNL     1      42.210   3.294   6.585  1.00  0.00     0.026 C 
ENDBRANCH   1   4
BRANCH   1   6
HETATM    6  C15 UNL     1      41.551   3.017   9.886  1.00  0.00     0.182 C 
BRANCH   6   7
HETATM    7  C16 UNL     1      41.035   1.652   9.599  1.00  0.00     0.241 C 
HETATM    8  O3  UNL     1      41.714   0.790   8.956  1.00  0.00    -0.271 OA
HETATM    9  N4  UNL     1      39.752   1.266  10.030  1.00  0.00    -0.350 N 
ATOM     10  H4  UNL     1      39.191   1.942  10.550  1.00  0.00     0.163 HD
BRANCH   9  11
HETATM   11  C17 UNL     1      39.189  -0.038   9.773  1.00  0.00     0.032 C 
HETATM   12  C18 UNL     1      37.658   0.129   9.908  1.00  0.00     0.039 C 
BRANCH  11  13
HETATM   13  C19 UNL     1      39.451  -0.621   8.440  1.00  0.00     0.026 C 
HETATM   14  C20 UNL     1      38.551  -0.144   7.324  1.00  0.00     0.007 C 
ENDBRANCH  11  13
BRANCH  11  15
HETATM   15  C21 UNL     1      39.542  -0.956  10.931  1.00  0.00     0.005 C 
HETATM   16  C22 UNL     1      40.682  -1.876  10.451  1.00  0.00     0.012 C 
HETATM   17  C23 UNL     1      38.437  -1.818  11.416  1.00  0.00     0.012 C 
ENDBRANCH  11  15
ENDBRANCH   9  11
ENDBRANCH   6   7
BRANCH   6  18
HETATM   18  C24 UNL     1      42.883   3.081  10.526  1.00  0.00     0.009 C 
HETATM   19  C25 UNL     1      44.096   3.333   9.714  1.00  0.00     0.012 C 
HETATM   20  C26 UNL     1      43.174   1.945  11.473  1.00  0.00     0.012 C 
ENDBRANCH   6  18
ENDBRANCH   1   6
BRANCH   2  21
HETATM   21  C4  UNL     1      41.075   6.107   7.482  1.00  0.00     0.101 A 
HETATM   22  C5  UNL     1      41.469   7.568   7.777  1.00  0.00     0.018 A 
HETATM   23  C6  UNL     1      40.144   7.976   7.233  1.00  0.00     0.027 A 
HETATM   24  C7  UNL     1      39.751   6.508   6.990  1.00  0.00     0.099 A 
BRANCH  24  25
HETATM   25  N2  UNL     1      39.556   6.376   5.549  1.00  0.00    -0.338 N 
HETATM   26  C8  UNL     1      38.839   5.280   5.031  1.00  0.00     0.316 C 
HETATM   27  O2  UNL     1      38.338   4.390   5.755  1.00  0.00    -0.247 OA
HETATM   28  N3  UNL     1      38.638   5.116   3.624  1.00  0.00    -0.339 N 
ATOM     29  H3  UNL     1      39.011   5.834   3.002  1.00  0.00     0.164 HD
ATOM     30  H2  UNL     1      39.940   7.078   4.917  1.00  0.00     0.164 HD
BRANCH  28  31
HETATM   31  C9  UNL     1      37.950   4.009   3.028  1.00  0.00     0.086 C 
HETATM   32  C10 UNL     1      38.872   3.027   2.377  1.00  0.00     0.025 C 
HETATM   33  C11 UNL     1      38.182   1.983   1.556  1.00  0.00     0.002 C 
HETATM   34  C12 UNL     1      37.074   2.533   0.711  1.00  0.00     0.000 C 
HETATM   35  C13 UNL     1      36.092   3.269   1.621  1.00  0.00     0.002 C 
HETATM   36  C14 UNL     1      36.843   4.489   2.114  1.00  0.00     0.025 C 
ENDBRANCH  28  31
ENDBRANCH  24  25
ENDBRANCH   2  21
TORSDOF 10
ENDMDL
MODEL 5
REMARK VINA RESULT: -7.423200915      4.018      6.695
REMARK  10 active torsions:
REMARK  status: ('A' for Active; 'I' for Inactive)
REMARK    1  A    between atoms: C2_2  and  N1_3 
REMARK       I    between atoms: N1_3  and  C3_4 
REMARK    2  A    between atoms: N1_3  and  C15_22 
REMARK    3  A    between atoms: C3_4  and  C4_6 
REMARK    4  A    between atoms: C7_9  and  N2_10 
REMARK       I    between atoms: N2_10  and  C8_12 
REMARK       I    between atoms: C8_12  and  N3_14 
REMARK    5  A    between atoms: N3_14  and  C9_16 
REMARK    6  A    between atoms: C15_22  and  C16_23 
REMARK    7  A    between atoms: C15_22  and  C24_34 
REMARK       I    between atoms: C16_23  and  N4_25 
REMARK    8  A    between atoms: N4_25  and  C17_27 
REMARK    9  A    between atoms: C17_27  and  C19_29 
REMARK   10  A    between atoms: C17_27  and  C21_31 
ROOT
HETATM    1  N1  UNL     1      42.964   6.474   8.576  1.00  0.00    -0.338 N 
HETATM    2  C3  UNL     1      44.131   5.807   8.933  1.00  0.00     0.226 C 
HETATM    3  O1  UNL     1      45.223   6.131   8.328  1.00  0.00    -0.273 OA
ENDROOT
BRANCH   1   4
HETATM    4  C2  UNL     1      41.732   6.017   9.290  1.00  0.00     0.122 C 
HETATM    5  C1  UNL     1      41.060   4.937   8.503  1.00  0.00     0.026 C 
ENDBRANCH   1   4
BRANCH   1   6
HETATM    6  C15 UNL     1      42.706   7.533   7.643  1.00  0.00     0.182 C 
BRANCH   6   7
HETATM    7  C16 UNL     1      43.253   8.824   8.140  1.00  0.00     0.241 C 
HETATM    8  O3  UNL     1      42.702   9.940   7.879  1.00  0.00    -0.271 OA
HETATM    9  N4  UNL     1      44.423   8.852   8.921  1.00  0.00    -0.350 N 
ATOM     10  H4  UNL     1      44.879   7.968   9.144  1.00  0.00     0.163 HD
BRANCH   9  11
HETATM   11  C17 UNL     1      45.011  10.072   9.422  1.00  0.00     0.032 C 
HETATM   12  C18 UNL     1      46.103  10.464   8.401  1.00  0.00     0.039 C 
BRANCH  11  13
HETATM   13  C19 UNL     1      44.107  11.232   9.565  1.00  0.00     0.026 C 
HETATM   14  C20 UNL     1      44.768  12.544   9.921  1.00  0.00     0.007 C 
ENDBRANCH  11  13
BRANCH  11  15
HETATM   15  C21 UNL     1      45.807   9.748  10.675  1.00  0.00     0.005 C 
HETATM   16  C22 UNL     1      47.299   9.792  10.289  1.00  0.00     0.012 C 
HETATM   17  C23 UNL     1      45.531   8.420  11.275  1.00  0.00     0.012 C 
ENDBRANCH  11  15
ENDBRANCH   9  11
ENDBRANCH   6   7
BRANCH   6  18
HETATM   18  C24 UNL     1      42.938   7.246   6.210  1.00  0.00     0.009 C 
HETATM   19  C25 UNL     1      43.306   8.334   5.275  1.00  0.00     0.012 C 
HETATM   20  C26 UNL     1      41.867   6.405   5.562  1.00  0.00     0.012 C 
ENDBRANCH   6  18
ENDBRANCH   1   6
BRANCH   2  21
HETATM   21  C4  UNL     1      44.306   4.758   9.943  1.00  0.00     0.101 A 
HETATM   22  C5  UNL     1      45.795   4.647  10.325  1.00  0.00     0.018 A 
HETATM   23  C6  UNL     1      45.692   3.182  10.075  1.00  0.00     0.027 A 
HETATM   24  C7  UNL     1      44.219   3.321   9.651  1.00  0.00     0.099 A 
BRANCH  24  25
HETATM   25  N2  UNL     1      43.448   2.536  10.611  1.00  0.00    -0.338 N 
HETATM   26  C8  UNL     1      42.410   1.696  10.164  1.00  0.00     0.316 C 
HETATM   27  O2  UNL     1      42.106   1.574   8.956  1.00  0.00    -0.247 OA
HETATM   28  N3  UNL     1      41.629   0.922  11.079  1.00  0.00    -0.339 N 
ATOM     29  H3  UNL     1      41.863   0.976  12.070  1.00  0.00     0.164 HD
ATOM     30  H2  UNL     1      43.661   2.597  11.607  1.00  0.00     0.164 HD
BRANCH  28  31
HETATM   31  C9  UNL     1      40.538   0.075  10.696  1.00  0.00     0.086 C 
HETATM   32  C10 UNL     1      39.286   0.346  11.469  1.00  0.00     0.025 C 
HETATM   33  C11 UNL     1      38.199  -0.661  11.256  1.00  0.00     0.002 C 
HETATM   34  C12 UNL     1      38.697  -2.074  11.248  1.00  0.00     0.000 C 
HETATM   35  C13 UNL     1      39.788  -2.196  10.186  1.00  0.00     0.002 C 
HETATM   36  C14 UNL     1      40.950  -1.382  10.714  1.00  0.00     0.025 C 
ENDBRANCH  28  31
ENDBRANCH  24  25
ENDBRANCH   2  21
TORSDOF 10
ENDMDL
