MODEL 1
REMARK VINA RESULT: -8.811437552      0.000      0.000
REMARK  11 active torsions:
REMARK  status: ('A' for Active; 'I' for Inactive)
REMARK    1  A    between atoms: C2_2  and  C4_4 
REMARK    2  A    between atoms: C4_4  and  C5_5 
REMARK    3  A    between atoms: C5_5  and  N1_6 
REMARK    4  A    between atoms: C5_5  and  C13_16 
REMARK       I    between atoms: N1_6  and  C6_8 
REMARK    5  A    between atoms: C6_8  and  C7_10 
REMARK       I    between atoms: C13_16  and  N2_18 
REMARK    6  A    between atoms: N2_18  and  C14_20 
REMARK    7  A    between atoms: C14_20  and  C15_21 
REMARK    8  A    between atoms: C14_20  and  C22_32 
REMARK    9  A    between atoms: C15_21  and  O3_22 
REMARK   10  A    between atoms: C15_21  and  N3_24 
REMARK   11  A    between atoms: N3_24  and  C16_26 
ROOT
HETATM    1  C13 UNL     1      43.564   6.374   8.789  1.00  0.00     0.241 C 
HETATM    2  O2  UNL     1      42.959   6.417   9.873  1.00  0.00    -0.271 OA
HETATM    3  N2  UNL     1      44.886   6.059   8.695  1.00  0.00    -0.347 N 
ATOM      4  H2  UNL     1      45.213   6.089   7.729  1.00  0.00     0.163 HD
ENDROOT
BRANCH   3   5
HETATM    5  C14 UNL     1      45.937   5.695   9.600  1.00  0.00     0.163 C 
BRANCH   5   6
HETATM    6  C15 UNL     1      46.324   4.317   9.512  1.00  0.00     0.135 C 
BRANCH   6   7
HETATM    7  O3  UNL     1      47.632   4.125   9.524  1.00  0.00    -0.348 OA
ATOM      8  H3  UNL     1      48.058   4.415  10.323  1.00  0.00     0.219 HD
ENDBRANCH   6   7
BRANCH   6   9
HETATM    9  N3  UNL     1      45.648   3.104   9.412  1.00  0.00    -0.368 N 
ATOM     10  H3  UNL     1      45.708   2.597   8.529  1.00  0.00     0.161 HD
BRANCH   9  11
HETATM   11  C16 UNL     1      44.850   2.502  10.496  1.00  0.00     0.083 C 
HETATM   12  C17 UNL     1      44.974   1.033  10.362  1.00  0.00     0.025 C 
HETATM   13  C18 UNL     1      43.834   0.232  10.879  1.00  0.00     0.002 C 
HETATM   14  C19 UNL     1      43.067   1.026  11.904  1.00  0.00     0.000 C 
HETATM   15  C20 UNL     1      42.454   2.206  11.181  1.00  0.00     0.002 C 
HETATM   16  C21 UNL     1      43.481   3.053  10.495  1.00  0.00     0.025 C 
ENDBRANCH   9  11
ENDBRANCH   6   9
ENDBRANCH   5   6
BRANCH   5  17
HETATM   17  C22 UNL     1      47.040   6.746   9.455  1.00  0.00     0.016 C 
HETATM   18  C23 UNL     1      47.312   7.522  10.717  1.00  0.00     0.007 C 
HETATM   19  C24 UNL     1      46.221   8.423  11.172  1.00  0.00     0.000 C 
HETATM   20  C25 UNL     1      45.578   9.188  10.033  1.00  0.00     0.000 C 
HETATM   21  C26 UNL     1      46.525   9.156   8.872  1.00  0.00     0.000 C 
HETATM   22  C27 UNL     1      46.587   7.705   8.375  1.00  0.00     0.007 C 
ENDBRANCH   5  17
ENDBRANCH   3   5
BRANCH   1  23
HETATM   23  C5  UNL     1      42.686   6.704   7.607  1.00  0.00     0.177 C 
BRANCH  23  24
HETATM   24  C4  UNL     1      43.408   7.285   6.472  1.00  0.00     0.038 C 
BRANCH  24  25
HETATM   25  C2  UNL     1      43.036   8.595   5.917  1.00  0.00    -0.020 C 
HETATM   26  C1  UNL     1      43.220   9.606   7.073  1.00  0.00     0.009 C 
HETATM   27  C3  UNL     1      41.638   8.768   5.447  1.00  0.00     0.009 C 
ENDBRANCH  24  25
ENDBRANCH  23  24
BRANCH  23  28
HETATM   28  N1  UNL     1      41.759   5.644   7.312  1.00  0.00    -0.347 N 
HETATM   29  C6  UNL     1      42.172   4.293   7.098  1.00  0.00     0.222 C 
HETATM   30  O1  UNL     1      43.405   4.002   7.167  1.00  0.00    -0.273 OA
ATOM     31  H1  UNL     1      40.765   5.866   7.252  1.00  0.00     0.163 HD
BRANCH  29  32
HETATM   32  C7  UNL     1      41.220   3.206   6.798  1.00  0.00     0.078 C 
HETATM   33  C8  UNL     1      41.832   1.853   7.095  1.00  0.00     0.014 C 
HETATM   34  C9  UNL     1      40.821   0.732   6.939  1.00  0.00     0.001 C 
HETATM   35  C10 UNL     1      39.593   1.012   7.797  1.00  0.00     0.000 C 
HETATM   36  C11 UNL     1      39.791   2.301   8.578  1.00  0.00     0.001 C 
HETATM   37  C12 UNL     1      39.955   3.407   7.590  1.00  0.00     0.014 C 
ENDBRANCH  29  32
ENDBRANCH  23  28
ENDBRANCH   1  23
TORSDOF 11
ENDMDL
MODEL 2
REMARK VINA RESULT: -8.546214404      0.976      1.071
REMARK  11 active torsions:
REMARK  status: ('A' for Active; 'I' for Inactive)
REMARK    1  A    between atoms: C2_2  and  C4_4 
REMARK    2  A    between atoms: C4_4  and  C5_5 
REMARK    3  A    between atoms: C5_5  and  N1_6 
REMARK    4  A    between atoms: C5_5  and  C13_16 
REMARK       I    between atoms: N1_6  and  C6_8 
REMARK    5  A    between atoms: C6_8  and  C7_10 
REMARK       I    between atoms: C13_16  and  N2_18 
REMARK    6  A    between atoms: N2_18  and  C14_20 
REMARK    7  A    between atoms: C14_20  and  C15_21 
REMARK    8  A    between atoms: C14_20  and  C22_32 
REMARK    9  A    between atoms: C15_21  and  O3_22 
REMARK   10  A    between atoms: C15_21  and  N3_24 
REMARK   11  A    between atoms: N3_24  and  C16_26 
ROOT
HETATM    1  C13 UNL     1      43.535   6.248   8.576  1.00  0.00     0.241 C 
HETATM    2  O2  UNL     1      42.874   6.426   9.612  1.00  0.00    -0.271 OA
HETATM    3  N2  UNL     1      44.842   5.862   8.593  1.00  0.00    -0.347 N 
ATOM      4  H2  UNL     1      45.223   5.781   7.650  1.00  0.00     0.163 HD
ENDROOT
BRANCH   3   5
HETATM    5  C14 UNL     1      45.819   5.539   9.590  1.00  0.00     0.163 C 
BRANCH   5   6
HETATM    6  C15 UNL     1      46.200   4.157   9.600  1.00  0.00     0.135 C 
BRANCH   6   7
HETATM    7  O3  UNL     1      47.477   3.950   9.326  1.00  0.00    -0.348 OA
ATOM      8  H3  UNL     1      47.847   4.576   8.714  1.00  0.00     0.219 HD
ENDBRANCH   6   7
BRANCH   6   9
HETATM    9  N3  UNL     1      45.543   2.951   9.829  1.00  0.00    -0.368 N 
ATOM     10  H3  UNL     1      45.964   2.101   9.455  1.00  0.00     0.161 HD
BRANCH   9  11
HETATM   11  C16 UNL     1      44.278   2.819  10.577  1.00  0.00     0.083 C 
HETATM   12  C17 UNL     1      44.397   1.609  11.421  1.00  0.00     0.025 C 
HETATM   13  C18 UNL     1      43.124   0.921  11.758  1.00  0.00     0.002 C 
HETATM   14  C19 UNL     1      41.969   1.883  11.641  1.00  0.00     0.000 C 
HETATM   15  C20 UNL     1      41.862   2.269  10.181  1.00  0.00     0.002 C 
HETATM   16  C21 UNL     1      43.127   2.873   9.655  1.00  0.00     0.025 C 
ENDBRANCH   9  11
ENDBRANCH   6   9
ENDBRANCH   5   6
BRANCH   5  17
HETATM   17  C22 UNL     1      46.939   6.576   9.476  1.00  0.00     0.016 C 
HETATM   18  C23 UNL     1      47.188   7.346  10.747  1.00  0.00     0.007 C 
HETATM   19  C24 UNL     1      46.098   8.260  11.177  1.00  0.00     0.000 C 
HETATM   20  C25 UNL     1      45.493   9.036  10.024  1.00  0.00     0.000 C 
HETATM   21  C26 UNL     1      46.469   8.994   8.887  1.00  0.00     0.000 C 
HETATM   22  C27 UNL     1      46.525   7.543   8.387  1.00  0.00     0.007 C 
ENDBRANCH   5  17
ENDBRANCH   3   5
BRANCH   1  23
HETATM   23  C5  UNL     1      42.744   6.501   7.316  1.00  0.00     0.177 C 
BRANCH  23  24
HETATM   24  C4  UNL     1      43.455   7.302   6.316  1.00  0.00     0.038 C 
BRANCH  24  25
HETATM   25  C2  UNL     1      42.896   8.562   5.806  1.00  0.00    -0.020 C 
HETATM   26  C1  UNL     1      43.122   9.604   6.926  1.00  0.00     0.009 C 
HETATM   27  C3  UNL     1      41.441   8.597   5.509  1.00  0.00     0.009 C 
ENDBRANCH  24  25
ENDBRANCH  23  24
BRANCH  23  28
HETATM   28  N1  UNL     1      42.085   5.311   6.845  1.00  0.00    -0.347 N 
HETATM   29  C6  UNL     1      40.679   5.101   6.979  1.00  0.00     0.222 C 
HETATM   30  O1  UNL     1      39.968   5.993   7.537  1.00  0.00    -0.273 OA
ATOM     31  H1  UNL     1      42.646   4.587   6.397  1.00  0.00     0.163 HD
BRANCH  29  32
HETATM   32  C7  UNL     1      40.004   3.882   6.495  1.00  0.00     0.078 C 
HETATM   33  C8  UNL     1      40.886   2.665   6.676  1.00  0.00     0.014 C 
HETATM   34  C9  UNL     1      40.154   1.382   6.327  1.00  0.00     0.001 C 
HETATM   35  C10 UNL     1      38.861   1.284   7.127  1.00  0.00     0.000 C 
HETATM   36  C11 UNL     1      38.737   2.477   8.061  1.00  0.00     0.001 C 
HETATM   37  C12 UNL     1      38.694   3.707   7.218  1.00  0.00     0.014 C 
ENDBRANCH  29  32
ENDBRANCH  23  28
ENDBRANCH   1  23
TORSDOF 11
ENDMDL
MODEL 3
REMARK VINA RESULT: -8.487101632      1.536      1.849
REMARK  11 active torsions:
REMARK  status: ('A' for Active; 'I' for Inactive)
REMARK    1  A    between atoms: C2_2  and  C4_4 
REMARK    2  A    between atoms: C4_4  and  C5_5 
REMARK    3  A    between atoms: C5_5  and  N1_6 
REMARK    4  A    between atoms: C5_5  and  C13_16 
REMARK       I    between atoms: N1_6  and  C6_8 
REMARK    5  A    between atoms: C6_8  and  C7_10 
REMARK       I    between atoms: C13_16  and  N2_18 
REMARK    6  A    between atoms: N2_18  and  C14_20 
REMARK    7  A    between atoms: C14_20  and  C15_21 
REMARK    8  A    between atoms: C14_20  and  C22_32 
REMARK    9  A    between atoms: C15_21  and  O3_22 
REMARK   10  A    between atoms: C15_21  and  N3_24 
REMARK   11  A    between atoms: N3_24  and  C16_26 
ROOT
HETATM    1  C13 UNL     1      43.520   6.201   8.491  1.00  0.00     0.241 C 
HETATM    2  O2  UNL     1      42.772   6.331   9.474  1.00  0.00    -0.271 OA
HETATM    3  N2  UNL     1      44.816   5.794   8.601  1.00  0.00    -0.347 N 
ATOM      4  H2  UNL     1      45.279   5.760   7.692  1.00  0.00     0.163 HD
ENDROOT
BRANCH   3   5
HETATM    5  C14 UNL     1      45.698   5.402   9.660  1.00  0.00     0.163 C 
BRANCH   5   6
HETATM    6  C15 UNL     1      46.076   4.020   9.616  1.00  0.00     0.135 C 
BRANCH   6   7
HETATM    7  O3  UNL     1      47.314   3.814   9.199  1.00  0.00    -0.348 OA
ATOM      8  H3  UNL     1      47.537   2.896   9.090  1.00  0.00     0.219 HD
ENDBRANCH   6   7
BRANCH   6   9
HETATM    9  N3  UNL     1      45.446   2.812   9.907  1.00  0.00    -0.368 N 
ATOM     10  H3  UNL     1      45.918   1.950   9.634  1.00  0.00     0.161 HD
BRANCH   9  11
HETATM   11  C16 UNL     1      44.142   2.695  10.585  1.00  0.00     0.083 C 
HETATM   12  C17 UNL     1      44.204   1.489  11.441  1.00  0.00     0.025 C 
HETATM   13  C18 UNL     1      42.909   0.812  11.711  1.00  0.00     0.002 C 
HETATM   14  C19 UNL     1      41.770   1.782  11.526  1.00  0.00     0.000 C 
HETATM   15  C20 UNL     1      41.746   2.159  10.060  1.00  0.00     0.002 C 
HETATM   16  C21 UNL     1      43.043   2.751   9.601  1.00  0.00     0.025 C 
ENDBRANCH   9  11
ENDBRANCH   6   9
ENDBRANCH   5   6
BRANCH   5  17
HETATM   17  C22 UNL     1      46.825   6.437   9.715  1.00  0.00     0.016 C 
HETATM   18  C23 UNL     1      46.965   7.116  11.053  1.00  0.00     0.007 C 
HETATM   19  C24 UNL     1      45.842   8.005  11.450  1.00  0.00     0.000 C 
HETATM   20  C25 UNL     1      45.340   8.863  10.305  1.00  0.00     0.000 C 
HETATM   21  C26 UNL     1      46.410   8.893   9.257  1.00  0.00     0.000 C 
HETATM   22  C27 UNL     1      46.508   7.479   8.664  1.00  0.00     0.007 C 
ENDBRANCH   5  17
ENDBRANCH   3   5
BRANCH   1  23
HETATM   23  C5  UNL     1      42.846   6.536   7.184  1.00  0.00     0.177 C 
BRANCH  23  24
HETATM   24  C4  UNL     1      43.550   7.548   6.392  1.00  0.00     0.038 C 
BRANCH  24  25
HETATM   25  C2  UNL     1      42.891   8.799   5.988  1.00  0.00    -0.020 C 
HETATM   26  C1  UNL     1      42.868   9.687   7.254  1.00  0.00     0.009 C 
HETATM   27  C3  UNL     1      41.481   8.714   5.529  1.00  0.00     0.009 C 
ENDBRANCH  24  25
ENDBRANCH  23  24
BRANCH  23  28
HETATM   28  N1  UNL     1      42.408   5.356   6.486  1.00  0.00    -0.347 N 
HETATM   29  C6  UNL     1      41.035   4.972   6.403  1.00  0.00     0.222 C 
HETATM   30  O1  UNL     1      40.153   5.692   6.964  1.00  0.00    -0.273 OA
ATOM     31  H1  UNL     1      43.107   4.768   6.032  1.00  0.00     0.163 HD
BRANCH  29  32
HETATM   32  C7  UNL     1      40.586   3.763   5.686  1.00  0.00     0.078 C 
HETATM   33  C8  UNL     1      39.162   3.408   6.060  1.00  0.00     0.014 C 
HETATM   34  C9  UNL     1      38.630   2.260   5.221  1.00  0.00     0.001 C 
HETATM   35  C10 UNL     1      38.775   2.585   3.739  1.00  0.00     0.000 C 
HETATM   36  C11 UNL     1      39.360   3.978   3.569  1.00  0.00     0.001 C 
HETATM   37  C12 UNL     1      40.711   3.979   4.201  1.00  0.00     0.014 C 
ENDBRANCH  29  32
ENDBRANCH  23  28
ENDBRANCH   1  23
TORSDOF 11
ENDMDL
MODEL 4
REMARK VINA RESULT: -8.440962710      2.828      6.980
REMARK  11 active torsions:
REMARK  status: ('A' for Active; 'I' for Inactive)
REMARK    1  A    between atoms: C2_2  and  C4_4 
REMARK    2  A    between atoms: C4_4  and  C5_5 
REMARK    3  A    between atoms: C5_5  and  N1_6 
REMARK    4  A    between atoms: C5_5  and  C13_16 
REMARK       I    between atoms: N1_6  and  C6_8 
REMARK    5  A    between atoms: C6_8  and  C7_10 
REMARK       I    between atoms: C13_16  and  N2_18 
REMARK    6  A    between atoms: N2_18  and  C14_20 
REMARK    7  A    between atoms: C14_20  and  C15_21 
REMARK    8  A    between atoms: C14_20  and  C22_32 
REMARK    9  A    between atoms: C15_21  and  O3_22 
REMARK   10  A    between atoms: C15_21  and  N3_24 
REMARK   11  A    between atoms: N3_24  and  C16_26 
ROOT
HETATM    1  C13 UNL     1      47.079   6.903   9.989  1.00  0.00     0.241 C 
HETATM    2  O2  UNL     1      47.700   5.830   9.921  1.00  0.00    -0.271 OA
HETATM    3  N2  UNL     1      45.822   7.061   9.488  1.00  0.00    -0.347 N 
ATOM      4  H2  UNL     1      45.479   8.013   9.622  1.00  0.00     0.163 HD
ENDROOT
BRANCH   3   5
HETATM    5  C14 UNL     1      44.856   6.238   8.822  1.00  0.00     0.163 C 
BRANCH   5   6
HETATM    6  C15 UNL     1      44.838   4.880   9.283  1.00  0.00     0.135 C 
BRANCH   6   7
HETATM    7  O3  UNL     1      45.435   4.028   8.467  1.00  0.00    -0.348 OA
ATOM      8  H3  UNL     1      44.901   3.277   8.234  1.00  0.00     0.219 HD
ENDBRANCH   6   7
BRANCH   6   9
HETATM    9  N3  UNL     1      44.334   4.221  10.402  1.00  0.00    -0.368 N 
ATOM     10  H3  UNL     1      44.510   4.634  11.317  1.00  0.00     0.161 HD
BRANCH   9  11
HETATM   11  C16 UNL     1      43.561   2.966  10.352  1.00  0.00     0.083 C 
HETATM   12  C17 UNL     1      42.143   3.320  10.588  1.00  0.00     0.025 C 
HETATM   13  C18 UNL     1      41.299   2.260  11.199  1.00  0.00     0.002 C 
HETATM   14  C19 UNL     1      41.905   0.904  10.941  1.00  0.00     0.000 C 
HETATM   15  C20 UNL     1      43.225   0.863  11.680  1.00  0.00     0.002 C 
HETATM   16  C21 UNL     1      44.152   1.961  11.256  1.00  0.00     0.025 C 
ENDBRANCH   9  11
ENDBRANCH   6   9
ENDBRANCH   5   6
BRANCH   5  17
HETATM   17  C22 UNL     1      43.529   7.001   8.834  1.00  0.00     0.016 C 
HETATM   18  C23 UNL     1      42.430   6.325   8.056  1.00  0.00     0.007 C 
HETATM   19  C24 UNL     1      42.622   6.259   6.585  1.00  0.00     0.000 C 
HETATM   20  C25 UNL     1      43.165   7.550   6.005  1.00  0.00     0.000 C 
HETATM   21  C26 UNL     1      42.910   8.638   7.004  1.00  0.00     0.000 C 
HETATM   22  C27 UNL     1      43.803   8.358   8.221  1.00  0.00     0.007 C 
ENDBRANCH   5  17
ENDBRANCH   3   5
BRANCH   1  23
HETATM   23  C5  UNL     1      47.859   7.996  10.678  1.00  0.00     0.177 C 
BRANCH  23  24
HETATM   24  C4  UNL     1      47.178   9.293  10.699  1.00  0.00     0.038 C 
BRANCH  24  25
HETATM   25  C2  UNL     1      47.566  10.376   9.784  1.00  0.00    -0.020 C 
HETATM   26  C1  UNL     1      46.242  10.935   9.213  1.00  0.00     0.009 C 
HETATM   27  C3  UNL     1      48.394  10.014   8.605  1.00  0.00     0.009 C 
ENDBRANCH  24  25
ENDBRANCH  23  24
BRANCH  23  28
HETATM   28  N1  UNL     1      48.435   7.546  11.918  1.00  0.00    -0.347 N 
HETATM   29  C6  UNL     1      47.655   7.294  13.087  1.00  0.00     0.222 C 
HETATM   30  O1  UNL     1      46.399   7.471  13.046  1.00  0.00    -0.273 OA
ATOM     31  H1  UNL     1      49.444   7.401  11.964  1.00  0.00     0.163 HD
BRANCH  29  32
HETATM   32  C7  UNL     1      48.246   6.831  14.357  1.00  0.00     0.078 C 
HETATM   33  C8  UNL     1      49.749   7.022  14.358  1.00  0.00     0.014 C 
HETATM   34  C9  UNL     1      50.356   6.695  15.709  1.00  0.00     0.001 C 
HETATM   35  C10 UNL     1      49.670   7.506  16.801  1.00  0.00     0.000 C 
HETATM   36  C11 UNL     1      48.627   8.425  16.185  1.00  0.00     0.001 C 
HETATM   37  C12 UNL     1      47.613   7.566  15.508  1.00  0.00     0.014 C 
ENDBRANCH  29  32
ENDBRANCH  23  28
ENDBRANCH   1  23
TORSDOF 11
ENDMDL
MODEL 5
REMARK VINA RESULT: -8.287527323      2.867      8.166
REMARK  11 active torsions:
REMARK  status: ('A' for Active; 'I' for Inactive)
REMARK    1  A    between atoms: C2_2  and  C4_4 
REMARK    2  A    between atoms: C4_4  and  C5_5 
REMARK    3  A    between atoms: C5_5  and  N1_6 
REMARK    4  A    between atoms: C5_5  and  C13_16 
REMARK       I    between atoms: N1_6  and  C6_8 
REMARK    5  A    between atoms: C6_8  and  C7_10 
REMARK       I    between atoms: C13_16  and  N2_18 
REMARK    6  A    between atoms: N2_18  and  C14_20 
REMARK    7  A    between atoms: C14_20  and  C15_21 
REMARK    8  A    between atoms: C14_20  and  C22_32 
REMARK    9  A    between atoms: C15_21  and  O3_22 
REMARK   10  A    between atoms: C15_21  and  N3_24 
REMARK   11  A    between atoms: N3_24  and  C16_26 
ROOT
HETATM    1  C13 UNL     1      45.536   6.441  10.773  1.00  0.00     0.241 C 
HETATM    2  O2  UNL     1      44.815   7.378  11.151  1.00  0.00    -0.271 OA
HETATM    3  N2  UNL     1      45.032   5.258  10.322  1.00  0.00    -0.347 N 
ATOM      4  H2  UNL     1      45.773   4.603  10.070  1.00  0.00     0.163 HD
ENDROOT
BRANCH   3   5
HETATM    5  C14 UNL     1      43.731   4.694  10.109  1.00  0.00     0.163 C 
BRANCH   5   6
HETATM    6  C15 UNL     1      42.863   5.525   9.326  1.00  0.00     0.135 C 
BRANCH   6   7
HETATM    7  O3  UNL     1      41.747   5.871   9.946  1.00  0.00    -0.348 OA
ATOM      8  H3  UNL     1      41.006   5.997   9.366  1.00  0.00     0.219 HD
ENDBRANCH   6   7
BRANCH   6   9
HETATM    9  N3  UNL     1      42.903   6.067   8.044  1.00  0.00    -0.368 N 
ATOM     10  H3  UNL     1      43.266   5.482   7.291  1.00  0.00     0.161 HD
BRANCH   9  11
HETATM   11  C16 UNL     1      42.456   7.429   7.700  1.00  0.00     0.083 C 
HETATM   12  C17 UNL     1      42.072   7.413   6.271  1.00  0.00     0.025 C 
HETATM   13  C18 UNL     1      42.198   8.704   5.546  1.00  0.00     0.002 C 
HETATM   14  C19 UNL     1      42.157   9.851   6.522  1.00  0.00     0.000 C 
HETATM   15  C20 UNL     1      43.393   9.737   7.389  1.00  0.00     0.002 C 
HETATM   16  C21 UNL     1      43.473   8.421   8.100  1.00  0.00     0.025 C 
ENDBRANCH   9  11
ENDBRANCH   6   9
ENDBRANCH   5   6
BRANCH   5  17
HETATM   17  C22 UNL     1      43.936   3.252   9.639  1.00  0.00     0.016 C 
HETATM   18  C23 UNL     1      42.652   2.492   9.428  1.00  0.00     0.007 C 
HETATM   19  C24 UNL     1      41.859   2.205  10.652  1.00  0.00     0.000 C 
HETATM   20  C25 UNL     1      42.721   1.767  11.820  1.00  0.00     0.000 C 
HETATM   21  C26 UNL     1      44.039   1.316  11.268  1.00  0.00     0.000 C 
HETATM   22  C27 UNL     1      44.749   2.558  10.711  1.00  0.00     0.007 C 
ENDBRANCH   5  17
ENDBRANCH   3   5
BRANCH   1  23
HETATM   23  C5  UNL     1      47.010   6.752  10.865  1.00  0.00     0.177 C 
BRANCH  23  24
HETATM   24  C4  UNL     1      47.368   8.092  10.396  1.00  0.00     0.038 C 
BRANCH  24  25
HETATM   25  C2  UNL     1      47.972   8.305   9.073  1.00  0.00    -0.020 C 
HETATM   26  C1  UNL     1      48.229   9.826   8.969  1.00  0.00     0.009 C 
HETATM   27  C3  UNL     1      47.157   7.951   7.882  1.00  0.00     0.009 C 
ENDBRANCH  24  25
ENDBRANCH  23  24
BRANCH  23  28
HETATM   28  N1  UNL     1      47.570   6.334  12.123  1.00  0.00    -0.347 N 
HETATM   29  C6  UNL     1      47.677   7.205  13.250  1.00  0.00     0.222 C 
HETATM   30  O1  UNL     1      47.266   8.402  13.151  1.00  0.00    -0.273 OA
ATOM     31  H1  UNL     1      47.905   5.375  12.215  1.00  0.00     0.163 HD
BRANCH  29  32
HETATM   32  C7  UNL     1      48.250   6.776  14.540  1.00  0.00     0.078 C 
HETATM   33  C8  UNL     1      49.759   6.904  14.534  1.00  0.00     0.014 C 
HETATM   34  C9  UNL     1      50.354   6.614  15.899  1.00  0.00     0.001 C 
HETATM   35  C10 UNL     1      49.702   7.502  16.953  1.00  0.00     0.000 C 
HETATM   36  C11 UNL     1      48.698   8.434  16.295  1.00  0.00     0.001 C 
HETATM   37  C12 UNL     1      47.648   7.588  15.656  1.00  0.00     0.014 C 
ENDBRANCH  29  32
ENDBRANCH  23  28
ENDBRANCH   1  23
TORSDOF 11
ENDMDL
