MODEL 1
REMARK VINA RESULT: -8.246734047      0.000      0.000
REMARK  11 active torsions:
REMARK  status: ('A' for Active; 'I' for Inactive)
REMARK    1  A    between atoms: C2_2  and  C3_3 
REMARK    2  A    between atoms: C3_3  and  C4_4 
REMARK    3  A    between atoms: C5_5  and  C6_6 
REMARK    4  A    between atoms: C9_9  and  C10_10 
REMARK    5  A    between atoms: C10_10  and  C11_11 
REMARK    6  A    between atoms: C10_10  and  N4_19 
REMARK    7  A    between atoms: C11_11  and  N1_12 
REMARK       I    between atoms: N1_12  and  C12_14 
REMARK    8  A    between atoms: C15_22  and  N5_23 
REMARK    9  A    between atoms: C18_26  and  C19_27 
REMARK   10  A    between atoms: C18_26  and  C21_29 
REMARK   11  A    between atoms: C21_29  and  C22_30 
ROOT
HETATM    1  N4  UNL     1      39.711   0.402   7.821  1.00  0.00    -0.301 N 
HETATM    2  C13 UNL     1      38.416   1.054   7.915  1.00  0.00     0.136 C 
HETATM    3  C14 UNL     1      37.348   0.250   7.271  1.00  0.00     0.057 C 
HETATM    4  C15 UNL     1      37.296   0.217   5.793  1.00  0.00     0.242 C 
HETATM    5  C26 UNL     1      38.376  -0.578   5.112  1.00  0.00     0.160 C 
HETATM    6  N6  UNL     1      39.210  -1.349   6.005  1.00  0.00    -0.341 N 
ATOM      7  H6  UNL     1      39.287  -2.350   5.826  1.00  0.00     0.164 HD
HETATM    8  C27 UNL     1      39.936  -0.823   7.122  1.00  0.00     0.322 C 
HETATM    9  O1  UNL     1      40.894  -1.500   7.562  1.00  0.00    -0.247 OA
ENDROOT
BRANCH   1  10
HETATM   10  C10 UNL     1      40.877   1.036   8.464  1.00  0.00     0.044 C 
BRANCH  10  11
HETATM   11  C9  UNL     1      41.247   2.327   7.972  1.00  0.00    -0.011 A 
HETATM   12  C8  UNL     1      41.247   2.668   6.642  1.00  0.00     0.015 A 
HETATM   13  C7  UNL     1      41.585   3.888   6.137  1.00  0.00     0.021 A 
HETATM   14  C6  UNL     1      41.968   4.896   7.030  1.00  0.00     0.017 A 
HETATM   15  C29 UNL     1      41.986   4.606   8.373  1.00  0.00     0.021 A 
HETATM   16  C28 UNL     1      41.637   3.361   8.839  1.00  0.00     0.015 A 
BRANCH  14  17
HETATM   17  C5  UNL     1      42.327   6.195   6.509  1.00  0.00    -0.067 C 
HETATM   18  C4  UNL     1      42.604   7.288   6.080  1.00  0.00    -0.101 C 
BRANCH  18  19
HETATM   19  C3  UNL     1      42.917   8.632   5.564  1.00  0.00     0.094 C 
BRANCH  19  20
HETATM   20  C2  UNL     1      42.666   9.698   6.607  1.00  0.00     0.007 C 
HETATM   21  C1  UNL     1      43.716   9.726   7.684  1.00  0.00     0.006 C 
ENDBRANCH  19  20
ENDBRANCH  18  19
ENDBRANCH  14  17
ENDBRANCH  10  11
BRANCH  10  22
HETATM   22  C11 UNL     1      40.993   0.651   9.880  1.00  0.00     0.180 C 
BRANCH  22  23
HETATM   23  N1  UNL     1      42.111  -0.132  10.292  1.00  0.00    -0.359 N 
HETATM   24  C12 UNL     1      43.465   0.176  10.083  1.00  0.00     0.182 C 
HETATM   25  N2  UNL     1      44.225  -0.449   9.251  1.00  0.00    -0.374 N 
HETATM   26  N3  UNL     1      44.051   1.217  10.858  1.00  0.00    -0.064 NA
ATOM     27  H22 UNL     1      43.805  -1.195   8.696  1.00  0.00     0.158 HD
ATOM     28  H21 UNL     1      45.208  -0.225   9.099  1.00  0.00     0.158 HD
ATOM     29  H1  UNL     1      41.908  -1.001  10.786  1.00  0.00     0.162 HD
ENDBRANCH  22  23
ENDBRANCH  10  22
ENDBRANCH   1  10
BRANCH   4  30
HETATM   30  N5  UNL     1      37.179   1.501   5.141  1.00  0.00     0.094 N 
HETATM   31  C16 UNL     1      36.012   1.566   4.279  1.00  0.00     0.273 C 
HETATM   32  C17 UNL     1      36.308   1.314   2.831  1.00  0.00     0.039 C 
HETATM   33  C18 UNL     1      37.161   2.453   2.221  1.00  0.00    -0.037 C 
HETATM   34  C24 UNL     1      38.116   2.829   3.292  1.00  0.00     0.039 C 
HETATM   35  C25 UNL     1      38.313   1.633   4.209  1.00  0.00     0.273 C 
BRANCH  33  36
HETATM   36  C19 UNL     1      37.764   2.000   0.941  1.00  0.00     0.005 C 
HETATM   37  C20 UNL     1      36.829   2.011  -0.246  1.00  0.00     0.006 C 
ENDBRANCH  33  36
BRANCH  33  38
HETATM   38  C21 UNL     1      36.255   3.630   1.958  1.00  0.00     0.009 C 
BRANCH  38  39
HETATM   39  C22 UNL     1      36.888   4.892   2.437  1.00  0.00    -0.004 C 
HETATM   40  C23 UNL     1      35.831   6.011   2.577  1.00  0.00     0.005 C 
ENDBRANCH  38  39
ENDBRANCH  33  38
ENDBRANCH   4  30
TORSDOF 11
ENDMDL
MODEL 2
REMARK VINA RESULT: -7.924358746      3.035      7.537
REMARK  11 active torsions:
REMARK  status: ('A' for Active; 'I' for Inactive)
REMARK    1  A    between atoms: C2_2  and  C3_3 
REMARK    2  A    between atoms: C3_3  and  C4_4 
REMARK    3  A    between atoms: C5_5  and  C6_6 
REMARK    4  A    between atoms: C9_9  and  C10_10 
REMARK    5  A    between atoms: C10_10  and  C11_11 
REMARK    6  A    between atoms: C10_10  and  N4_19 
REMARK    7  A    between atoms: C11_11  and  N1_12 
REMARK       I    between atoms: N1_12  and  C12_14 
REMARK    8  A    between atoms: C15_22  and  N5_23 
REMARK    9  A    between atoms: C18_26  and  C19_27 
REMARK   10  A    between atoms: C18_26  and  C21_29 
REMARK   11  A    between atoms: C21_29  and  C22_30 
ROOT
HETATM    1  N4  UNL     1      43.332   3.997   9.792  1.00  0.00    -0.301 N 
HETATM    2  C13 UNL     1      42.216   3.254  10.350  1.00  0.00     0.136 C 
HETATM    3  C14 UNL     1      42.669   2.224  11.317  1.00  0.00     0.057 C 
HETATM    4  C15 UNL     1      43.302   0.998  10.783  1.00  0.00     0.242 C 
HETATM    5  C26 UNL     1      44.689   1.159  10.225  1.00  0.00     0.160 C 
HETATM    6  N6  UNL     1      45.283   2.457  10.455  1.00  0.00    -0.341 N 
ATOM      7  H6  UNL     1      46.189   2.481  10.922  1.00  0.00     0.164 HD
HETATM    8  C27 UNL     1      44.702   3.712  10.081  1.00  0.00     0.322 C 
HETATM    9  O1  UNL     1      45.466   4.699   9.986  1.00  0.00    -0.247 OA
ENDROOT
BRANCH   1  10
HETATM   10  C10 UNL     1      43.058   5.104   8.857  1.00  0.00     0.044 C 
BRANCH  10  11
HETATM   11  C9  UNL     1      42.207   4.798   7.748  1.00  0.00    -0.011 A 
HETATM   12  C8  UNL     1      41.210   5.627   7.297  1.00  0.00     0.015 A 
HETATM   13  C7  UNL     1      40.387   5.375   6.241  1.00  0.00     0.021 A 
HETATM   14  C6  UNL     1      40.551   4.174   5.540  1.00  0.00     0.017 A 
HETATM   15  C29 UNL     1      41.534   3.307   5.951  1.00  0.00     0.021 A 
HETATM   16  C28 UNL     1      42.344   3.603   7.023  1.00  0.00     0.015 A 
BRANCH  14  17
HETATM   17  C5  UNL     1      39.687   3.894   4.417  1.00  0.00    -0.067 C 
HETATM   18  C4  UNL     1      38.948   3.673   3.489  1.00  0.00    -0.101 C 
BRANCH  18  19
HETATM   19  C3  UNL     1      38.025   3.417   2.370  1.00  0.00     0.094 C 
BRANCH  19  20
HETATM   20  C2  UNL     1      37.948   1.942   2.042  1.00  0.00     0.007 C 
HETATM   21  C1  UNL     1      37.548   1.676   0.616  1.00  0.00     0.006 C 
ENDBRANCH  19  20
ENDBRANCH  18  19
ENDBRANCH  14  17
ENDBRANCH  10  11
BRANCH  10  22
HETATM   22  C11 UNL     1      43.049   6.406   9.543  1.00  0.00     0.180 C 
BRANCH  22  23
HETATM   23  N1  UNL     1      44.018   7.385   9.176  1.00  0.00    -0.359 N 
HETATM   24  C12 UNL     1      44.889   7.322   8.077  1.00  0.00     0.182 C 
HETATM   25  N2  UNL     1      46.158   7.120   8.175  1.00  0.00    -0.374 N 
HETATM   26  N3  UNL     1      44.353   7.526   6.774  1.00  0.00    -0.064 NA
ATOM     27  H22 UNL     1      46.542   6.973   9.108  1.00  0.00     0.158 HD
ATOM     28  H21 UNL     1      46.791   7.074   7.377  1.00  0.00     0.158 HD
ATOM     29  H1  UNL     1      44.085   8.212   9.770  1.00  0.00     0.162 HD
ENDBRANCH  22  23
ENDBRANCH  10  22
ENDBRANCH   1  10
BRANCH   4  30
HETATM   30  N5  UNL     1      42.506   0.240   9.844  1.00  0.00     0.094 N 
HETATM   31  C16 UNL     1      41.178   0.803   9.681  1.00  0.00     0.273 C 
HETATM   32  C17 UNL     1      40.121   0.125  10.501  1.00  0.00     0.039 C 
HETATM   33  C18 UNL     1      39.866  -1.321  10.009  1.00  0.00    -0.037 C 
HETATM   34  C24 UNL     1      41.207  -1.842   9.643  1.00  0.00     0.039 C 
HETATM   35  C25 UNL     1      42.256  -1.084  10.441  1.00  0.00     0.273 C 
BRANCH  33  36
HETATM   36  C19 UNL     1      39.136  -2.086  11.052  1.00  0.00     0.005 C 
HETATM   37  C20 UNL     1      39.761  -3.409  11.432  1.00  0.00     0.006 C 
ENDBRANCH  33  36
BRANCH  33  38
HETATM   38  C21 UNL     1      39.026  -1.251   8.759  1.00  0.00     0.009 C 
BRANCH  38  39
HETATM   39  C22 UNL     1      39.840  -1.611   7.563  1.00  0.00    -0.004 C 
HETATM   40  C23 UNL     1      39.809  -0.470   6.521  1.00  0.00     0.005 C 
ENDBRANCH  38  39
ENDBRANCH  33  38
ENDBRANCH   4  30
TORSDOF 11
ENDMDL
MODEL 3
REMARK VINA RESULT: -7.883180337      2.703      6.766
REMARK  11 active torsions:
REMARK  status: ('A' for Active; 'I' for Inactive)
REMARK    1  A    between atoms: C2_2  and  C3_3 
REMARK    2  A    between atoms: C3_3  and  C4_4 
REMARK    3  A    between atoms: C5_5  and  C6_6 
REMARK    4  A    between atoms: C9_9  and  C10_10 
REMARK    5  A    between atoms: C10_10  and  C11_11 
REMARK    6  A    between atoms: C10_10  and  N4_19 
REMARK    7  A    between atoms: C11_11  and  N1_12 
REMARK       I    between atoms: N1_12  and  C12_14 
REMARK    8  A    between atoms: C15_22  and  N5_23 
REMARK    9  A    between atoms: C18_26  and  C19_27 
REMARK   10  A    between atoms: C18_26  and  C21_29 
REMARK   11  A    between atoms: C21_29  and  C22_30 
ROOT
HETATM    1  N4  UNL     1      43.066   3.646   9.853  1.00  0.00    -0.301 N 
HETATM    2  C13 UNL     1      41.908   2.987  10.431  1.00  0.00     0.136 C 
HETATM    3  C14 UNL     1      42.300   1.922  11.387  1.00  0.00     0.057 C 
HETATM    4  C15 UNL     1      42.827   0.653  10.837  1.00  0.00     0.242 C 
HETATM    5  C26 UNL     1      44.212   0.711  10.253  1.00  0.00     0.160 C 
HETATM    6  N6  UNL     1      44.906   1.959  10.475  1.00  0.00    -0.341 N 
ATOM      7  H6  UNL     1      45.820   1.912  10.924  1.00  0.00     0.164 HD
HETATM    8  C27 UNL     1      44.415   3.256  10.115  1.00  0.00     0.322 C 
HETATM    9  O1  UNL     1      45.251   4.183  10.008  1.00  0.00    -0.247 OA
ENDROOT
BRANCH   1  10
HETATM   10  C10 UNL     1      42.858   4.773   8.927  1.00  0.00     0.044 C 
BRANCH  10  11
HETATM   11  C9  UNL     1      42.040   4.509   7.783  1.00  0.00    -0.011 A 
HETATM   12  C8  UNL     1      40.766   4.994   7.624  1.00  0.00     0.015 A 
HETATM   13  C7  UNL     1      39.962   4.772   6.547  1.00  0.00     0.021 A 
HETATM   14  C6  UNL     1      40.454   3.984   5.499  1.00  0.00     0.017 A 
HETATM   15  C29 UNL     1      41.724   3.473   5.608  1.00  0.00     0.021 A 
HETATM   16  C28 UNL     1      42.502   3.723   6.714  1.00  0.00     0.015 A 
BRANCH  14  17
HETATM   17  C5  UNL     1      39.613   3.742   4.350  1.00  0.00    -0.067 C 
HETATM   18  C4  UNL     1      38.891   3.545   3.403  1.00  0.00    -0.101 C 
BRANCH  18  19
HETATM   19  C3  UNL     1      37.988   3.313   2.263  1.00  0.00     0.094 C 
BRANCH  19  20
HETATM   20  C2  UNL     1      37.982   1.857   1.850  1.00  0.00     0.007 C 
HETATM   21  C1  UNL     1      37.460   1.644   0.455  1.00  0.00     0.006 C 
ENDBRANCH  19  20
ENDBRANCH  18  19
ENDBRANCH  14  17
ENDBRANCH  10  11
BRANCH  10  22
HETATM   22  C11 UNL     1      42.862   6.065   9.632  1.00  0.00     0.180 C 
BRANCH  22  23
HETATM   23  N1  UNL     1      43.882   7.014   9.328  1.00  0.00    -0.359 N 
HETATM   24  C12 UNL     1      44.708   7.011   8.194  1.00  0.00     0.182 C 
HETATM   25  N2  UNL     1      45.964   6.720   8.219  1.00  0.00    -0.374 N 
HETATM   26  N3  UNL     1      44.143   7.385   6.941  1.00  0.00    -0.064 NA
ATOM     27  H22 UNL     1      46.369   6.452   9.116  1.00  0.00     0.158 HD
ATOM     28  H21 UNL     1      46.564   6.719   7.395  1.00  0.00     0.158 HD
ATOM     29  H1  UNL     1      44.024   7.767  10.000  1.00  0.00     0.162 HD
ENDBRANCH  22  23
ENDBRANCH  10  22
ENDBRANCH   1  10
BRANCH   4  30
HETATM   30  N5  UNL     1      41.958  -0.039   9.913  1.00  0.00     0.094 N 
HETATM   31  C16 UNL     1      42.097   0.466   8.558  1.00  0.00     0.273 C 
HETATM   32  C17 UNL     1      41.046   1.462   8.167  1.00  0.00     0.039 C 
HETATM   33  C18 UNL     1      39.649   0.801   8.071  1.00  0.00    -0.037 C 
HETATM   34  C24 UNL     1      39.608  -0.172   9.191  1.00  0.00     0.039 C 
HETATM   35  C25 UNL     1      40.569   0.295  10.273  1.00  0.00     0.273 C 
BRANCH  33  36
HETATM   36  C19 UNL     1      38.595   1.847   8.080  1.00  0.00     0.005 C 
HETATM   37  C20 UNL     1      37.676   1.841   6.879  1.00  0.00     0.006 C 
ENDBRANCH  33  36
BRANCH  33  38
HETATM   38  C21 UNL     1      39.580   0.033   6.774  1.00  0.00     0.009 C 
BRANCH  38  39
HETATM   39  C22 UNL     1      39.421  -1.425   7.039  1.00  0.00    -0.004 C 
HETATM   40  C23 UNL     1      38.351  -2.033   6.104  1.00  0.00     0.005 C 
ENDBRANCH  38  39
ENDBRANCH  33  38
ENDBRANCH   4  30
TORSDOF 11
ENDMDL
MODEL 4
REMARK VINA RESULT: -7.832206669      2.844      6.976
REMARK  11 active torsions:
REMARK  status: ('A' for Active; 'I' for Inactive)
REMARK    1  A    between atoms: C2_2  and  C3_3 
REMARK    2  A    between atoms: C3_3  and  C4_4 
REMARK    3  A    between atoms: C5_5  and  C6_6 
REMARK    4  A    between atoms: C9_9  and  C10_10 
REMARK    5  A    between atoms: C10_10  and  C11_11 
REMARK    6  A    between atoms: C10_10  and  N4_19 
REMARK    7  A    between atoms: C11_11  and  N1_12 
REMARK       I    between atoms: N1_12  and  C12_14 
REMARK    8  A    between atoms: C15_22  and  N5_23 
REMARK    9  A    between atoms: C18_26  and  C19_27 
REMARK   10  A    between atoms: C18_26  and  C21_29 
REMARK   11  A    between atoms: C21_29  and  C22_30 
ROOT
HETATM    1  N4  UNL     1      43.344   3.812   9.792  1.00  0.00    -0.301 N 
HETATM    2  C13 UNL     1      42.206   3.506  10.640  1.00  0.00     0.136 C 
HETATM    3  C14 UNL     1      42.529   2.455  11.637  1.00  0.00     0.057 C 
HETATM    4  C15 UNL     1      42.634   1.057  11.165  1.00  0.00     0.242 C 
HETATM    5  C26 UNL     1      43.851   0.726  10.345  1.00  0.00     0.160 C 
HETATM    6  N6  UNL     1      44.840   1.778  10.285  1.00  0.00    -0.341 N 
ATOM      7  H6  UNL     1      45.790   1.543  10.569  1.00  0.00     0.164 HD
HETATM    8  C27 UNL     1      44.594   3.124   9.859  1.00  0.00     0.322 C 
HETATM    9  O1  UNL     1      45.579   3.805   9.493  1.00  0.00    -0.247 OA
ENDROOT
BRANCH   1  10
HETATM   10  C10 UNL     1      43.216   4.880   8.784  1.00  0.00     0.044 C 
BRANCH  10  11
HETATM   11  C9  UNL     1      42.329   4.617   7.692  1.00  0.00    -0.011 A 
HETATM   12  C8  UNL     1      41.290   5.440   7.336  1.00  0.00     0.015 A 
HETATM   13  C7  UNL     1      40.430   5.228   6.300  1.00  0.00     0.021 A 
HETATM   14  C6  UNL     1      40.601   4.079   5.518  1.00  0.00     0.017 A 
HETATM   15  C29 UNL     1      41.626   3.221   5.833  1.00  0.00     0.021 A 
HETATM   16  C28 UNL     1      42.471   3.474   6.887  1.00  0.00     0.015 A 
BRANCH  14  17
HETATM   17  C5  UNL     1      39.699   3.842   4.415  1.00  0.00    -0.067 C 
HETATM   18  C4  UNL     1      38.937   3.668   3.495  1.00  0.00    -0.101 C 
BRANCH  18  19
HETATM   19  C3  UNL     1      38.000   3.481   2.374  1.00  0.00     0.094 C 
BRANCH  19  20
HETATM   20  C2  UNL     1      38.002   2.050   1.883  1.00  0.00     0.007 C 
HETATM   21  C1  UNL     1      37.340   1.887   0.542  1.00  0.00     0.006 C 
ENDBRANCH  19  20
ENDBRANCH  18  19
ENDBRANCH  14  17
ENDBRANCH  10  11
BRANCH  10  22
HETATM   22  C11 UNL     1      43.384   6.215   9.381  1.00  0.00     0.180 C 
BRANCH  22  23
HETATM   23  N1  UNL     1      44.691   6.641   9.760  1.00  0.00    -0.359 N 
HETATM   24  C12 UNL     1      45.631   7.274   8.932  1.00  0.00     0.182 C 
HETATM   25  N2  UNL     1      46.705   6.707   8.499  1.00  0.00    -0.374 N 
HETATM   26  N3  UNL     1      45.413   8.635   8.574  1.00  0.00    -0.064 NA
ATOM     27  H22 UNL     1      46.861   5.733   8.755  1.00  0.00     0.158 HD
ATOM     28  H21 UNL     1      47.388   7.168   7.898  1.00  0.00     0.158 HD
ATOM     29  H1  UNL     1      44.969   6.469  10.726  1.00  0.00     0.162 HD
ENDBRANCH  22  23
ENDBRANCH  10  22
ENDBRANCH   1  10
BRANCH   4  30
HETATM   30  N5  UNL     1      41.464   0.530  10.500  1.00  0.00     0.094 N 
HETATM   31  C16 UNL     1      41.604  -0.884  10.197  1.00  0.00     0.273 C 
HETATM   32  C17 UNL     1      42.032  -1.167   8.788  1.00  0.00     0.039 C 
HETATM   33  C18 UNL     1      40.930  -0.778   7.773  1.00  0.00    -0.037 C 
HETATM   34  C24 UNL     1      40.340   0.473   8.310  1.00  0.00     0.039 C 
HETATM   35  C25 UNL     1      41.381   1.168   9.174  1.00  0.00     0.273 C 
BRANCH  33  36
HETATM   36  C19 UNL     1      41.510  -0.690   6.409  1.00  0.00     0.005 C 
HETATM   37  C20 UNL     1      43.020  -0.657   6.357  1.00  0.00     0.006 C 
ENDBRANCH  33  36
BRANCH  33  38
HETATM   38  C21 UNL     1      39.869  -1.850   7.798  1.00  0.00     0.009 C 
BRANCH  38  39
HETATM   39  C22 UNL     1      39.270  -2.022   6.444  1.00  0.00    -0.004 C 
HETATM   40  C23 UNL     1      37.861  -1.388   6.389  1.00  0.00     0.005 C 
ENDBRANCH  38  39
ENDBRANCH  33  38
ENDBRANCH   4  30
TORSDOF 11
ENDMDL
MODEL 5
REMARK VINA RESULT: -7.802643376      4.507      8.121
REMARK  11 active torsions:
REMARK  status: ('A' for Active; 'I' for Inactive)
REMARK    1  A    between atoms: C2_2  and  C3_3 
REMARK    2  A    between atoms: C3_3  and  C4_4 
REMARK    3  A    between atoms: C5_5  and  C6_6 
REMARK    4  A    between atoms: C9_9  and  C10_10 
REMARK    5  A    between atoms: C10_10  and  C11_11 
REMARK    6  A    between atoms: C10_10  and  N4_19 
REMARK    7  A    between atoms: C11_11  and  N1_12 
REMARK       I    between atoms: N1_12  and  C12_14 
REMARK    8  A    between atoms: C15_22  and  N5_23 
REMARK    9  A    between atoms: C18_26  and  C19_27 
REMARK   10  A    between atoms: C18_26  and  C21_29 
REMARK   11  A    between atoms: C21_29  and  C22_30 
ROOT
HETATM    1  N4  UNL     1      41.576   5.539   6.542  1.00  0.00    -0.301 N 
HETATM    2  C13 UNL     1      42.374   4.326   6.544  1.00  0.00     0.136 C 
HETATM    3  C14 UNL     1      41.557   3.129   6.227  1.00  0.00     0.057 C 
HETATM    4  C15 UNL     1      40.648   2.609   7.272  1.00  0.00     0.242 C 
HETATM    5  C26 UNL     1      39.423   3.435   7.552  1.00  0.00     0.160 C 
HETATM    6  N6  UNL     1      39.212   4.529   6.632  1.00  0.00    -0.341 N 
ATOM      7  H6  UNL     1      38.313   4.570   6.152  1.00  0.00     0.164 HD
HETATM    8  C27 UNL     1      40.162   5.561   6.339  1.00  0.00     0.322 C 
HETATM    9  O1  UNL     1      39.728   6.625   5.843  1.00  0.00    -0.247 OA
ENDROOT
BRANCH   1  10
HETATM   10  C10 UNL     1      42.242   6.832   6.778  1.00  0.00     0.044 C 
BRANCH  10  11
HETATM   11  C9  UNL     1      43.179   6.874   7.859  1.00  0.00    -0.011 A 
HETATM   12  C8  UNL     1      44.425   7.442   7.770  1.00  0.00     0.015 A 
HETATM   13  C7  UNL     1      45.341   7.508   8.778  1.00  0.00     0.021 A 
HETATM   14  C6  UNL     1      45.005   6.954  10.019  1.00  0.00     0.017 A 
HETATM   15  C29 UNL     1      43.769   6.371  10.161  1.00  0.00     0.021 A 
HETATM   16  C28 UNL     1      42.876   6.328   9.117  1.00  0.00     0.015 A 
BRANCH  14  17
HETATM   17  C5  UNL     1      45.964   7.018  11.097  1.00  0.00    -0.067 C 
HETATM   18  C4  UNL     1      46.747   7.080  12.013  1.00  0.00    -0.101 C 
BRANCH  18  19
HETATM   19  C3  UNL     1      47.684   7.165  13.147  1.00  0.00     0.094 C 
BRANCH  19  20
HETATM   20  C2  UNL     1      46.950   7.293  14.463  1.00  0.00     0.007 C 
HETATM   21  C1  UNL     1      47.844   7.717  15.597  1.00  0.00     0.006 C 
ENDBRANCH  19  20
ENDBRANCH  18  19
ENDBRANCH  14  17
ENDBRANCH  10  11
BRANCH  10  22
HETATM   22  C11 UNL     1      42.423   7.588   5.528  1.00  0.00     0.180 C 
BRANCH  22  23
HETATM   23  N1  UNL     1      41.733   8.826   5.365  1.00  0.00    -0.359 N 
HETATM   24  C12 UNL     1      41.276   9.665   6.393  1.00  0.00     0.182 C 
HETATM   25  N2  UNL     1      40.032   9.817   6.697  1.00  0.00    -0.374 N 
HETATM   26  N3  UNL     1      42.232  10.423   7.127  1.00  0.00    -0.064 NA
ATOM     27  H22 UNL     1      39.347   9.274   6.172  1.00  0.00     0.158 HD
ATOM     28  H21 UNL     1      39.700  10.427   7.444  1.00  0.00     0.158 HD
ATOM     29  H1  UNL     1      41.555   9.131   4.408  1.00  0.00     0.162 HD
ENDBRANCH  22  23
ENDBRANCH  10  22
ENDBRANCH   1  10
BRANCH   4  30
HETATM   30  N5  UNL     1      41.272   2.257   8.527  1.00  0.00     0.094 N 
HETATM   31  C16 UNL     1      42.398   1.359   8.340  1.00  0.00     0.273 C 
HETATM   32  C17 UNL     1      42.069  -0.087   8.564  1.00  0.00     0.039 C 
HETATM   33  C18 UNL     1      41.741  -0.368  10.050  1.00  0.00    -0.037 C 
HETATM   34  C24 UNL     1      40.974   0.819  10.503  1.00  0.00     0.039 C 
HETATM   35  C25 UNL     1      40.304   1.454   9.295  1.00  0.00     0.273 C 
BRANCH  33  36
HETATM   36  C19 UNL     1      41.047  -1.675  10.174  1.00  0.00     0.005 C 
HETATM   37  C20 UNL     1      41.783  -2.716  10.987  1.00  0.00     0.006 C 
ENDBRANCH  33  36
BRANCH  33  38
HETATM   38  C21 UNL     1      43.039  -0.416  10.818  1.00  0.00     0.009 C 
BRANCH  38  39
HETATM   39  C22 UNL     1      43.178   0.791  11.682  1.00  0.00    -0.004 C 
HETATM   40  C23 UNL     1      44.418   1.616  11.267  1.00  0.00     0.005 C 
ENDBRANCH  38  39
ENDBRANCH  33  38
ENDBRANCH   4  30
TORSDOF 11
ENDMDL
