MODEL 1
REMARK VINA RESULT: -8.984764614      0.000      0.000
REMARK  10 active torsions:
REMARK  status: ('A' for Active; 'I' for Inactive)
REMARK    1  A    between atoms: C4_6  and  N2_7 
REMARK       I    between atoms: N2_7  and  C5_9 
REMARK    2  A    between atoms: C5_9  and  C6_11 
REMARK    3  A    between atoms: C6_11  and  C9_14 
REMARK    4  A    between atoms: C9_14  and  N3_15 
REMARK       I    between atoms: N3_15  and  C10_17 
REMARK    5  A    between atoms: C10_17  and  C11_19 
REMARK    6  A    between atoms: C11_19  and  C12_20 
REMARK    7  A    between atoms: C12_20  and  C13_21 
REMARK    8  A    between atoms: C13_21  and  C14_22 
REMARK    9  A    between atoms: C13_21  and  C18_26 
REMARK   10  A    between atoms: C14_22  and  C15_23 
ROOT
HETATM    1  N2  UNL     1      41.156   2.314   7.361  1.00  0.00    -0.310 N 
ATOM      2  H2  UNL     1      40.226   2.697   7.192  1.00  0.00     0.170 HD
HETATM    3  C5  UNL     1      41.470   0.993   6.956  1.00  0.00     0.233 C 
HETATM    4  O1  UNL     1      42.281   0.747   6.003  1.00  0.00    -0.272 OA
ENDROOT
BRANCH   3   5
HETATM    5  C6  UNL     1      40.833  -0.157   7.666  1.00  0.00     0.050 C 
HETATM    6  C7  UNL     1      41.883  -1.025   8.296  1.00  0.00     0.027 C 
HETATM    7  C8  UNL     1      39.945   0.366   8.782  1.00  0.00     0.027 C 
BRANCH   5   8
HETATM    8  C9  UNL     1      40.038  -1.003   6.691  1.00  0.00     0.141 C 
BRANCH   8   9
HETATM    9  N3  UNL     1      39.572  -0.246   5.567  1.00  0.00    -0.360 N 
HETATM   10  C10 UNL     1      38.235  -0.432   5.139  1.00  0.00     0.217 C 
HETATM   11  O2  UNL     1      37.447  -1.238   5.709  1.00  0.00    -0.274 OA
ATOM     12  H3  UNL     1      40.188   0.411   5.087  1.00  0.00     0.162 HD
BRANCH  10  13
HETATM   13  C11 UNL     1      37.743   0.346   3.978  1.00  0.00     0.103 C 
BRANCH  13  14
HETATM   14  C12 UNL     1      37.394   1.768   4.372  1.00  0.00     0.024 C 
BRANCH  14  15
HETATM   15  C13 UNL     1      37.871   2.714   3.272  1.00  0.00     0.087 C 
BRANCH  15  16
HETATM   16  C14 UNL     1      37.927   2.063   1.943  1.00  0.00     0.019 C 
BRANCH  16  17
HETATM   17  C15 UNL     1      37.097   2.643   0.862  1.00  0.00    -0.022 C 
HETATM   18  C16 UNL     1      36.632   1.507  -0.081  1.00  0.00     0.009 C 
HETATM   19  C17 UNL     1      35.801   3.273   1.346  1.00  0.00     0.009 C 
ENDBRANCH  16  17
ENDBRANCH  15  16
BRANCH  15  20
HETATM   20  C18 UNL     1      39.093   3.409   3.704  1.00  0.00     0.177 C 
HETATM   21  O3  UNL     1      39.500   4.466   3.106  1.00  0.00    -0.648 OA
HETATM   22  O4  UNL     1      39.837   2.923   4.783  1.00  0.00    -0.648 OA
ENDBRANCH  15  20
ENDBRANCH  14  15
ENDBRANCH  13  14
ENDBRANCH  10  13
ENDBRANCH   8   9
ENDBRANCH   5   8
ENDBRANCH   3   5
BRANCH   1  23
HETATM   23  C4  UNL     1      42.052   3.020   7.942  1.00  0.00     0.136 A 
HETATM   24  C3  UNL     1      42.206   4.348   7.526  1.00  0.00     0.088 A 
HETATM   25  N1  UNL     1      41.589   5.096   6.597  1.00  0.00    -0.356 N 
HETATM   26  C21 UNL     1      43.154   5.156   8.117  1.00  0.00     0.011 A 
HETATM   27  C2  UNL     1      42.086   6.344   6.552  1.00  0.00     0.012 A 
ATOM     28  H1  UNL     1      40.836   4.758   5.997  1.00  0.00     0.166 HD
HETATM   29  C1  UNL     1      41.651   7.462   5.642  1.00  0.00     0.068 C 
HETATM   30  C22 UNL     1      43.077   6.390   7.512  1.00  0.00    -0.027 A 
HETATM   31  C23 UNL     1      43.930   7.548   7.859  1.00  0.00     0.051 C 
HETATM   32  C20 UNL     1      43.946   4.613   9.133  1.00  0.00    -0.018 A 
HETATM   33  C19 UNL     1      43.772   3.294   9.524  1.00  0.00     0.019 A 
HETATM   34  C24 UNL     1      44.977   5.148   9.978  1.00  0.00     0.026 A 
HETATM   35  N4  UNL     1      42.843   2.529   8.934  1.00  0.00    -0.343 N 
HETATM   36  C27 UNL     1      44.815   3.052  10.601  1.00  0.00     0.063 C 
ATOM     37  H4  UNL     1      42.727   1.560   9.235  1.00  0.00     0.167 HD
HETATM   38  C26 UNL     1      45.883   3.870   9.931  1.00  0.00     0.000 A 
HETATM   39  C25 UNL     1      46.373   5.170  10.042  1.00  0.00     0.015 A 
ENDBRANCH   1  23
TORSDOF 10
ENDMDL
MODEL 2
REMARK VINA RESULT: -8.882762794      2.610      5.471
REMARK  10 active torsions:
REMARK  status: ('A' for Active; 'I' for Inactive)
REMARK    1  A    between atoms: C4_6  and  N2_7 
REMARK       I    between atoms: N2_7  and  C5_9 
REMARK    2  A    between atoms: C5_9  and  C6_11 
REMARK    3  A    between atoms: C6_11  and  C9_14 
REMARK    4  A    between atoms: C9_14  and  N3_15 
REMARK       I    between atoms: N3_15  and  C10_17 
REMARK    5  A    between atoms: C10_17  and  C11_19 
REMARK    6  A    between atoms: C11_19  and  C12_20 
REMARK    7  A    between atoms: C12_20  and  C13_21 
REMARK    8  A    between atoms: C13_21  and  C14_22 
REMARK    9  A    between atoms: C13_21  and  C18_26 
REMARK   10  A    between atoms: C14_22  and  C15_23 
ROOT
HETATM    1  N2  UNL     1      41.917   4.857   6.324  1.00  0.00    -0.310 N 
ATOM      2  H2  UNL     1      41.575   5.590   5.703  1.00  0.00     0.170 HD
HETATM    3  C5  UNL     1      41.452   3.527   6.185  1.00  0.00     0.233 C 
HETATM    4  O1  UNL     1      42.200   2.583   5.765  1.00  0.00    -0.272 OA
ENDROOT
BRANCH   3   5
HETATM    5  C6  UNL     1      40.035   3.209   6.541  1.00  0.00     0.050 C 
HETATM    6  C7  UNL     1      39.915   2.953   8.015  1.00  0.00     0.027 C 
HETATM    7  C8  UNL     1      39.152   4.400   6.211  1.00  0.00     0.027 C 
BRANCH   5   8
HETATM    8  C9  UNL     1      39.573   1.968   5.803  1.00  0.00     0.141 C 
BRANCH   8   9
HETATM    9  N3  UNL     1      40.323   0.804   6.171  1.00  0.00    -0.360 N 
HETATM   10  C10 UNL     1      39.662  -0.222   6.890  1.00  0.00     0.217 C 
HETATM   11  O2  UNL     1      38.445  -0.145   7.216  1.00  0.00    -0.274 OA
ATOM     12  H3  UNL     1      41.308   0.716   5.921  1.00  0.00     0.162 HD
BRANCH  10  13
HETATM   13  C11 UNL     1      40.429  -1.429   7.275  1.00  0.00     0.103 C 
BRANCH  13  14
HETATM   14  C12 UNL     1      41.706  -1.065   8.008  1.00  0.00     0.024 C 
BRANCH  14  15
HETATM   15  C13 UNL     1      41.340  -0.353   9.309  1.00  0.00     0.087 C 
BRANCH  15  16
HETATM   16  C14 UNL     1      42.446   0.478   9.836  1.00  0.00     0.019 C 
BRANCH  16  17
HETATM   17  C15 UNL     1      42.236   1.147  11.141  1.00  0.00    -0.022 C 
HETATM   18  C16 UNL     1      43.564   1.131  11.936  1.00  0.00     0.009 C 
HETATM   19  C17 UNL     1      41.890   2.623  11.031  1.00  0.00     0.009 C 
ENDBRANCH  16  17
ENDBRANCH  15  16
BRANCH  15  20
HETATM   20  C18 UNL     1      40.741  -1.309  10.252  1.00  0.00     0.177 C 
HETATM   21  O3  UNL     1      41.426  -2.274  10.742  1.00  0.00    -0.648 OA
HETATM   22  O4  UNL     1      39.402  -1.181  10.632  1.00  0.00    -0.648 OA
ENDBRANCH  15  20
ENDBRANCH  14  15
ENDBRANCH  13  14
ENDBRANCH  10  13
ENDBRANCH   8   9
ENDBRANCH   5   8
ENDBRANCH   3   5
BRANCH   1  23
HETATM   23  C4  UNL     1      42.771   5.129   7.238  1.00  0.00     0.136 A 
HETATM   24  C3  UNL     1      43.065   6.477   7.474  1.00  0.00     0.088 A 
HETATM   25  N1  UNL     1      42.628   7.622   6.924  1.00  0.00    -0.356 N 
HETATM   26  C21 UNL     1      43.977   6.830   8.446  1.00  0.00     0.011 A 
HETATM   27  C2  UNL     1      43.207   8.697   7.486  1.00  0.00     0.012 A 
ATOM     28  H1  UNL     1      41.942   7.670   6.171  1.00  0.00     0.166 HD
HETATM   29  C1  UNL     1      42.971  10.143   7.135  1.00  0.00     0.068 C 
HETATM   30  C22 UNL     1      44.062   8.204   8.451  1.00  0.00    -0.027 A 
HETATM   31  C23 UNL     1      44.934   8.986   9.354  1.00  0.00     0.051 C 
HETATM   32  C20 UNL     1      44.589   5.810   9.181  1.00  0.00    -0.018 A 
HETATM   33  C19 UNL     1      44.278   4.483   8.925  1.00  0.00     0.019 A 
HETATM   34  C24 UNL     1      45.530   5.798  10.266  1.00  0.00     0.026 A 
HETATM   35  N4  UNL     1      43.389   4.166   7.974  1.00  0.00    -0.343 N 
HETATM   36  C27 UNL     1      45.150   3.675   9.871  1.00  0.00     0.063 C 
ATOM     37  H4  UNL     1      43.171   3.184   7.799  1.00  0.00     0.167 HD
HETATM   38  C26 UNL     1      46.349   4.572   9.736  1.00  0.00     0.000 A 
HETATM   39  C25 UNL     1      46.904   5.627  10.459  1.00  0.00     0.015 A 
ENDBRANCH   1  23
TORSDOF 10
ENDMDL
MODEL 3
REMARK VINA RESULT: -8.780536411      2.113      5.201
REMARK  10 active torsions:
REMARK  status: ('A' for Active; 'I' for Inactive)
REMARK    1  A    between atoms: C4_6  and  N2_7 
REMARK       I    between atoms: N2_7  and  C5_9 
REMARK    2  A    between atoms: C5_9  and  C6_11 
REMARK    3  A    between atoms: C6_11  and  C9_14 
REMARK    4  A    between atoms: C9_14  and  N3_15 
REMARK       I    between atoms: N3_15  and  C10_17 
REMARK    5  A    between atoms: C10_17  and  C11_19 
REMARK    6  A    between atoms: C11_19  and  C12_20 
REMARK    7  A    between atoms: C12_20  and  C13_21 
REMARK    8  A    between atoms: C13_21  and  C14_22 
REMARK    9  A    between atoms: C13_21  and  C18_26 
REMARK   10  A    between atoms: C14_22  and  C15_23 
ROOT
HETATM    1  N2  UNL     1      41.093   5.006   6.637  1.00  0.00    -0.310 N 
ATOM      2  H2  UNL     1      41.025   6.018   6.537  1.00  0.00     0.170 HD
HETATM    3  C5  UNL     1      40.572   4.151   5.636  1.00  0.00     0.233 C 
HETATM    4  O1  UNL     1      41.322   3.448   4.880  1.00  0.00    -0.272 OA
ENDROOT
BRANCH   3   5
HETATM    5  C6  UNL     1      39.091   4.063   5.452  1.00  0.00     0.050 C 
HETATM    6  C7  UNL     1      38.396   4.177   6.778  1.00  0.00     0.027 C 
HETATM    7  C8  UNL     1      38.619   5.220   4.589  1.00  0.00     0.027 C 
BRANCH   5   8
HETATM    8  C9  UNL     1      38.716   2.732   4.830  1.00  0.00     0.141 C 
BRANCH   8   9
HETATM    9  N3  UNL     1      38.670   1.674   5.795  1.00  0.00    -0.360 N 
HETATM   10  C10 UNL     1      38.476   0.349   5.331  1.00  0.00     0.217 C 
HETATM   11  O2  UNL     1      38.344   0.074   4.105  1.00  0.00    -0.274 OA
ATOM     12  H3  UNL     1      38.773   1.868   6.791  1.00  0.00     0.162 HD
BRANCH  10  13
HETATM   13  C11 UNL     1      38.427  -0.752   6.319  1.00  0.00     0.103 C 
BRANCH  13  14
HETATM   14  C12 UNL     1      39.307  -0.460   7.520  1.00  0.00     0.024 C 
BRANCH  14  15
HETATM   15  C13 UNL     1      40.591  -1.278   7.399  1.00  0.00     0.087 C 
BRANCH  15  16
HETATM   16  C14 UNL     1      40.758  -2.247   8.505  1.00  0.00     0.019 C 
BRANCH  16  17
HETATM   17  C15 UNL     1      40.815  -1.709   9.884  1.00  0.00    -0.022 C 
HETATM   18  C16 UNL     1      39.577  -2.204  10.671  1.00  0.00     0.009 C 
HETATM   19  C17 UNL     1      41.995  -2.214  10.698  1.00  0.00     0.009 C 
ENDBRANCH  16  17
ENDBRANCH  15  16
BRANCH  15  20
HETATM   20  C18 UNL     1      41.732  -0.386   7.142  1.00  0.00     0.177 C 
HETATM   21  O3  UNL     1      41.562   0.778   6.634  1.00  0.00    -0.648 OA
HETATM   22  O4  UNL     1      43.032  -0.797   7.450  1.00  0.00    -0.648 OA
ENDBRANCH  15  20
ENDBRANCH  14  15
ENDBRANCH  13  14
ENDBRANCH  10  13
ENDBRANCH   8   9
ENDBRANCH   5   8
ENDBRANCH   3   5
BRANCH   1  23
HETATM   23  C4  UNL     1      41.652   4.494   7.669  1.00  0.00     0.136 A 
HETATM   24  C3  UNL     1      42.830   5.089   8.136  1.00  0.00     0.088 A 
HETATM   25  N1  UNL     1      43.553   6.142   7.719  1.00  0.00    -0.356 N 
HETATM   26  C21 UNL     1      43.474   4.581   9.244  1.00  0.00     0.011 A 
HETATM   27  C2  UNL     1      44.631   6.343   8.497  1.00  0.00     0.012 A 
ATOM     28  H1  UNL     1      43.314   6.718   6.912  1.00  0.00     0.166 HD
HETATM   29  C1  UNL     1      45.672   7.421   8.343  1.00  0.00     0.068 C 
HETATM   30  C22 UNL     1      44.588   5.360   9.464  1.00  0.00    -0.027 A 
HETATM   31  C23 UNL     1      45.554   5.147  10.564  1.00  0.00     0.051 C 
HETATM   32  C20 UNL     1      42.919   3.466   9.879  1.00  0.00    -0.018 A 
HETATM   33  C19 UNL     1      41.752   2.897   9.394  1.00  0.00     0.019 A 
HETATM   34  C24 UNL     1      43.279   2.710  11.045  1.00  0.00     0.026 A 
HETATM   35  N4  UNL     1      41.144   3.409   8.315  1.00  0.00    -0.343 N 
HETATM   36  C27 UNL     1      41.479   1.706  10.297  1.00  0.00     0.063 C 
ATOM     37  H4  UNL     1      40.285   2.978   7.971  1.00  0.00     0.167 HD
HETATM   38  C26 UNL     1      42.924   1.313  10.430  1.00  0.00     0.000 A 
HETATM   39  C25 UNL     1      43.942   1.520  11.359  1.00  0.00     0.015 A 
ENDBRANCH   1  23
TORSDOF 10
ENDMDL
MODEL 4
REMARK VINA RESULT: -8.744702667      3.671      8.935
REMARK  10 active torsions:
REMARK  status: ('A' for Active; 'I' for Inactive)
REMARK    1  A    between atoms: C4_6  and  N2_7 
REMARK       I    between atoms: N2_7  and  C5_9 
REMARK    2  A    between atoms: C5_9  and  C6_11 
REMARK    3  A    between atoms: C6_11  and  C9_14 
REMARK    4  A    between atoms: C9_14  and  N3_15 
REMARK       I    between atoms: N3_15  and  C10_17 
REMARK    5  A    between atoms: C10_17  and  C11_19 
REMARK    6  A    between atoms: C11_19  and  C12_20 
REMARK    7  A    between atoms: C12_20  and  C13_21 
REMARK    8  A    between atoms: C13_21  and  C14_22 
REMARK    9  A    between atoms: C13_21  and  C18_26 
REMARK   10  A    between atoms: C14_22  and  C15_23 
ROOT
HETATM    1  N2  UNL     1      42.465   3.819  10.046  1.00  0.00    -0.310 N 
ATOM      2  H2  UNL     1      43.149   4.461  10.445  1.00  0.00     0.170 HD
HETATM    3  C5  UNL     1      42.180   2.588  10.686  1.00  0.00     0.233 C 
HETATM    4  O1  UNL     1      41.061   2.357  11.253  1.00  0.00    -0.272 OA
ENDROOT
BRANCH   3   5
HETATM    5  C6  UNL     1      43.222   1.517  10.703  1.00  0.00     0.050 C 
HETATM    6  C7  UNL     1      43.745   1.322  12.097  1.00  0.00     0.027 C 
HETATM    7  C8  UNL     1      42.603   0.203  10.260  1.00  0.00     0.027 C 
BRANCH   5   8
HETATM    8  C9  UNL     1      44.384   1.899   9.807  1.00  0.00     0.141 C 
BRANCH   8   9
HETATM    9  N3  UNL     1      45.401   2.621  10.512  1.00  0.00    -0.360 N 
HETATM   10  C10 UNL     1      45.857   3.846   9.967  1.00  0.00     0.217 C 
HETATM   11  O2  UNL     1      45.401   4.318   8.888  1.00  0.00    -0.274 OA
ATOM     12  H3  UNL     1      45.787   2.262  11.385  1.00  0.00     0.162 HD
BRANCH  10  13
HETATM   13  C11 UNL     1      46.908   4.601  10.688  1.00  0.00     0.103 C 
BRANCH  13  14
HETATM   14  C12 UNL     1      47.084   5.993  10.112  1.00  0.00     0.024 C 
BRANCH  14  15
HETATM   15  C13 UNL     1      47.085   7.002  11.259  1.00  0.00     0.087 C 
BRANCH  15  16
HETATM   16  C14 UNL     1      47.449   6.391  12.558  1.00  0.00     0.019 C 
BRANCH  16  17
HETATM   17  C15 UNL     1      47.911   7.297  13.634  1.00  0.00    -0.022 C 
HETATM   18  C16 UNL     1      47.003   7.112  14.874  1.00  0.00     0.009 C 
HETATM   19  C17 UNL     1      49.306   6.985  14.150  1.00  0.00     0.009 C 
ENDBRANCH  16  17
ENDBRANCH  15  16
BRANCH  15  20
HETATM   20  C18 UNL     1      45.840   7.784  11.239  1.00  0.00     0.177 C 
HETATM   21  O3  UNL     1      44.751   7.286  10.786  1.00  0.00    -0.648 OA
HETATM   22  O4  UNL     1      45.825   9.098  11.716  1.00  0.00    -0.648 OA
ENDBRANCH  15  20
ENDBRANCH  14  15
ENDBRANCH  13  14
ENDBRANCH  10  13
ENDBRANCH   8   9
ENDBRANCH   5   8
ENDBRANCH   3   5
BRANCH   1  23
HETATM   23  C4  UNL     1      41.855   4.115   8.960  1.00  0.00     0.136 A 
HETATM   24  C3  UNL     1      42.178   5.329   8.342  1.00  0.00     0.088 A 
HETATM   25  N1  UNL     1      43.036   6.316   8.649  1.00  0.00    -0.356 N 
HETATM   26  C21 UNL     1      41.554   5.700   7.169  1.00  0.00     0.011 A 
HETATM   27  C2  UNL     1      43.002   7.306   7.740  1.00  0.00     0.012 A 
ATOM     28  H1  UNL     1      43.640   6.314   9.471  1.00  0.00     0.166 HD
HETATM   29  C1  UNL     1      43.817   8.573   7.748  1.00  0.00     0.068 C 
HETATM   30  C22 UNL     1      42.067   6.924   6.801  1.00  0.00    -0.027 A 
HETATM   31  C23 UNL     1      41.658   7.673   5.592  1.00  0.00     0.051 C 
HETATM   32  C20 UNL     1      40.601   4.835   6.624  1.00  0.00    -0.018 A 
HETATM   33  C19 UNL     1      40.301   3.639   7.259  1.00  0.00     0.019 A 
HETATM   34  C24 UNL     1      39.799   4.868   5.433  1.00  0.00     0.026 A 
HETATM   35  N4  UNL     1      40.921   3.301   8.398  1.00  0.00    -0.343 N 
HETATM   36  C27 UNL     1      39.214   2.997   6.414  1.00  0.00     0.063 C 
ATOM     37  H4  UNL     1      40.689   2.417   8.852  1.00  0.00     0.167 HD
HETATM   38  C26 UNL     1      38.510   4.289   6.108  1.00  0.00     0.000 A 
HETATM   39  C25 UNL     1      38.496   5.203   5.056  1.00  0.00     0.015 A 
ENDBRANCH   1  23
TORSDOF 10
ENDMDL
MODEL 5
REMARK VINA RESULT: -8.638591167      3.817      9.213
REMARK  10 active torsions:
REMARK  status: ('A' for Active; 'I' for Inactive)
REMARK    1  A    between atoms: C4_6  and  N2_7 
REMARK       I    between atoms: N2_7  and  C5_9 
REMARK    2  A    between atoms: C5_9  and  C6_11 
REMARK    3  A    between atoms: C6_11  and  C9_14 
REMARK    4  A    between atoms: C9_14  and  N3_15 
REMARK       I    between atoms: N3_15  and  C10_17 
REMARK    5  A    between atoms: C10_17  and  C11_19 
REMARK    6  A    between atoms: C11_19  and  C12_20 
REMARK    7  A    between atoms: C12_20  and  C13_21 
REMARK    8  A    between atoms: C13_21  and  C14_22 
REMARK    9  A    between atoms: C13_21  and  C18_26 
REMARK   10  A    between atoms: C14_22  and  C15_23 
ROOT
HETATM    1  N2  UNL     1      42.526   5.212   6.158  1.00  0.00    -0.310 N 
ATOM      2  H2  UNL     1      43.473   5.158   5.784  1.00  0.00     0.170 HD
HETATM    3  C5  UNL     1      41.635   6.217   5.708  1.00  0.00     0.233 C 
HETATM    4  O1  UNL     1      40.613   5.951   4.992  1.00  0.00    -0.272 OA
ENDROOT
BRANCH   3   5
HETATM    5  C6  UNL     1      41.895   7.641   6.079  1.00  0.00     0.050 C 
HETATM    6  C7  UNL     1      43.221   8.086   5.534  1.00  0.00     0.027 C 
HETATM    7  C8  UNL     1      40.828   8.527   5.462  1.00  0.00     0.027 C 
BRANCH   5   8
HETATM    8  C9  UNL     1      41.924   7.795   7.587  1.00  0.00     0.141 C 
BRANCH   8   9
HETATM    9  N3  UNL     1      43.235   8.100   8.079  1.00  0.00    -0.360 N 
HETATM   10  C10 UNL     1      43.627   7.560   9.328  1.00  0.00     0.217 C 
HETATM   11  O2  UNL     1      42.865   6.826  10.018  1.00  0.00    -0.274 OA
ATOM     12  H3  UNL     1      43.871   8.690   7.542  1.00  0.00     0.162 HD
BRANCH  10  13
HETATM   13  C11 UNL     1      44.980   7.869   9.846  1.00  0.00     0.103 C 
BRANCH  13  14
HETATM   14  C12 UNL     1      45.845   8.520   8.783  1.00  0.00     0.024 C 
BRANCH  14  15
HETATM   15  C13 UNL     1      47.054   9.161   9.459  1.00  0.00     0.087 C 
BRANCH  15  16
HETATM   16  C14 UNL     1      47.685  10.211   8.627  1.00  0.00     0.019 C 
BRANCH  16  17
HETATM   17  C15 UNL     1      47.666  11.598   9.145  1.00  0.00    -0.022 C 
HETATM   18  C16 UNL     1      46.211  12.126   9.123  1.00  0.00     0.009 C 
HETATM   19  C17 UNL     1      48.080  11.721  10.602  1.00  0.00     0.009 C 
ENDBRANCH  16  17
ENDBRANCH  15  16
BRANCH  15  20
HETATM   20  C18 UNL     1      47.953   8.117   9.974  1.00  0.00     0.177 C 
HETATM   21  O3  UNL     1      48.545   7.303   9.183  1.00  0.00    -0.648 OA
HETATM   22  O4  UNL     1      48.176   7.993  11.348  1.00  0.00    -0.648 OA
ENDBRANCH  15  20
ENDBRANCH  14  15
ENDBRANCH  13  14
ENDBRANCH  10  13
ENDBRANCH   8   9
ENDBRANCH   5   8
ENDBRANCH   3   5
BRANCH   1  23
HETATM   23  C4  UNL     1      42.129   4.373   7.039  1.00  0.00     0.136 A 
HETATM   24  C3  UNL     1      43.003   4.067   8.088  1.00  0.00     0.088 A 
HETATM   25  N1  UNL     1      44.243   4.479   8.400  1.00  0.00    -0.356 N 
HETATM   26  C21 UNL     1      42.628   3.170   9.067  1.00  0.00     0.011 A 
HETATM   27  C2  UNL     1      44.693   3.898   9.526  1.00  0.00     0.012 A 
ATOM     28  H1  UNL     1      44.778   5.150   7.849  1.00  0.00     0.166 HD
HETATM   29  C1  UNL     1      46.031   4.110  10.184  1.00  0.00     0.068 C 
HETATM   30  C22 UNL     1      43.676   3.069   9.954  1.00  0.00    -0.027 A 
HETATM   31  C23 UNL     1      43.676   2.204  11.155  1.00  0.00     0.051 C 
HETATM   32  C20 UNL     1      41.362   2.585   8.978  1.00  0.00    -0.018 A 
HETATM   33  C19 UNL     1      40.517   2.907   7.927  1.00  0.00     0.019 A 
HETATM   34  C24 UNL     1      40.636   1.665   9.809  1.00  0.00     0.026 A 
HETATM   35  N4  UNL     1      40.904   3.781   6.988  1.00  0.00    -0.343 N 
HETATM   36  C27 UNL     1      39.271   2.063   8.139  1.00  0.00     0.063 C 
ATOM     37  H4  UNL     1      40.270   4.008   6.222  1.00  0.00     0.167 HD
HETATM   38  C26 UNL     1      40.018   0.851   8.621  1.00  0.00     0.000 A 
HETATM   39  C25 UNL     1      40.350   0.298   9.856  1.00  0.00     0.015 A 
ENDBRANCH   1  23
TORSDOF 10
ENDMDL
