MODEL 1
REMARK VINA RESULT: -8.791512938      0.000      0.000
REMARK  10 active torsions:
REMARK  status: ('A' for Active; 'I' for Inactive)
REMARK    1  A    between atoms: C2_2  and  C3_3 
REMARK    2  A    between atoms: C3_3  and  C5_5 
REMARK    3  A    between atoms: C5_5  and  N1_6 
REMARK    4  A    between atoms: C5_5  and  C6_10 
REMARK       I    between atoms: C6_10  and  N2_12 
REMARK    5  A    between atoms: N2_12  and  C7_14 
REMARK       I    between atoms: N3_18  and  C11_19 
REMARK       I    between atoms: C11_19  and  N4_21 
REMARK    6  A    between atoms: N4_21  and  C12_23 
REMARK    7  A    between atoms: C12_23  and  C13_24 
REMARK    8  A    between atoms: C12_23  and  C22_36 
REMARK       I    between atoms: C13_24  and  N5_26 
REMARK    9  A    between atoms: N5_26  and  C14_28 
REMARK   10  A    between atoms: C14_28  and  C15_29 
ROOT
HETATM    1  C7  UNL     1      43.282   4.179   9.881  1.00  0.00     0.102 C 
HETATM    2  C8  UNL     1      42.897   2.967  10.678  1.00  0.00     0.028 C 
HETATM    3  C9  UNL     1      41.494   2.541  10.374  1.00  0.00     0.022 C 
HETATM    4  C10 UNL     1      41.437   2.209   8.884  1.00  0.00     0.127 C 
HETATM    5  N3  UNL     1      41.623   3.509   8.208  1.00  0.00    -0.332 N 
HETATM    6  C11 UNL     1      40.580   3.999   7.430  1.00  0.00     0.319 C 
HETATM    7  O2  UNL     1      39.503   3.312   7.260  1.00  0.00    -0.247 OA
HETATM    8  N4  UNL     1      40.574   5.259   6.760  1.00  0.00    -0.329 N 
ATOM      9  H4  UNL     1      41.375   5.886   6.830  1.00  0.00     0.165 HD
HETATM   10  C27 UNL     1      42.883   4.137   8.428  1.00  0.00     0.152 C 
ENDROOT
BRANCH   8  11
HETATM   11  C12 UNL     1      39.416   5.637   5.981  1.00  0.00     0.182 C 
BRANCH  11  12
HETATM   12  C13 UNL     1      39.239   4.698   4.859  1.00  0.00     0.244 C 
HETATM   13  O3  UNL     1      40.154   4.580   4.016  1.00  0.00    -0.271 OA
HETATM   14  N5  UNL     1      38.059   3.915   4.710  1.00  0.00    -0.335 N 
ATOM     15  H5  UNL     1      37.350   4.047   5.432  1.00  0.00     0.168 HD
BRANCH  14  16
HETATM   16  C14 UNL     1      37.734   2.987   3.708  1.00  0.00     0.091 C 
BRANCH  16  17
HETATM   17  C15 UNL     1      36.434   3.119   3.021  1.00  0.00     0.020 C 
HETATM   18  C16 UNL     1      36.177   3.117   1.762  1.00  0.00    -0.079 C 
HETATM   19  C17 UNL     1      34.750   3.265   1.281  1.00  0.00     0.034 C 
HETATM   20  C21 UNL     1      37.178   2.982   0.690  1.00  0.00     0.034 C 
HETATM   21  C18 UNL     1      34.416   1.885   0.696  1.00  0.00     0.004 C 
HETATM   22  C19 UNL     1      35.636   1.018   0.547  1.00  0.00     0.001 C 
HETATM   23  C20 UNL     1      36.809   1.735  -0.092  1.00  0.00     0.004 C 
ENDBRANCH  16  17
ENDBRANCH  14  16
ENDBRANCH  11  12
BRANCH  11  24
HETATM   24  C22 UNL     1      39.721   7.003   5.399  1.00  0.00     0.018 C 
HETATM   25  C23 UNL     1      41.049   7.560   5.759  1.00  0.00     0.007 C 
HETATM   26  C24 UNL     1      40.875   9.064   5.518  1.00  0.00     0.000 C 
HETATM   27  C25 UNL     1      39.409   9.325   5.461  1.00  0.00     0.000 C 
HETATM   28  C26 UNL     1      38.774   8.055   5.979  1.00  0.00     0.007 C 
ENDBRANCH  11  24
ENDBRANCH   8  11
BRANCH   1  29
HETATM   29  N2  UNL     1      44.746   4.343   9.980  1.00  0.00    -0.353 N 
HETATM   30  C6  UNL     1      45.333   5.592  10.204  1.00  0.00     0.249 C 
HETATM   31  O1  UNL     1      44.552   6.583  10.310  1.00  0.00    -0.271 OA
ATOM     32  H2  UNL     1      45.344   3.523   9.883  1.00  0.00     0.163 HD
BRANCH  30  33
HETATM   33  C5  UNL     1      46.789   5.810  10.324  1.00  0.00     0.278 C 
BRANCH  33  34
HETATM   34  C3  UNL     1      47.149   7.287  10.283  1.00  0.00     0.021 C 
HETATM   35  C4  UNL     1      48.157   7.565   9.188  1.00  0.00     0.012 C 
BRANCH  34  36
HETATM   36  C2  UNL     1      47.709   7.661  11.646  1.00  0.00     0.002 C 
HETATM   37  C1  UNL     1      46.653   7.939  12.661  1.00  0.00     0.005 C 
ENDBRANCH  34  36
ENDBRANCH  33  34
BRANCH  33  38
HETATM   38  N1  UNL     1      47.509   5.065   9.325  1.00  0.00    -0.066 N 
ATOM     39  H13 UNL     1      47.474   5.528   8.416  1.00  0.00     0.275 HD
ATOM     40  H12 UNL     1      48.516   5.104   9.482  1.00  0.00     0.275 HD
ATOM     41  H11 UNL     1      47.177   4.102   9.267  1.00  0.00     0.275 HD
ENDBRANCH  33  38
ENDBRANCH  30  33
ENDBRANCH   1  29
TORSDOF 10
ENDMDL
MODEL 2
REMARK VINA RESULT: -8.758049510      4.203     11.834
REMARK  10 active torsions:
REMARK  status: ('A' for Active; 'I' for Inactive)
REMARK    1  A    between atoms: C2_2  and  C3_3 
REMARK    2  A    between atoms: C3_3  and  C5_5 
REMARK    3  A    between atoms: C5_5  and  N1_6 
REMARK    4  A    between atoms: C5_5  and  C6_10 
REMARK       I    between atoms: C6_10  and  N2_12 
REMARK    5  A    between atoms: N2_12  and  C7_14 
REMARK       I    between atoms: N3_18  and  C11_19 
REMARK       I    between atoms: C11_19  and  N4_21 
REMARK    6  A    between atoms: N4_21  and  C12_23 
REMARK    7  A    between atoms: C12_23  and  C13_24 
REMARK    8  A    between atoms: C12_23  and  C22_36 
REMARK       I    between atoms: C13_24  and  N5_26 
REMARK    9  A    between atoms: N5_26  and  C14_28 
REMARK   10  A    between atoms: C14_28  and  C15_29 
ROOT
HETATM    1  C7  UNL     1      41.686   6.145   6.296  1.00  0.00     0.102 C 
HETATM    2  C8  UNL     1      41.407   4.687   6.070  1.00  0.00     0.028 C 
HETATM    3  C9  UNL     1      42.533   3.836   6.571  1.00  0.00     0.022 C 
HETATM    4  C10 UNL     1      42.667   4.102   8.070  1.00  0.00     0.127 C 
HETATM    5  N3  UNL     1      43.142   5.497   8.156  1.00  0.00    -0.332 N 
HETATM    6  C11 UNL     1      44.397   5.730   8.708  1.00  0.00     0.319 C 
HETATM    7  O2  UNL     1      45.102   4.758   9.179  1.00  0.00    -0.247 OA
HETATM    8  N4  UNL     1      45.029   7.005   8.813  1.00  0.00    -0.329 N 
ATOM      9  H4  UNL     1      44.561   7.843   8.467  1.00  0.00     0.165 HD
HETATM   10  C27 UNL     1      42.242   6.483   7.657  1.00  0.00     0.152 C 
ENDROOT
BRANCH   8  11
HETATM   11  C12 UNL     1      46.340   7.096   9.414  1.00  0.00     0.182 C 
BRANCH  11  12
HETATM   12  C13 UNL     1      46.213   7.446  10.841  1.00  0.00     0.244 C 
HETATM   13  O3  UNL     1      45.167   8.001  11.239  1.00  0.00    -0.271 OA
HETATM   14  N5  UNL     1      47.246   7.163  11.781  1.00  0.00    -0.335 N 
ATOM     15  H5  UNL     1      48.072   6.702  11.400  1.00  0.00     0.168 HD
BRANCH  14  16
HETATM   16  C14 UNL     1      47.284   7.431  13.158  1.00  0.00     0.091 C 
BRANCH  16  17
HETATM   17  C15 UNL     1      48.238   6.677  13.995  1.00  0.00     0.020 C 
HETATM   18  C16 UNL     1      49.360   7.059  14.493  1.00  0.00    -0.079 C 
HETATM   19  C17 UNL     1      50.179   6.103  15.334  1.00  0.00     0.034 C 
HETATM   20  C21 UNL     1      49.958   8.393  14.317  1.00  0.00     0.034 C 
HETATM   21  C18 UNL     1      50.086   6.689  16.749  1.00  0.00     0.004 C 
HETATM   22  C19 UNL     1      49.500   8.075  16.756  1.00  0.00     0.001 C 
HETATM   23  C20 UNL     1      50.104   8.987  15.706  1.00  0.00     0.004 C 
ENDBRANCH  16  17
ENDBRANCH  14  16
ENDBRANCH  11  12
BRANCH  11  24
HETATM   24  C22 UNL     1      47.051   8.239   8.718  1.00  0.00     0.018 C 
HETATM   25  C23 UNL     1      48.312   8.684   9.363  1.00  0.00     0.007 C 
HETATM   26  C24 UNL     1      48.505  10.102   8.813  1.00  0.00     0.000 C 
HETATM   27  C25 UNL     1      47.190  10.534   8.261  1.00  0.00     0.000 C 
HETATM   28  C26 UNL     1      46.204   9.512   8.779  1.00  0.00     0.007 C 
ENDBRANCH  11  24
ENDBRANCH   8  11
BRANCH   1  29
HETATM   29  N2  UNL     1      40.427   6.887   6.087  1.00  0.00    -0.353 N 
HETATM   30  C6  UNL     1      40.417   8.188   5.576  1.00  0.00     0.249 C 
HETATM   31  O1  UNL     1      41.539   8.709   5.307  1.00  0.00    -0.271 OA
ATOM     32  H2  UNL     1      39.542   6.438   6.320  1.00  0.00     0.163 HD
BRANCH  30  33
HETATM   33  C5  UNL     1      39.187   8.971   5.334  1.00  0.00     0.278 C 
BRANCH  33  34
HETATM   34  C3  UNL     1      39.494  10.400   4.916  1.00  0.00     0.021 C 
HETATM   35  C4  UNL     1      39.247  11.360   6.060  1.00  0.00     0.012 C 
BRANCH  34  36
HETATM   36  C2  UNL     1      38.606  10.730   3.727  1.00  0.00     0.002 C 
HETATM   37  C1  UNL     1      39.078  11.910   2.948  1.00  0.00     0.005 C 
ENDBRANCH  34  36
ENDBRANCH  33  34
BRANCH  33  38
HETATM   38  N1  UNL     1      38.316   8.933   6.480  1.00  0.00    -0.066 N 
ATOM     39  H13 UNL     1      38.014   7.982   6.690  1.00  0.00     0.275 HD
ATOM     40  H12 UNL     1      38.824   9.131   7.343  1.00  0.00     0.275 HD
ATOM     41  H11 UNL     1      37.520   9.561   6.363  1.00  0.00     0.275 HD
ENDBRANCH  33  38
ENDBRANCH  30  33
ENDBRANCH   1  29
TORSDOF 10
ENDMDL
MODEL 3
REMARK VINA RESULT: -8.754016047      4.546     11.986
REMARK  10 active torsions:
REMARK  status: ('A' for Active; 'I' for Inactive)
REMARK    1  A    between atoms: C2_2  and  C3_3 
REMARK    2  A    between atoms: C3_3  and  C5_5 
REMARK    3  A    between atoms: C5_5  and  N1_6 
REMARK    4  A    between atoms: C5_5  and  C6_10 
REMARK       I    between atoms: C6_10  and  N2_12 
REMARK    5  A    between atoms: N2_12  and  C7_14 
REMARK       I    between atoms: N3_18  and  C11_19 
REMARK       I    between atoms: C11_19  and  N4_21 
REMARK    6  A    between atoms: N4_21  and  C12_23 
REMARK    7  A    between atoms: C12_23  and  C13_24 
REMARK    8  A    between atoms: C12_23  and  C22_36 
REMARK       I    between atoms: C13_24  and  N5_26 
REMARK    9  A    between atoms: N5_26  and  C14_28 
REMARK   10  A    between atoms: C14_28  and  C15_29 
ROOT
HETATM    1  C7  UNL     1      42.262   6.373   7.213  1.00  0.00     0.102 C 
HETATM    2  C8  UNL     1      42.080   4.882   7.190  1.00  0.00     0.028 C 
HETATM    3  C9  UNL     1      43.199   4.188   7.904  1.00  0.00     0.022 C 
HETATM    4  C10 UNL     1      43.184   4.681   9.351  1.00  0.00     0.127 C 
HETATM    5  N3  UNL     1      43.576   6.101   9.262  1.00  0.00    -0.332 N 
HETATM    6  C11 UNL     1      44.763   6.493   9.872  1.00  0.00     0.319 C 
HETATM    7  O2  UNL     1      45.472   5.649  10.541  1.00  0.00    -0.247 OA
HETATM    8  N4  UNL     1      45.316   7.808   9.832  1.00  0.00    -0.329 N 
ATOM      9  H4  UNL     1      44.838   8.554   9.326  1.00  0.00     0.165 HD
HETATM   10  C27 UNL     1      42.675   6.942   8.547  1.00  0.00     0.152 C 
ENDROOT
BRANCH   8  11
HETATM   11  C12 UNL     1      46.561   8.071  10.517  1.00  0.00     0.182 C 
BRANCH  11  12
HETATM   12  C13 UNL     1      46.309   8.273  11.955  1.00  0.00     0.244 C 
HETATM   13  O3  UNL     1      45.595   9.233  12.317  1.00  0.00    -0.271 OA
HETATM   14  N5  UNL     1      46.848   7.402  12.945  1.00  0.00    -0.335 N 
ATOM     15  H5  UNL     1      47.415   6.632  12.590  1.00  0.00     0.168 HD
BRANCH  14  16
HETATM   16  C14 UNL     1      46.708   7.456  14.340  1.00  0.00     0.091 C 
BRANCH  16  17
HETATM   17  C15 UNL     1      47.886   7.155  15.178  1.00  0.00     0.020 C 
HETATM   18  C16 UNL     1      49.108   7.521  15.022  1.00  0.00    -0.079 C 
HETATM   19  C17 UNL     1      50.160   7.090  16.022  1.00  0.00     0.034 C 
HETATM   20  C21 UNL     1      49.612   8.353  13.916  1.00  0.00     0.034 C 
HETATM   21  C18 UNL     1      50.536   8.393  16.741  1.00  0.00     0.004 C 
HETATM   22  C19 UNL     1      49.982   9.609  16.048  1.00  0.00     0.001 C 
HETATM   23  C20 UNL     1      50.205   9.599  14.549  1.00  0.00     0.004 C 
ENDBRANCH  16  17
ENDBRANCH  14  16
ENDBRANCH  11  12
BRANCH  11  24
HETATM   24  C22 UNL     1      47.092   9.373   9.952  1.00  0.00     0.018 C 
HETATM   25  C23 UNL     1      46.127  10.144   9.128  1.00  0.00     0.007 C 
HETATM   26  C24 UNL     1      47.031  11.056   8.292  1.00  0.00     0.000 C 
HETATM   27  C25 UNL     1      48.404  10.480   8.356  1.00  0.00     0.000 C 
HETATM   28  C26 UNL     1      48.213   9.103   8.946  1.00  0.00     0.007 C 
ENDBRANCH  11  24
ENDBRANCH   8  11
BRANCH   1  29
HETATM   29  N2  UNL     1      40.990   6.992   6.792  1.00  0.00    -0.353 N 
HETATM   30  C6  UNL     1      40.948   7.995   5.818  1.00  0.00     0.249 C 
HETATM   31  O1  UNL     1      42.053   8.356   5.318  1.00  0.00    -0.271 OA
ATOM     32  H2  UNL     1      40.120   6.680   7.221  1.00  0.00     0.163 HD
BRANCH  30  33
HETATM   33  C5  UNL     1      39.704   8.640   5.351  1.00  0.00     0.278 C 
BRANCH  33  34
HETATM   34  C3  UNL     1      39.908  10.114   5.039  1.00  0.00     0.021 C 
HETATM   35  C4  UNL     1      39.869  10.942   6.306  1.00  0.00     0.012 C 
BRANCH  34  36
HETATM   36  C2  UNL     1      38.808  10.536   4.078  1.00  0.00     0.002 C 
HETATM   37  C1  UNL     1      39.159  11.740   3.272  1.00  0.00     0.005 C 
ENDBRANCH  34  36
ENDBRANCH  33  34
BRANCH  33  38
HETATM   38  N1  UNL     1      38.633   8.445   6.293  1.00  0.00    -0.066 N 
ATOM     39  H13 UNL     1      38.675   9.126   7.052  1.00  0.00     0.275 HD
ATOM     40  H12 UNL     1      37.731   8.709   5.895  1.00  0.00     0.275 HD
ATOM     41  H11 UNL     1      38.620   7.489   6.649  1.00  0.00     0.275 HD
ENDBRANCH  33  38
ENDBRANCH  30  33
ENDBRANCH   1  29
TORSDOF 10
ENDMDL
MODEL 4
REMARK VINA RESULT: -8.726483244      3.236      4.499
REMARK  10 active torsions:
REMARK  status: ('A' for Active; 'I' for Inactive)
REMARK    1  A    between atoms: C2_2  and  C3_3 
REMARK    2  A    between atoms: C3_3  and  C5_5 
REMARK    3  A    between atoms: C5_5  and  N1_6 
REMARK    4  A    between atoms: C5_5  and  C6_10 
REMARK       I    between atoms: C6_10  and  N2_12 
REMARK    5  A    between atoms: N2_12  and  C7_14 
REMARK       I    between atoms: N3_18  and  C11_19 
REMARK       I    between atoms: C11_19  and  N4_21 
REMARK    6  A    between atoms: N4_21  and  C12_23 
REMARK    7  A    between atoms: C12_23  and  C13_24 
REMARK    8  A    between atoms: C12_23  and  C22_36 
REMARK       I    between atoms: C13_24  and  N5_26 
REMARK    9  A    between atoms: N5_26  and  C14_28 
REMARK   10  A    between atoms: C14_28  and  C15_29 
ROOT
HETATM    1  C7  UNL     1      42.214   0.669   9.636  1.00  0.00     0.102 C 
HETATM    2  C8  UNL     1      42.528  -0.609  10.359  1.00  0.00     0.028 C 
HETATM    3  C9  UNL     1      41.486  -1.652  10.095  1.00  0.00     0.022 C 
HETATM    4  C10 UNL     1      41.477  -1.907   8.588  1.00  0.00     0.127 C 
HETATM    5  N3  UNL     1      40.957  -0.655   8.003  1.00  0.00    -0.332 N 
HETATM    6  C11 UNL     1      39.749  -0.703   7.318  1.00  0.00     0.319 C 
HETATM    7  O2  UNL     1      39.127  -1.821   7.151  1.00  0.00    -0.247 OA
HETATM    8  N4  UNL     1      39.080   0.420   6.745  1.00  0.00    -0.329 N 
ATOM      9  H4  UNL     1      39.482   1.354   6.822  1.00  0.00     0.165 HD
HETATM   10  C27 UNL     1      41.770   0.498   8.206  1.00  0.00     0.152 C 
ENDROOT
BRANCH   8  11
HETATM   11  C12 UNL     1      37.826   0.218   6.056  1.00  0.00     0.182 C 
BRANCH  11  12
HETATM   12  C13 UNL     1      37.915   0.754   4.686  1.00  0.00     0.244 C 
HETATM   13  O3  UNL     1      38.402   0.037   3.785  1.00  0.00    -0.271 OA
HETATM   14  N5  UNL     1      37.456   2.061   4.356  1.00  0.00    -0.335 N 
ATOM     15  H5  UNL     1      37.061   2.596   5.129  1.00  0.00     0.168 HD
BRANCH  14  16
HETATM   16  C14 UNL     1      37.472   2.716   3.115  1.00  0.00     0.091 C 
BRANCH  16  17
HETATM   17  C15 UNL     1      36.182   3.063   2.485  1.00  0.00     0.020 C 
HETATM   18  C16 UNL     1      35.797   2.886   1.272  1.00  0.00    -0.079 C 
HETATM   19  C17 UNL     1      34.412   3.324   0.846  1.00  0.00     0.034 C 
HETATM   20  C21 UNL     1      36.607   2.277   0.203  1.00  0.00     0.034 C 
HETATM   21  C18 UNL     1      33.673   2.003   0.593  1.00  0.00     0.004 C 
HETATM   22  C19 UNL     1      34.606   0.822   0.571  1.00  0.00     0.001 C 
HETATM   23  C20 UNL     1      35.846   1.052  -0.269  1.00  0.00     0.004 C 
ENDBRANCH  16  17
ENDBRANCH  14  16
ENDBRANCH  11  12
BRANCH  11  24
HETATM   24  C22 UNL     1      36.791   1.033   6.806  1.00  0.00     0.018 C 
HETATM   25  C23 UNL     1      37.339   1.973   7.816  1.00  0.00     0.007 C 
HETATM   26  C24 UNL     1      36.142   2.233   8.738  1.00  0.00     0.000 C 
HETATM   27  C25 UNL     1      35.155   1.146   8.481  1.00  0.00     0.000 C 
HETATM   28  C26 UNL     1      35.916   0.123   7.670  1.00  0.00     0.007 C 
ENDBRANCH  11  24
ENDBRANCH   8  11
BRANCH   1  29
HETATM   29  N2  UNL     1      43.419   1.521   9.674  1.00  0.00    -0.353 N 
HETATM   30  C6  UNL     1      43.456   2.710  10.408  1.00  0.00     0.249 C 
HETATM   31  O1  UNL     1      42.404   3.032  11.035  1.00  0.00    -0.271 OA
ATOM     32  H2  UNL     1      44.246   1.233   9.152  1.00  0.00     0.163 HD
BRANCH  30  33
HETATM   33  C5  UNL     1      44.638   3.593  10.490  1.00  0.00     0.278 C 
BRANCH  33  34
HETATM   34  C3  UNL     1      44.368   4.965   9.892  1.00  0.00     0.021 C 
HETATM   35  C4  UNL     1      43.712   4.839   8.533  1.00  0.00     0.012 C 
BRANCH  34  36
HETATM   36  C2  UNL     1      45.700   5.690   9.789  1.00  0.00     0.002 C 
HETATM   37  C1  UNL     1      45.881   6.742  10.830  1.00  0.00     0.005 C 
ENDBRANCH  34  36
ENDBRANCH  33  34
BRANCH  33  38
HETATM   38  N1  UNL     1      45.790   2.974   9.888  1.00  0.00    -0.066 N 
ATOM     39  H13 UNL     1      46.630   3.538  10.021  1.00  0.00     0.275 HD
ATOM     40  H12 UNL     1      46.078   2.140  10.401  1.00  0.00     0.275 HD
ATOM     41  H11 UNL     1      45.629   2.769   8.902  1.00  0.00     0.275 HD
ENDBRANCH  33  38
ENDBRANCH  30  33
ENDBRANCH   1  29
TORSDOF 10
ENDMDL
MODEL 5
REMARK VINA RESULT: -8.683653263      5.863      9.159
REMARK  10 active torsions:
REMARK  status: ('A' for Active; 'I' for Inactive)
REMARK    1  A    between atoms: C2_2  and  C3_3 
REMARK    2  A    between atoms: C3_3  and  C5_5 
REMARK    3  A    between atoms: C5_5  and  N1_6 
REMARK    4  A    between atoms: C5_5  and  C6_10 
REMARK       I    between atoms: C6_10  and  N2_12 
REMARK    5  A    between atoms: N2_12  and  C7_14 
REMARK       I    between atoms: N3_18  and  C11_19 
REMARK       I    between atoms: C11_19  and  N4_21 
REMARK    6  A    between atoms: N4_21  and  C12_23 
REMARK    7  A    between atoms: C12_23  and  C13_24 
REMARK    8  A    between atoms: C12_23  and  C22_36 
REMARK       I    between atoms: C13_24  and  N5_26 
REMARK    9  A    between atoms: N5_26  and  C14_28 
REMARK   10  A    between atoms: C14_28  and  C15_29 
ROOT
HETATM    1  C7  UNL     1      47.945  11.653  12.288  1.00  0.00     0.102 C 
HETATM    2  C8  UNL     1      48.006  11.408  13.768  1.00  0.00     0.028 C 
HETATM    3  C9  UNL     1      47.051  10.330  14.179  1.00  0.00     0.022 C 
HETATM    4  C10 UNL     1      47.460   9.059  13.436  1.00  0.00     0.127 C 
HETATM    5  N3  UNL     1      47.163   9.347  12.019  1.00  0.00    -0.332 N 
HETATM    6  C11 UNL     1      46.196   8.578  11.382  1.00  0.00     0.319 C 
HETATM    7  O2  UNL     1      45.616   7.604  11.997  1.00  0.00    -0.247 OA
HETATM    8  N4  UNL     1      45.749   8.762  10.039  1.00  0.00    -0.329 N 
ATOM      9  H4  UNL     1      46.140   9.506   9.462  1.00  0.00     0.165 HD
HETATM   10  C27 UNL     1      47.918  10.408  11.439  1.00  0.00     0.152 C 
ENDROOT
BRANCH   8  11
HETATM   11  C12 UNL     1      44.735   7.880   9.507  1.00  0.00     0.182 C 
BRANCH  11  12
HETATM   12  C13 UNL     1      45.333   6.576   9.167  1.00  0.00     0.244 C 
HETATM   13  O3  UNL     1      46.258   6.532   8.328  1.00  0.00    -0.271 OA
HETATM   14  N5  UNL     1      44.893   5.364   9.772  1.00  0.00    -0.335 N 
ATOM     15  H5  UNL     1      44.141   5.462  10.455  1.00  0.00     0.168 HD
BRANCH  14  16
HETATM   16  C14 UNL     1      45.348   4.054   9.560  1.00  0.00     0.091 C 
BRANCH  16  17
HETATM   17  C15 UNL     1      44.941   3.003  10.514  1.00  0.00     0.020 C 
HETATM   18  C16 UNL     1      43.762   2.590  10.812  1.00  0.00    -0.079 C 
HETATM   19  C17 UNL     1      43.582   1.485  11.831  1.00  0.00     0.034 C 
HETATM   20  C21 UNL     1      42.508   3.110  10.239  1.00  0.00     0.034 C 
HETATM   21  C18 UNL     1      43.089   0.295  10.996  1.00  0.00     0.004 C 
HETATM   22  C19 UNL     1      42.700   0.699   9.600  1.00  0.00     0.001 C 
HETATM   23  C20 UNL     1      41.829   1.938   9.554  1.00  0.00     0.004 C 
ENDBRANCH  16  17
ENDBRANCH  14  16
ENDBRANCH  11  12
BRANCH  11  24
HETATM   24  C22 UNL     1      44.249   8.516   8.219  1.00  0.00     0.018 C 
HETATM   25  C23 UNL     1      43.958   9.970   8.305  1.00  0.00     0.007 C 
HETATM   26  C24 UNL     1      43.026  10.211   7.112  1.00  0.00     0.000 C 
HETATM   27  C25 UNL     1      42.507   8.878   6.694  1.00  0.00     0.000 C 
HETATM   28  C26 UNL     1      42.884   7.949   7.824  1.00  0.00     0.007 C 
ENDBRANCH  11  24
ENDBRANCH   8  11
BRANCH   1  29
HETATM   29  N2  UNL     1      49.114  12.473  11.915  1.00  0.00    -0.353 N 
HETATM   30  C6  UNL     1      48.971  13.726  11.313  1.00  0.00     0.249 C 
HETATM   31  O1  UNL     1      47.791  14.127  11.094  1.00  0.00    -0.271 OA
ATOM     32  H2  UNL     1      50.051  12.115  12.101  1.00  0.00     0.163 HD
BRANCH  30  33
HETATM   33  C5  UNL     1      50.106  14.593  10.931  1.00  0.00     0.278 C 
BRANCH  33  34
HETATM   34  C3  UNL     1      50.391  14.532   9.438  1.00  0.00     0.021 C 
HETATM   35  C4  UNL     1      51.853  14.237   9.181  1.00  0.00     0.012 C 
BRANCH  34  36
HETATM   36  C2  UNL     1      49.993  15.873   8.841  1.00  0.00     0.002 C 
HETATM   37  C1  UNL     1      51.153  16.663   8.339  1.00  0.00     0.005 C 
ENDBRANCH  34  36
ENDBRANCH  33  34
BRANCH  33  38
HETATM   38  N1  UNL     1      51.279  14.281  11.703  1.00  0.00    -0.066 N 
ATOM     39  H13 UNL     1      52.086  14.104  11.104  1.00  0.00     0.275 HD
ATOM     40  H12 UNL     1      51.629  15.101  12.200  1.00  0.00     0.275 HD
ATOM     41  H11 UNL     1      51.109  13.502  12.340  1.00  0.00     0.275 HD
ENDBRANCH  33  38
ENDBRANCH  30  33
ENDBRANCH   1  29
TORSDOF 10
ENDMDL
