MODEL 1
REMARK VINA RESULT: -7.821500530      0.000      0.000
REMARK  11 active torsions:
REMARK  status: ('A' for Active; 'I' for Inactive)
REMARK    1  A    between atoms: C2_2  and  C3_3 
REMARK    2  A    between atoms: C2_2  and  C9_14 
REMARK    3  A    between atoms: C3_3  and  C4_4 
REMARK    4  A    between atoms: C4_4  and  C5_5 
REMARK    5  A    between atoms: C5_5  and  S1_6 
REMARK    6  A    between atoms: S1_6  and  C6_7 
REMARK    7  A    between atoms: C6_7  and  C7_8 
REMARK    8  A    between atoms: C7_8  and  C8_9 
REMARK    9  A    between atoms: C8_9  and  N1_10 
REMARK   10  A    between atoms: C16_21  and  O1_22 
REMARK   11  A    between atoms: C18_25  and  O2_26 
ROOT
HETATM    1  C9  UNL     1      23.375   0.078  61.372  1.00  0.00    -0.002 C 
HETATM    2  C10 UNL     1      23.509  -1.406  61.625  1.00  0.00     0.006 C 
HETATM    3  C11 UNL     1      22.169  -1.957  61.188  1.00  0.00     0.006 C 
HETATM    4  C12 UNL     1      21.906  -1.033  60.020  1.00  0.00    -0.002 C 
HETATM    5  C13 UNL     1      20.720  -1.294  59.238  1.00  0.00    -0.005 C 
HETATM    6  C14 UNL     1      19.702  -2.248  59.788  1.00  0.00     0.008 C 
HETATM    7  C15 UNL     1      18.816  -2.635  58.590  1.00  0.00     0.039 C 
HETATM    8  C16 UNL     1      18.117  -1.374  58.103  1.00  0.00     0.068 C 
HETATM    9  C17 UNL     1      17.142  -1.736  57.041  1.00  0.00     0.070 C 
HETATM   10  C18 UNL     1      17.711  -1.791  55.662  1.00  0.00     0.121 C 
HETATM   11  C19 UNL     1      18.664  -0.689  55.334  1.00  0.00     0.032 C 
HETATM   12  C20 UNL     1      19.747  -0.710  56.428  1.00  0.00     0.015 C 
HETATM   13  C21 UNL     1      19.107  -0.309  57.689  1.00  0.00    -0.009 C 
HETATM   14  C22 UNL     1      18.279   0.955  57.419  1.00  0.00     0.019 C 
HETATM   15  C23 UNL     1      19.991  -0.020  58.842  1.00  0.00     0.001 C 
HETATM   16  C24 UNL     1      20.996   1.063  58.554  1.00  0.00     0.007 C 
HETATM   17  C25 UNL     1      21.888   1.360  59.732  1.00  0.00     0.010 C 
HETATM   18  C26 UNL     1      22.054   0.298  60.722  1.00  0.00    -0.036 C 
HETATM   19  C27 UNL     1      21.015   0.496  61.814  1.00  0.00     0.016 C 
ENDROOT
BRANCH   1  20
HETATM   20  C2  UNL     1      24.574   0.729  60.814  1.00  0.00    -0.014 C 
HETATM   21  C1  UNL     1      25.766  -0.109  60.541  1.00  0.00     0.010 C 
BRANCH  20  22
HETATM   22  C3  UNL     1      25.020   1.969  61.553  1.00  0.00     0.005 C 
BRANCH  22  23
HETATM   23  C4  UNL     1      24.261   3.209  61.284  1.00  0.00     0.010 C 
BRANCH  23  24
HETATM   24  C5  UNL     1      24.733   3.684  59.895  1.00  0.00     0.074 C 
BRANCH  24  25
HETATM   25  S1  UNL     1      24.722   5.504  59.964  1.00  0.00    -0.169 SA
BRANCH  25  26
HETATM   26  C6  UNL     1      26.465   6.046  59.947  1.00  0.00     0.075 C 
BRANCH  26  27
HETATM   27  C7  UNL     1      27.230   5.420  61.073  1.00  0.00     0.037 C 
BRANCH  27  28
HETATM   28  C8  UNL     1      28.512   4.834  60.526  1.00  0.00     0.230 C 
BRANCH  28  29
HETATM   29  N1  UNL     1      28.229   3.810  59.541  1.00  0.00    -0.079 N 
ATOM     30  H13 UNL     1      28.380   2.873  59.915  1.00  0.00     0.274 HD
ATOM     31  H12 UNL     1      27.230   3.737  59.347  1.00  0.00     0.274 HD
ATOM     32  H11 UNL     1      28.768   3.968  58.690  1.00  0.00     0.274 HD
ENDBRANCH  28  29
ENDBRANCH  27  28
ENDBRANCH  26  27
ENDBRANCH  25  26
ENDBRANCH  24  25
ENDBRANCH  23  24
ENDBRANCH  22  23
ENDBRANCH  20  22
ENDBRANCH   1  20
BRANCH   8  33
HETATM   33  O1  UNL     1      17.415  -0.869  59.198  1.00  0.00    -0.389 OA
ATOM     34  H1  UNL     1      17.587   0.064  59.217  1.00  0.00     0.210 HD
ENDBRANCH   8  33
BRANCH  10  35
HETATM   35  O2  UNL     1      16.622  -1.689  54.766  1.00  0.00    -0.395 OA
ATOM     36  H2  UNL     1      16.244  -0.826  54.889  1.00  0.00     0.210 HD
ENDBRANCH  10  35
TORSDOF 11
ENDMDL
MODEL 2
REMARK VINA RESULT: -7.584090356      1.234      1.627
REMARK  11 active torsions:
REMARK  status: ('A' for Active; 'I' for Inactive)
REMARK    1  A    between atoms: C2_2  and  C3_3 
REMARK    2  A    between atoms: C2_2  and  C9_14 
REMARK    3  A    between atoms: C3_3  and  C4_4 
REMARK    4  A    between atoms: C4_4  and  C5_5 
REMARK    5  A    between atoms: C5_5  and  S1_6 
REMARK    6  A    between atoms: S1_6  and  C6_7 
REMARK    7  A    between atoms: C6_7  and  C7_8 
REMARK    8  A    between atoms: C7_8  and  C8_9 
REMARK    9  A    between atoms: C8_9  and  N1_10 
REMARK   10  A    between atoms: C16_21  and  O1_22 
REMARK   11  A    between atoms: C18_25  and  O2_26 
ROOT
HETATM    1  C9  UNL     1      23.698   0.098  61.411  1.00  0.00    -0.002 C 
HETATM    2  C10 UNL     1      23.767  -1.390  61.670  1.00  0.00     0.006 C 
HETATM    3  C11 UNL     1      22.409  -1.885  61.221  1.00  0.00     0.006 C 
HETATM    4  C12 UNL     1      22.198  -0.955  60.047  1.00  0.00    -0.002 C 
HETATM    5  C13 UNL     1      21.011  -1.169  59.253  1.00  0.00    -0.005 C 
HETATM    6  C14 UNL     1      19.947  -2.077  59.795  1.00  0.00     0.008 C 
HETATM    7  C15 UNL     1      19.059  -2.430  58.588  1.00  0.00     0.039 C 
HETATM    8  C16 UNL     1      18.419  -1.143  58.090  1.00  0.00     0.068 C 
HETATM    9  C17 UNL     1      17.441  -1.467  57.019  1.00  0.00     0.070 C 
HETATM   10  C18 UNL     1      18.021  -1.551  55.646  1.00  0.00     0.121 C 
HETATM   11  C19 UNL     1      19.024  -0.492  55.325  1.00  0.00     0.032 C 
HETATM   12  C20 UNL     1      20.093  -0.555  56.430  1.00  0.00     0.015 C 
HETATM   13  C21 UNL     1      19.457  -0.123  57.683  1.00  0.00    -0.009 C 
HETATM   14  C22 UNL     1      18.686   1.174  57.401  1.00  0.00     0.019 C 
HETATM   15  C23 UNL     1      20.340   0.134  58.846  1.00  0.00     0.001 C 
HETATM   16  C24 UNL     1      21.393   1.172  58.564  1.00  0.00     0.007 C 
HETATM   17  C25 UNL     1      22.284   1.436  59.751  1.00  0.00     0.010 C 
HETATM   18  C26 UNL     1      22.394   0.371  60.746  1.00  0.00    -0.036 C 
HETATM   19  C27 UNL     1      21.354   0.617  61.827  1.00  0.00     0.016 C 
ENDROOT
BRANCH   1  20
HETATM   20  C2  UNL     1      24.929   0.696  60.864  1.00  0.00    -0.014 C 
HETATM   21  C1  UNL     1      26.067  -0.201  60.551  1.00  0.00     0.010 C 
BRANCH  20  22
HETATM   22  C3  UNL     1      25.454   1.880  61.642  1.00  0.00     0.005 C 
BRANCH  22  23
HETATM   23  C4  UNL     1      25.236   3.214  61.042  1.00  0.00     0.010 C 
BRANCH  23  24
HETATM   24  C5  UNL     1      26.643   3.744  60.699  1.00  0.00     0.074 C 
BRANCH  24  25
HETATM   25  S1  UNL     1      26.416   5.492  60.239  1.00  0.00    -0.169 SA
BRANCH  25  26
HETATM   26  C6  UNL     1      24.634   5.731  59.924  1.00  0.00     0.075 C 
BRANCH  26  27
HETATM   27  C7  UNL     1      24.382   6.017  58.475  1.00  0.00     0.037 C 
BRANCH  27  28
HETATM   28  C8  UNL     1      23.472   4.947  57.918  1.00  0.00     0.230 C 
BRANCH  28  29
HETATM   29  N1  UNL     1      24.207   3.720  57.682  1.00  0.00    -0.079 N 
ATOM     30  H13 UNL     1      24.717   3.749  56.799  1.00  0.00     0.274 HD
ATOM     31  H12 UNL     1      25.002   3.628  58.315  1.00  0.00     0.274 HD
ATOM     32  H11 UNL     1      23.587   2.912  57.734  1.00  0.00     0.274 HD
ENDBRANCH  28  29
ENDBRANCH  27  28
ENDBRANCH  26  27
ENDBRANCH  25  26
ENDBRANCH  24  25
ENDBRANCH  23  24
ENDBRANCH  22  23
ENDBRANCH  20  22
ENDBRANCH   1  20
BRANCH   8  33
HETATM   33  O1  UNL     1      17.727  -0.605  59.176  1.00  0.00    -0.389 OA
ATOM     34  H1  UNL     1      16.957  -0.181  58.817  1.00  0.00     0.210 HD
ENDBRANCH   8  33
BRANCH  10  35
HETATM   35  O2  UNL     1      16.947  -1.408  54.738  1.00  0.00    -0.395 OA
ATOM     36  H2  UNL     1      17.077  -2.055  54.054  1.00  0.00     0.210 HD
ENDBRANCH  10  35
TORSDOF 11
ENDMDL
MODEL 3
REMARK VINA RESULT: -7.411787517      1.666      2.723
REMARK  11 active torsions:
REMARK  status: ('A' for Active; 'I' for Inactive)
REMARK    1  A    between atoms: C2_2  and  C3_3 
REMARK    2  A    between atoms: C2_2  and  C9_14 
REMARK    3  A    between atoms: C3_3  and  C4_4 
REMARK    4  A    between atoms: C4_4  and  C5_5 
REMARK    5  A    between atoms: C5_5  and  S1_6 
REMARK    6  A    between atoms: S1_6  and  C6_7 
REMARK    7  A    between atoms: C6_7  and  C7_8 
REMARK    8  A    between atoms: C7_8  and  C8_9 
REMARK    9  A    between atoms: C8_9  and  N1_10 
REMARK   10  A    between atoms: C16_21  and  O1_22 
REMARK   11  A    between atoms: C18_25  and  O2_26 
ROOT
HETATM    1  C9  UNL     1      21.810  -0.151  60.565  1.00  0.00    -0.002 C 
HETATM    2  C10 UNL     1      21.041  -0.152  61.866  1.00  0.00     0.006 C 
HETATM    3  C11 UNL     1      19.601  -0.284  61.421  1.00  0.00     0.006 C 
HETATM    4  C12 UNL     1      19.806  -1.199  60.234  1.00  0.00    -0.002 C 
HETATM    5  C13 UNL     1      18.618  -1.661  59.555  1.00  0.00    -0.005 C 
HETATM    6  C14 UNL     1      17.313  -0.994  59.875  1.00  0.00     0.008 C 
HETATM    7  C15 UNL     1      16.227  -1.951  59.350  1.00  0.00     0.039 C 
HETATM    8  C16 UNL     1      16.387  -2.052  57.840  1.00  0.00     0.068 C 
HETATM    9  C17 UNL     1      15.265  -2.852  57.283  1.00  0.00     0.070 C 
HETATM   10  C18 UNL     1      15.493  -4.327  57.271  1.00  0.00     0.121 C 
HETATM   11  C19 UNL     1      16.868  -4.743  56.860  1.00  0.00     0.032 C 
HETATM   12  C20 UNL     1      17.844  -3.996  57.785  1.00  0.00     0.015 C 
HETATM   13  C21 UNL     1      17.755  -2.566  57.456  1.00  0.00    -0.009 C 
HETATM   14  C22 UNL     1      17.846  -2.425  55.930  1.00  0.00     0.019 C 
HETATM   15  C23 UNL     1      18.775  -1.664  58.043  1.00  0.00     0.001 C 
HETATM   16  C24 UNL     1      20.182  -2.060  57.687  1.00  0.00     0.007 C 
HETATM   17  C25 UNL     1      21.216  -1.136  58.280  1.00  0.00     0.010 C 
HETATM   18  C26 UNL     1      20.827  -0.385  59.471  1.00  0.00    -0.036 C 
HETATM   19  C27 UNL     1      20.281   0.964  59.029  1.00  0.00     0.016 C 
ENDROOT
BRANCH   1  20
HETATM   20  C2  UNL     1      23.069  -0.916  60.581  1.00  0.00    -0.014 C 
HETATM   21  C1  UNL     1      23.193  -2.046  61.531  1.00  0.00     0.010 C 
BRANCH  20  22
HETATM   22  C3  UNL     1      24.319  -0.071  60.679  1.00  0.00     0.005 C 
BRANCH  22  23
HETATM   23  C4  UNL     1      24.460   0.761  61.893  1.00  0.00     0.010 C 
BRANCH  23  24
HETATM   24  C5  UNL     1      25.461   1.871  61.514  1.00  0.00     0.074 C 
BRANCH  24  25
HETATM   25  S1  UNL     1      24.469   3.186  60.735  1.00  0.00    -0.169 SA
BRANCH  25  26
HETATM   26  C6  UNL     1      25.632   4.260  59.826  1.00  0.00     0.075 C 
BRANCH  26  27
HETATM   27  C7  UNL     1      26.561   4.961  60.770  1.00  0.00     0.037 C 
BRANCH  27  28
HETATM   28  C8  UNL     1      27.984   4.589  60.420  1.00  0.00     0.230 C 
BRANCH  28  29
HETATM   29  N1  UNL     1      28.011   3.583  59.377  1.00  0.00    -0.079 N 
ATOM     30  H13 UNL     1      27.070   3.306  59.096  1.00  0.00     0.274 HD
ATOM     31  H12 UNL     1      28.329   3.969  58.488  1.00  0.00     0.274 HD
ATOM     32  H11 UNL     1      28.571   2.781  59.664  1.00  0.00     0.274 HD
ENDBRANCH  28  29
ENDBRANCH  27  28
ENDBRANCH  26  27
ENDBRANCH  25  26
ENDBRANCH  24  25
ENDBRANCH  23  24
ENDBRANCH  22  23
ENDBRANCH  20  22
ENDBRANCH   1  20
BRANCH   8  33
HETATM   33  O1  UNL     1      16.291  -0.750  57.350  1.00  0.00    -0.389 OA
ATOM     34  H1  UNL     1      17.147  -0.535  56.997  1.00  0.00     0.210 HD
ENDBRANCH   8  33
BRANCH  10  35
HETATM   35  O2  UNL     1      14.587  -4.874  56.333  1.00  0.00    -0.395 OA
ATOM     36  H2  UNL     1      14.975  -5.680  56.013  1.00  0.00     0.210 HD
ENDBRANCH  10  35
TORSDOF 11
ENDMDL
MODEL 4
REMARK VINA RESULT: -7.291501557      2.522      3.935
REMARK  11 active torsions:
REMARK  status: ('A' for Active; 'I' for Inactive)
REMARK    1  A    between atoms: C2_2  and  C3_3 
REMARK    2  A    between atoms: C2_2  and  C9_14 
REMARK    3  A    between atoms: C3_3  and  C4_4 
REMARK    4  A    between atoms: C4_4  and  C5_5 
REMARK    5  A    between atoms: C5_5  and  S1_6 
REMARK    6  A    between atoms: S1_6  and  C6_7 
REMARK    7  A    between atoms: C6_7  and  C7_8 
REMARK    8  A    between atoms: C7_8  and  C8_9 
REMARK    9  A    between atoms: C8_9  and  N1_10 
REMARK   10  A    between atoms: C16_21  and  O1_22 
REMARK   11  A    between atoms: C18_25  and  O2_26 
ROOT
HETATM    1  C9  UNL     1      25.524   2.977  61.025  1.00  0.00    -0.002 C 
HETATM    2  C10 UNL     1      26.344   1.797  61.494  1.00  0.00     0.006 C 
HETATM    3  C11 UNL     1      25.345   0.660  61.507  1.00  0.00     0.006 C 
HETATM    4  C12 UNL     1      24.528   1.053  60.296  1.00  0.00    -0.002 C 
HETATM    5  C13 UNL     1      23.484   0.141  59.891  1.00  0.00    -0.005 C 
HETATM    6  C14 UNL     1      23.094  -0.956  60.836  1.00  0.00     0.008 C 
HETATM    7  C15 UNL     1      22.310  -1.970  59.982  1.00  0.00     0.039 C 
HETATM    8  C16 UNL     1      21.058  -1.275  59.470  1.00  0.00     0.068 C 
HETATM    9  C17 UNL     1      20.204  -2.266  58.763  1.00  0.00     0.070 C 
HETATM   10  C18 UNL     1      20.528  -2.454  57.318  1.00  0.00     0.121 C 
HETATM   11  C19 UNL     1      20.828  -1.193  56.576  1.00  0.00     0.032 C 
HETATM   12  C20 UNL     1      21.952  -0.486  57.353  1.00  0.00     0.015 C 
HETATM   13  C21 UNL     1      21.393  -0.055  58.642  1.00  0.00    -0.009 C 
HETATM   14  C22 UNL     1      20.057   0.650  58.367  1.00  0.00     0.019 C 
HETATM   15  C23 UNL     1      22.213   0.861  59.471  1.00  0.00     0.001 C 
HETATM   16  C24 UNL     1      22.572   2.135  58.756  1.00  0.00     0.007 C 
HETATM   17  C25 UNL     1      23.398   3.068  59.605  1.00  0.00     0.010 C 
HETATM   18  C26 UNL     1      24.165   2.466  60.694  1.00  0.00    -0.036 C 
HETATM   19  C27 UNL     1      23.320   2.515  61.957  1.00  0.00     0.016 C 
ENDROOT
BRANCH   1  20
HETATM   20  C2  UNL     1      26.208   3.879  60.081  1.00  0.00    -0.014 C 
HETATM   21  C1  UNL     1      27.625   3.603  59.748  1.00  0.00     0.010 C 
BRANCH  20  22
HETATM   22  C3  UNL     1      26.070   5.349  60.402  1.00  0.00     0.005 C 
BRANCH  22  23
HETATM   23  C4  UNL     1      24.937   6.060  59.771  1.00  0.00     0.010 C 
BRANCH  23  24
HETATM   24  C5  UNL     1      25.578   7.162  58.904  1.00  0.00     0.074 C 
BRANCH  24  25
HETATM   25  S1  UNL     1      24.509   7.322  57.437  1.00  0.00    -0.169 SA
BRANCH  25  26
HETATM   26  C6  UNL     1      23.566   5.765  57.295  1.00  0.00     0.075 C 
BRANCH  26  27
HETATM   27  C7  UNL     1      22.621   5.818  56.133  1.00  0.00     0.037 C 
BRANCH  27  28
HETATM   28  C8  UNL     1      22.334   4.407  55.673  1.00  0.00     0.230 C 
BRANCH  28  29
HETATM   29  N1  UNL     1      22.242   4.346  54.228  1.00  0.00    -0.079 N 
ATOM     30  H13 UNL     1      21.273   4.309  53.912  1.00  0.00     0.274 HD
ATOM     31  H12 UNL     1      22.510   5.230  53.795  1.00  0.00     0.274 HD
ATOM     32  H11 UNL     1      22.788   3.566  53.864  1.00  0.00     0.274 HD
ENDBRANCH  28  29
ENDBRANCH  27  28
ENDBRANCH  26  27
ENDBRANCH  25  26
ENDBRANCH  24  25
ENDBRANCH  23  24
ENDBRANCH  22  23
ENDBRANCH  20  22
ENDBRANCH   1  20
BRANCH   8  33
HETATM   33  O1  UNL     1      20.373  -0.822  60.598  1.00  0.00    -0.389 OA
ATOM     34  H1  UNL     1      19.560  -1.311  60.629  1.00  0.00     0.210 HD
ENDBRANCH   8  33
BRANCH  10  35
HETATM   35  O2  UNL     1      19.391  -3.040  56.717  1.00  0.00    -0.395 OA
ATOM     36  H2  UNL     1      19.197  -2.528  55.939  1.00  0.00     0.210 HD
ENDBRANCH  10  35
TORSDOF 11
ENDMDL
MODEL 5
REMARK VINA RESULT: -7.223988895      2.085      3.499
REMARK  11 active torsions:
REMARK  status: ('A' for Active; 'I' for Inactive)
REMARK    1  A    between atoms: C2_2  and  C3_3 
REMARK    2  A    between atoms: C2_2  and  C9_14 
REMARK    3  A    between atoms: C3_3  and  C4_4 
REMARK    4  A    between atoms: C4_4  and  C5_5 
REMARK    5  A    between atoms: C5_5  and  S1_6 
REMARK    6  A    between atoms: S1_6  and  C6_7 
REMARK    7  A    between atoms: C6_7  and  C7_8 
REMARK    8  A    between atoms: C7_8  and  C8_9 
REMARK    9  A    between atoms: C8_9  and  N1_10 
REMARK   10  A    between atoms: C16_21  and  O1_22 
REMARK   11  A    between atoms: C18_25  and  O2_26 
ROOT
HETATM    1  C9  UNL     1      25.646   3.182  60.990  1.00  0.00    -0.002 C 
HETATM    2  C10 UNL     1      26.453   2.014  61.508  1.00  0.00     0.006 C 
HETATM    3  C11 UNL     1      25.450   0.881  61.535  1.00  0.00     0.006 C 
HETATM    4  C12 UNL     1      24.658   1.241  60.298  1.00  0.00    -0.002 C 
HETATM    5  C13 UNL     1      23.618   0.320  59.900  1.00  0.00    -0.005 C 
HETATM    6  C14 UNL     1      23.207  -0.748  60.869  1.00  0.00     0.008 C 
HETATM    7  C15 UNL     1      22.436  -1.784  60.030  1.00  0.00     0.039 C 
HETATM    8  C16 UNL     1      21.196  -1.100  59.474  1.00  0.00     0.068 C 
HETATM    9  C17 UNL     1      20.352  -2.109  58.781  1.00  0.00     0.070 C 
HETATM   10  C18 UNL     1      20.702  -2.340  57.348  1.00  0.00     0.121 C 
HETATM   11  C19 UNL     1      21.020  -1.102  56.575  1.00  0.00     0.032 C 
HETATM   12  C20 UNL     1      22.132  -0.376  57.352  1.00  0.00     0.015 C 
HETATM   13  C21 UNL     1      21.550   0.094  58.618  1.00  0.00    -0.009 C 
HETATM   14  C22 UNL     1      20.222   0.794  58.298  1.00  0.00     0.019 C 
HETATM   15  C23 UNL     1      22.357   1.031  59.435  1.00  0.00     0.001 C 
HETATM   16  C24 UNL     1      22.734   2.283  58.691  1.00  0.00     0.007 C 
HETATM   17  C25 UNL     1      23.547   3.238  59.528  1.00  0.00     0.010 C 
HETATM   18  C26 UNL     1      24.292   2.666  60.648  1.00  0.00    -0.036 C 
HETATM   19  C27 UNL     1      23.424   2.754  61.893  1.00  0.00     0.016 C 
ENDROOT
BRANCH   1  20
HETATM   20  C2  UNL     1      26.350   4.054  60.033  1.00  0.00    -0.014 C 
HETATM   21  C1  UNL     1      27.745   3.714  59.667  1.00  0.00     0.010 C 
BRANCH  20  22
HETATM   22  C3  UNL     1      26.289   5.528  60.362  1.00  0.00     0.005 C 
BRANCH  22  23
HETATM   23  C4  UNL     1      25.292   6.330  59.620  1.00  0.00     0.010 C 
BRANCH  23  24
HETATM   24  C5  UNL     1      26.102   7.127  58.578  1.00  0.00     0.074 C 
BRANCH  24  25
HETATM   25  S1  UNL     1      27.085   8.330  59.529  1.00  0.00    -0.169 SA
BRANCH  25  26
HETATM   26  C6  UNL     1      28.809   8.187  58.945  1.00  0.00     0.075 C 
BRANCH  26  27
HETATM   27  C7  UNL     1      29.667   7.517  59.974  1.00  0.00     0.037 C 
BRANCH  27  28
HETATM   28  C8  UNL     1      29.137   7.857  61.349  1.00  0.00     0.230 C 
BRANCH  28  29
HETATM   29  N1  UNL     1      29.171   6.695  62.214  1.00  0.00    -0.079 N 
ATOM     30  H13 UNL     1      28.769   5.874  61.761  1.00  0.00     0.274 HD
ATOM     31  H12 UNL     1      30.121   6.348  62.343  1.00  0.00     0.274 HD
ATOM     32  H11 UNL     1      28.717   6.894  63.104  1.00  0.00     0.274 HD
ENDBRANCH  28  29
ENDBRANCH  27  28
ENDBRANCH  26  27
ENDBRANCH  25  26
ENDBRANCH  24  25
ENDBRANCH  23  24
ENDBRANCH  22  23
ENDBRANCH  20  22
ENDBRANCH   1  20
BRANCH   8  33
HETATM   33  O1  UNL     1      20.491  -0.613  60.575  1.00  0.00    -0.389 OA
ATOM     34  H1  UNL     1      19.594  -0.906  60.468  1.00  0.00     0.210 HD
ENDBRANCH   8  33
BRANCH  10  35
HETATM   35  O2  UNL     1      19.575  -2.940  56.742  1.00  0.00    -0.395 OA
ATOM     36  H2  UNL     1      19.258  -2.330  56.085  1.00  0.00     0.210 HD
ENDBRANCH  10  35
TORSDOF 11
ENDMDL
