MODEL 1
REMARK VINA RESULT: -7.532834759      0.000      0.000
REMARK  12 active torsions:
REMARK  status: ('A' for Active; 'I' for Inactive)
REMARK    1  A    between atoms: C2_2  and  C14_15 
REMARK    2  A    between atoms: C3_3  and  C4_4 
REMARK    3  A    between atoms: C4_4  and  C5_5 
REMARK    4  A    between atoms: C5_5  and  C6_6 
REMARK    5  A    between atoms: C6_6  and  C9_10 
REMARK    6  A    between atoms: C10_11  and  C11_12 
REMARK    7  A    between atoms: C14_15  and  C15_16 
REMARK    8  A    between atoms: C15_16  and  C17_18 
REMARK    9  A    between atoms: C18_19  and  O1_20 
REMARK   10  A    between atoms: C22_25  and  C24_27 
REMARK   11  A    between atoms: C24_27  and  O2_28 
REMARK   12  A    between atoms: C25_30  and  O3_31 
ROOT
HETATM    1  C6  UNL     1      22.337   4.637  56.354  1.00  0.00     0.063 C 
HETATM    2  C7  UNL     1      22.482   6.187  56.342  1.00  0.00     0.035 C 
HETATM    3  C8  UNL     1      22.344   4.274  54.913  1.00  0.00     0.073 C 
HETATM    4  N1  UNL     1      22.350   4.018  53.767  1.00  0.00    -0.196 NA
ENDROOT
BRANCH   1   5
HETATM    5  C5  UNL     1      23.520   4.144  57.094  1.00  0.00     0.032 C 
BRANCH   5   6
HETATM    6  C4  UNL     1      23.528   4.226  58.567  1.00  0.00     0.029 C 
BRANCH   6   7
HETATM    7  C3  UNL     1      24.728   3.859  59.297  1.00  0.00    -0.024 C 
HETATM    8  C2  UNL     1      24.907   3.105  60.341  1.00  0.00    -0.087 C 
HETATM    9  C1  UNL     1      26.268   2.898  60.886  1.00  0.00     0.043 C 
BRANCH   8  10
HETATM   10  C14 UNL     1      23.788   2.440  61.026  1.00  0.00     0.038 C 
BRANCH  10  11
HETATM   11  C15 UNL     1      23.720   0.974  60.724  1.00  0.00    -0.007 C 
HETATM   12  C16 UNL     1      24.308   0.199  61.896  1.00  0.00     0.011 C 
BRANCH  11  13
HETATM   13  C17 UNL     1      22.422   0.379  60.405  1.00  0.00     0.027 C 
HETATM   14  C18 UNL     1      21.196   1.001  60.994  1.00  0.00     0.123 C 
HETATM   15  C19 UNL     1      20.202  -0.119  61.293  1.00  0.00     0.032 C 
HETATM   16  C20 UNL     1      20.421  -1.274  60.300  1.00  0.00     0.009 C 
HETATM   17  C21 UNL     1      20.799  -0.667  58.988  1.00  0.00     0.007 C 
HETATM   18  C22 UNL     1      20.416  -1.473  57.789  1.00  0.00     0.007 C 
HETATM   19  C28 UNL     1      22.209  -0.124  58.983  1.00  0.00    -0.033 C 
HETATM   20  C23 UNL     1      20.685  -2.934  57.882  1.00  0.00     0.020 C 
HETATM   21  C25 UNL     1      20.994  -0.803  56.565  1.00  0.00     0.128 C 
HETATM   22  C26 UNL     1      21.181   0.669  56.822  1.00  0.00     0.033 C 
HETATM   23  C27 UNL     1      22.202   0.942  57.934  1.00  0.00     0.012 C 
HETATM   24  C29 UNL     1      23.293  -1.116  58.761  1.00  0.00     0.016 C 
BRANCH  14  25
HETATM   25  O1  UNL     1      21.484   1.633  62.172  1.00  0.00    -0.395 OA
ATOM     26  H1  UNL     1      20.690   1.832  62.654  1.00  0.00     0.210 HD
ENDBRANCH  14  25
BRANCH  18  27
HETATM   27  C24 UNL     1      18.890  -1.344  57.636  1.00  0.00     0.176 C 
BRANCH  27  28
HETATM   28  O2  UNL     1      18.289  -2.484  57.183  1.00  0.00    -0.400 OA
ATOM     29  H2  UNL     1      17.342  -2.467  57.254  1.00  0.00     0.209 HD
ENDBRANCH  27  28
ENDBRANCH  18  27
BRANCH  21  30
HETATM   30  O3  UNL     1      20.103  -0.856  55.461  1.00  0.00    -0.395 OA
ATOM     31  H3  UNL     1      20.468  -0.438  54.690  1.00  0.00     0.210 HD
ENDBRANCH  21  30
ENDBRANCH  11  13
ENDBRANCH  10  11
ENDBRANCH   8  10
ENDBRANCH   6   7
ENDBRANCH   5   6
ENDBRANCH   1   5
BRANCH   1  32
HETATM   32  C9  UNL     1      21.029   4.339  56.923  1.00  0.00    -0.006 C 
HETATM   33  C10 UNL     1      19.878   4.698  56.363  1.00  0.00    -0.025 C 
BRANCH  33  34
HETATM   34  C11 UNL     1      18.574   4.361  56.997  1.00  0.00    -0.001 C 
HETATM   35  C12 UNL     1      18.125   5.492  57.915  1.00  0.00     0.013 C 
HETATM   36  C13 UNL     1      18.667   3.071  57.768  1.00  0.00     0.013 C 
ENDBRANCH  33  34
ENDBRANCH   1  32
TORSDOF 12
ENDMDL
MODEL 2
REMARK VINA RESULT: -7.440758693      1.164      2.361
REMARK  12 active torsions:
REMARK  status: ('A' for Active; 'I' for Inactive)
REMARK    1  A    between atoms: C2_2  and  C14_15 
REMARK    2  A    between atoms: C3_3  and  C4_4 
REMARK    3  A    between atoms: C4_4  and  C5_5 
REMARK    4  A    between atoms: C5_5  and  C6_6 
REMARK    5  A    between atoms: C6_6  and  C9_10 
REMARK    6  A    between atoms: C10_11  and  C11_12 
REMARK    7  A    between atoms: C14_15  and  C15_16 
REMARK    8  A    between atoms: C15_16  and  C17_18 
REMARK    9  A    between atoms: C18_19  and  O1_20 
REMARK   10  A    between atoms: C22_25  and  C24_27 
REMARK   11  A    between atoms: C24_27  and  O2_28 
REMARK   12  A    between atoms: C25_30  and  O3_31 
ROOT
HETATM    1  C6  UNL     1      22.239   4.762  56.342  1.00  0.00     0.063 C 
HETATM    2  C7  UNL     1      22.333   4.290  54.861  1.00  0.00     0.035 C 
HETATM    3  C8  UNL     1      20.895   4.297  56.771  1.00  0.00     0.073 C 
HETATM    4  N1  UNL     1      19.826   3.922  57.081  1.00  0.00    -0.196 NA
ENDROOT
BRANCH   1   5
HETATM    5  C5  UNL     1      23.351   4.076  57.037  1.00  0.00     0.032 C 
BRANCH   5   6
HETATM    6  C4  UNL     1      23.345   4.016  58.511  1.00  0.00     0.029 C 
BRANCH   6   7
HETATM    7  C3  UNL     1      24.588   3.779  59.223  1.00  0.00    -0.024 C 
HETATM    8  C2  UNL     1      24.849   3.107  60.305  1.00  0.00    -0.087 C 
HETATM    9  C1  UNL     1      26.236   3.029  60.817  1.00  0.00     0.043 C 
BRANCH   8  10
HETATM   10  C14 UNL     1      23.800   2.411  61.065  1.00  0.00     0.038 C 
BRANCH  10  11
HETATM   11  C15 UNL     1      23.738   0.948  60.751  1.00  0.00    -0.007 C 
HETATM   12  C16 UNL     1      24.336   0.165  61.913  1.00  0.00     0.011 C 
BRANCH  11  13
HETATM   13  C17 UNL     1      22.441   0.349  60.433  1.00  0.00     0.027 C 
HETATM   14  C18 UNL     1      21.214   0.968  61.020  1.00  0.00     0.123 C 
HETATM   15  C19 UNL     1      20.223  -0.154  61.322  1.00  0.00     0.032 C 
HETATM   16  C20 UNL     1      20.445  -1.310  60.332  1.00  0.00     0.009 C 
HETATM   17  C21 UNL     1      20.821  -0.705  59.018  1.00  0.00     0.007 C 
HETATM   18  C22 UNL     1      20.440  -1.515  57.821  1.00  0.00     0.007 C 
HETATM   19  C28 UNL     1      22.230  -0.158  59.012  1.00  0.00    -0.033 C 
HETATM   20  C23 UNL     1      20.713  -2.975  57.918  1.00  0.00     0.020 C 
HETATM   21  C25 UNL     1      21.017  -0.847  56.596  1.00  0.00     0.128 C 
HETATM   22  C26 UNL     1      21.200   0.627  56.849  1.00  0.00     0.033 C 
HETATM   23  C27 UNL     1      22.220   0.905  57.961  1.00  0.00     0.012 C 
HETATM   24  C29 UNL     1      23.317  -1.148  58.792  1.00  0.00     0.016 C 
BRANCH  14  25
HETATM   25  O1  UNL     1      21.500   1.604  62.197  1.00  0.00    -0.395 OA
ATOM     26  H1  UNL     1      21.365   1.025  62.938  1.00  0.00     0.210 HD
ENDBRANCH  14  25
BRANCH  18  27
HETATM   27  C24 UNL     1      18.915  -1.390  57.668  1.00  0.00     0.176 C 
BRANCH  27  28
HETATM   28  O2  UNL     1      18.316  -2.535  57.225  1.00  0.00    -0.400 OA
ATOM     29  H2  UNL     1      18.180  -3.181  57.908  1.00  0.00     0.209 HD
ENDBRANCH  27  28
ENDBRANCH  18  27
BRANCH  21  30
HETATM   30  O3  UNL     1      20.126  -0.905  55.492  1.00  0.00    -0.395 OA
ATOM     31  H3  UNL     1      19.586  -0.126  55.430  1.00  0.00     0.210 HD
ENDBRANCH  21  30
ENDBRANCH  11  13
ENDBRANCH  10  11
ENDBRANCH   8  10
ENDBRANCH   6   7
ENDBRANCH   5   6
ENDBRANCH   1   5
BRANCH   1  32
HETATM   32  C9  UNL     1      22.266   6.219  56.324  1.00  0.00    -0.006 C 
HETATM   33  C10 UNL     1      23.365   6.941  56.513  1.00  0.00    -0.025 C 
BRANCH  33  34
HETATM   34  C11 UNL     1      23.324   8.429  56.483  1.00  0.00    -0.001 C 
HETATM   35  C12 UNL     1      23.934   9.001  57.758  1.00  0.00     0.013 C 
HETATM   36  C13 UNL     1      21.913   8.925  56.313  1.00  0.00     0.013 C 
ENDBRANCH  33  34
ENDBRANCH   1  32
TORSDOF 12
ENDMDL
MODEL 3
REMARK VINA RESULT: -7.190448632      2.255      3.941
REMARK  12 active torsions:
REMARK  status: ('A' for Active; 'I' for Inactive)
REMARK    1  A    between atoms: C2_2  and  C14_15 
REMARK    2  A    between atoms: C3_3  and  C4_4 
REMARK    3  A    between atoms: C4_4  and  C5_5 
REMARK    4  A    between atoms: C5_5  and  C6_6 
REMARK    5  A    between atoms: C6_6  and  C9_10 
REMARK    6  A    between atoms: C10_11  and  C11_12 
REMARK    7  A    between atoms: C14_15  and  C15_16 
REMARK    8  A    between atoms: C15_16  and  C17_18 
REMARK    9  A    between atoms: C18_19  and  O1_20 
REMARK   10  A    between atoms: C22_25  and  C24_27 
REMARK   11  A    between atoms: C24_27  and  O2_28 
REMARK   12  A    between atoms: C25_30  and  O3_31 
ROOT
HETATM    1  C6  UNL     1      24.603   3.614  60.404  1.00  0.00     0.063 C 
HETATM    2  C7  UNL     1      24.486   5.107  60.832  1.00  0.00     0.035 C 
HETATM    3  C8  UNL     1      26.067   3.363  60.412  1.00  0.00     0.073 C 
HETATM    4  N1  UNL     1      27.229   3.194  60.423  1.00  0.00    -0.196 NA
ENDROOT
BRANCH   1   5
HETATM    5  C5  UNL     1      23.867   2.857  61.442  1.00  0.00     0.032 C 
BRANCH   5   6
HETATM    6  C4  UNL     1      24.524   1.701  62.083  1.00  0.00     0.029 C 
BRANCH   6   7
HETATM    7  C3  UNL     1      24.288   0.366  61.564  1.00  0.00    -0.024 C 
HETATM    8  C2  UNL     1      23.188  -0.279  61.309  1.00  0.00    -0.087 C 
HETATM    9  C1  UNL     1      23.243  -1.659  60.772  1.00  0.00     0.043 C 
BRANCH   8  10
HETATM   10  C14 UNL     1      21.863   0.311  61.545  1.00  0.00     0.038 C 
BRANCH  10  11
HETATM   11  C15 UNL     1      20.749  -0.572  61.071  1.00  0.00    -0.007 C 
HETATM   12  C16 UNL     1      19.917  -1.007  62.271  1.00  0.00     0.011 C 
BRANCH  11  13
HETATM   13  C17 UNL     1      19.828  -0.062  60.054  1.00  0.00     0.027 C 
HETATM   14  C18 UNL     1      19.472   1.389  60.088  1.00  0.00     0.123 C 
HETATM   15  C19 UNL     1      18.018   1.523  59.641  1.00  0.00     0.032 C 
HETATM   16  C20 UNL     1      17.676   0.380  58.670  1.00  0.00     0.009 C 
HETATM   17  C21 UNL     1      18.898   0.109  57.853  1.00  0.00     0.007 C 
HETATM   18  C22 UNL     1      18.633  -0.432  56.485  1.00  0.00     0.007 C 
HETATM   19  C28 UNL     1      19.974  -0.606  58.638  1.00  0.00    -0.033 C 
HETATM   20  C23 UNL     1      17.599  -1.500  56.404  1.00  0.00     0.020 C 
HETATM   21  C25 UNL     1      19.957  -0.789  55.854  1.00  0.00     0.128 C 
HETATM   22  C26 UNL     1      21.058   0.044  56.457  1.00  0.00     0.033 C 
HETATM   23  C27 UNL     1      21.251  -0.238  57.952  1.00  0.00     0.012 C 
HETATM   24  C29 UNL     1      19.819  -2.078  58.774  1.00  0.00     0.016 C 
BRANCH  14  25
HETATM   25  O1  UNL     1      19.568   1.889  61.357  1.00  0.00    -0.395 OA
ATOM     26  H1  UNL     1      19.673   2.833  61.345  1.00  0.00     0.210 HD
ENDBRANCH  14  25
BRANCH  18  27
HETATM   27  C24 UNL     1      18.087   0.734  55.644  1.00  0.00     0.176 C 
BRANCH  27  28
HETATM   28  O2  UNL     1      17.310   0.334  54.595  1.00  0.00    -0.400 OA
ATOM     29  H2  UNL     1      16.505   0.831  54.508  1.00  0.00     0.209 HD
ENDBRANCH  27  28
ENDBRANCH  18  27
BRANCH  21  30
HETATM   30  O3  UNL     1      19.990  -0.467  54.472  1.00  0.00    -0.395 OA
ATOM     31  H3  UNL     1      19.123  -0.286  54.129  1.00  0.00     0.210 HD
ENDBRANCH  21  30
ENDBRANCH  11  13
ENDBRANCH  10  11
ENDBRANCH   8  10
ENDBRANCH   6   7
ENDBRANCH   5   6
ENDBRANCH   1   5
BRANCH   1  32
HETATM   32  C9  UNL     1      24.102   3.525  59.039  1.00  0.00    -0.006 C 
HETATM   33  C10 UNL     1      23.878   4.578  58.261  1.00  0.00    -0.025 C 
BRANCH  33  34
HETATM   34  C11 UNL     1      23.365   4.417  56.873  1.00  0.00    -0.001 C 
HETATM   35  C12 UNL     1      22.237   5.408  56.607  1.00  0.00     0.013 C 
HETATM   36  C13 UNL     1      22.888   3.009  56.636  1.00  0.00     0.013 C 
ENDBRANCH  33  34
ENDBRANCH   1  32
TORSDOF 12
ENDMDL
MODEL 4
REMARK VINA RESULT: -7.131314456      3.275      5.964
REMARK  12 active torsions:
REMARK  status: ('A' for Active; 'I' for Inactive)
REMARK    1  A    between atoms: C2_2  and  C14_15 
REMARK    2  A    between atoms: C3_3  and  C4_4 
REMARK    3  A    between atoms: C4_4  and  C5_5 
REMARK    4  A    between atoms: C5_5  and  C6_6 
REMARK    5  A    between atoms: C6_6  and  C9_10 
REMARK    6  A    between atoms: C10_11  and  C11_12 
REMARK    7  A    between atoms: C14_15  and  C15_16 
REMARK    8  A    between atoms: C15_16  and  C17_18 
REMARK    9  A    between atoms: C18_19  and  O1_20 
REMARK   10  A    between atoms: C22_25  and  C24_27 
REMARK   11  A    between atoms: C24_27  and  O2_28 
REMARK   12  A    between atoms: C25_30  and  O3_31 
ROOT
HETATM    1  C6  UNL     1      18.833   1.533  54.387  1.00  0.00     0.063 C 
HETATM    2  C7  UNL     1      17.643   2.099  55.218  1.00  0.00     0.035 C 
HETATM    3  C8  UNL     1      19.970   2.412  54.763  1.00  0.00     0.073 C 
HETATM    4  N1  UNL     1      20.849   3.125  55.076  1.00  0.00    -0.196 NA
ENDROOT
BRANCH   1   5
HETATM    5  C5  UNL     1      18.991   0.134  54.844  1.00  0.00     0.032 C 
BRANCH   5   6
HETATM    6  C4  UNL     1      17.795  -0.621  55.264  1.00  0.00     0.029 C 
BRANCH   6   7
HETATM    7  C3  UNL     1      17.955  -1.887  55.955  1.00  0.00    -0.024 C 
HETATM    8  C2  UNL     1      17.659  -2.252  57.168  1.00  0.00    -0.087 C 
HETATM    9  C1  UNL     1      17.935  -3.636  57.617  1.00  0.00     0.043 C 
BRANCH   8  10
HETATM   10  C14 UNL     1      17.056  -1.326  58.138  1.00  0.00     0.038 C 
BRANCH  10  11
HETATM   11  C15 UNL     1      17.943  -0.159  58.445  1.00  0.00    -0.007 C 
HETATM   12  C16 UNL     1      17.088   0.992  58.961  1.00  0.00     0.011 C 
BRANCH  11  13
HETATM   13  C17 UNL     1      19.052  -0.342  59.382  1.00  0.00     0.027 C 
HETATM   14  C18 UNL     1      18.962  -1.457  60.374  1.00  0.00     0.123 C 
HETATM   15  C19 UNL     1      19.626  -0.988  61.666  1.00  0.00     0.032 C 
HETATM   16  C20 UNL     1      20.727   0.034  61.331  1.00  0.00     0.009 C 
HETATM   17  C21 UNL     1      21.354  -0.392  60.044  1.00  0.00     0.007 C 
HETATM   18  C22 UNL     1      22.785   0.006  59.879  1.00  0.00     0.007 C 
HETATM   19  C28 UNL     1      20.465  -0.132  58.850  1.00  0.00    -0.033 C 
HETATM   20  C23 UNL     1      23.116   1.401  60.283  1.00  0.00     0.020 C 
HETATM   21  C25 UNL     1      23.220  -0.364  58.481  1.00  0.00     0.128 C 
HETATM   22  C26 UNL     1      22.384  -1.506  57.965  1.00  0.00     0.033 C 
HETATM   23  C27 UNL     1      20.904  -1.128  57.825  1.00  0.00     0.012 C 
HETATM   24  C29 UNL     1      20.471   1.256  58.317  1.00  0.00     0.016 C 
BRANCH  14  25
HETATM   25  O1  UNL     1      17.659  -1.758  60.657  1.00  0.00    -0.395 OA
ATOM     26  H1  UNL     1      17.529  -2.698  60.704  1.00  0.00     0.210 HD
ENDBRANCH  14  25
BRANCH  18  27
HETATM   27  C24 UNL     1      23.609  -0.899  60.810  1.00  0.00     0.176 C 
BRANCH  27  28
HETATM   28  O2  UNL     1      24.848  -0.402  61.099  1.00  0.00    -0.400 OA
ATOM     29  H2  UNL     1      24.829   0.473  61.469  1.00  0.00     0.209 HD
ENDBRANCH  27  28
ENDBRANCH  18  27
BRANCH  21  30
HETATM   30  O3  UNL     1      24.549  -0.862  58.454  1.00  0.00    -0.395 OA
ATOM     31  H3  UNL     1      24.840  -1.048  57.569  1.00  0.00     0.210 HD
ENDBRANCH  21  30
ENDBRANCH  11  13
ENDBRANCH  10  11
ENDBRANCH   8  10
ENDBRANCH   6   7
ENDBRANCH   5   6
ENDBRANCH   1   5
BRANCH   1  32
HETATM   32  C9  UNL     1      18.504   1.739  52.983  1.00  0.00    -0.006 C 
HETATM   33  C10 UNL     1      17.296   1.539  52.468  1.00  0.00    -0.025 C 
BRANCH  33  34
HETATM   34  C11 UNL     1      17.026   1.768  51.022  1.00  0.00    -0.001 C 
HETATM   35  C12 UNL     1      16.353   0.545  50.409  1.00  0.00     0.013 C 
HETATM   36  C13 UNL     1      18.298   2.089  50.281  1.00  0.00     0.013 C 
ENDBRANCH  33  34
ENDBRANCH   1  32
TORSDOF 12
ENDMDL
MODEL 5
REMARK VINA RESULT: -7.123714702      1.493      2.671
REMARK  12 active torsions:
REMARK  status: ('A' for Active; 'I' for Inactive)
REMARK    1  A    between atoms: C2_2  and  C14_15 
REMARK    2  A    between atoms: C3_3  and  C4_4 
REMARK    3  A    between atoms: C4_4  and  C5_5 
REMARK    4  A    between atoms: C5_5  and  C6_6 
REMARK    5  A    between atoms: C6_6  and  C9_10 
REMARK    6  A    between atoms: C10_11  and  C11_12 
REMARK    7  A    between atoms: C14_15  and  C15_16 
REMARK    8  A    between atoms: C15_16  and  C17_18 
REMARK    9  A    between atoms: C18_19  and  O1_20 
REMARK   10  A    between atoms: C22_25  and  C24_27 
REMARK   11  A    between atoms: C24_27  and  O2_28 
REMARK   12  A    between atoms: C25_30  and  O3_31 
ROOT
HETATM    1  C6  UNL     1      22.396   4.436  56.411  1.00  0.00     0.063 C 
HETATM    2  C7  UNL     1      22.983   5.856  56.663  1.00  0.00     0.035 C 
HETATM    3  C8  UNL     1      22.469   4.285  54.935  1.00  0.00     0.073 C 
HETATM    4  N1  UNL     1      22.535   4.196  53.765  1.00  0.00    -0.196 NA
ENDROOT
BRANCH   1   5
HETATM    5  C5  UNL     1      23.292   3.513  57.144  1.00  0.00     0.032 C 
BRANCH   5   6
HETATM    6  C4  UNL     1      23.244   3.490  58.618  1.00  0.00     0.029 C 
BRANCH   6   7
HETATM    7  C3  UNL     1      24.483   3.479  59.374  1.00  0.00    -0.024 C 
HETATM    8  C2  UNL     1      24.855   2.791  60.413  1.00  0.00    -0.087 C 
HETATM    9  C1  UNL     1      26.205   2.985  60.990  1.00  0.00     0.043 C 
BRANCH   8  10
HETATM   10  C14 UNL     1      23.969   1.812  61.061  1.00  0.00     0.038 C 
BRANCH  10  11
HETATM   11  C15 UNL     1      24.040   0.461  60.420  1.00  0.00    -0.007 C 
HETATM   12  C16 UNL     1      24.188  -0.596  61.507  1.00  0.00     0.011 C 
BRANCH  11  13
HETATM   13  C17 UNL     1      22.951   0.040  59.537  1.00  0.00     0.027 C 
HETATM   14  C18 UNL     1      23.266  -0.915  58.432  1.00  0.00     0.123 C 
HETATM   15  C19 UNL     1      22.385  -0.555  57.238  1.00  0.00     0.032 C 
HETATM   16  C20 UNL     1      21.074   0.071  57.743  1.00  0.00     0.009 C 
HETATM   17  C21 UNL     1      20.709  -0.624  59.015  1.00  0.00     0.007 C 
HETATM   18  C22 UNL     1      19.244  -0.674  59.307  1.00  0.00     0.007 C 
HETATM   19  C28 UNL     1      21.590  -0.214  60.173  1.00  0.00    -0.033 C 
HETATM   20  C23 UNL     1      18.497   0.592  59.070  1.00  0.00     0.020 C 
HETATM   21  C25 UNL     1      19.057  -1.267  60.682  1.00  0.00     0.128 C 
HETATM   22  C26 UNL     1      20.225  -2.155  61.026  1.00  0.00     0.033 C 
HETATM   23  C27 UNL     1      21.543  -1.375  61.115  1.00  0.00     0.012 C 
HETATM   24  C29 UNL     1      21.236   1.063  60.847  1.00  0.00     0.016 C 
BRANCH  14  25
HETATM   25  O1  UNL     1      24.571  -0.799  58.041  1.00  0.00    -0.395 OA
ATOM     26  H1  UNL     1      24.745  -1.329  57.271  1.00  0.00     0.210 HD
ENDBRANCH  14  25
BRANCH  18  27
HETATM   27  C24 UNL     1      18.633  -1.700  58.338  1.00  0.00     0.176 C 
BRANCH  27  28
HETATM   28  O2  UNL     1      17.340  -1.425  57.996  1.00  0.00    -0.400 OA
ATOM     29  H2  UNL     1      17.156  -0.496  57.926  1.00  0.00     0.209 HD
ENDBRANCH  27  28
ENDBRANCH  18  27
BRANCH  21  30
HETATM   30  O3  UNL     1      17.932  -2.131  60.738  1.00  0.00    -0.395 OA
ATOM     31  H3  UNL     1      17.272  -1.816  61.344  1.00  0.00     0.210 HD
ENDBRANCH  21  30
ENDBRANCH  11  13
ENDBRANCH  10  11
ENDBRANCH   8  10
ENDBRANCH   6   7
ENDBRANCH   5   6
ENDBRANCH   1   5
BRANCH   1  32
HETATM   32  C9  UNL     1      21.000   4.475  56.827  1.00  0.00    -0.006 C 
HETATM   33  C10 UNL     1      20.172   3.440  56.737  1.00  0.00    -0.025 C 
BRANCH  33  34
HETATM   34  C11 UNL     1      18.755   3.546  57.181  1.00  0.00    -0.001 C 
HETATM   35  C12 UNL     1      17.813   3.316  56.004  1.00  0.00     0.013 C 
HETATM   36  C13 UNL     1      18.486   4.889  57.807  1.00  0.00     0.013 C 
ENDBRANCH  33  34
ENDBRANCH   1  32
TORSDOF 12
ENDMDL
