MODEL 1
REMARK VINA RESULT: -7.469559407      0.000      0.000
REMARK  14 active torsions:
REMARK  status: ('A' for Active; 'I' for Inactive)
REMARK    1  A    between atoms: C2_2  and  C3_3 
REMARK    2  A    between atoms: C3_3  and  C4_4 
REMARK    3  A    between atoms: C3_3  and  C20_22 
REMARK    4  A    between atoms: C4_4  and  C5_5 
REMARK    5  A    between atoms: C5_5  and  O1_7 
REMARK    6  A    between atoms: C5_5  and  C7_9 
REMARK    7  A    between atoms: C7_9  and  C9_11 
REMARK    8  A    between atoms: C9_11  and  C10_12 
REMARK    9  A    between atoms: C10_12  and  C12_14 
REMARK   10  A    between atoms: C13_15  and  C15_17 
REMARK   11  A    between atoms: C15_17  and  C18_20 
REMARK   12  A    between atoms: C23_25  and  O2_27 
REMARK   13  A    between atoms: C25_29  and  C26_30 
REMARK   14  A    between atoms: C26_30  and  O3_33 
ROOT
HETATM    1  C3  UNL     1      21.084  -1.289  60.208  1.00  0.00     0.044 C 
ENDROOT
BRANCH   1   2
HETATM    2  C2  UNL     1      21.380  -2.195  61.321  1.00  0.00    -0.029 C 
HETATM    3  C1  UNL     1      20.330  -2.786  61.942  1.00  0.00     0.007 C 
ENDBRANCH   1   2
BRANCH   1   4
HETATM    4  C4  UNL     1      20.465  -1.898  58.998  1.00  0.00     0.050 C 
BRANCH   4   5
HETATM    5  C5  UNL     1      19.181  -1.328  58.509  1.00  0.00     0.068 C 
HETATM    6  C6  UNL     1      17.925  -1.982  58.919  1.00  0.00     0.047 C 
BRANCH   5   7
HETATM    7  O1  UNL     1      19.135   0.049  58.785  1.00  0.00    -0.389 OA
ATOM      8  H1  UNL     1      18.511   0.217  59.481  1.00  0.00     0.210 HD
ENDBRANCH   5   7
BRANCH   5   9
HETATM    9  C7  UNL     1      19.301  -1.483  56.940  1.00  0.00     0.082 C 
HETATM   10  C8  UNL     1      20.323  -2.511  56.578  1.00  0.00     0.025 C 
BRANCH   9  11
HETATM   11  C9  UNL     1      18.556  -0.817  56.281  1.00  0.00    -0.167 C 
BRANCH  11  12
HETATM   12  C10 UNL     1      17.644  -0.002  55.473  1.00  0.00     0.071 C 
HETATM   13  C11 UNL     1      16.628  -0.897  54.690  1.00  0.00     0.027 C 
BRANCH  12  14
HETATM   14  C12 UNL     1      18.373   0.722  54.356  1.00  0.00    -0.008 C 
HETATM   15  C13 UNL     1      18.104   2.013  54.115  1.00  0.00    -0.075 C 
HETATM   16  C14 UNL     1      17.123   2.743  54.913  1.00  0.00     0.044 C 
BRANCH  15  17
HETATM   17  C15 UNL     1      18.791   2.674  52.995  1.00  0.00    -0.008 C 
HETATM   18  C16 UNL     1      17.983   3.912  52.600  1.00  0.00     0.024 C 
HETATM   19  C17 UNL     1      20.130   3.260  53.543  1.00  0.00     0.024 C 
BRANCH  17  20
HETATM   20  C18 UNL     1      19.120   1.810  51.875  1.00  0.00    -0.024 C 
HETATM   21  C19 UNL     1      18.580   1.748  50.715  1.00  0.00     0.008 C 
ENDBRANCH  17  20
ENDBRANCH  15  17
ENDBRANCH  12  14
ENDBRANCH  11  12
ENDBRANCH   9  11
ENDBRANCH   5   9
ENDBRANCH   4   5
ENDBRANCH   1   4
BRANCH   1  22
HETATM   22  C20 UNL     1      22.388  -0.547  59.737  1.00  0.00     0.067 C 
HETATM   23  C21 UNL     1      22.945  -1.448  58.650  1.00  0.00     0.047 C 
HETATM   24  C22 UNL     1      23.263  -0.540  60.946  1.00  0.00     0.076 C 
HETATM   25  C23 UNL     1      24.326   0.556  60.945  1.00  0.00     0.065 C 
HETATM   26  C24 UNL     1      24.645   0.791  62.375  1.00  0.00     0.046 C 
HETATM   27  C25 UNL     1      23.893   1.658  60.104  1.00  0.00     0.077 C 
HETATM   28  C29 UNL     1      22.392   1.725  60.066  1.00  0.00     0.179 C 
HETATM   29  O4  UNL     1      22.008   0.647  59.225  1.00  0.00    -0.379 OA
BRANCH  25  30
HETATM   30  O2  UNL     1      25.478  -0.039  60.361  1.00  0.00    -0.390 OA
ATOM     31  H2  UNL     1      25.613   0.426  59.544  1.00  0.00     0.210 HD
ENDBRANCH  25  30
BRANCH  27  32
HETATM   32  C26 UNL     1      24.445   3.036  60.335  1.00  0.00     0.059 C 
HETATM   33  C27 UNL     1      25.871   3.102  60.751  1.00  0.00     0.046 C 
HETATM   34  C28 UNL     1      24.248   3.917  59.111  1.00  0.00     0.046 C 
BRANCH  32  35
HETATM   35  O3  UNL     1      23.676   3.611  61.330  1.00  0.00    -0.390 OA
ATOM     36  H3  UNL     1      23.875   4.540  61.326  1.00  0.00     0.210 HD
ENDBRANCH  32  35
ENDBRANCH  27  32
ENDBRANCH   1  22
TORSDOF 14
ENDMDL
MODEL 2
REMARK VINA RESULT: -7.441277866      4.195      9.909
REMARK  14 active torsions:
REMARK  status: ('A' for Active; 'I' for Inactive)
REMARK    1  A    between atoms: C2_2  and  C3_3 
REMARK    2  A    between atoms: C3_3  and  C4_4 
REMARK    3  A    between atoms: C3_3  and  C20_22 
REMARK    4  A    between atoms: C4_4  and  C5_5 
REMARK    5  A    between atoms: C5_5  and  O1_7 
REMARK    6  A    between atoms: C5_5  and  C7_9 
REMARK    7  A    between atoms: C7_9  and  C9_11 
REMARK    8  A    between atoms: C9_11  and  C10_12 
REMARK    9  A    between atoms: C10_12  and  C12_14 
REMARK   10  A    between atoms: C13_15  and  C15_17 
REMARK   11  A    between atoms: C15_17  and  C18_20 
REMARK   12  A    between atoms: C23_25  and  O2_27 
REMARK   13  A    between atoms: C25_29  and  C26_30 
REMARK   14  A    between atoms: C26_30  and  O3_33 
ROOT
HETATM    1  C3  UNL     1      25.188   1.616  60.551  1.00  0.00     0.044 C 
ENDROOT
BRANCH   1   2
HETATM    2  C2  UNL     1      25.758   0.439  61.212  1.00  0.00    -0.029 C 
HETATM    3  C1  UNL     1      26.819  -0.160  60.617  1.00  0.00     0.007 C 
ENDBRANCH   1   2
BRANCH   1   4
HETATM    4  C4  UNL     1      25.681   2.944  61.010  1.00  0.00     0.050 C 
BRANCH   4   5
HETATM    5  C5  UNL     1      26.306   3.843  60.003  1.00  0.00     0.068 C 
HETATM    6  C6  UNL     1      27.759   3.738  59.777  1.00  0.00     0.047 C 
BRANCH   5   7
HETATM    7  O1  UNL     1      25.609   3.753  58.786  1.00  0.00    -0.389 OA
ATOM      8  H1  UNL     1      25.045   4.510  58.681  1.00  0.00     0.210 HD
ENDBRANCH   5   7
BRANCH   5   9
HETATM    9  C7  UNL     1      26.024   5.283  60.592  1.00  0.00     0.082 C 
HETATM   10  C8  UNL     1      24.567   5.609  60.540  1.00  0.00     0.025 C 
BRANCH   9  11
HETATM   11  C9  UNL     1      26.970   5.876  61.024  1.00  0.00    -0.167 C 
BRANCH  11  12
HETATM   12  C10 UNL     1      28.128   6.603  61.553  1.00  0.00     0.071 C 
HETATM   13  C11 UNL     1      28.103   6.649  63.116  1.00  0.00     0.027 C 
BRANCH  12  14
HETATM   14  C12 UNL     1      28.089   8.073  61.179  1.00  0.00    -0.008 C 
HETATM   15  C13 UNL     1      28.979   8.560  60.302  1.00  0.00    -0.075 C 
HETATM   16  C14 UNL     1      29.986   7.697  59.691  1.00  0.00     0.044 C 
BRANCH  15  17
HETATM   17  C15 UNL     1      28.947   9.997  59.997  1.00  0.00    -0.008 C 
HETATM   18  C16 UNL     1      29.940  10.269  58.864  1.00  0.00     0.024 C 
HETATM   19  C17 UNL     1      27.557  10.314  59.361  1.00  0.00     0.024 C 
BRANCH  17  20
HETATM   20  C18 UNL     1      29.113  10.877  61.141  1.00  0.00    -0.024 C 
HETATM   21  C19 UNL     1      29.516  12.092  61.175  1.00  0.00     0.008 C 
ENDBRANCH  17  20
ENDBRANCH  15  17
ENDBRANCH  12  14
ENDBRANCH  11  12
ENDBRANCH   9  11
ENDBRANCH   5   9
ENDBRANCH   4   5
ENDBRANCH   1   4
BRANCH   1  22
HETATM   22  C20 UNL     1      23.622   1.628  60.697  1.00  0.00     0.067 C 
HETATM   23  C21 UNL     1      23.379   2.492  61.920  1.00  0.00     0.047 C 
HETATM   24  C22 UNL     1      23.267   0.201  60.953  1.00  0.00     0.076 C 
HETATM   25  C23 UNL     1      21.826  -0.159  60.599  1.00  0.00     0.065 C 
HETATM   26  C24 UNL     1      21.844  -1.620  60.335  1.00  0.00     0.046 C 
HETATM   27  C25 UNL     1      21.325   0.757  59.590  1.00  0.00     0.077 C 
HETATM   28  C29 UNL     1      22.458   1.276  58.749  1.00  0.00     0.179 C 
HETATM   29  O4  UNL     1      23.120   2.215  59.585  1.00  0.00    -0.379 OA
BRANCH  25  30
HETATM   30  O2  UNL     1      21.087   0.031  61.798  1.00  0.00    -0.390 OA
ATOM     31  H2  UNL     1      21.143  -0.797  62.261  1.00  0.00     0.210 HD
ENDBRANCH  25  30
BRANCH  27  32
HETATM   32  C26 UNL     1      20.194   0.337  58.694  1.00  0.00     0.059 C 
HETATM   33  C27 UNL     1      19.393   1.440  58.100  1.00  0.00     0.046 C 
HETATM   34  C28 UNL     1      20.689  -0.570  57.576  1.00  0.00     0.046 C 
BRANCH  32  35
HETATM   35  O3  UNL     1      19.352  -0.448  59.459  1.00  0.00    -0.390 OA
ATOM     36  H3  UNL     1      19.031   0.103  60.163  1.00  0.00     0.210 HD
ENDBRANCH  32  35
ENDBRANCH  27  32
ENDBRANCH   1  22
TORSDOF 14
ENDMDL
MODEL 3
REMARK VINA RESULT: -7.402360322      1.991      3.080
REMARK  14 active torsions:
REMARK  status: ('A' for Active; 'I' for Inactive)
REMARK    1  A    between atoms: C2_2  and  C3_3 
REMARK    2  A    between atoms: C3_3  and  C4_4 
REMARK    3  A    between atoms: C3_3  and  C20_22 
REMARK    4  A    between atoms: C4_4  and  C5_5 
REMARK    5  A    between atoms: C5_5  and  O1_7 
REMARK    6  A    between atoms: C5_5  and  C7_9 
REMARK    7  A    between atoms: C7_9  and  C9_11 
REMARK    8  A    between atoms: C9_11  and  C10_12 
REMARK    9  A    between atoms: C10_12  and  C12_14 
REMARK   10  A    between atoms: C13_15  and  C15_17 
REMARK   11  A    between atoms: C15_17  and  C18_20 
REMARK   12  A    between atoms: C23_25  and  O2_27 
REMARK   13  A    between atoms: C25_29  and  C26_30 
REMARK   14  A    between atoms: C26_30  and  O3_33 
ROOT
HETATM    1  C3  UNL     1      21.018  -0.840  57.996  1.00  0.00     0.044 C 
ENDROOT
BRANCH   1   2
HETATM    2  C2  UNL     1      21.084  -2.249  58.390  1.00  0.00    -0.029 C 
HETATM    3  C1  UNL     1      20.136  -3.082  57.893  1.00  0.00     0.007 C 
ENDBRANCH   1   2
BRANCH   1   4
HETATM    4  C4  UNL     1      20.661  -0.558  56.578  1.00  0.00     0.050 C 
BRANCH   4   5
HETATM    5  C5  UNL     1      19.783   0.610  56.298  1.00  0.00     0.068 C 
HETATM    6  C6  UNL     1      18.923   1.114  57.384  1.00  0.00     0.047 C 
BRANCH   5   7
HETATM    7  O1  UNL     1      20.542   1.654  55.743  1.00  0.00    -0.389 OA
ATOM      8  H1  UNL     1      20.078   2.033  55.005  1.00  0.00     0.210 HD
ENDBRANCH   5   7
BRANCH   5   9
HETATM    9  C7  UNL     1      18.832   0.071  55.156  1.00  0.00     0.082 C 
HETATM   10  C8  UNL     1      18.210  -1.232  55.545  1.00  0.00     0.025 C 
BRANCH   9  11
HETATM   11  C9  UNL     1      18.707   0.770  54.193  1.00  0.00    -0.167 C 
BRANCH  11  12
HETATM   12  C10 UNL     1      18.551   1.626  53.013  1.00  0.00     0.071 C 
HETATM   13  C11 UNL     1      19.234   3.016  53.227  1.00  0.00     0.027 C 
BRANCH  12  14
HETATM   14  C12 UNL     1      17.101   2.004  52.778  1.00  0.00    -0.008 C 
HETATM   15  C13 UNL     1      16.578   1.901  51.547  1.00  0.00    -0.075 C 
HETATM   16  C14 UNL     1      17.378   1.424  50.424  1.00  0.00     0.044 C 
BRANCH  15  17
HETATM   17  C15 UNL     1      15.184   2.321  51.342  1.00  0.00    -0.008 C 
HETATM   18  C16 UNL     1      14.697   1.733  50.015  1.00  0.00     0.024 C 
HETATM   19  C17 UNL     1      14.310   1.599  52.415  1.00  0.00     0.024 C 
BRANCH  17  20
HETATM   20  C18 UNL     1      14.942   3.748  51.471  1.00  0.00    -0.024 C 
HETATM   21  C19 UNL     1      13.831   4.385  51.445  1.00  0.00     0.008 C 
ENDBRANCH  17  20
ENDBRANCH  15  17
ENDBRANCH  12  14
ENDBRANCH  11  12
ENDBRANCH   9  11
ENDBRANCH   5   9
ENDBRANCH   4   5
ENDBRANCH   1   4
BRANCH   1  22
HETATM   22  C20 UNL     1      22.389  -0.122  58.279  1.00  0.00     0.067 C 
HETATM   23  C21 UNL     1      23.212  -0.410  57.037  1.00  0.00     0.047 C 
HETATM   24  C22 UNL     1      22.934  -0.829  59.475  1.00  0.00     0.076 C 
HETATM   25  C23 UNL     1      23.948  -0.017  60.276  1.00  0.00     0.065 C 
HETATM   26  C24 UNL     1      23.896  -0.574  61.650  1.00  0.00     0.046 C 
HETATM   27  C25 UNL     1      23.725   1.401  60.056  1.00  0.00     0.077 C 
HETATM   28  C29 UNL     1      22.280   1.655  59.728  1.00  0.00     0.179 C 
HETATM   29  O4  UNL     1      22.133   1.203  58.390  1.00  0.00    -0.379 OA
BRANCH  25  30
HETATM   30  O2  UNL     1      25.217  -0.368  59.740  1.00  0.00    -0.390 OA
ATOM     31  H2  UNL     1      25.853  -0.040  60.365  1.00  0.00     0.210 HD
ENDBRANCH  25  30
BRANCH  27  32
HETATM   32  C26 UNL     1      24.184   2.398  61.082  1.00  0.00     0.059 C 
HETATM   33  C27 UNL     1      25.289   1.952  61.971  1.00  0.00     0.046 C 
HETATM   34  C28 UNL     1      24.577   3.715  60.430  1.00  0.00     0.046 C 
BRANCH  32  35
HETATM   35  O3  UNL     1      23.086   2.691  61.870  1.00  0.00    -0.390 OA
ATOM     36  H3  UNL     1      22.873   3.603  61.713  1.00  0.00     0.210 HD
ENDBRANCH  32  35
ENDBRANCH  27  32
ENDBRANCH   1  22
TORSDOF 14
ENDMDL
MODEL 4
REMARK VINA RESULT: -7.300858541      1.844      2.775
REMARK  14 active torsions:
REMARK  status: ('A' for Active; 'I' for Inactive)
REMARK    1  A    between atoms: C2_2  and  C3_3 
REMARK    2  A    between atoms: C3_3  and  C4_4 
REMARK    3  A    between atoms: C3_3  and  C20_22 
REMARK    4  A    between atoms: C4_4  and  C5_5 
REMARK    5  A    between atoms: C5_5  and  O1_7 
REMARK    6  A    between atoms: C5_5  and  C7_9 
REMARK    7  A    between atoms: C7_9  and  C9_11 
REMARK    8  A    between atoms: C9_11  and  C10_12 
REMARK    9  A    between atoms: C10_12  and  C12_14 
REMARK   10  A    between atoms: C13_15  and  C15_17 
REMARK   11  A    between atoms: C15_17  and  C18_20 
REMARK   12  A    between atoms: C23_25  and  O2_27 
REMARK   13  A    between atoms: C25_29  and  C26_30 
REMARK   14  A    between atoms: C26_30  and  O3_33 
ROOT
HETATM    1  C3  UNL     1      20.404  -1.463  59.759  1.00  0.00     0.044 C 
ENDROOT
BRANCH   1   2
HETATM    2  C2  UNL     1      20.765  -2.400  60.825  1.00  0.00    -0.029 C 
HETATM    3  C1  UNL     1      20.011  -2.386  61.952  1.00  0.00     0.007 C 
ENDBRANCH   1   2
BRANCH   1   4
HETATM    4  C4  UNL     1      19.850  -2.053  58.509  1.00  0.00     0.050 C 
BRANCH   4   5
HETATM    5  C5  UNL     1      18.378  -1.989  58.299  1.00  0.00     0.068 C 
HETATM    6  C6  UNL     1      17.825  -2.554  57.054  1.00  0.00     0.047 C 
BRANCH   5   7
HETATM    7  O1  UNL     1      17.714  -2.516  59.419  1.00  0.00    -0.389 OA
ATOM      8  H1  UNL     1      17.262  -3.316  59.178  1.00  0.00     0.210 HD
ENDBRANCH   5   7
BRANCH   5   9
HETATM    9  C7  UNL     1      18.092  -0.435  58.279  1.00  0.00     0.082 C 
HETATM   10  C8  UNL     1      17.485   0.017  59.567  1.00  0.00     0.025 C 
BRANCH   9  11
HETATM   11  C9  UNL     1      18.427   0.156  57.293  1.00  0.00    -0.167 C 
BRANCH  11  12
HETATM   12  C10 UNL     1      18.837   0.880  56.086  1.00  0.00     0.071 C 
HETATM   13  C11 UNL     1      19.189  -0.106  54.925  1.00  0.00     0.027 C 
BRANCH  12  14
HETATM   14  C12 UNL     1      20.142   1.627  56.292  1.00  0.00    -0.008 C 
HETATM   15  C13 UNL     1      20.250   2.900  55.886  1.00  0.00    -0.075 C 
HETATM   16  C14 UNL     1      19.130   3.589  55.252  1.00  0.00     0.044 C 
BRANCH  15  17
HETATM   17  C15 UNL     1      21.542   3.581  56.055  1.00  0.00    -0.008 C 
HETATM   18  C16 UNL     1      22.550   2.568  56.604  1.00  0.00     0.024 C 
HETATM   19  C17 UNL     1      22.087   3.919  54.632  1.00  0.00     0.024 C 
BRANCH  17  20
HETATM   20  C18 UNL     1      21.494   4.822  56.809  1.00  0.00    -0.024 C 
HETATM   21  C19 UNL     1      22.004   5.962  56.524  1.00  0.00     0.008 C 
ENDBRANCH  17  20
ENDBRANCH  15  17
ENDBRANCH  12  14
ENDBRANCH  11  12
ENDBRANCH   9  11
ENDBRANCH   5   9
ENDBRANCH   4   5
ENDBRANCH   1   4
BRANCH   1  22
HETATM   22  C20 UNL     1      21.645  -0.589  59.346  1.00  0.00     0.067 C 
HETATM   23  C21 UNL     1      21.901  -0.981  57.903  1.00  0.00     0.047 C 
HETATM   24  C22 UNL     1      22.740  -1.060  60.246  1.00  0.00     0.076 C 
HETATM   25  C23 UNL     1      23.867  -0.049  60.444  1.00  0.00     0.065 C 
HETATM   26  C24 UNL     1      24.480  -0.401  61.749  1.00  0.00     0.046 C 
HETATM   27  C25 UNL     1      23.367   1.294  60.213  1.00  0.00     0.077 C 
HETATM   28  C29 UNL     1      21.899   1.365  60.526  1.00  0.00     0.179 C 
HETATM   29  O4  UNL     1      21.269   0.709  59.434  1.00  0.00    -0.379 OA
BRANCH  25  30
HETATM   30  O2  UNL     1      24.828  -0.359  59.444  1.00  0.00    -0.390 OA
ATOM     31  H2  UNL     1      25.656  -0.425  59.904  1.00  0.00     0.210 HD
ENDBRANCH  25  30
BRANCH  27  32
HETATM   32  C26 UNL     1      24.065   2.469  60.838  1.00  0.00     0.059 C 
HETATM   33  C27 UNL     1      25.393   2.188  61.444  1.00  0.00     0.046 C 
HETATM   34  C28 UNL     1      24.208   3.613  59.845  1.00  0.00     0.046 C 
BRANCH  32  35
HETATM   35  O3  UNL     1      23.228   2.946  61.830  1.00  0.00    -0.390 OA
ATOM     36  H3  UNL     1      23.358   2.387  62.587  1.00  0.00     0.210 HD
ENDBRANCH  32  35
ENDBRANCH  27  32
ENDBRANCH   1  22
TORSDOF 14
ENDMDL
MODEL 5
REMARK VINA RESULT: -7.283304921      4.009     10.557
REMARK  14 active torsions:
REMARK  status: ('A' for Active; 'I' for Inactive)
REMARK    1  A    between atoms: C2_2  and  C3_3 
REMARK    2  A    between atoms: C3_3  and  C4_4 
REMARK    3  A    between atoms: C3_3  and  C20_22 
REMARK    4  A    between atoms: C4_4  and  C5_5 
REMARK    5  A    between atoms: C5_5  and  O1_7 
REMARK    6  A    between atoms: C5_5  and  C7_9 
REMARK    7  A    between atoms: C7_9  and  C9_11 
REMARK    8  A    between atoms: C9_11  and  C10_12 
REMARK    9  A    between atoms: C10_12  and  C12_14 
REMARK   10  A    between atoms: C13_15  and  C15_17 
REMARK   11  A    between atoms: C15_17  and  C18_20 
REMARK   12  A    between atoms: C23_25  and  O2_27 
REMARK   13  A    between atoms: C25_29  and  C26_30 
REMARK   14  A    between atoms: C26_30  and  O3_33 
ROOT
HETATM    1  C3  UNL     1      23.575   2.776  60.111  1.00  0.00     0.044 C 
ENDROOT
BRANCH   1   2
HETATM    2  C2  UNL     1      23.589   2.413  58.692  1.00  0.00    -0.029 C 
HETATM    3  C1  UNL     1      22.550   2.833  57.929  1.00  0.00     0.007 C 
ENDBRANCH   1   2
BRANCH   1   4
HETATM    4  C4  UNL     1      24.819   3.388  60.656  1.00  0.00     0.050 C 
BRANCH   4   5
HETATM    5  C5  UNL     1      25.136   4.788  60.268  1.00  0.00     0.068 C 
HETATM    6  C6  UNL     1      24.780   5.234  58.909  1.00  0.00     0.047 C 
BRANCH   5   7
HETATM    7  O1  UNL     1      24.625   5.677  61.230  1.00  0.00    -0.389 OA
ATOM      8  H1  UNL     1      23.749   5.948  60.984  1.00  0.00     0.210 HD
ENDBRANCH   5   7
BRANCH   5   9
HETATM    9  C7  UNL     1      26.712   4.838  60.382  1.00  0.00     0.082 C 
HETATM   10  C8  UNL     1      27.320   3.528  59.999  1.00  0.00     0.025 C 
BRANCH   9  11
HETATM   11  C9  UNL     1      27.190   5.887  60.703  1.00  0.00    -0.167 C 
BRANCH  11  12
HETATM   12  C10 UNL     1      27.777   7.172  61.096  1.00  0.00     0.071 C 
HETATM   13  C11 UNL     1      28.931   7.588  60.126  1.00  0.00     0.027 C 
BRANCH  12  14
HETATM   14  C12 UNL     1      28.488   7.082  62.433  1.00  0.00    -0.008 C 
HETATM   15  C13 UNL     1      28.617   8.180  63.193  1.00  0.00    -0.075 C 
HETATM   16  C14 UNL     1      28.078   9.466  62.759  1.00  0.00     0.044 C 
BRANCH  15  17
HETATM   17  C15 UNL     1      29.352   8.071  64.461  1.00  0.00    -0.008 C 
HETATM   18  C16 UNL     1      29.021   9.299  65.313  1.00  0.00     0.024 C 
HETATM   19  C17 UNL     1      28.738   6.881  65.262  1.00  0.00     0.024 C 
BRANCH  17  20
HETATM   20  C18 UNL     1      30.777   7.819  64.330  1.00  0.00    -0.024 C 
HETATM   21  C19 UNL     1      31.545   7.113  65.073  1.00  0.00     0.008 C 
ENDBRANCH  17  20
ENDBRANCH  15  17
ENDBRANCH  12  14
ENDBRANCH  11  12
ENDBRANCH   9  11
ENDBRANCH   5   9
ENDBRANCH   4   5
ENDBRANCH   1   4
BRANCH   1  22
HETATM   22  C20 UNL     1      23.249   1.520  61.001  1.00  0.00     0.067 C 
HETATM   23  C21 UNL     1      24.324   1.546  62.072  1.00  0.00     0.047 C 
HETATM   24  C22 UNL     1      23.423   0.361  60.076  1.00  0.00     0.076 C 
HETATM   25  C23 UNL     1      22.667  -0.896  60.497  1.00  0.00     0.065 C 
HETATM   26  C24 UNL     1      22.456  -1.662  59.244  1.00  0.00     0.046 C 
HETATM   27  C25 UNL     1      21.533  -0.531  61.327  1.00  0.00     0.077 C 
HETATM   28  C29 UNL     1      21.053   0.850  60.976  1.00  0.00     0.179 C 
HETATM   29  O4  UNL     1      22.024   1.718  61.542  1.00  0.00    -0.379 OA
BRANCH  25  30
HETATM   30  O2  UNL     1      23.588  -1.642  61.283  1.00  0.00    -0.390 OA
ATOM     31  H2  UNL     1      24.438  -1.258  61.104  1.00  0.00     0.210 HD
ENDBRANCH  25  30
BRANCH  27  32
HETATM   32  C26 UNL     1      20.352  -1.456  61.428  1.00  0.00     0.059 C 
HETATM   33  C27 UNL     1      19.571  -1.649  60.177  1.00  0.00     0.046 C 
HETATM   34  C28 UNL     1      20.766  -2.817  61.966  1.00  0.00     0.046 C 
BRANCH  32  35
HETATM   35  O3  UNL     1      19.511  -0.921  62.386  1.00  0.00    -0.390 OA
ATOM     36  H3  UNL     1      18.638  -0.917  62.011  1.00  0.00     0.210 HD
ENDBRANCH  32  35
ENDBRANCH  27  32
ENDBRANCH   1  22
TORSDOF 14
ENDMDL
