MODEL 1
REMARK VINA RESULT: -6.993044202      0.000      0.000
REMARK  11 active torsions:
REMARK  status: ('A' for Active; 'I' for Inactive)
REMARK    1  A    between atoms: C2_2  and  C4_4 
REMARK    2  A    between atoms: C4_4  and  C5_5 
REMARK    3  A    between atoms: C5_5  and  C6_6 
REMARK    4  A    between atoms: C6_6  and  C7_7 
REMARK    5  A    between atoms: C8_8  and  O1_9 
REMARK    6  A    between atoms: C9_11  and  O2_12 
REMARK    7  A    between atoms: C19_23  and  C21_25 
REMARK    8  A    between atoms: C21_25  and  C22_26 
REMARK    9  A    between atoms: C22_26  and  C23_27 
REMARK   10  A    between atoms: C23_27  and  C24_28 
REMARK   11  A    between atoms: C24_28  and  O3_31 
ROOT
HETATM    1  C7  UNL     1      23.231   0.680  60.875  1.00  0.00     0.022 C 
HETATM    2  C8  UNL     1      23.890  -0.546  61.441  1.00  0.00     0.151 C 
HETATM    3  C9  UNL     1      23.547  -1.837  60.793  1.00  0.00     0.148 C 
HETATM    4  C10 UNL     1      22.013  -1.848  60.653  1.00  0.00     0.044 C 
HETATM    5  C11 UNL     1      21.689  -0.841  59.607  1.00  0.00    -0.033 C 
HETATM    6  C12 UNL     1      22.756  -1.031  58.503  1.00  0.00     0.016 C 
HETATM    7  C13 UNL     1      21.955   0.538  60.164  1.00  0.00     0.001 C 
HETATM    8  C14 UNL     1      20.719   1.049  60.876  1.00  0.00     0.007 C 
HETATM    9  C15 UNL     1      19.617   1.125  59.795  1.00  0.00     0.014 C 
HETATM   10  C16 UNL     1      19.208  -0.241  59.502  1.00  0.00    -0.016 C 
HETATM   11  C17 UNL     1      18.743  -0.883  60.796  1.00  0.00     0.020 C 
HETATM   12  C18 UNL     1      18.184  -0.528  58.474  1.00  0.00    -0.069 C 
HETATM   13  C19 UNL     1      17.851   0.307  57.381  1.00  0.00    -0.081 C 
HETATM   14  C20 UNL     1      17.306   1.720  57.809  1.00  0.00     0.043 C 
HETATM   15  C27 UNL     1      18.400  -1.980  58.227  1.00  0.00     0.036 C 
HETATM   16  C28 UNL     1      19.851  -2.289  58.647  1.00  0.00     0.011 C 
HETATM   17  C29 UNL     1      20.403  -0.948  58.910  1.00  0.00     0.007 C 
ENDROOT
BRANCH  13  18
HETATM   18  C21 UNL     1      18.646   0.616  56.179  1.00  0.00     0.034 C 
BRANCH  18  19
HETATM   19  C22 UNL     1      19.508   1.836  56.157  1.00  0.00     0.007 C 
BRANCH  19  20
HETATM   20  C23 UNL     1      20.921   1.686  56.545  1.00  0.00     0.037 C 
BRANCH  20  21
HETATM   21  C24 UNL     1      21.857   2.789  56.621  1.00  0.00     0.051 C 
HETATM   22  C25 UNL     1      20.992   4.074  56.816  1.00  0.00     0.045 C 
HETATM   23  C26 UNL     1      22.895   2.886  57.651  1.00  0.00     0.045 C 
BRANCH  21  24
HETATM   24  O3  UNL     1      22.474   3.017  55.362  1.00  0.00    -0.391 OA
ATOM     25  H3  UNL     1      23.388   3.253  55.471  1.00  0.00     0.210 HD
ENDBRANCH  21  24
ENDBRANCH  20  21
ENDBRANCH  19  20
ENDBRANCH  18  19
ENDBRANCH  13  18
BRANCH   1  26
HETATM   26  C6  UNL     1      23.392   1.808  61.821  1.00  0.00     0.007 C 
BRANCH  26  27
HETATM   27  C5  UNL     1      23.964   3.081  61.367  1.00  0.00     0.001 C 
BRANCH  27  28
HETATM   28  C4  UNL     1      25.440   2.946  60.965  1.00  0.00     0.004 C 
BRANCH  28  29
HETATM   29  C2  UNL     1      25.802   4.207  60.216  1.00  0.00    -0.023 C 
HETATM   30  C1  UNL     1      26.994   4.903  60.820  1.00  0.00     0.009 C 
HETATM   31  C3  UNL     1      24.653   5.209  60.245  1.00  0.00     0.009 C 
ENDBRANCH  28  29
ENDBRANCH  27  28
ENDBRANCH  26  27
ENDBRANCH   1  26
BRANCH   3  32
HETATM   32  O2  UNL     1      23.890  -2.865  61.714  1.00  0.00    -0.393 OA
ATOM     33  H2  UNL     1      23.077  -3.184  62.087  1.00  0.00     0.210 HD
ENDBRANCH   3  32
BRANCH   2  34
HETATM   34  O1  UNL     1      25.273  -0.392  61.377  1.00  0.00    -0.393 OA
ATOM     35  H1  UNL     1      25.689  -1.152  61.766  1.00  0.00     0.210 HD
ENDBRANCH   2  34
TORSDOF 11
ENDMDL
MODEL 2
REMARK VINA RESULT: -6.949259644      2.331      5.811
REMARK  11 active torsions:
REMARK  status: ('A' for Active; 'I' for Inactive)
REMARK    1  A    between atoms: C2_2  and  C4_4 
REMARK    2  A    between atoms: C4_4  and  C5_5 
REMARK    3  A    between atoms: C5_5  and  C6_6 
REMARK    4  A    between atoms: C6_6  and  C7_7 
REMARK    5  A    between atoms: C8_8  and  O1_9 
REMARK    6  A    between atoms: C9_11  and  O2_12 
REMARK    7  A    between atoms: C19_23  and  C21_25 
REMARK    8  A    between atoms: C21_25  and  C22_26 
REMARK    9  A    between atoms: C22_26  and  C23_27 
REMARK   10  A    between atoms: C23_27  and  C24_28 
REMARK   11  A    between atoms: C24_28  and  O3_31 
ROOT
HETATM    1  C7  UNL     1      19.722   1.714  57.473  1.00  0.00     0.022 C 
HETATM    2  C8  UNL     1      18.384   1.033  57.418  1.00  0.00     0.151 C 
HETATM    3  C9  UNL     1      18.015   0.208  58.597  1.00  0.00     0.148 C 
HETATM    4  C10 UNL     1      19.249  -0.659  58.911  1.00  0.00     0.044 C 
HETATM    5  C11 UNL     1      20.278   0.271  59.449  1.00  0.00    -0.033 C 
HETATM    6  C12 UNL     1      19.516   1.233  60.390  1.00  0.00     0.016 C 
HETATM    7  C13 UNL     1      20.775   1.147  58.324  1.00  0.00     0.001 C 
HETATM    8  C14 UNL     1      21.927   0.464  57.615  1.00  0.00     0.007 C 
HETATM    9  C15 UNL     1      23.035   0.303  58.681  1.00  0.00     0.014 C 
HETATM   10  C16 UNL     1      22.612  -0.759  59.581  1.00  0.00    -0.016 C 
HETATM   11  C17 UNL     1      22.377  -2.012  58.759  1.00  0.00     0.020 C 
HETATM   12  C18 UNL     1      23.437  -1.144  60.748  1.00  0.00    -0.069 C 
HETATM   13  C19 UNL     1      24.382  -0.319  61.403  1.00  0.00    -0.081 C 
HETATM   14  C20 UNL     1      25.563   0.149  60.476  1.00  0.00     0.043 C 
HETATM   15  C27 UNL     1      22.461  -1.911  61.571  1.00  0.00     0.036 C 
HETATM   16  C28 UNL     1      21.057  -1.428  61.154  1.00  0.00     0.011 C 
HETATM   17  C29 UNL     1      21.357  -0.285  60.273  1.00  0.00     0.007 C 
ENDROOT
BRANCH  13  18
HETATM   18  C21 UNL     1      24.144   0.865  62.249  1.00  0.00     0.034 C 
BRANCH  18  19
HETATM   19  C22 UNL     1      24.837   2.149  61.932  1.00  0.00     0.007 C 
BRANCH  19  20
HETATM   20  C23 UNL     1      24.044   3.224  61.311  1.00  0.00     0.037 C 
BRANCH  20  21
HETATM   21  C24 UNL     1      24.562   4.130  60.307  1.00  0.00     0.051 C 
HETATM   22  C25 UNL     1      26.115   3.988  60.359  1.00  0.00     0.045 C 
HETATM   23  C26 UNL     1      24.231   4.019  58.884  1.00  0.00     0.045 C 
BRANCH  21  24
HETATM   24  O3  UNL     1      24.360   5.482  60.693  1.00  0.00    -0.391 OA
ATOM     25  H3  UNL     1      24.144   6.021  59.941  1.00  0.00     0.210 HD
ENDBRANCH  21  24
ENDBRANCH  20  21
ENDBRANCH  19  20
ENDBRANCH  18  19
ENDBRANCH  13  18
BRANCH   1  26
HETATM   26  C6  UNL     1      20.087   2.194  56.121  1.00  0.00     0.007 C 
BRANCH  26  27
HETATM   27  C5  UNL     1      20.254   3.630  55.864  1.00  0.00     0.001 C 
BRANCH  27  28
HETATM   28  C4  UNL     1      21.718   4.079  55.993  1.00  0.00     0.004 C 
BRANCH  28  29
HETATM   29  C2  UNL     1      21.699   5.424  56.679  1.00  0.00    -0.023 C 
HETATM   30  C1  UNL     1      20.443   6.198  56.374  1.00  0.00     0.009 C 
HETATM   31  C3  UNL     1      22.865   6.290  56.217  1.00  0.00     0.009 C 
ENDBRANCH  28  29
ENDBRANCH  27  28
ENDBRANCH  26  27
ENDBRANCH   1  26
BRANCH   3  32
HETATM   32  O2  UNL     1      16.980  -0.672  58.177  1.00  0.00    -0.393 OA
ATOM     33  H2  UNL     1      17.347  -1.224  57.496  1.00  0.00     0.210 HD
ENDBRANCH   3  32
BRANCH   2  34
HETATM   34  O1  UNL     1      17.389   1.993  57.243  1.00  0.00    -0.393 OA
ATOM     35  H1  UNL     1      16.650   1.780  57.800  1.00  0.00     0.210 HD
ENDBRANCH   2  34
TORSDOF 11
ENDMDL
MODEL 3
REMARK VINA RESULT: -6.937368712      2.397      6.341
REMARK  11 active torsions:
REMARK  status: ('A' for Active; 'I' for Inactive)
REMARK    1  A    between atoms: C2_2  and  C4_4 
REMARK    2  A    between atoms: C4_4  and  C5_5 
REMARK    3  A    between atoms: C5_5  and  C6_6 
REMARK    4  A    between atoms: C6_6  and  C7_7 
REMARK    5  A    between atoms: C8_8  and  O1_9 
REMARK    6  A    between atoms: C9_11  and  O2_12 
REMARK    7  A    between atoms: C19_23  and  C21_25 
REMARK    8  A    between atoms: C21_25  and  C22_26 
REMARK    9  A    between atoms: C22_26  and  C23_27 
REMARK   10  A    between atoms: C23_27  and  C24_28 
REMARK   11  A    between atoms: C24_28  and  O3_31 
ROOT
HETATM    1  C7  UNL     1      19.854   1.626  57.272  1.00  0.00     0.022 C 
HETATM    2  C8  UNL     1      18.496   0.984  57.246  1.00  0.00     0.151 C 
HETATM    3  C9  UNL     1      18.089   0.250  58.471  1.00  0.00     0.148 C 
HETATM    4  C10 UNL     1      19.291  -0.632  58.856  1.00  0.00     0.044 C 
HETATM    5  C11 UNL     1      20.344   0.299  59.345  1.00  0.00    -0.033 C 
HETATM    6  C12 UNL     1      19.603   1.345  60.211  1.00  0.00     0.016 C 
HETATM    7  C13 UNL     1      20.880   1.083  58.171  1.00  0.00     0.001 C 
HETATM    8  C14 UNL     1      22.017   0.320  57.522  1.00  0.00     0.007 C 
HETATM    9  C15 UNL     1      23.109   0.195  58.609  1.00  0.00     0.014 C 
HETATM   10  C16 UNL     1      22.643  -0.791  59.572  1.00  0.00    -0.016 C 
HETATM   11  C17 UNL     1      22.377  -2.088  58.831  1.00  0.00     0.020 C 
HETATM   12  C18 UNL     1      23.444  -1.124  60.771  1.00  0.00    -0.069 C 
HETATM   13  C19 UNL     1      24.407  -0.288  61.383  1.00  0.00    -0.081 C 
HETATM   14  C20 UNL     1      25.612   0.081  60.441  1.00  0.00     0.043 C 
HETATM   15  C27 UNL     1      22.436  -1.805  61.631  1.00  0.00     0.036 C 
HETATM   16  C28 UNL     1      21.052  -1.307  61.167  1.00  0.00     0.011 C 
HETATM   17  C29 UNL     1      21.397  -0.235  60.216  1.00  0.00     0.007 C 
ENDROOT
BRANCH  13  18
HETATM   18  C21 UNL     1      24.199   0.956  62.146  1.00  0.00     0.034 C 
BRANCH  18  19
HETATM   19  C22 UNL     1      24.813   2.229  61.664  1.00  0.00     0.007 C 
BRANCH  19  20
HETATM   20  C23 UNL     1      24.027   3.068  60.743  1.00  0.00     0.037 C 
BRANCH  20  21
HETATM   21  C24 UNL     1      24.612   4.011  59.813  1.00  0.00     0.051 C 
HETATM   22  C25 UNL     1      23.802   3.866  58.487  1.00  0.00     0.045 C 
HETATM   23  C26 UNL     1      24.655   5.455  60.061  1.00  0.00     0.045 C 
BRANCH  21  24
HETATM   24  O3  UNL     1      25.915   3.599  59.428  1.00  0.00    -0.391 OA
ATOM     25  H3  UNL     1      26.186   2.831  59.918  1.00  0.00     0.210 HD
ENDBRANCH  21  24
ENDBRANCH  20  21
ENDBRANCH  19  20
ENDBRANCH  18  19
ENDBRANCH  13  18
BRANCH   1  26
HETATM   26  C6  UNL     1      20.247   2.004  55.896  1.00  0.00     0.007 C 
BRANCH  26  27
HETATM   27  C5  UNL     1      20.457   3.414  55.546  1.00  0.00     0.001 C 
BRANCH  27  28
HETATM   28  C4  UNL     1      20.519   3.635  54.027  1.00  0.00     0.004 C 
BRANCH  28  29
HETATM   29  C2  UNL     1      19.173   3.231  53.475  1.00  0.00    -0.023 C 
HETATM   30  C1  UNL     1      19.300   2.303  52.295  1.00  0.00     0.009 C 
HETATM   31  C3  UNL     1      18.393   4.447  52.990  1.00  0.00     0.009 C 
ENDBRANCH  28  29
ENDBRANCH  27  28
ENDBRANCH  26  27
ENDBRANCH   1  26
BRANCH   3  32
HETATM   32  O2  UNL     1      17.031  -0.623  58.098  1.00  0.00    -0.393 OA
ATOM     33  H2  UNL     1      16.987  -0.613  57.149  1.00  0.00     0.210 HD
ENDBRANCH   3  32
BRANCH   2  34
HETATM   34  O1  UNL     1      17.534   1.961  56.996  1.00  0.00    -0.393 OA
ATOM     35  H1  UNL     1      17.785   2.454  56.224  1.00  0.00     0.210 HD
ENDBRANCH   2  34
TORSDOF 11
ENDMDL
MODEL 4
REMARK VINA RESULT: -6.684311055      3.131      8.080
REMARK  11 active torsions:
REMARK  status: ('A' for Active; 'I' for Inactive)
REMARK    1  A    between atoms: C2_2  and  C4_4 
REMARK    2  A    between atoms: C4_4  and  C5_5 
REMARK    3  A    between atoms: C5_5  and  C6_6 
REMARK    4  A    between atoms: C6_6  and  C7_7 
REMARK    5  A    between atoms: C8_8  and  O1_9 
REMARK    6  A    between atoms: C9_11  and  O2_12 
REMARK    7  A    between atoms: C19_23  and  C21_25 
REMARK    8  A    between atoms: C21_25  and  C22_26 
REMARK    9  A    between atoms: C22_26  and  C23_27 
REMARK   10  A    between atoms: C23_27  and  C24_28 
REMARK   11  A    between atoms: C24_28  and  O3_31 
ROOT
HETATM    1  C7  UNL     1      19.563   2.868  53.700  1.00  0.00     0.022 C 
HETATM    2  C8  UNL     1      18.759   4.117  53.929  1.00  0.00     0.151 C 
HETATM    3  C9  UNL     1      18.614   4.558  55.340  1.00  0.00     0.148 C 
HETATM    4  C10 UNL     1      18.228   3.300  56.140  1.00  0.00     0.044 C 
HETATM    5  C11 UNL     1      19.443   2.443  56.171  1.00  0.00    -0.033 C 
HETATM    6  C12 UNL     1      20.626   3.410  56.412  1.00  0.00     0.016 C 
HETATM    7  C13 UNL     1      19.678   1.887  54.786  1.00  0.00     0.001 C 
HETATM    8  C14 UNL     1      18.910   0.593  54.617  1.00  0.00     0.007 C 
HETATM    9  C15 UNL     1      19.487  -0.376  55.674  1.00  0.00     0.014 C 
HETATM   10  C16 UNL     1      18.991   0.060  56.971  1.00  0.00    -0.016 C 
HETATM   11  C17 UNL     1      17.474   0.065  56.920  1.00  0.00     0.020 C 
HETATM   12  C18 UNL     1      19.388  -0.637  58.214  1.00  0.00    -0.069 C 
HETATM   13  C19 UNL     1      20.563  -1.405  58.394  1.00  0.00    -0.081 C 
HETATM   14  C20 UNL     1      20.658  -2.648  57.435  1.00  0.00     0.043 C 
HETATM   15  C27 UNL     1      19.018   0.362  59.255  1.00  0.00     0.036 C 
HETATM   16  C28 UNL     1      19.002   1.738  58.560  1.00  0.00     0.011 C 
HETATM   17  C29 UNL     1      19.558   1.434  57.229  1.00  0.00     0.007 C 
ENDROOT
BRANCH  13  18
HETATM   18  C21 UNL     1      21.962  -0.948  58.471  1.00  0.00     0.034 C 
BRANCH  18  19
HETATM   19  C22 UNL     1      22.496  -0.419  59.762  1.00  0.00     0.007 C 
BRANCH  19  20
HETATM   20  C23 UNL     1      22.802   1.020  59.843  1.00  0.00     0.037 C 
BRANCH  20  21
HETATM   21  C24 UNL     1      23.248   1.683  61.051  1.00  0.00     0.051 C 
HETATM   22  C25 UNL     1      24.072   0.621  61.845  1.00  0.00     0.045 C 
HETATM   23  C26 UNL     1      24.101   2.874  61.039  1.00  0.00     0.045 C 
BRANCH  21  24
HETATM   24  O3  UNL     1      22.154   1.941  61.919  1.00  0.00    -0.391 OA
ATOM     25  H3  UNL     1      21.502   2.484  61.490  1.00  0.00     0.210 HD
ENDBRANCH  21  24
ENDBRANCH  20  21
ENDBRANCH  19  20
ENDBRANCH  18  19
ENDBRANCH  13  18
BRANCH   1  26
HETATM   26  C6  UNL     1      19.327   2.376  52.324  1.00  0.00     0.007 C 
BRANCH  26  27
HETATM   27  C5  UNL     1      18.014   2.547  51.690  1.00  0.00     0.001 C 
BRANCH  27  28
HETATM   28  C4  UNL     1      17.953   1.911  50.293  1.00  0.00     0.004 C 
BRANCH  28  29
HETATM   29  C2  UNL     1      16.515   1.509  50.063  1.00  0.00    -0.023 C 
HETATM   30  C1  UNL     1      15.583   2.142  51.064  1.00  0.00     0.009 C 
HETATM   31  C3  UNL     1      16.339   0.001  50.200  1.00  0.00     0.009 C 
ENDBRANCH  28  29
ENDBRANCH  27  28
ENDBRANCH  26  27
ENDBRANCH   1  26
BRANCH   3  32
HETATM   32  O2  UNL     1      17.500   5.441  55.383  1.00  0.00    -0.393 OA
ATOM     33  H2  UNL     1      17.834   6.295  55.630  1.00  0.00     0.210 HD
ENDBRANCH   3  32
BRANCH   2  34
HETATM   34  O1  UNL     1      19.331   5.166  53.212  1.00  0.00    -0.393 OA
ATOM     35  H1  UNL     1      18.693   5.507  52.597  1.00  0.00     0.210 HD
ENDBRANCH   2  34
TORSDOF 11
ENDMDL
MODEL 5
REMARK VINA RESULT: -6.654708352      2.795      6.978
REMARK  11 active torsions:
REMARK  status: ('A' for Active; 'I' for Inactive)
REMARK    1  A    between atoms: C2_2  and  C4_4 
REMARK    2  A    between atoms: C4_4  and  C5_5 
REMARK    3  A    between atoms: C5_5  and  C6_6 
REMARK    4  A    between atoms: C6_6  and  C7_7 
REMARK    5  A    between atoms: C8_8  and  O1_9 
REMARK    6  A    between atoms: C9_11  and  O2_12 
REMARK    7  A    between atoms: C19_23  and  C21_25 
REMARK    8  A    between atoms: C21_25  and  C22_26 
REMARK    9  A    between atoms: C22_26  and  C23_27 
REMARK   10  A    between atoms: C23_27  and  C24_28 
REMARK   11  A    between atoms: C24_28  and  O3_31 
ROOT
HETATM    1  C7  UNL     1      18.586   0.834  56.032  1.00  0.00     0.022 C 
HETATM    2  C8  UNL     1      17.201   0.255  55.966  1.00  0.00     0.151 C 
HETATM    3  C9  UNL     1      16.646  -0.274  57.238  1.00  0.00     0.148 C 
HETATM    4  C10 UNL     1      17.757  -1.143  57.857  1.00  0.00     0.044 C 
HETATM    5  C11 UNL     1      18.814  -0.198  58.309  1.00  0.00    -0.033 C 
HETATM    6  C12 UNL     1      18.060   0.994  58.944  1.00  0.00     0.016 C 
HETATM    7  C13 UNL     1      19.495   0.383  57.093  1.00  0.00     0.001 C 
HETATM    8  C14 UNL     1      20.640  -0.515  56.670  1.00  0.00     0.007 C 
HETATM    9  C15 UNL     1      21.622  -0.529  57.864  1.00  0.00     0.014 C 
HETATM   10  C16 UNL     1      21.017  -1.343  58.907  1.00  0.00    -0.016 C 
HETATM   11  C17 UNL     1      20.744  -2.722  58.333  1.00  0.00     0.020 C 
HETATM   12  C18 UNL     1      21.688  -1.533  60.212  1.00  0.00    -0.069 C 
HETATM   13  C19 UNL     1      22.640  -0.660  60.790  1.00  0.00    -0.081 C 
HETATM   14  C20 UNL     1      23.942  -0.485  59.926  1.00  0.00     0.043 C 
HETATM   15  C27 UNL     1      20.570  -2.037  61.058  1.00  0.00     0.036 C 
HETATM   16  C28 UNL     1      19.264  -1.552  60.398  1.00  0.00     0.011 C 
HETATM   17  C29 UNL     1      19.752  -0.645  59.343  1.00  0.00     0.007 C 
ENDROOT
BRANCH  13  18
HETATM   18  C21 UNL     1      22.436   0.690  61.346  1.00  0.00     0.034 C 
BRANCH  18  19
HETATM   19  C22 UNL     1      23.590   1.422  61.948  1.00  0.00     0.007 C 
BRANCH  19  20
HETATM   20  C23 UNL     1      23.786   2.831  61.566  1.00  0.00     0.037 C 
BRANCH  20  21
HETATM   21  C24 UNL     1      24.774   3.276  60.605  1.00  0.00     0.051 C 
HETATM   22  C25 UNL     1      24.629   4.828  60.526  1.00  0.00     0.045 C 
HETATM   23  C26 UNL     1      26.212   3.050  60.776  1.00  0.00     0.045 C 
BRANCH  21  24
HETATM   24  O3  UNL     1      24.424   2.863  59.292  1.00  0.00    -0.391 OA
ATOM     25  H3  UNL     1      23.513   2.594  59.254  1.00  0.00     0.210 HD
ENDBRANCH  21  24
ENDBRANCH  20  21
ENDBRANCH  19  20
ENDBRANCH  18  19
ENDBRANCH  13  18
BRANCH   1  26
HETATM   26  C6  UNL     1      19.121   0.990  54.661  1.00  0.00     0.007 C 
BRANCH  26  27
HETATM   27  C5  UNL     1      19.349   2.329  54.103  1.00  0.00     0.001 C 
BRANCH  27  28
HETATM   28  C4  UNL     1      19.541   2.300  52.579  1.00  0.00     0.004 C 
BRANCH  28  29
HETATM   29  C2  UNL     1      18.160   2.233  51.969  1.00  0.00    -0.023 C 
HETATM   30  C1  UNL     1      18.207   1.968  50.487  1.00  0.00     0.009 C 
HETATM   31  C3  UNL     1      17.418   3.552  52.152  1.00  0.00     0.009 C 
ENDBRANCH  28  29
ENDBRANCH  27  28
ENDBRANCH  26  27
ENDBRANCH   1  26
BRANCH   3  32
HETATM   32  O2  UNL     1      15.577  -1.146  56.891  1.00  0.00    -0.393 OA
ATOM     33  H2  UNL     1      14.961  -1.128  57.614  1.00  0.00     0.210 HD
ENDBRANCH   3  32
BRANCH   2  34
HETATM   34  O1  UNL     1      16.322   1.226  55.490  1.00  0.00    -0.393 OA
ATOM     35  H1  UNL     1      16.561   2.069  55.859  1.00  0.00     0.210 HD
ENDBRANCH   2  34
TORSDOF 11
ENDMDL
