MODEL 1
REMARK VINA RESULT: -6.538486978      0.000      0.000
REMARK  7 active torsions:
REMARK  status: ('A' for Active; 'I' for Inactive)
REMARK    1  A    between atoms: C2_2  and  N1_3 
REMARK    2  A    between atoms: N2_5  and  O1_6 
REMARK    3  A    between atoms: N2_5  and  C3_8 
REMARK    4  A    between atoms: C3_8  and  C4_9 
REMARK    5  A    between atoms: C3_8  and  C7_17 
REMARK    6  A    between atoms: C4_9  and  N4_13 
REMARK    7  A    between atoms: N4_13  and  C5_15 
ROOT
HETATM    1  C3  UNL     1       8.861 -19.331   7.753  1.00  0.00     0.232 C 
ENDROOT
BRANCH   1   2
HETATM    2  N2  UNL     1       9.644 -20.430   7.288  1.00  0.00    -0.189 N 
HETATM    3  N1  UNL     1       9.861 -21.404   8.057  1.00  0.00    -0.314 N 
ATOM      4  H1  UNL     1       9.463 -21.362   8.995  1.00  0.00     0.182 HD
BRANCH   3   5
HETATM    5  C2  UNL     1      10.629 -22.567   7.709  1.00  0.00     0.137 C 
HETATM    6  C1  UNL     1      12.051 -22.340   8.235  1.00  0.00     0.028 C 
ENDBRANCH   3   5
BRANCH   2   7
HETATM    7  O1  UNL     1      10.174 -20.475   6.027  1.00  0.00    -0.271 OA
ATOM      8  H1  UNL     1      10.526 -19.672   5.662  1.00  0.00     0.246 HD
ENDBRANCH   2   7
ENDBRANCH   1   2
BRANCH   1   9
HETATM    9  C4  UNL     1       9.441 -18.011   7.488  1.00  0.00     0.102 C 
HETATM   10  N3  UNL     1      10.115 -17.419   8.412  1.00  0.00    -0.387 N 
ATOM     11  H32 UNL     1      10.198 -17.931   9.291  1.00  0.00     0.157 HD
ATOM     12  H31 UNL     1      10.518 -16.501   8.228  1.00  0.00     0.157 HD
BRANCH   9  13
HETATM   13  N4  UNL     1       9.326 -17.303   6.271  1.00  0.00    -0.378 N 
ATOM     14  H4  UNL     1       9.989 -17.474   5.515  1.00  0.00     0.160 HD
BRANCH  13  15
HETATM   15  C5  UNL     1       8.274 -16.342   6.101  1.00  0.00     0.116 C 
HETATM   16  C6  UNL     1       7.312 -16.706   5.001  1.00  0.00     0.026 C 
ENDBRANCH  13  15
ENDBRANCH   9  13
ENDBRANCH   1   9
BRANCH   1  17
HETATM   17  C7  UNL     1       7.486 -19.328   7.215  1.00  0.00    -0.024 A 
HETATM   18  C8  UNL     1       6.506 -18.650   7.902  1.00  0.00     0.010 A 
HETATM   19  C9  UNL     1       5.194 -18.613   7.444  1.00  0.00     0.001 A 
HETATM   20  C10 UNL     1       4.931 -19.288   6.273  1.00  0.00     0.000 A 
HETATM   21  C11 UNL     1       5.911 -19.973   5.576  1.00  0.00     0.001 A 
HETATM   22  C12 UNL     1       7.198 -20.002   6.036  1.00  0.00     0.010 A 
ENDBRANCH   1  17
TORSDOF 7
ENDMDL
MODEL 2
REMARK VINA RESULT: -6.009012547      8.015      9.996
REMARK  7 active torsions:
REMARK  status: ('A' for Active; 'I' for Inactive)
REMARK    1  A    between atoms: C2_2  and  N1_3 
REMARK    2  A    between atoms: N2_5  and  O1_6 
REMARK    3  A    between atoms: N2_5  and  C3_8 
REMARK    4  A    between atoms: C3_8  and  C4_9 
REMARK    5  A    between atoms: C3_8  and  C7_17 
REMARK    6  A    between atoms: C4_9  and  N4_13 
REMARK    7  A    between atoms: N4_13  and  C5_15 
ROOT
HETATM    1  C3  UNL     1       2.163 -19.233   0.733  1.00  0.00     0.232 C 
ENDROOT
BRANCH   1   2
HETATM    2  N2  UNL     1       3.023 -18.094   0.724  1.00  0.00    -0.189 N 
HETATM    3  N1  UNL     1       4.023 -18.070   1.489  1.00  0.00    -0.314 N 
ATOM      4  H1  UNL     1       4.177 -18.878   2.093  1.00  0.00     0.182 HD
BRANCH   3   5
HETATM    5  C2  UNL     1       4.964 -16.987   1.574  1.00  0.00     0.137 C 
HETATM    6  C1  UNL     1       5.669 -17.109   2.930  1.00  0.00     0.028 C 
ENDBRANCH   3   5
BRANCH   2   7
HETATM    7  O1  UNL     1       2.807 -17.016  -0.089  1.00  0.00    -0.271 OA
ATOM      8  H1  UNL     1       1.949 -16.609  -0.073  1.00  0.00     0.246 HD
ENDBRANCH   2   7
ENDBRANCH   1   2
BRANCH   1   9
HETATM    9  C4  UNL     1       0.831 -18.999   0.166  1.00  0.00     0.102 C 
HETATM   10  N3  UNL     1      -0.212 -19.290   0.862  1.00  0.00    -0.387 N 
ATOM     11  H32 UNL     1      -0.029 -19.675   1.789  1.00  0.00     0.157 HD
ATOM     12  H31 UNL     1      -1.139 -19.127   0.468  1.00  0.00     0.157 HD
BRANCH   9  13
HETATM   13  N4  UNL     1       0.577 -18.465  -1.117  1.00  0.00    -0.378 N 
ATOM     14  H4  UNL     1       1.077 -17.635  -1.433  1.00  0.00     0.160 HD
BRANCH  13  15
HETATM   15  C5  UNL     1      -0.387 -19.094  -1.974  1.00  0.00     0.116 C 
HETATM   16  C6  UNL     1       0.144 -20.327  -2.657  1.00  0.00     0.026 C 
ENDBRANCH  13  15
ENDBRANCH   9  13
ENDBRANCH   1   9
BRANCH   1  17
HETATM   17  C7  UNL     1       2.740 -20.403   0.040  1.00  0.00    -0.024 A 
HETATM   18  C8  UNL     1       2.517 -21.658   0.558  1.00  0.00     0.010 A 
HETATM   19  C9  UNL     1       3.036 -22.795  -0.051  1.00  0.00     0.001 A 
HETATM   20  C10 UNL     1       3.781 -22.597  -1.192  1.00  0.00     0.000 A 
HETATM   21  C11 UNL     1       4.011 -21.338  -1.718  1.00  0.00     0.001 A 
HETATM   22  C12 UNL     1       3.495 -20.227  -1.111  1.00  0.00     0.010 A 
ENDBRANCH   1  17
TORSDOF 7
ENDMDL
MODEL 3
REMARK VINA RESULT: -6.006650411      7.931      9.938
REMARK  7 active torsions:
REMARK  status: ('A' for Active; 'I' for Inactive)
REMARK    1  A    between atoms: C2_2  and  N1_3 
REMARK    2  A    between atoms: N2_5  and  O1_6 
REMARK    3  A    between atoms: N2_5  and  C3_8 
REMARK    4  A    between atoms: C3_8  and  C4_9 
REMARK    5  A    between atoms: C3_8  and  C7_17 
REMARK    6  A    between atoms: C4_9  and  N4_13 
REMARK    7  A    between atoms: N4_13  and  C5_15 
ROOT
HETATM    1  C3  UNL     1       2.228 -19.333   0.866  1.00  0.00     0.232 C 
ENDROOT
BRANCH   1   2
HETATM    2  N2  UNL     1       3.075 -18.185   0.822  1.00  0.00    -0.189 N 
HETATM    3  N1  UNL     1       4.084 -18.132   1.575  1.00  0.00    -0.314 N 
ATOM      4  H1  UNL     1       4.252 -18.924   2.196  1.00  0.00     0.182 HD
BRANCH   3   5
HETATM    5  C2  UNL     1       5.013 -17.037   1.624  1.00  0.00     0.137 C 
HETATM    6  C1  UNL     1       5.707 -17.098   2.990  1.00  0.00     0.028 C 
ENDBRANCH   3   5
BRANCH   2   7
HETATM    7  O1  UNL     1       2.839 -17.128  -0.013  1.00  0.00    -0.271 OA
ATOM      8  H1  UNL     1       3.449 -16.977  -0.725  1.00  0.00     0.246 HD
ENDBRANCH   2   7
ENDBRANCH   1   2
BRANCH   1   9
HETATM    9  C4  UNL     1       0.859 -19.102   0.395  1.00  0.00     0.102 C 
HETATM   10  N3  UNL     1      -0.133 -19.420   1.152  1.00  0.00    -0.387 N 
ATOM     11  H32 UNL     1       0.116 -19.823   2.055  1.00  0.00     0.157 HD
ATOM     12  H31 UNL     1      -1.085 -19.260   0.823  1.00  0.00     0.157 HD
BRANCH   9  13
HETATM   13  N4  UNL     1       0.515 -18.543  -0.856  1.00  0.00    -0.378 N 
ATOM     14  H4  UNL     1       0.970 -17.689  -1.177  1.00  0.00     0.160 HD
BRANCH  13  15
HETATM   15  C5  UNL     1      -0.477 -19.180  -1.674  1.00  0.00     0.116 C 
HETATM   16  C6  UNL     1       0.045 -20.391  -2.402  1.00  0.00     0.026 C 
ENDBRANCH  13  15
ENDBRANCH   9  13
ENDBRANCH   1   9
BRANCH   1  17
HETATM   17  C7  UNL     1       2.768 -20.484   0.115  1.00  0.00    -0.024 A 
HETATM   18  C8  UNL     1       3.496 -20.248  -1.028  1.00  0.00     0.010 A 
HETATM   19  C9  UNL     1       4.028 -21.292  -1.776  1.00  0.00     0.001 A 
HETATM   20  C10 UNL     1       3.788 -22.567  -1.312  1.00  0.00     0.000 A 
HETATM   21  C11 UNL     1       3.056 -22.812  -0.162  1.00  0.00     0.001 A 
HETATM   22  C12 UNL     1       2.538 -21.778   0.565  1.00  0.00     0.010 A 
ENDBRANCH   1  17
TORSDOF 7
ENDMDL
MODEL 4
REMARK VINA RESULT: -5.958420519      8.561     10.301
REMARK  7 active torsions:
REMARK  status: ('A' for Active; 'I' for Inactive)
REMARK    1  A    between atoms: C2_2  and  N1_3 
REMARK    2  A    between atoms: N2_5  and  O1_6 
REMARK    3  A    between atoms: N2_5  and  C3_8 
REMARK    4  A    between atoms: C3_8  and  C4_9 
REMARK    5  A    between atoms: C3_8  and  C7_17 
REMARK    6  A    between atoms: C4_9  and  N4_13 
REMARK    7  A    between atoms: N4_13  and  C5_15 
ROOT
HETATM    1  C3  UNL     1       1.847 -19.295  -0.572  1.00  0.00     0.232 C 
ENDROOT
BRANCH   1   2
HETATM    2  N2  UNL     1       2.412 -20.594  -0.752  1.00  0.00    -0.189 N 
HETATM    3  N1  UNL     1       3.341 -20.753  -1.588  1.00  0.00    -0.314 N 
ATOM      4  H1  UNL     1       3.652 -19.934  -2.110  1.00  0.00     0.182 HD
BRANCH   3   5
HETATM    5  C2  UNL     1       3.993 -22.005  -1.859  1.00  0.00     0.137 C 
HETATM    6  C1  UNL     1       5.224 -21.692  -2.717  1.00  0.00     0.028 C 
ENDBRANCH   3   5
BRANCH   2   7
HETATM    7  O1  UNL     1       1.987 -21.685  -0.046  1.00  0.00    -0.271 OA
ATOM      8  H1  UNL     1       1.353 -22.262  -0.455  1.00  0.00     0.246 HD
ENDBRANCH   2   7
ENDBRANCH   1   2
BRANCH   1   9
HETATM    9  C4  UNL     1       0.490 -19.289  -0.020  1.00  0.00     0.102 C 
HETATM   10  N3  UNL     1       0.287 -19.749   1.166  1.00  0.00    -0.387 N 
ATOM     11  H32 UNL     1       1.116 -20.095   1.650  1.00  0.00     0.157 HD
ATOM     12  H31 UNL     1      -0.657 -19.745   1.551  1.00  0.00     0.157 HD
BRANCH   9  13
HETATM   13  N4  UNL     1      -0.658 -18.809  -0.689  1.00  0.00    -0.378 N 
ATOM     14  H4  UNL     1      -1.167 -18.006  -0.320  1.00  0.00     0.160 HD
BRANCH  13  15
HETATM   15  C5  UNL     1      -1.105 -19.454  -1.891  1.00  0.00     0.116 C 
HETATM   16  C6  UNL     1      -0.637 -18.761  -3.143  1.00  0.00     0.026 C 
ENDBRANCH  13  15
ENDBRANCH   9  13
ENDBRANCH   1   9
BRANCH   1  17
HETATM   17  C7  UNL     1       2.675 -18.413   0.275  1.00  0.00    -0.024 A 
HETATM   18  C8  UNL     1       2.449 -17.056   0.240  1.00  0.00     0.010 A 
HETATM   19  C9  UNL     1       3.198 -16.177   1.014  1.00  0.00     0.001 A 
HETATM   20  C10 UNL     1       4.171 -16.736   1.814  1.00  0.00     0.000 A 
HETATM   21  C11 UNL     1       4.404 -18.100   1.854  1.00  0.00     0.001 A 
HETATM   22  C12 UNL     1       3.661 -18.954   1.088  1.00  0.00     0.010 A 
ENDBRANCH   1  17
TORSDOF 7
ENDMDL
MODEL 5
REMARK VINA RESULT: -5.759927903      8.647     10.812
REMARK  7 active torsions:
REMARK  status: ('A' for Active; 'I' for Inactive)
REMARK    1  A    between atoms: C2_2  and  N1_3 
REMARK    2  A    between atoms: N2_5  and  O1_6 
REMARK    3  A    between atoms: N2_5  and  C3_8 
REMARK    4  A    between atoms: C3_8  and  C4_9 
REMARK    5  A    between atoms: C3_8  and  C7_17 
REMARK    6  A    between atoms: C4_9  and  N4_13 
REMARK    7  A    between atoms: N4_13  and  C5_15 
ROOT
HETATM    1  C3  UNL     1       1.759 -20.289   0.632  1.00  0.00     0.232 C 
ENDROOT
BRANCH   1   2
HETATM    2  N2  UNL     1       1.693 -18.867   0.529  1.00  0.00    -0.189 N 
HETATM    3  N1  UNL     1       2.633 -18.170   0.997  1.00  0.00    -0.314 N 
ATOM      4  H1  UNL     1       3.411 -18.660   1.438  1.00  0.00     0.182 HD
BRANCH   3   5
HETATM    5  C2  UNL     1       2.687 -16.735   0.954  1.00  0.00     0.137 C 
HETATM    6  C1  UNL     1       4.132 -16.331   1.271  1.00  0.00     0.028 C 
ENDBRANCH   3   5
BRANCH   2   7
HETATM    7  O1  UNL     1       0.645 -18.220  -0.064  1.00  0.00    -0.271 OA
ATOM      8  H1  UNL     1      -0.094 -17.974   0.480  1.00  0.00     0.246 HD
ENDBRANCH   2   7
ENDBRANCH   1   2
BRANCH   1   9
HETATM    9  C4  UNL     1       0.460 -20.967   0.582  1.00  0.00     0.102 C 
HETATM   10  N3  UNL     1      -0.284 -20.831  -0.460  1.00  0.00    -0.387 N 
ATOM     11  H32 UNL     1       0.099 -20.241  -1.200  1.00  0.00     0.157 HD
ATOM     12  H31 UNL     1      -1.188 -21.302  -0.495  1.00  0.00     0.157 HD
BRANCH   9  13
HETATM   13  N4  UNL     1      -0.070 -21.784   1.605  1.00  0.00    -0.378 N 
ATOM     14  H4  UNL     1      -0.078 -21.454   2.570  1.00  0.00     0.160 HD
BRANCH  13  15
HETATM   15  C5  UNL     1      -0.597 -23.079   1.284  1.00  0.00     0.116 C 
HETATM   16  C6  UNL     1      -1.487 -23.639   2.362  1.00  0.00     0.026 C 
ENDBRANCH  13  15
ENDBRANCH   9  13
ENDBRANCH   1   9
BRANCH   1  17
HETATM   17  C7  UNL     1       2.622 -20.908  -0.394  1.00  0.00    -0.024 A 
HETATM   18  C8  UNL     1       3.028 -20.148  -1.466  1.00  0.00     0.010 A 
HETATM   19  C9  UNL     1       3.840 -20.677  -2.463  1.00  0.00     0.001 A 
HETATM   20  C10 UNL     1       4.214 -21.995  -2.318  1.00  0.00     0.000 A 
HETATM   21  C11 UNL     1       3.810 -22.766  -1.241  1.00  0.00     0.001 A 
HETATM   22  C12 UNL     1       3.011 -22.235  -0.268  1.00  0.00     0.010 A 
ENDBRANCH   1  17
TORSDOF 7
ENDMDL
