MODEL 1
REMARK VINA RESULT: -7.639018567      0.000      0.000
REMARK  7 active torsions:
REMARK  status: ('A' for Active; 'I' for Inactive)
REMARK    1  A    between atoms: O1_1  and  C1_3 
REMARK    2  A    between atoms: C1_3  and  C2_4 
REMARK    3  A    between atoms: C2_4  and  C3_5 
REMARK    4  A    between atoms: C2_4  and  N1_8 
REMARK    5  A    between atoms: C3_5  and  O2_6 
REMARK    6  A    between atoms: C4_10  and  C5_11 
REMARK    7  A    between atoms: C5_11  and  N2_12 
ROOT
HETATM    1  C5  UNL     1       5.214 -17.925   4.153  1.00  0.00     0.171 C 
ENDROOT
BRANCH   1   2
HETATM    2  C4  UNL     1       5.908 -17.660   2.882  1.00  0.00     0.076 C 
HETATM    3  N1  UNL     1       5.210 -17.671   1.794  1.00  0.00    -0.392 N 
ATOM      4  H1  UNL     1       5.673 -17.489   0.903  1.00  0.00     0.159 HD
BRANCH   3   5
HETATM    5  C2  UNL     1       3.800 -17.932   1.810  1.00  0.00     0.128 C 
BRANCH   5   6
HETATM    6  C1  UNL     1       3.563 -19.047   0.792  1.00  0.00     0.191 C 
BRANCH   6   7
HETATM    7  O1  UNL     1       3.067 -18.541  -0.404  1.00  0.00    -0.399 OA
ATOM      8  H1  UNL     1       3.763 -18.403  -1.034  1.00  0.00     0.209 HD
ENDBRANCH   6   7
ENDBRANCH   5   6
BRANCH   5   9
HETATM    9  C3  UNL     1       3.112 -16.658   1.310  1.00  0.00     0.191 C 
BRANCH   9  10
HETATM   10  O2  UNL     1       4.002 -15.896   0.567  1.00  0.00    -0.399 OA
ATOM     11  H2  UNL     1       3.527 -15.298   0.001  1.00  0.00     0.209 HD
ENDBRANCH   9  10
ENDBRANCH   5   9
ENDBRANCH   3   5
ENDBRANCH   1   2
BRANCH   1  12
HETATM   12  N2  UNL     1       6.157 -18.316   5.182  1.00  0.00    -0.361 N 
HETATM   13  C6  UNL     1       5.959 -17.924   6.453  1.00  0.00     0.091 A 
HETATM   14  C7  UNL     1       6.817 -18.262   7.478  1.00  0.00     0.029 A 
HETATM   15  C8  UNL     1       7.945 -19.041   7.212  1.00  0.00    -0.023 A 
HETATM   16  C9  UNL     1       8.826 -19.400   8.206  1.00  0.00     0.012 A 
HETATM   17  C13 UNL     1       8.125 -19.430   5.900  1.00  0.00    -0.010 A 
HETATM   18  C10 UNL     1       9.908 -20.166   7.867  1.00  0.00     0.001 A 
HETATM   19  C11 UNL     1      10.121 -20.573   6.566  1.00  0.00     0.001 A 
HETATM   20  C12 UNL     1       9.234 -20.211   5.573  1.00  0.00     0.013 A 
HETATM   21  C14 UNL     1       7.238 -19.068   4.910  1.00  0.00     0.103 A 
ENDBRANCH   1  12
TORSDOF 7
ENDMDL
MODEL 2
REMARK VINA RESULT: -7.577952585      3.855      7.200
REMARK  7 active torsions:
REMARK  status: ('A' for Active; 'I' for Inactive)
REMARK    1  A    between atoms: O1_1  and  C1_3 
REMARK    2  A    between atoms: C1_3  and  C2_4 
REMARK    3  A    between atoms: C2_4  and  C3_5 
REMARK    4  A    between atoms: C2_4  and  N1_8 
REMARK    5  A    between atoms: C3_5  and  O2_6 
REMARK    6  A    between atoms: C4_10  and  C5_11 
REMARK    7  A    between atoms: C5_11  and  N2_12 
ROOT
HETATM    1  C5  UNL     1       7.364 -17.786   6.191  1.00  0.00     0.171 C 
ENDROOT
BRANCH   1   2
HETATM    2  C4  UNL     1       8.661 -18.084   5.563  1.00  0.00     0.076 C 
HETATM    3  N1  UNL     1       9.420 -18.967   6.125  1.00  0.00    -0.392 N 
ATOM      4  H1  UNL     1      10.323 -19.188   5.704  1.00  0.00     0.159 HD
BRANCH   3   5
HETATM    5  C2  UNL     1       9.023 -19.642   7.326  1.00  0.00     0.128 C 
BRANCH   5   6
HETATM    6  C1  UNL     1       9.146 -18.617   8.451  1.00  0.00     0.191 C 
BRANCH   6   7
HETATM    7  O1  UNL     1      10.251 -17.794   8.265  1.00  0.00    -0.399 OA
ATOM      8  H1  UNL     1      10.791 -17.761   9.045  1.00  0.00     0.209 HD
ENDBRANCH   6   7
ENDBRANCH   5   6
BRANCH   5   9
HETATM    9  C3  UNL     1      10.049 -20.756   7.563  1.00  0.00     0.191 C 
BRANCH   9  10
HETATM   10  O2  UNL     1      11.319 -20.213   7.696  1.00  0.00    -0.399 OA
ATOM     11  H2  UNL     1      11.583 -20.222   8.608  1.00  0.00     0.209 HD
ENDBRANCH   9  10
ENDBRANCH   5   9
ENDBRANCH   3   5
ENDBRANCH   1   2
BRANCH   1  12
HETATM   12  N2  UNL     1       6.318 -17.694   5.192  1.00  0.00    -0.361 N 
HETATM   13  C6  UNL     1       5.158 -18.349   5.376  1.00  0.00     0.091 A 
HETATM   14  C7  UNL     1       4.124 -18.302   4.465  1.00  0.00     0.029 A 
HETATM   15  C8  UNL     1       4.261 -17.553   3.295  1.00  0.00    -0.023 A 
HETATM   16  C9  UNL     1       3.254 -17.480   2.361  1.00  0.00     0.012 A 
HETATM   17  C13 UNL     1       5.461 -16.890   3.130  1.00  0.00    -0.010 A 
HETATM   18  C10 UNL     1       3.464 -16.724   1.239  1.00  0.00     0.001 A 
HETATM   19  C11 UNL     1       4.650 -16.048   1.040  1.00  0.00     0.001 A 
HETATM   20  C12 UNL     1       5.657 -16.123   1.980  1.00  0.00     0.013 A 
HETATM   21  C14 UNL     1       6.465 -16.966   4.070  1.00  0.00     0.103 A 
ENDBRANCH   1  12
TORSDOF 7
ENDMDL
MODEL 3
REMARK VINA RESULT: -7.561514823      3.884      6.808
REMARK  7 active torsions:
REMARK  status: ('A' for Active; 'I' for Inactive)
REMARK    1  A    between atoms: O1_1  and  C1_3 
REMARK    2  A    between atoms: C1_3  and  C2_4 
REMARK    3  A    between atoms: C2_4  and  C3_5 
REMARK    4  A    between atoms: C2_4  and  N1_8 
REMARK    5  A    between atoms: C3_5  and  O2_6 
REMARK    6  A    between atoms: C4_10  and  C5_11 
REMARK    7  A    between atoms: C5_11  and  N2_12 
ROOT
HETATM    1  C5  UNL     1       7.964 -18.612   8.374  1.00  0.00     0.171 C 
ENDROOT
BRANCH   1   2
HETATM    2  C4  UNL     1       9.313 -18.207   7.946  1.00  0.00     0.076 C 
HETATM    3  N1  UNL     1      10.169 -19.136   7.673  1.00  0.00    -0.392 N 
ATOM      4  H1  UNL     1      11.109 -18.875   7.374  1.00  0.00     0.159 HD
BRANCH   3   5
HETATM    5  C2  UNL     1       9.828 -20.525   7.780  1.00  0.00     0.128 C 
BRANCH   5   6
HETATM    6  C1  UNL     1      11.121 -21.253   8.144  1.00  0.00     0.191 C 
BRANCH   6   7
HETATM    7  O1  UNL     1      12.237 -20.490   7.823  1.00  0.00    -0.399 OA
ATOM      8  H1  UNL     1      12.276 -19.699   8.345  1.00  0.00     0.209 HD
ENDBRANCH   6   7
ENDBRANCH   5   6
BRANCH   5   9
HETATM    9  C3  UNL     1       9.388 -20.977   6.383  1.00  0.00     0.191 C 
BRANCH   9  10
HETATM   10  O2  UNL     1      10.123 -20.312   5.413  1.00  0.00    -0.399 OA
ATOM     11  H2  UNL     1      10.488 -20.935   4.796  1.00  0.00     0.209 HD
ENDBRANCH   9  10
ENDBRANCH   5   9
ENDBRANCH   3   5
ENDBRANCH   1   2
BRANCH   1  12
HETATM   12  N2  UNL     1       7.015 -18.467   7.288  1.00  0.00    -0.361 N 
HETATM   13  C6  UNL     1       5.770 -18.957   7.418  1.00  0.00     0.091 A 
HETATM   14  C7  UNL     1       4.821 -18.852   6.423  1.00  0.00     0.029 A 
HETATM   15  C8  UNL     1       5.139 -18.214   5.223  1.00  0.00    -0.023 A 
HETATM   16  C9  UNL     1       4.221 -18.087   4.206  1.00  0.00     0.012 A 
HETATM   17  C13 UNL     1       6.423 -17.719   5.115  1.00  0.00    -0.010 A 
HETATM   18  C10 UNL     1       4.609 -17.449   3.059  1.00  0.00     0.001 A 
HETATM   19  C11 UNL     1       5.883 -16.941   2.915  1.00  0.00     0.001 A 
HETATM   20  C12 UNL     1       6.801 -17.069   3.939  1.00  0.00     0.013 A 
HETATM   21  C14 UNL     1       7.337 -17.848   6.138  1.00  0.00     0.103 A 
ENDBRANCH   1  12
TORSDOF 7
ENDMDL
MODEL 4
REMARK VINA RESULT: -7.441743386      4.984      7.788
REMARK  7 active torsions:
REMARK  status: ('A' for Active; 'I' for Inactive)
REMARK    1  A    between atoms: O1_1  and  C1_3 
REMARK    2  A    between atoms: C1_3  and  C2_4 
REMARK    3  A    between atoms: C2_4  and  C3_5 
REMARK    4  A    between atoms: C2_4  and  N1_8 
REMARK    5  A    between atoms: C3_5  and  O2_6 
REMARK    6  A    between atoms: C4_10  and  C5_11 
REMARK    7  A    between atoms: C5_11  and  N2_12 
ROOT
HETATM    1  C5  UNL     1       9.756 -20.192   6.788  1.00  0.00     0.171 C 
ENDROOT
BRANCH   1   2
HETATM    2  C4  UNL     1       9.781 -20.369   8.249  1.00  0.00     0.076 C 
HETATM    3  N1  UNL     1      10.406 -21.395   8.727  1.00  0.00    -0.392 N 
ATOM      4  H1  UNL     1      10.435 -21.535   9.737  1.00  0.00     0.159 HD
BRANCH   3   5
HETATM    5  C2  UNL     1      11.060 -22.341   7.870  1.00  0.00     0.128 C 
BRANCH   5   6
HETATM    6  C1  UNL     1      10.360 -23.679   8.101  1.00  0.00     0.191 C 
BRANCH   6   7
HETATM    7  O1  UNL     1       9.408 -23.583   9.108  1.00  0.00    -0.399 OA
ATOM      8  H1  UNL     1       9.557 -22.819   9.652  1.00  0.00     0.209 HD
ENDBRANCH   6   7
ENDBRANCH   5   6
BRANCH   5   9
HETATM    9  C3  UNL     1      12.506 -22.453   8.362  1.00  0.00     0.191 C 
BRANCH   9  10
HETATM   10  O2  UNL     1      12.531 -22.947   9.659  1.00  0.00    -0.399 OA
ATOM     11  H2  UNL     1      13.336 -22.687  10.091  1.00  0.00     0.209 HD
ENDBRANCH   9  10
ENDBRANCH   5   9
ENDBRANCH   3   5
ENDBRANCH   1   2
BRANCH   1  12
HETATM   12  N2  UNL     1       8.500 -19.607   6.363  1.00  0.00    -0.361 N 
HETATM   13  C6  UNL     1       7.533 -19.369   7.267  1.00  0.00     0.091 A 
HETATM   14  C7  UNL     1       6.317 -18.815   6.927  1.00  0.00     0.029 A 
HETATM   15  C8  UNL     1       6.053 -18.478   5.598  1.00  0.00    -0.023 A 
HETATM   16  C9  UNL     1       4.853 -17.924   5.218  1.00  0.00     0.012 A 
HETATM   17  C13 UNL     1       7.061 -18.732   4.691  1.00  0.00    -0.010 A 
HETATM   18  C10 UNL     1       4.669 -17.621   3.896  1.00  0.00     0.001 A 
HETATM   19  C11 UNL     1       5.654 -17.860   2.961  1.00  0.00     0.001 A 
HETATM   20  C12 UNL     1       6.857 -18.416   3.347  1.00  0.00     0.013 A 
HETATM   21  C14 UNL     1       8.261 -19.287   5.078  1.00  0.00     0.103 A 
ENDBRANCH   1  12
TORSDOF 7
ENDMDL
MODEL 5
REMARK VINA RESULT: -7.389480853      1.178      1.675
REMARK  7 active torsions:
REMARK  status: ('A' for Active; 'I' for Inactive)
REMARK    1  A    between atoms: O1_1  and  C1_3 
REMARK    2  A    between atoms: C1_3  and  C2_4 
REMARK    3  A    between atoms: C2_4  and  C3_5 
REMARK    4  A    between atoms: C2_4  and  N1_8 
REMARK    5  A    between atoms: C3_5  and  O2_6 
REMARK    6  A    between atoms: C4_10  and  C5_11 
REMARK    7  A    between atoms: C5_11  and  N2_12 
ROOT
HETATM    1  C5  UNL     1       6.078 -17.627   3.454  1.00  0.00     0.171 C 
ENDROOT
BRANCH   1   2
HETATM    2  C4  UNL     1       4.658 -17.602   3.842  1.00  0.00     0.076 C 
HETATM    3  N1  UNL     1       3.771 -17.556   2.903  1.00  0.00    -0.392 N 
ATOM      4  H1  UNL     1       2.782 -17.539   3.152  1.00  0.00     0.159 HD
BRANCH   3   5
HETATM    5  C2  UNL     1       4.145 -17.527   1.519  1.00  0.00     0.128 C 
BRANCH   5   6
HETATM    6  C1  UNL     1       4.156 -16.055   1.112  1.00  0.00     0.191 C 
BRANCH   6   7
HETATM    7  O1  UNL     1       2.974 -15.699   0.474  1.00  0.00    -0.399 OA
ATOM      8  H1  UNL     1       2.897 -14.756   0.392  1.00  0.00     0.209 HD
ENDBRANCH   6   7
ENDBRANCH   5   6
BRANCH   5   9
HETATM    9  C3  UNL     1       3.030 -18.241   0.748  1.00  0.00     0.191 C 
BRANCH   9  10
HETATM   10  O2  UNL     1       1.808 -18.025   1.369  1.00  0.00    -0.399 OA
ATOM     11  H2  UNL     1       1.941 -17.626   2.221  1.00  0.00     0.209 HD
ENDBRANCH   9  10
ENDBRANCH   5   9
ENDBRANCH   3   5
ENDBRANCH   1   2
BRANCH   1  12
HETATM   12  N2  UNL     1       6.921 -17.890   4.603  1.00  0.00    -0.361 N 
HETATM   13  C6  UNL     1       7.190 -16.902   5.475  1.00  0.00     0.091 A 
HETATM   14  C7  UNL     1       7.983 -17.088   6.587  1.00  0.00     0.029 A 
HETATM   15  C8  UNL     1       8.542 -18.341   6.842  1.00  0.00    -0.023 A 
HETATM   16  C9  UNL     1       9.339 -18.568   7.941  1.00  0.00     0.012 A 
HETATM   17  C13 UNL     1       8.251 -19.337   5.933  1.00  0.00    -0.010 A 
HETATM   18  C10 UNL     1       9.851 -19.824   8.122  1.00  0.00     0.001 A 
HETATM   19  C11 UNL     1       9.581 -20.845   7.234  1.00  0.00     0.001 A 
HETATM   20  C12 UNL     1       8.780 -20.613   6.134  1.00  0.00     0.013 A 
HETATM   21  C14 UNL     1       7.451 -19.104   4.836  1.00  0.00     0.103 A 
ENDBRANCH   1  12
TORSDOF 7
ENDMDL
