MODEL 1
REMARK VINA RESULT: -7.207244274      0.000      0.000
REMARK  6 active torsions:
REMARK  status: ('A' for Active; 'I' for Inactive)
REMARK    1  A    between atoms: C2_2  and  C4_4 
REMARK    2  A    between atoms: C4_4  and  C5_5 
REMARK    3  A    between atoms: C5_5  and  N1_6 
REMARK    4  A    between atoms: C5_5  and  C7_11 
REMARK    5  A    between atoms: C7_11  and  O1_12 
REMARK    6  A    between atoms: C7_11  and  C8_14 
ROOT
HETATM    1  C5  UNL     1       8.945 -20.112   6.818  1.00  0.00     0.117 C 
ENDROOT
BRANCH   1   2
HETATM    2  C4  UNL     1       9.878 -21.281   6.639  1.00  0.00     0.032 C 
BRANCH   2   3
HETATM    3  C2  UNL     1      10.453 -21.751   7.961  1.00  0.00    -0.021 C 
HETATM    4  C1  UNL     1      10.025 -23.176   8.243  1.00  0.00     0.009 C 
HETATM    5  C3  UNL     1      11.958 -21.697   7.947  1.00  0.00     0.009 C 
ENDBRANCH   2   3
ENDBRANCH   1   2
BRANCH   1   6
HETATM    6  N1  UNL     1       9.583 -19.061   7.543  1.00  0.00    -0.359 N 
HETATM    7  C6  UNL     1       8.983 -18.382   8.489  1.00  0.00     0.197 C 
HETATM    8  N2  UNL     1       9.675 -17.346   9.174  1.00  0.00    -0.067 NA
HETATM    9  N3  UNL     1       7.643 -18.708   8.806  1.00  0.00    -0.067 NA
ATOM     10  H1  UNL     1      10.549 -18.828   7.314  1.00  0.00     0.162 HD
ENDBRANCH   1   6
BRANCH   1  11
HETATM   11  C7  UNL     1       8.618 -19.578   5.427  1.00  0.00     0.174 C 
BRANCH  11  12
HETATM   12  O1  UNL     1       9.455 -18.474   5.141  1.00  0.00    -0.389 OA
ATOM     13  H1  UNL     1      10.214 -18.773   4.654  1.00  0.00     0.210 HD
ENDBRANCH  11  12
BRANCH  11  14
HETATM   14  C8  UNL     1       7.223 -19.090   5.339  1.00  0.00    -0.025 A 
HETATM   15  C9  UNL     1       6.225 -19.570   6.161  1.00  0.00     0.027 A 
HETATM   16  C10 UNL     1       4.932 -19.133   6.096  1.00  0.00     0.088 A 
HETATM   17  N4  UNL     1       4.595 -18.202   5.208  1.00  0.00    -0.375 N 
HETATM   18  C11 UNL     1       5.526 -17.693   4.376  1.00  0.00     0.088 A 
ATOM     19  H4  UNL     1       3.631 -17.873   5.155  1.00  0.00     0.164 HD
HETATM   20  C12 UNL     1       6.858 -18.126   4.424  1.00  0.00     0.027 A 
ENDBRANCH  11  14
ENDBRANCH   1  11
TORSDOF 6
ENDMDL
MODEL 2
REMARK VINA RESULT: -7.184309002      0.039      1.132
REMARK  6 active torsions:
REMARK  status: ('A' for Active; 'I' for Inactive)
REMARK    1  A    between atoms: C2_2  and  C4_4 
REMARK    2  A    between atoms: C4_4  and  C5_5 
REMARK    3  A    between atoms: C5_5  and  N1_6 
REMARK    4  A    between atoms: C5_5  and  C7_11 
REMARK    5  A    between atoms: C7_11  and  O1_12 
REMARK    6  A    between atoms: C7_11  and  C8_14 
ROOT
HETATM    1  C5  UNL     1       8.945 -20.098   6.811  1.00  0.00     0.117 C 
ENDROOT
BRANCH   1   2
HETATM    2  C4  UNL     1       9.878 -21.268   6.635  1.00  0.00     0.032 C 
BRANCH   2   3
HETATM    3  C2  UNL     1      10.452 -21.736   7.958  1.00  0.00    -0.021 C 
HETATM    4  C1  UNL     1      10.019 -23.158   8.246  1.00  0.00     0.009 C 
HETATM    5  C3  UNL     1      11.957 -21.687   7.943  1.00  0.00     0.009 C 
ENDBRANCH   2   3
ENDBRANCH   1   2
BRANCH   1   6
HETATM    6  N1  UNL     1       9.584 -19.046   7.532  1.00  0.00    -0.359 N 
HETATM    7  C6  UNL     1       8.991 -18.374   8.488  1.00  0.00     0.197 C 
HETATM    8  N2  UNL     1       9.684 -17.335   9.168  1.00  0.00    -0.067 NA
HETATM    9  N3  UNL     1       7.657 -18.711   8.819  1.00  0.00    -0.067 NA
ATOM     10  H1  UNL     1      10.546 -18.805   7.293  1.00  0.00     0.162 HD
ENDBRANCH   1   6
BRANCH   1  11
HETATM   11  C7  UNL     1       8.618 -19.569   5.419  1.00  0.00     0.174 C 
BRANCH  11  12
HETATM   12  O1  UNL     1       9.455 -18.467   5.127  1.00  0.00    -0.389 OA
ATOM     13  H1  UNL     1       9.261 -18.146   4.255  1.00  0.00     0.210 HD
ENDBRANCH  11  12
BRANCH  11  14
HETATM   14  C8  UNL     1       7.223 -19.080   5.330  1.00  0.00    -0.025 A 
HETATM   15  C9  UNL     1       6.840 -18.116   4.421  1.00  0.00     0.027 A 
HETATM   16  C10 UNL     1       5.559 -17.651   4.324  1.00  0.00     0.088 A 
HETATM   17  N4  UNL     1       4.619 -18.135   5.131  1.00  0.00    -0.375 N 
HETATM   18  C11 UNL     1       4.931 -19.079   6.042  1.00  0.00     0.088 A 
ATOM     19  H4  UNL     1       3.661 -17.791   5.062  1.00  0.00     0.164 HD
HETATM   20  C12 UNL     1       6.238 -19.571   6.160  1.00  0.00     0.027 A 
ENDBRANCH  11  14
ENDBRANCH   1  11
TORSDOF 6
ENDMDL
MODEL 3
REMARK VINA RESULT: -6.441650483      2.114      5.387
REMARK  6 active torsions:
REMARK  status: ('A' for Active; 'I' for Inactive)
REMARK    1  A    between atoms: C2_2  and  C4_4 
REMARK    2  A    between atoms: C4_4  and  C5_5 
REMARK    3  A    between atoms: C5_5  and  N1_6 
REMARK    4  A    between atoms: C5_5  and  C7_11 
REMARK    5  A    between atoms: C7_11  and  O1_12 
REMARK    6  A    between atoms: C7_11  and  C8_14 
ROOT
HETATM    1  C5  UNL     1       6.704 -17.635   5.193  1.00  0.00     0.117 C 
ENDROOT
BRANCH   1   2
HETATM    2  C4  UNL     1       5.483 -17.409   6.047  1.00  0.00     0.032 C 
BRANCH   2   3
HETATM    3  C2  UNL     1       5.051 -18.675   6.760  1.00  0.00    -0.021 C 
HETATM    4  C1  UNL     1       5.444 -19.893   5.952  1.00  0.00     0.009 C 
HETATM    5  C3  UNL     1       5.689 -18.775   8.121  1.00  0.00     0.009 C 
ENDBRANCH   2   3
ENDBRANCH   1   2
BRANCH   1   6
HETATM    6  N1  UNL     1       6.676 -16.797   4.039  1.00  0.00    -0.359 N 
HETATM    7  C6  UNL     1       5.847 -16.986   3.041  1.00  0.00     0.197 C 
HETATM    8  N2  UNL     1       5.871 -16.114   1.918  1.00  0.00    -0.067 NA
HETATM    9  N3  UNL     1       4.939 -18.069   3.116  1.00  0.00    -0.067 NA
ATOM     10  H1  UNL     1       7.330 -16.016   3.987  1.00  0.00     0.162 HD
ENDBRANCH   1   6
BRANCH   1  11
HETATM   11  C7  UNL     1       7.918 -17.232   6.024  1.00  0.00     0.174 C 
BRANCH  11  12
HETATM   12  O1  UNL     1       8.766 -16.410   5.246  1.00  0.00    -0.389 OA
ATOM     13  H1  UNL     1       9.605 -16.320   5.683  1.00  0.00     0.210 HD
ENDBRANCH  11  12
BRANCH  11  14
HETATM   14  C8  UNL     1       8.720 -18.408   6.432  1.00  0.00    -0.025 A 
HETATM   15  C9  UNL     1       9.077 -19.397   5.540  1.00  0.00     0.027 A 
HETATM   16  C10 UNL     1       9.816 -20.490   5.896  1.00  0.00     0.088 A 
HETATM   17  N4  UNL     1      10.223 -20.629   7.155  1.00  0.00    -0.375 N 
HETATM   18  C11 UNL     1       9.906 -19.695   8.074  1.00  0.00     0.088 A 
ATOM     19  H4  UNL     1      10.775 -21.443   7.425  1.00  0.00     0.164 HD
HETATM   20  C12 UNL     1       9.149 -18.567   7.732  1.00  0.00     0.027 A 
ENDBRANCH  11  14
ENDBRANCH   1  11
TORSDOF 6
ENDMDL
MODEL 4
REMARK VINA RESULT: -6.088497768      2.145      5.577
REMARK  6 active torsions:
REMARK  status: ('A' for Active; 'I' for Inactive)
REMARK    1  A    between atoms: C2_2  and  C4_4 
REMARK    2  A    between atoms: C4_4  and  C5_5 
REMARK    3  A    between atoms: C5_5  and  N1_6 
REMARK    4  A    between atoms: C5_5  and  C7_11 
REMARK    5  A    between atoms: C7_11  and  O1_12 
REMARK    6  A    between atoms: C7_11  and  C8_14 
ROOT
HETATM    1  C5  UNL     1       6.299 -18.404   4.997  1.00  0.00     0.117 C 
ENDROOT
BRANCH   1   2
HETATM    2  C4  UNL     1       4.898 -18.060   4.565  1.00  0.00     0.032 C 
BRANCH   2   3
HETATM    3  C2  UNL     1       4.875 -17.379   3.211  1.00  0.00    -0.021 C 
HETATM    4  C1  UNL     1       5.873 -18.032   2.278  1.00  0.00     0.009 C 
HETATM    5  C3  UNL     1       3.508 -17.463   2.585  1.00  0.00     0.009 C 
ENDBRANCH   2   3
ENDBRANCH   1   2
BRANCH   1   6
HETATM    6  N1  UNL     1       6.969 -17.252   5.508  1.00  0.00    -0.359 N 
HETATM    7  C6  UNL     1       8.245 -17.026   5.316  1.00  0.00     0.197 C 
HETATM    8  N2  UNL     1       8.853 -15.858   5.852  1.00  0.00    -0.067 NA
HETATM    9  N3  UNL     1       8.991 -17.968   4.567  1.00  0.00    -0.067 NA
ATOM     10  H1  UNL     1       6.430 -16.573   6.046  1.00  0.00     0.162 HD
ENDBRANCH   1   6
BRANCH   1  11
HETATM   11  C7  UNL     1       6.187 -19.412   6.136  1.00  0.00     0.174 C 
BRANCH  11  12
HETATM   12  O1  UNL     1       5.246 -18.945   7.084  1.00  0.00    -0.389 OA
ATOM     13  H1  UNL     1       5.692 -18.421   7.738  1.00  0.00     0.210 HD
ENDBRANCH  11  12
BRANCH  11  14
HETATM   14  C8  UNL     1       7.471 -19.576   6.855  1.00  0.00    -0.025 A 
HETATM   15  C9  UNL     1       7.808 -18.795   7.940  1.00  0.00     0.027 A 
HETATM   16  C10 UNL     1       8.987 -18.929   8.617  1.00  0.00     0.088 A 
HETATM   17  N4  UNL     1       9.868 -19.850   8.231  1.00  0.00    -0.375 N 
HETATM   18  C11 UNL     1       9.596 -20.644   7.177  1.00  0.00     0.088 A 
ATOM     19  H4  UNL     1      10.749 -19.954   8.733  1.00  0.00     0.164 HD
HETATM   20  C12 UNL     1       8.393 -20.524   6.467  1.00  0.00     0.027 A 
ENDBRANCH  11  14
ENDBRANCH   1  11
TORSDOF 6
ENDMDL
MODEL 5
REMARK VINA RESULT: -6.056264842      6.977      9.685
REMARK  6 active torsions:
REMARK  status: ('A' for Active; 'I' for Inactive)
REMARK    1  A    between atoms: C2_2  and  C4_4 
REMARK    2  A    between atoms: C4_4  and  C5_5 
REMARK    3  A    between atoms: C5_5  and  N1_6 
REMARK    4  A    between atoms: C5_5  and  C7_11 
REMARK    5  A    between atoms: C7_11  and  O1_12 
REMARK    6  A    between atoms: C7_11  and  C8_14 
ROOT
HETATM    1  C5  UNL     1       1.991 -19.991   0.195  1.00  0.00     0.117 C 
ENDROOT
BRANCH   1   2
HETATM    2  C4  UNL     1       0.693 -20.755   0.189  1.00  0.00     0.032 C 
BRANCH   2   3
HETATM    3  C2  UNL     1       0.824 -22.097   0.883  1.00  0.00    -0.021 C 
HETATM    4  C1  UNL     1      -0.216 -22.228   1.975  1.00  0.00     0.009 C 
HETATM    5  C3  UNL     1       0.642 -23.231  -0.091  1.00  0.00     0.009 C 
ENDBRANCH   2   3
ENDBRANCH   1   2
BRANCH   1   6
HETATM    6  N1  UNL     1       2.428 -19.726  -1.137  1.00  0.00    -0.359 N 
HETATM    7  C6  UNL     1       3.309 -20.470  -1.760  1.00  0.00     0.197 C 
HETATM    8  N2  UNL     1       3.702 -20.150  -3.089  1.00  0.00    -0.067 NA
HETATM    9  N3  UNL     1       3.848 -21.587  -1.079  1.00  0.00    -0.067 NA
ATOM     10  H1  UNL     1       2.036 -18.921  -1.627  1.00  0.00     0.162 HD
ENDBRANCH   1   6
BRANCH   1  11
HETATM   11  C7  UNL     1       1.722 -18.649   0.866  1.00  0.00     0.174 C 
BRANCH  11  12
HETATM   12  O1  UNL     1       0.955 -17.836  -0.001  1.00  0.00    -0.389 OA
ATOM     13  H1  UNL     1       0.048 -18.119   0.022  1.00  0.00     0.210 HD
ENDBRANCH  11  12
BRANCH  11  14
HETATM   14  C8  UNL     1       2.976 -17.911   1.144  1.00  0.00    -0.025 A 
HETATM   15  C9  UNL     1       4.087 -18.529   1.678  1.00  0.00     0.027 A 
HETATM   16  C10 UNL     1       5.252 -17.867   1.942  1.00  0.00     0.088 A 
HETATM   17  N4  UNL     1       5.347 -16.566   1.679  1.00  0.00    -0.375 N 
HETATM   18  C11 UNL     1       4.295 -15.906   1.155  1.00  0.00     0.088 A 
ATOM     19  H4  UNL     1       6.215 -16.068   1.873  1.00  0.00     0.164 HD
HETATM   20  C12 UNL     1       3.088 -16.563   0.877  1.00  0.00     0.027 A 
ENDBRANCH  11  14
ENDBRANCH   1  11
TORSDOF 6
ENDMDL
