MODEL 1
REMARK VINA RESULT: -7.748056388      0.000      0.000
REMARK  7 active torsions:
REMARK  status: ('A' for Active; 'I' for Inactive)
REMARK    1  A    between atoms: N1_2  and  C2_4 
REMARK    2  A    between atoms: C2_4  and  N2_6 
REMARK    3  A    between atoms: N2_6  and  C3_8 
REMARK    4  A    between atoms: C3_8  and  C4_9 
REMARK    5  A    between atoms: C4_9  and  N3_10 
REMARK    6  A    between atoms: N3_10  and  N4_12 
REMARK    7  A    between atoms: C5_14  and  C6_15 
ROOT
HETATM    1  N3  UNL     1      10.547 -19.824   7.784  1.00  0.00    -0.335 N 
ATOM      2  H3  UNL     1      11.382 -19.280   8.002  1.00  0.00     0.180 HD
ENDROOT
BRANCH   1   3
HETATM    3  C4  UNL     1      10.473 -21.216   8.132  1.00  0.00     0.159 C 
BRANCH   3   4
HETATM    4  C3  UNL     1      11.870 -21.835   8.037  1.00  0.00     0.143 C 
BRANCH   4   5
HETATM    5  N2  UNL     1      12.004 -22.864   9.076  1.00  0.00    -0.366 N 
ATOM      6  H2  UNL     1      12.251 -22.623  10.035  1.00  0.00     0.161 HD
BRANCH   5   7
HETATM    7  C2  UNL     1      11.775 -24.212   8.685  1.00  0.00     0.167 C 
HETATM    8  S1  UNL     1      12.416 -24.820   7.305  1.00  0.00    -0.041 SA
BRANCH   7   9
HETATM    9  N1  UNL     1      10.968 -25.024   9.535  1.00  0.00    -0.372 N 
HETATM   10  C1  UNL     1       9.666 -25.417   9.038  1.00  0.00     0.148 C 
ATOM     11  H1  UNL     1      11.294 -25.318  10.456  1.00  0.00     0.161 HD
ENDBRANCH   7   9
ENDBRANCH   5   7
ENDBRANCH   4   5
ENDBRANCH   3   4
ENDBRANCH   1   3
BRANCH   1  12
HETATM   12  N4  UNL     1       9.465 -19.226   7.147  1.00  0.00    -0.315 N 
HETATM   13  C5  UNL     1       8.506 -19.984   6.720  1.00  0.00     0.118 C 
ATOM     14  H4  UNL     1       9.428 -18.215   7.018  1.00  0.00     0.185 HD
BRANCH  13  15
HETATM   15  C6  UNL     1       7.376 -19.343   6.054  1.00  0.00    -0.019 A 
HETATM   16  C7  UNL     1       7.488 -18.798   4.790  1.00  0.00     0.013 A 
HETATM   17  C8  UNL     1       6.414 -18.201   4.183  1.00  0.00     0.001 A 
HETATM   18  C9  UNL     1       5.189 -18.126   4.815  1.00  0.00     0.000 A 
HETATM   19  C10 UNL     1       5.053 -18.653   6.056  1.00  0.00     0.001 A 
HETATM   20  C11 UNL     1       6.140 -19.255   6.665  1.00  0.00     0.013 A 
ENDBRANCH  13  15
ENDBRANCH   1  12
TORSDOF 7
ENDMDL
MODEL 2
REMARK VINA RESULT: -7.608833364      0.906      1.696
REMARK  7 active torsions:
REMARK  status: ('A' for Active; 'I' for Inactive)
REMARK    1  A    between atoms: N1_2  and  C2_4 
REMARK    2  A    between atoms: C2_4  and  N2_6 
REMARK    3  A    between atoms: N2_6  and  C3_8 
REMARK    4  A    between atoms: C3_8  and  C4_9 
REMARK    5  A    between atoms: C4_9  and  N3_10 
REMARK    6  A    between atoms: N3_10  and  N4_12 
REMARK    7  A    between atoms: C5_14  and  C6_15 
ROOT
HETATM    1  N3  UNL     1      10.563 -19.790   7.764  1.00  0.00    -0.335 N 
ATOM      2  H3  UNL     1      11.407 -19.249   7.952  1.00  0.00     0.180 HD
ENDROOT
BRANCH   1   3
HETATM    3  C4  UNL     1      10.488 -21.176   8.138  1.00  0.00     0.159 C 
BRANCH   3   4
HETATM    4  C3  UNL     1      11.851 -21.835   7.912  1.00  0.00     0.143 C 
BRANCH   4   5
HETATM    5  N2  UNL     1      12.220 -22.586   9.117  1.00  0.00    -0.366 N 
ATOM      6  H2  UNL     1      12.336 -22.123  10.018  1.00  0.00     0.161 HD
BRANCH   5   7
HETATM    7  C2  UNL     1      12.411 -23.988   8.974  1.00  0.00     0.167 C 
HETATM    8  S1  UNL     1      12.532 -24.684   7.495  1.00  0.00    -0.041 SA
BRANCH   7   9
HETATM    9  N1  UNL     1      12.494 -24.775  10.160  1.00  0.00    -0.372 N 
HETATM   10  C1  UNL     1      13.561 -24.466  11.088  1.00  0.00     0.148 C 
ATOM     11  H1  UNL     1      11.829 -25.525  10.347  1.00  0.00     0.161 HD
ENDBRANCH   7   9
ENDBRANCH   5   7
ENDBRANCH   4   5
ENDBRANCH   3   4
ENDBRANCH   1   3
BRANCH   1  12
HETATM   12  N4  UNL     1       9.469 -19.196   7.142  1.00  0.00    -0.315 N 
HETATM   13  C5  UNL     1       8.508 -19.957   6.726  1.00  0.00     0.118 C 
ATOM     14  H4  UNL     1       9.426 -18.184   7.017  1.00  0.00     0.185 HD
BRANCH  13  15
HETATM   15  C6  UNL     1       7.367 -19.320   6.077  1.00  0.00    -0.019 A 
HETATM   16  C7  UNL     1       6.138 -19.216   6.697  1.00  0.00     0.013 A 
HETATM   17  C8  UNL     1       5.080 -18.613   6.068  1.00  0.00     0.001 A 
HETATM   18  C9  UNL     1       5.210 -18.092   4.797  1.00  0.00     0.000 A 
HETATM   19  C10 UNL     1       6.406 -18.180   4.166  1.00  0.00     0.001 A 
HETATM   20  C11 UNL     1       7.472 -18.790   4.805  1.00  0.00     0.013 A 
ENDBRANCH  13  15
ENDBRANCH   1  12
TORSDOF 7
ENDMDL
MODEL 3
REMARK VINA RESULT: -7.523908636      3.146      4.902
REMARK  7 active torsions:
REMARK  status: ('A' for Active; 'I' for Inactive)
REMARK    1  A    between atoms: N1_2  and  C2_4 
REMARK    2  A    between atoms: C2_4  and  N2_6 
REMARK    3  A    between atoms: N2_6  and  C3_8 
REMARK    4  A    between atoms: C3_8  and  C4_9 
REMARK    5  A    between atoms: C4_9  and  N3_10 
REMARK    6  A    between atoms: N3_10  and  N4_12 
REMARK    7  A    between atoms: C5_14  and  C6_15 
ROOT
HETATM    1  N3  UNL     1       7.859 -17.646   4.895  1.00  0.00    -0.335 N 
ATOM      2  H3  UNL     1       8.318 -18.517   4.625  1.00  0.00     0.180 HD
ENDROOT
BRANCH   1   3
HETATM    3  C4  UNL     1       8.280 -16.937   6.071  1.00  0.00     0.159 C 
BRANCH   3   4
HETATM    4  C3  UNL     1       8.179 -17.864   7.285  1.00  0.00     0.143 C 
BRANCH   4   5
HETATM    5  N2  UNL     1       9.527 -18.308   7.657  1.00  0.00    -0.366 N 
ATOM      6  H2  UNL     1      10.189 -17.678   8.111  1.00  0.00     0.161 HD
BRANCH   5   7
HETATM    7  C2  UNL     1       9.870 -19.655   7.359  1.00  0.00     0.167 C 
HETATM    8  S1  UNL     1       8.851 -20.629   6.523  1.00  0.00    -0.041 SA
BRANCH   7   9
HETATM    9  N1  UNL     1      11.135 -20.137   7.808  1.00  0.00    -0.372 N 
HETATM   10  C1  UNL     1      11.300 -21.571   7.915  1.00  0.00     0.148 C 
ATOM     11  H1  UNL     1      11.894 -19.497   8.045  1.00  0.00     0.161 HD
ENDBRANCH   7   9
ENDBRANCH   5   7
ENDBRANCH   4   5
ENDBRANCH   3   4
ENDBRANCH   1   3
BRANCH   1  12
HETATM   12  N4  UNL     1       6.819 -17.131   4.129  1.00  0.00    -0.315 N 
HETATM   13  C5  UNL     1       6.175 -17.935   3.345  1.00  0.00     0.118 C 
ATOM     14  H4  UNL     1       6.570 -16.143   4.183  1.00  0.00     0.185 HD
BRANCH  13  15
HETATM   15  C6  UNL     1       5.085 -17.381   2.548  1.00  0.00    -0.019 A 
HETATM   16  C7  UNL     1       5.253 -16.259   1.761  1.00  0.00     0.013 A 
HETATM   17  C8  UNL     1       4.216 -15.756   1.020  1.00  0.00     0.001 A 
HETATM   18  C9  UNL     1       2.972 -16.354   1.038  1.00  0.00     0.000 A 
HETATM   19  C10 UNL     1       2.781 -17.457   1.801  1.00  0.00     0.001 A 
HETATM   20  C11 UNL     1       3.831 -17.961   2.548  1.00  0.00     0.013 A 
ENDBRANCH  13  15
ENDBRANCH   1  12
TORSDOF 7
ENDMDL
MODEL 4
REMARK VINA RESULT: -7.520299699      1.165      1.380
REMARK  7 active torsions:
REMARK  status: ('A' for Active; 'I' for Inactive)
REMARK    1  A    between atoms: N1_2  and  C2_4 
REMARK    2  A    between atoms: C2_4  and  N2_6 
REMARK    3  A    between atoms: N2_6  and  C3_8 
REMARK    4  A    between atoms: C3_8  and  C4_9 
REMARK    5  A    between atoms: C4_9  and  N3_10 
REMARK    6  A    between atoms: N3_10  and  N4_12 
REMARK    7  A    between atoms: C5_14  and  C6_15 
ROOT
HETATM    1  N3  UNL     1      10.555 -19.754   7.729  1.00  0.00    -0.335 N 
ATOM      2  H3  UNL     1      11.403 -19.213   7.898  1.00  0.00     0.180 HD
ENDROOT
BRANCH   1   3
HETATM    3  C4  UNL     1      10.469 -21.124   8.152  1.00  0.00     0.159 C 
BRANCH   3   4
HETATM    4  C3  UNL     1      11.828 -21.800   7.956  1.00  0.00     0.143 C 
BRANCH   4   5
HETATM    5  N2  UNL     1      12.062 -22.726   9.070  1.00  0.00    -0.366 N 
ATOM      6  H2  UNL     1      12.055 -22.407  10.039  1.00  0.00     0.161 HD
BRANCH   5   7
HETATM    7  C2  UNL     1      12.300 -24.089   8.741  1.00  0.00     0.167 C 
HETATM    8  S1  UNL     1      12.913 -25.137   9.842  1.00  0.00    -0.041 SA
BRANCH   7   9
HETATM    9  N1  UNL     1      11.986 -24.520   7.418  1.00  0.00    -0.372 N 
HETATM   10  C1  UNL     1      13.069 -25.056   6.620  1.00  0.00     0.148 C 
ATOM     11  H1  UNL     1      11.037 -24.454   7.049  1.00  0.00     0.161 HD
ENDBRANCH   7   9
ENDBRANCH   5   7
ENDBRANCH   4   5
ENDBRANCH   3   4
ENDBRANCH   1   3
BRANCH   1  12
HETATM   12  N4  UNL     1       9.467 -19.173   7.085  1.00  0.00    -0.315 N 
HETATM   13  C5  UNL     1       8.479 -19.935   6.737  1.00  0.00     0.118 C 
ATOM     14  H4  UNL     1       9.448 -18.172   6.893  1.00  0.00     0.185 HD
BRANCH  13  15
HETATM   15  C6  UNL     1       7.344 -19.312   6.064  1.00  0.00    -0.019 A 
HETATM   16  C7  UNL     1       7.446 -18.793   4.788  1.00  0.00     0.013 A 
HETATM   17  C8  UNL     1       6.366 -18.213   4.175  1.00  0.00     0.001 A 
HETATM   18  C9  UNL     1       5.145 -18.128   4.812  1.00  0.00     0.000 A 
HETATM   19  C10 UNL     1       5.018 -18.630   6.065  1.00  0.00     0.001 A 
HETATM   20  C11 UNL     1       6.111 -19.215   6.680  1.00  0.00     0.013 A 
ENDBRANCH  13  15
ENDBRANCH   1  12
TORSDOF 7
ENDMDL
MODEL 5
REMARK VINA RESULT: -7.511330953      3.136      4.997
REMARK  7 active torsions:
REMARK  status: ('A' for Active; 'I' for Inactive)
REMARK    1  A    between atoms: N1_2  and  C2_4 
REMARK    2  A    between atoms: C2_4  and  N2_6 
REMARK    3  A    between atoms: N2_6  and  C3_8 
REMARK    4  A    between atoms: C3_8  and  C4_9 
REMARK    5  A    between atoms: C4_9  and  N3_10 
REMARK    6  A    between atoms: N3_10  and  N4_12 
REMARK    7  A    between atoms: C5_14  and  C6_15 
ROOT
HETATM    1  N3  UNL     1       7.869 -17.647   4.896  1.00  0.00    -0.335 N 
ATOM      2  H3  UNL     1       8.337 -18.511   4.620  1.00  0.00     0.180 HD
ENDROOT
BRANCH   1   3
HETATM    3  C4  UNL     1       8.290 -16.935   6.071  1.00  0.00     0.159 C 
BRANCH   3   4
HETATM    4  C3  UNL     1       8.178 -17.857   7.288  1.00  0.00     0.143 C 
BRANCH   4   5
HETATM    5  N2  UNL     1       9.521 -18.309   7.666  1.00  0.00    -0.366 N 
ATOM      6  H2  UNL     1      10.182 -17.686   8.130  1.00  0.00     0.161 HD
BRANCH   5   7
HETATM    7  C2  UNL     1       9.862 -19.655   7.359  1.00  0.00     0.167 C 
HETATM    8  S1  UNL     1       8.837 -20.624   6.524  1.00  0.00    -0.041 SA
BRANCH   7   9
HETATM    9  N1  UNL     1      11.129 -20.140   7.798  1.00  0.00    -0.372 N 
HETATM   10  C1  UNL     1      11.273 -21.571   7.962  1.00  0.00     0.148 C 
ATOM     11  H1  UNL     1      11.904 -19.504   7.989  1.00  0.00     0.161 HD
ENDBRANCH   7   9
ENDBRANCH   5   7
ENDBRANCH   4   5
ENDBRANCH   3   4
ENDBRANCH   1   3
BRANCH   1  12
HETATM   12  N4  UNL     1       6.817 -17.143   4.139  1.00  0.00    -0.315 N 
HETATM   13  C5  UNL     1       6.166 -17.957   3.370  1.00  0.00     0.118 C 
ATOM     14  H4  UNL     1       6.564 -16.156   4.188  1.00  0.00     0.185 HD
BRANCH  13  15
HETATM   15  C6  UNL     1       5.064 -17.415   2.582  1.00  0.00    -0.019 A 
HETATM   16  C7  UNL     1       3.804 -17.981   2.602  1.00  0.00     0.013 A 
HETATM   17  C8  UNL     1       2.784 -17.454   1.854  1.00  0.00     0.001 A 
HETATM   18  C9  UNL     1       2.982 -16.345   1.058  1.00  0.00     0.000 A 
HETATM   19  C10 UNL     1       4.209 -15.770   1.021  1.00  0.00     0.001 A 
HETATM   20  C11 UNL     1       5.237 -16.304   1.778  1.00  0.00     0.013 A 
ENDBRANCH  13  15
ENDBRANCH   1  12
TORSDOF 7
ENDMDL
