MODEL 1
REMARK VINA RESULT: -6.258514806      0.000      0.000
REMARK  13 active torsions:
REMARK  status: ('A' for Active; 'I' for Inactive)
REMARK    1  A    between atoms: C2_2  and  C3_3 
REMARK    2  A    between atoms: C3_3  and  N1_4 
REMARK    3  A    between atoms: C3_3  and  C13_18 
REMARK       I    between atoms: N1_4  and  C4_5 
REMARK    4  A    between atoms: C4_5  and  C5_7 
REMARK    5  A    between atoms: C5_7  and  N2_9 
REMARK    6  A    between atoms: N2_9  and  C7_10 
REMARK    7  A    between atoms: N2_9  and  C9_14 
REMARK    8  A    between atoms: C7_10  and  C8_11 
REMARK    9  A    between atoms: C9_14  and  C10_15 
REMARK   10  A    between atoms: C13_18  and  O4_19 
REMARK   11  A    between atoms: C13_18  and  N3_21 
REMARK   12  A    between atoms: N3_21  and  C14_23 
REMARK   13  A    between atoms: C14_23  and  C15_24 
ROOT
HETATM    1  N1  UNL     1      25.347 -79.453  12.622  1.00  0.00    -0.369 NA
HETATM    2  C4  UNL     1      25.150 -78.536  13.577  1.00  0.00     0.314 C 
HETATM    3  O1  UNL     1      25.683 -78.097  14.504  1.00  0.00    -0.255 OA
ENDROOT
BRANCH   1   4
HETATM    4  C3  UNL     1      25.586 -80.441  11.608  1.00  0.00     0.138 C 
BRANCH   4   5
HETATM    5  C2  UNL     1      25.711 -81.864  12.138  1.00  0.00     0.073 C 
HETATM    6  C1  UNL     1      27.130 -82.313  11.775  1.00  0.00     0.013 C 
ENDBRANCH   4   5
BRANCH   4   7
HETATM    7  C13 UNL     1      24.806 -80.278  10.397  1.00  0.00     0.173 C 
BRANCH   7   8
HETATM    8  O4  UNL     1      23.465 -80.450  10.552  1.00  0.00    -0.344 OA
ATOM      9  H4  UNL     1      22.925 -79.827  10.081  1.00  0.00     0.219 HD
ENDBRANCH   7   8
BRANCH   7  10
HETATM   10  N3  UNL     1      25.084 -80.009   9.076  1.00  0.00    -0.358 N 
ATOM     11  H3  UNL     1      24.378 -79.947   8.342  1.00  0.00     0.162 HD
BRANCH  10  12
HETATM   12  C14 UNL     1      26.573 -79.817   8.846  1.00  0.00     0.235 C 
BRANCH  12  13
HETATM   13  C15 UNL     1      26.855 -80.987   7.967  1.00  0.00     0.191 C 
HETATM   14  O5  UNL     1      26.523 -82.118   8.268  1.00  0.00    -0.647 OA
HETATM   15  O6  UNL     1      27.577 -80.786   6.743  1.00  0.00    -0.647 OA
ENDBRANCH  12  13
ENDBRANCH  10  12
ENDBRANCH   7  10
ENDBRANCH   4   7
ENDBRANCH   1   4
BRANCH   2  16
HETATM   16  C5  UNL     1      23.668 -77.943  13.231  1.00  0.00     0.187 C 
HETATM   17  C6  UNL     1      22.962 -78.066  14.595  1.00  0.00     0.043 C 
BRANCH  16  18
HETATM   18  N2  UNL     1      23.683 -76.800  12.658  1.00  0.00    -0.369 N 
BRANCH  18  19
HETATM   19  C7  UNL     1      22.819 -76.961  11.442  1.00  0.00     0.235 C 
BRANCH  19  20
HETATM   20  C8  UNL     1      23.558 -77.062  10.222  1.00  0.00     0.191 C 
HETATM   21  O2  UNL     1      22.725 -77.779   9.266  1.00  0.00    -0.647 OA
HETATM   22  O3  UNL     1      24.669 -76.817   9.551  1.00  0.00    -0.647 OA
ENDBRANCH  19  20
ENDBRANCH  18  19
BRANCH  18  23
HETATM   23  C9  UNL     1      23.676 -75.578  13.357  1.00  0.00     0.063 C 
BRANCH  23  24
HETATM   24  C10 UNL     1      24.870 -74.723  13.376  1.00  0.00     0.016 C 
HETATM   25  C11 UNL     1      26.101 -75.144  12.629  1.00  0.00     0.015 C 
HETATM   26  C12 UNL     1      25.272 -74.596  14.851  1.00  0.00     0.015 C 
ENDBRANCH  23  24
ENDBRANCH  18  23
ENDBRANCH  16  18
ENDBRANCH   2  16
TORSDOF 13
ENDMDL
MODEL 2
REMARK VINA RESULT: -6.165015544      1.553      2.722
REMARK  13 active torsions:
REMARK  status: ('A' for Active; 'I' for Inactive)
REMARK    1  A    between atoms: C2_2  and  C3_3 
REMARK    2  A    between atoms: C3_3  and  N1_4 
REMARK    3  A    between atoms: C3_3  and  C13_18 
REMARK       I    between atoms: N1_4  and  C4_5 
REMARK    4  A    between atoms: C4_5  and  C5_7 
REMARK    5  A    between atoms: C5_7  and  N2_9 
REMARK    6  A    between atoms: N2_9  and  C7_10 
REMARK    7  A    between atoms: N2_9  and  C9_14 
REMARK    8  A    between atoms: C7_10  and  C8_11 
REMARK    9  A    between atoms: C9_14  and  C10_15 
REMARK   10  A    between atoms: C13_18  and  O4_19 
REMARK   11  A    between atoms: C13_18  and  N3_21 
REMARK   12  A    between atoms: N3_21  and  C14_23 
REMARK   13  A    between atoms: C14_23  and  C15_24 
ROOT
HETATM    1  N1  UNL     1      25.301 -79.400  12.360  1.00  0.00    -0.369 NA
HETATM    2  C4  UNL     1      25.064 -78.411  13.232  1.00  0.00     0.314 C 
HETATM    3  O1  UNL     1      25.351 -78.094  14.306  1.00  0.00    -0.255 OA
ENDROOT
BRANCH   1   4
HETATM    4  C3  UNL     1      25.573 -80.473  11.445  1.00  0.00     0.138 C 
BRANCH   4   5
HETATM    5  C2  UNL     1      25.695 -81.842  12.103  1.00  0.00     0.073 C 
HETATM    6  C1  UNL     1      27.136 -82.292  11.845  1.00  0.00     0.013 C 
ENDBRANCH   4   5
BRANCH   4   7
HETATM    7  C13 UNL     1      24.822 -80.425  10.206  1.00  0.00     0.173 C 
BRANCH   7   8
HETATM    8  O4  UNL     1      23.473 -80.336  10.356  1.00  0.00    -0.344 OA
ATOM      9  H4  UNL     1      23.050 -79.695   9.797  1.00  0.00     0.219 HD
ENDBRANCH   7   8
BRANCH   7  10
HETATM   10  N3  UNL     1      25.131 -80.477   8.865  1.00  0.00    -0.358 N 
ATOM     11  H3  UNL     1      24.457 -80.324   8.115  1.00  0.00     0.162 HD
BRANCH  10  12
HETATM   12  C14 UNL     1      26.601 -80.787   8.642  1.00  0.00     0.235 C 
BRANCH  12  13
HETATM   13  C15 UNL     1      26.490 -81.844   7.597  1.00  0.00     0.191 C 
HETATM   14  O5  UNL     1      25.544 -82.608   7.548  1.00  0.00    -0.647 OA
HETATM   15  O6  UNL     1      27.546 -81.996   6.639  1.00  0.00    -0.647 OA
ENDBRANCH  12  13
ENDBRANCH  10  12
ENDBRANCH   7  10
ENDBRANCH   4   7
ENDBRANCH   1   4
BRANCH   2  16
HETATM   16  C5  UNL     1      24.034 -77.434  12.425  1.00  0.00     0.187 C 
HETATM   17  C6  UNL     1      22.732 -77.634  13.224  1.00  0.00     0.043 C 
BRANCH  16  18
HETATM   18  N2  UNL     1      24.466 -76.243  12.258  1.00  0.00    -0.369 N 
BRANCH  18  19
HETATM   19  C7  UNL     1      23.818 -75.437  13.344  1.00  0.00     0.235 C 
BRANCH  19  20
HETATM   20  C8  UNL     1      24.749 -74.854  14.260  1.00  0.00     0.191 C 
HETATM   21  O2  UNL     1      24.356 -75.263  15.602  1.00  0.00    -0.647 OA
HETATM   22  O3  UNL     1      25.809 -74.093  14.461  1.00  0.00    -0.647 OA
ENDBRANCH  19  20
ENDBRANCH  18  19
BRANCH  18  23
HETATM   23  C9  UNL     1      25.783 -75.940  11.863  1.00  0.00     0.063 C 
BRANCH  23  24
HETATM   24  C10 UNL     1      26.169 -76.000  10.446  1.00  0.00     0.016 C 
HETATM   25  C11 UNL     1      26.765 -77.258   9.888  1.00  0.00     0.015 C 
HETATM   26  C12 UNL     1      27.211 -74.893  10.248  1.00  0.00     0.015 C 
ENDBRANCH  23  24
ENDBRANCH  18  23
ENDBRANCH  16  18
ENDBRANCH   2  16
TORSDOF 13
ENDMDL
MODEL 3
REMARK VINA RESULT: -6.137425649      1.198      1.801
REMARK  13 active torsions:
REMARK  status: ('A' for Active; 'I' for Inactive)
REMARK    1  A    between atoms: C2_2  and  C3_3 
REMARK    2  A    between atoms: C3_3  and  N1_4 
REMARK    3  A    between atoms: C3_3  and  C13_18 
REMARK       I    between atoms: N1_4  and  C4_5 
REMARK    4  A    between atoms: C4_5  and  C5_7 
REMARK    5  A    between atoms: C5_7  and  N2_9 
REMARK    6  A    between atoms: N2_9  and  C7_10 
REMARK    7  A    between atoms: N2_9  and  C9_14 
REMARK    8  A    between atoms: C7_10  and  C8_11 
REMARK    9  A    between atoms: C9_14  and  C10_15 
REMARK   10  A    between atoms: C13_18  and  O4_19 
REMARK   11  A    between atoms: C13_18  and  N3_21 
REMARK   12  A    between atoms: N3_21  and  C14_23 
REMARK   13  A    between atoms: C14_23  and  C15_24 
ROOT
HETATM    1  N1  UNL     1      25.316 -79.568  12.278  1.00  0.00    -0.369 NA
HETATM    2  C4  UNL     1      24.998 -78.569  13.111  1.00  0.00     0.314 C 
HETATM    3  O1  UNL     1      24.952 -78.345  14.245  1.00  0.00    -0.255 OA
ENDROOT
BRANCH   1   4
HETATM    4  C3  UNL     1      25.666 -80.655  11.408  1.00  0.00     0.138 C 
BRANCH   4   5
HETATM    5  C2  UNL     1      25.869 -81.987  12.120  1.00  0.00     0.073 C 
HETATM    6  C1  UNL     1      27.332 -82.364  11.872  1.00  0.00     0.013 C 
ENDBRANCH   4   5
BRANCH   4   7
HETATM    7  C13 UNL     1      24.926 -80.705  10.162  1.00  0.00     0.173 C 
BRANCH   7   8
HETATM    8  O4  UNL     1      23.579 -80.837  10.301  1.00  0.00    -0.344 OA
ATOM      9  H4  UNL     1      23.304 -81.446  10.976  1.00  0.00     0.219 HD
ENDBRANCH   7   8
BRANCH   7  10
HETATM   10  N3  UNL     1      25.249 -80.678   8.824  1.00  0.00    -0.358 N 
ATOM     11  H3  UNL     1      24.574 -80.528   8.074  1.00  0.00     0.162 HD
BRANCH  10  12
HETATM   12  C14 UNL     1      26.734 -80.900   8.604  1.00  0.00     0.235 C 
BRANCH  12  13
HETATM   13  C15 UNL     1      26.690 -81.878   7.480  1.00  0.00     0.191 C 
HETATM   14  O5  UNL     1      27.581 -81.957   6.656  1.00  0.00    -0.647 OA
HETATM   15  O6  UNL     1      25.544 -82.730   7.338  1.00  0.00    -0.647 OA
ENDBRANCH  12  13
ENDBRANCH  10  12
ENDBRANCH   7  10
ENDBRANCH   4   7
ENDBRANCH   1   4
BRANCH   2  16
HETATM   16  C5  UNL     1      24.533 -77.371  12.104  1.00  0.00     0.187 C 
HETATM   17  C6  UNL     1      23.013 -77.613  12.021  1.00  0.00     0.043 C 
BRANCH  16  18
HETATM   18  N2  UNL     1      24.943 -76.210  12.449  1.00  0.00    -0.369 N 
BRANCH  18  19
HETATM   19  C7  UNL     1      26.042 -75.881  11.482  1.00  0.00     0.235 C 
BRANCH  19  20
HETATM   20  C8  UNL     1      25.840 -76.428  10.177  1.00  0.00     0.191 C 
HETATM   21  O2  UNL     1      26.912 -77.386   9.935  1.00  0.00    -0.647 OA
HETATM   22  O3  UNL     1      25.132 -76.461   9.062  1.00  0.00    -0.647 OA
ENDBRANCH  19  20
ENDBRANCH  18  19
BRANCH  18  23
HETATM   23  C9  UNL     1      24.090 -75.186  12.904  1.00  0.00     0.063 C 
BRANCH  23  24
HETATM   24  C10 UNL     1      24.152 -74.729  14.299  1.00  0.00     0.016 C 
HETATM   25  C11 UNL     1      25.416 -74.907  15.086  1.00  0.00     0.015 C 
HETATM   26  C12 UNL     1      23.057 -75.504  15.042  1.00  0.00     0.015 C 
ENDBRANCH  23  24
ENDBRANCH  18  23
ENDBRANCH  16  18
ENDBRANCH   2  16
TORSDOF 13
ENDMDL
MODEL 4
REMARK VINA RESULT: -6.028009100      1.400      1.872
REMARK  13 active torsions:
REMARK  status: ('A' for Active; 'I' for Inactive)
REMARK    1  A    between atoms: C2_2  and  C3_3 
REMARK    2  A    between atoms: C3_3  and  N1_4 
REMARK    3  A    between atoms: C3_3  and  C13_18 
REMARK       I    between atoms: N1_4  and  C4_5 
REMARK    4  A    between atoms: C4_5  and  C5_7 
REMARK    5  A    between atoms: C5_7  and  N2_9 
REMARK    6  A    between atoms: N2_9  and  C7_10 
REMARK    7  A    between atoms: N2_9  and  C9_14 
REMARK    8  A    between atoms: C7_10  and  C8_11 
REMARK    9  A    between atoms: C9_14  and  C10_15 
REMARK   10  A    between atoms: C13_18  and  O4_19 
REMARK   11  A    between atoms: C13_18  and  N3_21 
REMARK   12  A    between atoms: N3_21  and  C14_23 
REMARK   13  A    between atoms: C14_23  and  C15_24 
ROOT
HETATM    1  N1  UNL     1      25.489 -79.259  11.194  1.00  0.00    -0.369 NA
HETATM    2  C4  UNL     1      25.437 -77.967  11.544  1.00  0.00     0.314 C 
HETATM    3  O1  UNL     1      25.972 -76.968  11.316  1.00  0.00    -0.255 OA
ENDROOT
BRANCH   1   4
HETATM    4  C3  UNL     1      25.567 -80.638  10.801  1.00  0.00     0.138 C 
BRANCH   4   5
HETATM    5  C2  UNL     1      25.780 -81.608  11.957  1.00  0.00     0.073 C 
HETATM    6  C1  UNL     1      27.096 -82.328  11.648  1.00  0.00     0.013 C 
ENDBRANCH   4   5
BRANCH   4   7
HETATM    7  C13 UNL     1      24.603 -81.044   9.797  1.00  0.00     0.173 C 
BRANCH   7   8
HETATM    8  O4  UNL     1      23.340 -81.238  10.262  1.00  0.00    -0.344 OA
ATOM      9  H4  UNL     1      22.918 -82.031   9.954  1.00  0.00     0.219 HD
ENDBRANCH   7   8
BRANCH   7  10
HETATM   10  N3  UNL     1      24.644 -81.319   8.449  1.00  0.00    -0.358 N 
ATOM     11  H3  UNL     1      23.910 -81.815   7.943  1.00  0.00     0.162 HD
BRANCH  10  12
HETATM   12  C14 UNL     1      25.916 -80.793   7.809  1.00  0.00     0.235 C 
BRANCH  12  13
HETATM   13  C15 UNL     1      26.401 -82.030   7.133  1.00  0.00     0.191 C 
HETATM   14  O5  UNL     1      27.556 -82.161   6.776  1.00  0.00    -0.647 OA
HETATM   15  O6  UNL     1      25.472 -83.087   6.856  1.00  0.00    -0.647 OA
ENDBRANCH  12  13
ENDBRANCH  10  12
ENDBRANCH   7  10
ENDBRANCH   4   7
ENDBRANCH   1   4
BRANCH   2  16
HETATM   16  C5  UNL     1      24.225 -77.921  12.637  1.00  0.00     0.187 C 
HETATM   17  C6  UNL     1      24.939 -78.423  13.907  1.00  0.00     0.043 C 
BRANCH  16  18
HETATM   18  N2  UNL     1      23.611 -76.801  12.691  1.00  0.00    -0.369 N 
BRANCH  18  19
HETATM   19  C7  UNL     1      22.766 -76.758  11.453  1.00  0.00     0.235 C 
BRANCH  19  20
HETATM   20  C8  UNL     1      21.865 -77.862  11.335  1.00  0.00     0.191 C 
HETATM   21  O2  UNL     1      22.129 -78.507  10.055  1.00  0.00    -0.647 OA
HETATM   22  O3  UNL     1      20.877 -78.574  11.848  1.00  0.00    -0.647 OA
ENDBRANCH  19  20
ENDBRANCH  18  19
BRANCH  18  23
HETATM   23  C9  UNL     1      23.120 -76.238  13.885  1.00  0.00     0.063 C 
BRANCH  23  24
HETATM   24  C10 UNL     1      23.752 -75.043  14.460  1.00  0.00     0.016 C 
HETATM   25  C11 UNL     1      24.750 -74.265  13.654  1.00  0.00     0.015 C 
HETATM   26  C12 UNL     1      24.482 -75.521  15.722  1.00  0.00     0.015 C 
ENDBRANCH  23  24
ENDBRANCH  18  23
ENDBRANCH  16  18
ENDBRANCH   2  16
TORSDOF 13
ENDMDL
MODEL 5
REMARK VINA RESULT: -6.014548178      1.780      6.428
REMARK  13 active torsions:
REMARK  status: ('A' for Active; 'I' for Inactive)
REMARK    1  A    between atoms: C2_2  and  C3_3 
REMARK    2  A    between atoms: C3_3  and  N1_4 
REMARK    3  A    between atoms: C3_3  and  C13_18 
REMARK       I    between atoms: N1_4  and  C4_5 
REMARK    4  A    between atoms: C4_5  and  C5_7 
REMARK    5  A    between atoms: C5_7  and  N2_9 
REMARK    6  A    between atoms: N2_9  and  C7_10 
REMARK    7  A    between atoms: N2_9  and  C9_14 
REMARK    8  A    between atoms: C7_10  and  C8_11 
REMARK    9  A    between atoms: C9_14  and  C10_15 
REMARK   10  A    between atoms: C13_18  and  O4_19 
REMARK   11  A    between atoms: C13_18  and  N3_21 
REMARK   12  A    between atoms: N3_21  and  C14_23 
REMARK   13  A    between atoms: C14_23  and  C15_24 
ROOT
HETATM    1  N1  UNL     1      24.705 -78.904  11.351  1.00  0.00    -0.369 NA
HETATM    2  C4  UNL     1      24.576 -80.075  10.713  1.00  0.00     0.314 C 
HETATM    3  O1  UNL     1      23.751 -80.759  10.280  1.00  0.00    -0.255 OA
ENDROOT
BRANCH   1   4
HETATM    4  C3  UNL     1      24.813 -77.645  12.033  1.00  0.00     0.138 C 
BRANCH   4   5
HETATM    5  C2  UNL     1      24.759 -76.430  11.115  1.00  0.00     0.073 C 
HETATM    6  C1  UNL     1      26.173 -75.843  11.131  1.00  0.00     0.013 C 
ENDBRANCH   4   5
BRANCH   4   7
HETATM    7  C13 UNL     1      24.055 -77.549  13.265  1.00  0.00     0.173 C 
BRANCH   7   8
HETATM    8  O4  UNL     1      24.014 -78.690  14.003  1.00  0.00    -0.344 OA
ATOM      9  H4  UNL     1      24.491 -78.653  14.823  1.00  0.00     0.219 HD
ENDBRANCH   7   8
BRANCH   7  10
HETATM   10  N3  UNL     1      23.315 -76.571  13.891  1.00  0.00    -0.358 N 
ATOM     11  H3  UNL     1      22.424 -76.216  13.544  1.00  0.00     0.162 HD
BRANCH  10  12
HETATM   12  C14 UNL     1      23.991 -76.086  15.161  1.00  0.00     0.235 C 
BRANCH  12  13
HETATM   13  C15 UNL     1      24.966 -75.117  14.585  1.00  0.00     0.191 C 
HETATM   14  O5  UNL     1      24.611 -74.080  14.056  1.00  0.00    -0.647 OA
HETATM   15  O6  UNL     1      26.366 -75.427  14.619  1.00  0.00    -0.647 OA
ENDBRANCH  12  13
ENDBRANCH  10  12
ENDBRANCH   7  10
ENDBRANCH   4   7
ENDBRANCH   1   4
BRANCH   2  16
HETATM   16  C5  UNL     1      26.116 -80.604  10.582  1.00  0.00     0.187 C 
HETATM   17  C6  UNL     1      26.046 -81.940  11.348  1.00  0.00     0.043 C 
BRANCH  16  18
HETATM   18  N2  UNL     1      26.565 -80.614   9.386  1.00  0.00    -0.369 N 
BRANCH  18  19
HETATM   19  C7  UNL     1      26.580 -82.060   8.986  1.00  0.00     0.235 C 
BRANCH  19  20
HETATM   20  C8  UNL     1      26.829 -82.267   7.593  1.00  0.00     0.191 C 
HETATM   21  O2  UNL     1      25.632 -82.872   7.022  1.00  0.00    -0.647 OA
HETATM   22  O3  UNL     1      27.656 -82.177   6.567  1.00  0.00    -0.647 OA
ENDBRANCH  19  20
ENDBRANCH  18  19
BRANCH  18  23
HETATM   23  C9  UNL     1      26.249 -79.633   8.427  1.00  0.00     0.063 C 
BRANCH  23  24
HETATM   24  C10 UNL     1      26.975 -78.356   8.400  1.00  0.00     0.016 C 
HETATM   25  C11 UNL     1      26.393 -77.183   7.668  1.00  0.00     0.015 C 
HETATM   26  C12 UNL     1      28.329 -78.656   7.745  1.00  0.00     0.015 C 
ENDBRANCH  23  24
ENDBRANCH  18  23
ENDBRANCH  16  18
ENDBRANCH   2  16
TORSDOF 13
ENDMDL
