MODEL 1
REMARK VINA RESULT: -6.622556644      0.000      0.000
REMARK  10 active torsions:
REMARK  status: ('A' for Active; 'I' for Inactive)
REMARK    1  A    between atoms: C2_2  and  C3_3 
REMARK       I    between atoms: C3_3  and  N1_5 
REMARK    2  A    between atoms: N1_5  and  C4_7 
REMARK    3  A    between atoms: C4_7  and  C5_8 
REMARK    4  A    between atoms: C4_7  and  C7_11 
REMARK    5  A    between atoms: C7_11  and  N2_12 
REMARK    6  A    between atoms: C7_11  and  C10_18 
REMARK    7  A    between atoms: C8_14  and  C9_15 
REMARK    8  A    between atoms: C10_18  and  N3_19 
REMARK    9  A    between atoms: C10_18  and  C12_24 
REMARK       I    between atoms: N3_19  and  C11_21 
REMARK   10  A    between atoms: C12_24  and  C14_26 
ROOT
HETATM    1  C7  UNL     1      26.344 -77.506   9.905  1.00  0.00     0.158 C 
ENDROOT
BRANCH   1   2
HETATM    2  C4  UNL     1      25.247 -76.750  10.568  1.00  0.00     0.082 C 
BRANCH   2   3
HETATM    3  N1  UNL     1      25.349 -76.496  11.967  1.00  0.00    -0.326 N 
HETATM    4  C3  UNL     1      25.999 -75.748  12.914  1.00  0.00     0.221 C 
HETATM    5  O1  UNL     1      26.898 -74.934  12.644  1.00  0.00    -0.273 OA
ATOM      6  H1  UNL     1      24.684 -77.103  12.447  1.00  0.00     0.168 HD
BRANCH   4   7
HETATM    7  C2  UNL     1      25.595 -75.876  14.380  1.00  0.00     0.098 C 
HETATM    8  C1  UNL     1      25.382 -74.499  14.912  1.00  0.00     0.014 C 
ENDBRANCH   4   7
ENDBRANCH   2   3
BRANCH   2   9
HETATM    9  C5  UNL     1      23.842 -77.101  10.311  1.00  0.00     0.170 C 
HETATM   10  C6  UNL     1      22.761 -77.093  11.373  1.00  0.00     0.098 C 
HETATM   11  O2  UNL     1      23.416 -77.417   9.210  1.00  0.00    -0.291 OA
ENDBRANCH   2   9
ENDBRANCH   1   2
BRANCH   1  12
HETATM   12  N2  UNL     1      25.838 -78.792   9.540  1.00  0.00    -0.381 N 
HETATM   13  C8  UNL     1      26.049 -79.959  10.178  1.00  0.00     0.169 C 
ATOM     14  H2  UNL     1      25.253 -78.830   8.705  1.00  0.00     0.160 HD
BRANCH  13  15
HETATM   15  C9  UNL     1      25.538 -80.300  11.503  1.00  0.00     0.214 C 
HETATM   16  O3  UNL     1      25.263 -81.714  11.465  1.00  0.00    -0.644 OA
HETATM   17  O4  UNL     1      25.291 -79.793  12.611  1.00  0.00    -0.644 OA
ENDBRANCH  13  15
ENDBRANCH   1  12
BRANCH   1  18
HETATM   18  C10 UNL     1      26.583 -76.852   8.535  1.00  0.00     0.118 C 
BRANCH  18  19
HETATM   19  N3  UNL     1      27.859 -77.298   8.025  1.00  0.00    -0.338 N 
HETATM   20  C11 UNL     1      28.462 -78.371   7.484  1.00  0.00     0.329 C 
HETATM   21  N4  UNL     1      29.872 -78.230   7.079  1.00  0.00    -0.040 NA
HETATM   22  O5  UNL     1      27.982 -79.494   7.263  1.00  0.00    -0.251 OA
ATOM     23  H3  UNL     1      28.534 -76.537   8.102  1.00  0.00     0.164 HD
ENDBRANCH  18  19
BRANCH  18  24
HETATM   24  C12 UNL     1      26.571 -75.393   8.458  1.00  0.00     0.006 C 
HETATM   25  C13 UNL     1      27.907 -74.907   9.085  1.00  0.00     0.012 C 
BRANCH  24  26
HETATM   26  C14 UNL     1      26.411 -74.665   7.205  1.00  0.00     0.002 C 
HETATM   27  C15 UNL     1      26.800 -73.191   7.500  1.00  0.00     0.005 C 
ENDBRANCH  24  26
ENDBRANCH  18  24
ENDBRANCH   1  18
TORSDOF 10
ENDMDL
MODEL 2
REMARK VINA RESULT: -6.575524133      2.455      4.474
REMARK  10 active torsions:
REMARK  status: ('A' for Active; 'I' for Inactive)
REMARK    1  A    between atoms: C2_2  and  C3_3 
REMARK       I    between atoms: C3_3  and  N1_5 
REMARK    2  A    between atoms: N1_5  and  C4_7 
REMARK    3  A    between atoms: C4_7  and  C5_8 
REMARK    4  A    between atoms: C4_7  and  C7_11 
REMARK    5  A    between atoms: C7_11  and  N2_12 
REMARK    6  A    between atoms: C7_11  and  C10_18 
REMARK    7  A    between atoms: C8_14  and  C9_15 
REMARK    8  A    between atoms: C10_18  and  N3_19 
REMARK    9  A    between atoms: C10_18  and  C12_24 
REMARK       I    between atoms: N3_19  and  C11_21 
REMARK   10  A    between atoms: C12_24  and  C14_26 
ROOT
HETATM    1  C7  UNL     1      24.819 -78.853  11.001  1.00  0.00     0.158 C 
ENDROOT
BRANCH   1   2
HETATM    2  C4  UNL     1      25.587 -77.580  11.059  1.00  0.00     0.082 C 
BRANCH   2   3
HETATM    3  N1  UNL     1      25.208 -76.604  12.026  1.00  0.00    -0.326 N 
HETATM    4  C3  UNL     1      25.662 -75.548  12.773  1.00  0.00     0.221 C 
HETATM    5  O1  UNL     1      26.840 -75.151  12.750  1.00  0.00    -0.273 OA
ATOM      6  H1  UNL     1      24.223 -76.745  12.248  1.00  0.00     0.168 HD
BRANCH   4   7
HETATM    7  C2  UNL     1      24.686 -74.781  13.661  1.00  0.00     0.098 C 
HETATM    8  C1  UNL     1      25.320 -74.630  15.003  1.00  0.00     0.014 C 
ENDBRANCH   4   7
ENDBRANCH   2   3
BRANCH   2   9
HETATM    9  C5  UNL     1      25.897 -76.842   9.824  1.00  0.00     0.170 C 
HETATM   10  C6  UNL     1      27.297 -76.442   9.408  1.00  0.00     0.098 C 
HETATM   11  O2  UNL     1      25.050 -76.498   9.013  1.00  0.00    -0.291 OA
ENDBRANCH   2   9
ENDBRANCH   1   2
BRANCH   1  12
HETATM   12  N2  UNL     1      23.670 -78.640  10.177  1.00  0.00    -0.381 N 
HETATM   13  C8  UNL     1      22.385 -78.583  10.573  1.00  0.00     0.169 C 
ATOM     14  H2  UNL     1      23.843 -78.519   9.179  1.00  0.00     0.160 HD
BRANCH  13  15
HETATM   15  C9  UNL     1      21.804 -77.526  11.397  1.00  0.00     0.214 C 
HETATM   16  O3  UNL     1      20.413 -77.459  11.025  1.00  0.00    -0.644 OA
HETATM   17  O4  UNL     1      22.100 -76.713  12.290  1.00  0.00    -0.644 OA
ENDBRANCH  13  15
ENDBRANCH   1  12
BRANCH   1  18
HETATM   18  C10 UNL     1      25.641 -79.842  10.160  1.00  0.00     0.118 C 
BRANCH  18  19
HETATM   19  N3  UNL     1      25.173 -79.790   8.795  1.00  0.00    -0.338 N 
HETATM   20  C11 UNL     1      25.606 -79.590   7.537  1.00  0.00     0.329 C 
HETATM   21  N4  UNL     1      24.622 -79.715   6.448  1.00  0.00    -0.040 NA
HETATM   22  O5  UNL     1      26.754 -79.316   7.154  1.00  0.00    -0.251 OA
ATOM     23  H3  UNL     1      24.168 -79.966   8.778  1.00  0.00     0.164 HD
ENDBRANCH  18  19
BRANCH  18  24
HETATM   24  C12 UNL     1      25.648 -81.247  10.563  1.00  0.00     0.006 C 
HETATM   25  C13 UNL     1      26.734 -81.948   9.700  1.00  0.00     0.012 C 
BRANCH  24  26
HETATM   26  C14 UNL     1      25.869 -81.676  11.939  1.00  0.00     0.002 C 
HETATM   27  C15 UNL     1      27.277 -82.331  11.973  1.00  0.00     0.005 C 
ENDBRANCH  24  26
ENDBRANCH  18  24
ENDBRANCH   1  18
TORSDOF 10
ENDMDL
MODEL 3
REMARK VINA RESULT: -6.476252695      2.240      5.880
REMARK  10 active torsions:
REMARK  status: ('A' for Active; 'I' for Inactive)
REMARK    1  A    between atoms: C2_2  and  C3_3 
REMARK       I    between atoms: C3_3  and  N1_5 
REMARK    2  A    between atoms: N1_5  and  C4_7 
REMARK    3  A    between atoms: C4_7  and  C5_8 
REMARK    4  A    between atoms: C4_7  and  C7_11 
REMARK    5  A    between atoms: C7_11  and  N2_12 
REMARK    6  A    between atoms: C7_11  and  C10_18 
REMARK    7  A    between atoms: C8_14  and  C9_15 
REMARK    8  A    between atoms: C10_18  and  N3_19 
REMARK    9  A    between atoms: C10_18  and  C12_24 
REMARK       I    between atoms: N3_19  and  C11_21 
REMARK   10  A    between atoms: C12_24  and  C14_26 
ROOT
HETATM    1  C7  UNL     1      25.762 -77.299  10.649  1.00  0.00     0.158 C 
ENDROOT
BRANCH   1   2
HETATM    2  C4  UNL     1      25.565 -78.604   9.963  1.00  0.00     0.082 C 
BRANCH   2   3
HETATM    3  N1  UNL     1      25.671 -79.798  10.735  1.00  0.00    -0.326 N 
HETATM    4  C3  UNL     1      25.108 -81.027  10.959  1.00  0.00     0.221 C 
HETATM    5  O1  UNL     1      24.089 -81.430  10.373  1.00  0.00    -0.273 OA
ATOM      6  H1  UNL     1      26.472 -79.700  11.359  1.00  0.00     0.168 HD
BRANCH   4   7
HETATM    7  C2  UNL     1      25.765 -81.985  11.950  1.00  0.00     0.098 C 
HETATM    8  C1  UNL     1      27.129 -82.303  11.435  1.00  0.00     0.014 C 
ENDBRANCH   4   7
ENDBRANCH   2   3
BRANCH   2   9
HETATM    9  C5  UNL     1      26.233 -78.878   8.681  1.00  0.00     0.170 C 
HETATM   10  C6  UNL     1      27.448 -79.771   8.535  1.00  0.00     0.098 C 
HETATM   11  O2  UNL     1      25.857 -78.419   7.613  1.00  0.00    -0.291 OA
ENDBRANCH   2   9
ENDBRANCH   1   2
BRANCH   1  12
HETATM   12  N2  UNL     1      25.614 -76.261   9.678  1.00  0.00    -0.381 N 
HETATM   13  C8  UNL     1      26.492 -75.279   9.397  1.00  0.00     0.169 C 
ATOM     14  H2  UNL     1      24.749 -76.264   9.137  1.00  0.00     0.160 HD
BRANCH  13  15
HETATM   15  C9  UNL     1      27.800 -75.472   8.774  1.00  0.00     0.214 C 
HETATM   16  O3  UNL     1      28.498 -74.221   8.935  1.00  0.00    -0.644 OA
HETATM   17  O4  UNL     1      28.484 -76.330   8.193  1.00  0.00    -0.644 OA
ENDBRANCH  13  15
ENDBRANCH   1  12
BRANCH   1  18
HETATM   18  C10 UNL     1      24.540 -77.072  11.553  1.00  0.00     0.118 C 
BRANCH  18  19
HETATM   19  N3  UNL     1      23.346 -77.142  10.743  1.00  0.00    -0.338 N 
HETATM   20  C11 UNL     1      22.263 -77.909  10.524  1.00  0.00     0.329 C 
HETATM   21  N4  UNL     1      21.274 -77.430   9.542  1.00  0.00    -0.040 NA
HETATM   22  O5  UNL     1      21.967 -78.991  11.054  1.00  0.00    -0.251 OA
ATOM     23  H3  UNL     1      23.312 -76.330  10.125  1.00  0.00     0.164 HD
ENDBRANCH  18  19
BRANCH  18  24
HETATM   24  C12 UNL     1      24.473 -75.828  12.318  1.00  0.00     0.006 C 
HETATM   25  C13 UNL     1      23.230 -75.947  13.243  1.00  0.00     0.012 C 
BRANCH  24  26
HETATM   26  C14 UNL     1      25.568 -75.351  13.154  1.00  0.00     0.002 C 
HETATM   27  C15 UNL     1      24.926 -74.463  14.254  1.00  0.00     0.005 C 
ENDBRANCH  24  26
ENDBRANCH  18  24
ENDBRANCH   1  18
TORSDOF 10
ENDMDL
MODEL 4
REMARK VINA RESULT: -6.378162718      2.479      5.984
REMARK  10 active torsions:
REMARK  status: ('A' for Active; 'I' for Inactive)
REMARK    1  A    between atoms: C2_2  and  C3_3 
REMARK       I    between atoms: C3_3  and  N1_5 
REMARK    2  A    between atoms: N1_5  and  C4_7 
REMARK    3  A    between atoms: C4_7  and  C5_8 
REMARK    4  A    between atoms: C4_7  and  C7_11 
REMARK    5  A    between atoms: C7_11  and  N2_12 
REMARK    6  A    between atoms: C7_11  and  C10_18 
REMARK    7  A    between atoms: C8_14  and  C9_15 
REMARK    8  A    between atoms: C10_18  and  N3_19 
REMARK    9  A    between atoms: C10_18  and  C12_24 
REMARK       I    between atoms: N3_19  and  C11_21 
REMARK   10  A    between atoms: C12_24  and  C14_26 
ROOT
HETATM    1  C7  UNL     1      25.479 -78.980  11.259  1.00  0.00     0.158 C 
ENDROOT
BRANCH   1   2
HETATM    2  C4  UNL     1      25.684 -77.852  10.310  1.00  0.00     0.082 C 
BRANCH   2   3
HETATM    3  N1  UNL     1      26.794 -77.912   9.417  1.00  0.00    -0.326 N 
HETATM    4  C3  UNL     1      27.214 -78.381   8.200  1.00  0.00     0.221 C 
HETATM    5  O1  UNL     1      26.497 -79.060   7.445  1.00  0.00    -0.273 OA
ATOM      6  H1  UNL     1      27.573 -77.415   9.850  1.00  0.00     0.168 HD
BRANCH   4   7
HETATM    7  C2  UNL     1      28.617 -78.040   7.707  1.00  0.00     0.098 C 
HETATM    8  C1  UNL     1      28.617 -78.167   6.220  1.00  0.00     0.014 C 
ENDBRANCH   4   7
ENDBRANCH   2   3
BRANCH   2   9
HETATM    9  C5  UNL     1      25.604 -76.461  10.781  1.00  0.00     0.170 C 
HETATM   10  C6  UNL     1      26.747 -75.471  10.689  1.00  0.00     0.098 C 
HETATM   11  O2  UNL     1      24.600 -75.973  11.279  1.00  0.00    -0.291 OA
ENDBRANCH   2   9
ENDBRANCH   1   2
BRANCH   1  12
HETATM   12  N2  UNL     1      24.318 -78.694  12.043  1.00  0.00    -0.381 N 
HETATM   13  C8  UNL     1      24.224 -78.695  13.386  1.00  0.00     0.169 C 
ATOM     14  H2  UNL     1      23.468 -78.463  11.528  1.00  0.00     0.160 HD
BRANCH  13  15
HETATM   15  C9  UNL     1      24.878 -77.739  14.277  1.00  0.00     0.214 C 
HETATM   16  O3  UNL     1      24.330 -77.986  15.586  1.00  0.00    -0.644 OA
HETATM   17  O4  UNL     1      25.730 -76.835  14.277  1.00  0.00    -0.644 OA
ENDBRANCH  13  15
ENDBRANCH   1  12
BRANCH   1  18
HETATM   18  C10 UNL     1      25.020 -80.191  10.432  1.00  0.00     0.118 C 
BRANCH  18  19
HETATM   19  N3  UNL     1      23.576 -80.215  10.408  1.00  0.00    -0.338 N 
HETATM   20  C11 UNL     1      22.540 -80.738   9.726  1.00  0.00     0.329 C 
HETATM   21  N4  UNL     1      21.182 -80.441  10.215  1.00  0.00    -0.040 NA
HETATM   22  O5  UNL     1      22.570 -81.463   8.720  1.00  0.00    -0.251 OA
ATOM     23  H3  UNL     1      23.218 -79.635  11.168  1.00  0.00     0.164 HD
ENDBRANCH  18  19
BRANCH  18  24
HETATM   24  C12 UNL     1      25.468 -81.518  10.850  1.00  0.00     0.006 C 
HETATM   25  C13 UNL     1      26.555 -81.958   9.831  1.00  0.00     0.012 C 
BRANCH  24  26
HETATM   26  C14 UNL     1      26.007 -81.792  12.177  1.00  0.00     0.002 C 
HETATM   27  C15 UNL     1      27.436 -82.361  11.961  1.00  0.00     0.005 C 
ENDBRANCH  24  26
ENDBRANCH  18  24
ENDBRANCH   1  18
TORSDOF 10
ENDMDL
MODEL 5
REMARK VINA RESULT: -6.307612523      2.184      6.027
REMARK  10 active torsions:
REMARK  status: ('A' for Active; 'I' for Inactive)
REMARK    1  A    between atoms: C2_2  and  C3_3 
REMARK       I    between atoms: C3_3  and  N1_5 
REMARK    2  A    between atoms: N1_5  and  C4_7 
REMARK    3  A    between atoms: C4_7  and  C5_8 
REMARK    4  A    between atoms: C4_7  and  C7_11 
REMARK    5  A    between atoms: C7_11  and  N2_12 
REMARK    6  A    between atoms: C7_11  and  C10_18 
REMARK    7  A    between atoms: C8_14  and  C9_15 
REMARK    8  A    between atoms: C10_18  and  N3_19 
REMARK    9  A    between atoms: C10_18  and  C12_24 
REMARK       I    between atoms: N3_19  and  C11_21 
REMARK   10  A    between atoms: C12_24  and  C14_26 
ROOT
HETATM    1  C7  UNL     1      24.367 -76.732  11.519  1.00  0.00     0.158 C 
ENDROOT
BRANCH   1   2
HETATM    2  C4  UNL     1      25.595 -77.481  11.139  1.00  0.00     0.082 C 
BRANCH   2   3
HETATM    3  N1  UNL     1      26.399 -76.970  10.078  1.00  0.00    -0.326 N 
HETATM    4  C3  UNL     1      27.226 -75.942   9.710  1.00  0.00     0.221 C 
HETATM    5  O1  UNL     1      27.479 -74.972  10.444  1.00  0.00    -0.273 OA
ATOM      6  H1  UNL     1      26.332 -77.618   9.293  1.00  0.00     0.168 HD
BRANCH   4   7
HETATM    7  C2  UNL     1      27.912 -75.980   8.347  1.00  0.00     0.098 C 
HETATM    8  C1  UNL     1      28.195 -77.409   8.023  1.00  0.00     0.014 C 
ENDBRANCH   4   7
ENDBRANCH   2   3
BRANCH   2   9
HETATM    9  C5  UNL     1      25.550 -78.940  10.960  1.00  0.00     0.170 C 
HETATM   10  C6  UNL     1      25.793 -79.638   9.637  1.00  0.00     0.098 C 
HETATM   11  O2  UNL     1      25.325 -79.725  11.870  1.00  0.00    -0.291 OA
ENDBRANCH   2   9
ENDBRANCH   1   2
BRANCH   1  12
HETATM   12  N2  UNL     1      23.270 -77.649  11.517  1.00  0.00    -0.381 N 
HETATM   13  C8  UNL     1      22.172 -77.601  10.740  1.00  0.00     0.169 C 
ATOM     14  H2  UNL     1      23.326 -78.425  12.178  1.00  0.00     0.160 HD
BRANCH  13  15
HETATM   15  C9  UNL     1      22.155 -77.810   9.294  1.00  0.00     0.214 C 
HETATM   16  O3  UNL     1      20.796 -77.564   8.879  1.00  0.00    -0.644 OA
HETATM   17  O4  UNL     1      22.900 -78.099   8.343  1.00  0.00    -0.644 OA
ENDBRANCH  13  15
ENDBRANCH   1  12
BRANCH   1  18
HETATM   18  C10 UNL     1      24.492 -76.381  13.010  1.00  0.00     0.118 C 
BRANCH  18  19
HETATM   19  N3  UNL     1      23.537 -77.169  13.753  1.00  0.00    -0.338 N 
HETATM   20  C11 UNL     1      23.427 -77.926  14.860  1.00  0.00     0.329 C 
HETATM   21  N4  UNL     1      22.101 -78.483  15.177  1.00  0.00    -0.040 NA
HETATM   22  O5  UNL     1      24.310 -78.221  15.680  1.00  0.00    -0.251 OA
ATOM     23  H3  UNL     1      22.636 -77.143  13.274  1.00  0.00     0.164 HD
ENDBRANCH  18  19
BRANCH  18  24
HETATM   24  C12 UNL     1      24.304 -74.986  13.405  1.00  0.00     0.006 C 
HETATM   25  C13 UNL     1      22.971 -74.929  14.202  1.00  0.00     0.012 C 
BRANCH  24  26
HETATM   26  C14 UNL     1      25.287 -74.244  14.186  1.00  0.00     0.002 C 
HETATM   27  C15 UNL     1      25.365 -74.941  15.571  1.00  0.00     0.005 C 
ENDBRANCH  24  26
ENDBRANCH  18  24
ENDBRANCH   1  18
TORSDOF 10
ENDMDL
