MODEL 1
REMARK VINA RESULT: -6.476906677      0.000      0.000
REMARK  11 active torsions:
REMARK  status: ('A' for Active; 'I' for Inactive)
REMARK    1  A    between atoms: C2_2  and  C3_3 
REMARK    2  A    between atoms: C3_3  and  C4_4 
REMARK    3  A    between atoms: C3_3  and  N4_21 
REMARK    4  A    between atoms: C4_4  and  N1_5 
REMARK       I    between atoms: N1_5  and  C5_7 
REMARK    5  A    between atoms: C5_7  and  C6_9 
REMARK    6  A    between atoms: C6_9  and  N2_12 
REMARK    7  A    between atoms: N2_12  and  C9_14 
REMARK    8  A    between atoms: C9_14  and  C11_16 
REMARK       I    between atoms: C11_16  and  N3_18 
REMARK    9  A    between atoms: N4_21  and  C13_23 
REMARK   10  A    between atoms: C13_23  and  C14_24 
REMARK   11  A    between atoms: C13_23  and  C15_26 
ROOT
HETATM    1  N1  UNL     1      26.136 -76.127  11.253  1.00  0.00    -0.357 N 
ATOM      2  H1  UNL     1      25.504 -76.927  11.264  1.00  0.00     0.162 HD
HETATM    3  C5  UNL     1      26.923 -75.929  10.094  1.00  0.00     0.244 C 
HETATM    4  O1  UNL     1      27.716 -74.962  10.035  1.00  0.00    -0.271 OA
ENDROOT
BRANCH   1   5
HETATM    5  C4  UNL     1      26.161 -75.293  12.407  1.00  0.00     0.147 C 
BRANCH   5   6
HETATM    6  C3  UNL     1      25.136 -75.647  13.470  1.00  0.00     0.095 C 
BRANCH   6   7
HETATM    7  C2  UNL     1      25.361 -74.673  14.608  1.00  0.00     0.022 C 
HETATM    8  C1  UNL     1      25.122 -75.292  15.958  1.00  0.00     0.007 C 
ENDBRANCH   6   7
BRANCH   6   9
HETATM    9  N4  UNL     1      23.806 -75.476  13.043  1.00  0.00    -0.400 N 
ATOM     10  H4  UNL     1      23.521 -74.567  12.677  1.00  0.00     0.154 HD
BRANCH   9  11
HETATM   11  C13 UNL     1      22.866 -76.493  13.099  1.00  0.00     0.209 C 
BRANCH  11  12
HETATM   12  C14 UNL     1      23.189 -77.687  13.911  1.00  0.00     0.263 C 
HETATM   13  O3  UNL     1      22.753 -77.770  15.038  1.00  0.00    -0.304 OA
ENDBRANCH  11  12
BRANCH  11  14
HETATM   14  C15 UNL     1      22.515 -76.945  11.705  1.00  0.00     0.151 C 
HETATM   15  C16 UNL     1      21.212 -77.602  11.464  1.00  0.00     0.093 C 
HETATM   16  O4  UNL     1      23.283 -76.777  10.787  1.00  0.00    -0.296 OA
ENDBRANCH  11  14
ENDBRANCH   9  11
ENDBRANCH   6   9
ENDBRANCH   5   6
ENDBRANCH   1   5
BRANCH   3  17
HETATM   17  C6  UNL     1      26.845 -76.848   8.909  1.00  0.00     0.100 C 
HETATM   18  C7  UNL     1      28.050 -76.489   8.045  1.00  0.00     0.048 C 
HETATM   19  C8  UNL     1      25.553 -76.527   8.208  1.00  0.00     0.048 C 
BRANCH  17  20
HETATM   20  N2  UNL     1      26.985 -78.174   9.361  1.00  0.00    -0.393 N 
ATOM     21  H2  UNL     1      27.855 -78.471   9.804  1.00  0.00     0.155 HD
BRANCH  20  22
HETATM   22  C9  UNL     1      25.926 -79.094   9.202  1.00  0.00     0.166 C 
HETATM   23  C10 UNL     1      26.124 -80.157   8.181  1.00  0.00     0.042 C 
BRANCH  22  24
HETATM   24  C11 UNL     1      25.712 -79.751  10.524  1.00  0.00     0.239 C 
HETATM   25  O2  UNL     1      25.380 -79.120  11.563  1.00  0.00    -0.271 OA
HETATM   26  N3  UNL     1      25.889 -81.143  10.623  1.00  0.00    -0.364 N 
HETATM   27  C12 UNL     1      25.702 -81.864  11.873  1.00  0.00     0.149 C 
ATOM     28  H3  UNL     1      26.158 -81.666   9.789  1.00  0.00     0.161 HD
ENDBRANCH  22  24
ENDBRANCH  20  22
ENDBRANCH  17  20
ENDBRANCH   3  17
TORSDOF 11
ENDMDL
MODEL 2
REMARK VINA RESULT: -6.372746760      2.090      3.268
REMARK  11 active torsions:
REMARK  status: ('A' for Active; 'I' for Inactive)
REMARK    1  A    between atoms: C2_2  and  C3_3 
REMARK    2  A    between atoms: C3_3  and  C4_4 
REMARK    3  A    between atoms: C3_3  and  N4_21 
REMARK    4  A    between atoms: C4_4  and  N1_5 
REMARK       I    between atoms: N1_5  and  C5_7 
REMARK    5  A    between atoms: C5_7  and  C6_9 
REMARK    6  A    between atoms: C6_9  and  N2_12 
REMARK    7  A    between atoms: N2_12  and  C9_14 
REMARK    8  A    between atoms: C9_14  and  C11_16 
REMARK       I    between atoms: C11_16  and  N3_18 
REMARK    9  A    between atoms: N4_21  and  C13_23 
REMARK   10  A    between atoms: C13_23  and  C14_24 
REMARK   11  A    between atoms: C13_23  and  C15_26 
ROOT
HETATM    1  N1  UNL     1      25.893 -77.099  10.337  1.00  0.00    -0.357 N 
ATOM      2  H1  UNL     1      25.597 -77.796   9.654  1.00  0.00     0.162 HD
HETATM    3  C5  UNL     1      26.814 -76.112   9.911  1.00  0.00     0.244 C 
HETATM    4  O1  UNL     1      27.209 -75.237  10.713  1.00  0.00    -0.271 OA
ENDROOT
BRANCH   1   5
HETATM    5  C4  UNL     1      25.349 -77.191  11.650  1.00  0.00     0.147 C 
BRANCH   5   6
HETATM    6  C3  UNL     1      24.084 -76.382  11.873  1.00  0.00     0.095 C 
BRANCH   6   7
HETATM    7  C2  UNL     1      22.978 -77.130  11.157  1.00  0.00     0.022 C 
HETATM    8  C1  UNL     1      21.688 -77.138  11.930  1.00  0.00     0.007 C 
ENDBRANCH   6   7
BRANCH   6   9
HETATM    9  N4  UNL     1      23.708 -76.294  13.227  1.00  0.00    -0.400 N 
ATOM     10  H4  UNL     1      22.772 -75.959  13.455  1.00  0.00     0.154 HD
BRANCH   9  11
HETATM   11  C13 UNL     1      24.559 -76.643  14.263  1.00  0.00     0.209 C 
BRANCH  11  12
HETATM   12  C14 UNL     1      24.145 -77.748  15.155  1.00  0.00     0.263 C 
HETATM   13  O3  UNL     1      23.026 -78.202  15.050  1.00  0.00    -0.304 OA
ENDBRANCH  11  12
BRANCH  11  14
HETATM   14  C15 UNL     1      24.859 -75.433  15.110  1.00  0.00     0.151 C 
HETATM   15  C16 UNL     1      25.416 -74.222  14.471  1.00  0.00     0.093 C 
HETATM   16  O4  UNL     1      24.651 -75.444  16.301  1.00  0.00    -0.296 OA
ENDBRANCH  11  14
ENDBRANCH   9  11
ENDBRANCH   6   9
ENDBRANCH   5   6
ENDBRANCH   1   5
BRANCH   3  17
HETATM   17  C6  UNL     1      27.347 -76.072   8.507  1.00  0.00     0.100 C 
HETATM   18  C7  UNL     1      28.321 -74.897   8.484  1.00  0.00     0.048 C 
HETATM   19  C8  UNL     1      26.164 -75.821   7.612  1.00  0.00     0.048 C 
BRANCH  17  20
HETATM   20  N2  UNL     1      28.060 -77.261   8.264  1.00  0.00    -0.393 N 
ATOM     21  H2  UNL     1      28.832 -77.526   8.877  1.00  0.00     0.155 HD
BRANCH  20  22
HETATM   22  C9  UNL     1      27.710 -78.089   7.175  1.00  0.00     0.166 C 
HETATM   23  C10 UNL     1      28.756 -78.289   6.137  1.00  0.00     0.042 C 
BRANCH  22  24
HETATM   24  C11 UNL     1      27.348 -79.423   7.735  1.00  0.00     0.239 C 
HETATM   25  O2  UNL     1      26.934 -79.588   8.914  1.00  0.00    -0.271 OA
HETATM   26  N3  UNL     1      27.473 -80.558   6.912  1.00  0.00    -0.364 N 
HETATM   27  C12 UNL     1      27.142 -81.895   7.378  1.00  0.00     0.149 C 
ATOM     28  H3  UNL     1      27.807 -80.438   5.956  1.00  0.00     0.161 HD
ENDBRANCH  22  24
ENDBRANCH  20  22
ENDBRANCH  17  20
ENDBRANCH   3  17
TORSDOF 11
ENDMDL
MODEL 3
REMARK VINA RESULT: -6.367479361      2.334      4.282
REMARK  11 active torsions:
REMARK  status: ('A' for Active; 'I' for Inactive)
REMARK    1  A    between atoms: C2_2  and  C3_3 
REMARK    2  A    between atoms: C3_3  and  C4_4 
REMARK    3  A    between atoms: C3_3  and  N4_21 
REMARK    4  A    between atoms: C4_4  and  N1_5 
REMARK       I    between atoms: N1_5  and  C5_7 
REMARK    5  A    between atoms: C5_7  and  C6_9 
REMARK    6  A    between atoms: C6_9  and  N2_12 
REMARK    7  A    between atoms: N2_12  and  C9_14 
REMARK    8  A    between atoms: C9_14  and  C11_16 
REMARK       I    between atoms: C11_16  and  N3_18 
REMARK    9  A    between atoms: N4_21  and  C13_23 
REMARK   10  A    between atoms: C13_23  and  C14_24 
REMARK   11  A    between atoms: C13_23  and  C15_26 
ROOT
HETATM    1  N1  UNL     1      25.412 -78.222  10.938  1.00  0.00    -0.357 N 
ATOM      2  H1  UNL     1      25.369 -78.137   9.923  1.00  0.00     0.162 HD
HETATM    3  C5  UNL     1      25.355 -79.524  11.490  1.00  0.00     0.244 C 
HETATM    4  O1  UNL     1      25.402 -79.679  12.731  1.00  0.00    -0.271 OA
ENDROOT
BRANCH   1   5
HETATM    5  C4  UNL     1      25.525 -77.021  11.695  1.00  0.00     0.147 C 
BRANCH   5   6
HETATM    6  C3  UNL     1      24.226 -76.256  11.872  1.00  0.00     0.095 C 
BRANCH   6   7
HETATM    7  C2  UNL     1      23.188 -77.000  11.059  1.00  0.00     0.022 C 
HETATM    8  C1  UNL     1      21.878 -77.146  11.783  1.00  0.00     0.007 C 
ENDBRANCH   6   7
BRANCH   6   9
HETATM    9  N4  UNL     1      23.766 -76.236  13.203  1.00  0.00    -0.400 N 
ATOM     10  H4  UNL     1      22.807 -75.940  13.386  1.00  0.00     0.154 HD
BRANCH   9  11
HETATM   11  C13 UNL     1      24.564 -76.603  14.275  1.00  0.00     0.209 C 
BRANCH  11  12
HETATM   12  C14 UNL     1      24.085 -77.695  15.151  1.00  0.00     0.263 C 
HETATM   13  O3  UNL     1      22.938 -78.072  15.049  1.00  0.00    -0.304 OA
ENDBRANCH  11  12
BRANCH  11  14
HETATM   14  C15 UNL     1      24.857 -75.398  15.132  1.00  0.00     0.151 C 
HETATM   15  C16 UNL     1      25.376 -74.167  14.497  1.00  0.00     0.093 C 
HETATM   16  O4  UNL     1      24.673 -75.427  16.326  1.00  0.00    -0.296 OA
ENDBRANCH  11  14
ENDBRANCH   9  11
ENDBRANCH   6   9
ENDBRANCH   5   6
ENDBRANCH   1   5
BRANCH   3  17
HETATM   17  C6  UNL     1      25.238 -80.750  10.631  1.00  0.00     0.100 C 
HETATM   18  C7  UNL     1      25.775 -81.892  11.490  1.00  0.00     0.048 C 
HETATM   19  C8  UNL     1      26.113 -80.511   9.430  1.00  0.00     0.048 C 
BRANCH  17  20
HETATM   20  N2  UNL     1      23.876 -80.981  10.362  1.00  0.00    -0.393 N 
ATOM     21  H2  UNL     1      23.297 -81.466  11.049  1.00  0.00     0.155 HD
BRANCH  20  22
HETATM   22  C9  UNL     1      23.308 -80.544   9.145  1.00  0.00     0.166 C 
HETATM   23  C10 UNL     1      23.206 -81.560   8.064  1.00  0.00     0.042 C 
BRANCH  22  24
HETATM   24  C11 UNL     1      21.934 -80.051   9.453  1.00  0.00     0.239 C 
HETATM   25  O2  UNL     1      21.371 -79.128   8.807  1.00  0.00    -0.271 OA
HETATM   26  N3  UNL     1      21.228 -80.642  10.517  1.00  0.00    -0.364 N 
HETATM   27  C12 UNL     1      19.884 -80.222  10.885  1.00  0.00     0.149 C 
ATOM     28  H3  UNL     1      21.672 -81.390  11.048  1.00  0.00     0.161 HD
ENDBRANCH  22  24
ENDBRANCH  20  22
ENDBRANCH  17  20
ENDBRANCH   3  17
TORSDOF 11
ENDMDL
MODEL 4
REMARK VINA RESULT: -6.267597021      1.620      2.875
REMARK  11 active torsions:
REMARK  status: ('A' for Active; 'I' for Inactive)
REMARK    1  A    between atoms: C2_2  and  C3_3 
REMARK    2  A    between atoms: C3_3  and  C4_4 
REMARK    3  A    between atoms: C3_3  and  N4_21 
REMARK    4  A    between atoms: C4_4  and  N1_5 
REMARK       I    between atoms: N1_5  and  C5_7 
REMARK    5  A    between atoms: C5_7  and  C6_9 
REMARK    6  A    between atoms: C6_9  and  N2_12 
REMARK    7  A    between atoms: N2_12  and  C9_14 
REMARK    8  A    between atoms: C9_14  and  C11_16 
REMARK       I    between atoms: C11_16  and  N3_18 
REMARK    9  A    between atoms: N4_21  and  C13_23 
REMARK   10  A    between atoms: C13_23  and  C14_24 
REMARK   11  A    between atoms: C13_23  and  C15_26 
ROOT
HETATM    1  N1  UNL     1      25.809 -77.725  10.405  1.00  0.00    -0.357 N 
ATOM      2  H1  UNL     1      25.228 -78.554  10.285  1.00  0.00     0.162 HD
HETATM    3  C5  UNL     1      26.742 -77.424   9.384  1.00  0.00     0.244 C 
HETATM    4  O1  UNL     1      27.478 -76.417   9.487  1.00  0.00    -0.271 OA
ENDROOT
BRANCH   1   5
HETATM    5  C4  UNL     1      25.621 -76.955  11.588  1.00  0.00     0.147 C 
BRANCH   5   6
HETATM    6  C3  UNL     1      24.244 -76.329  11.728  1.00  0.00     0.095 C 
BRANCH   6   7
HETATM    7  C2  UNL     1      23.279 -77.291  11.067  1.00  0.00     0.022 C 
HETATM    8  C1  UNL     1      21.894 -77.216  11.651  1.00  0.00     0.007 C 
ENDBRANCH   6   7
BRANCH   6   9
HETATM    9  N4  UNL     1      23.828 -76.187  13.066  1.00  0.00    -0.400 N 
ATOM     10  H4  UNL     1      22.914 -75.776  13.254  1.00  0.00     0.154 HD
BRANCH   9  11
HETATM   11  C13 UNL     1      24.612 -76.583  14.138  1.00  0.00     0.209 C 
BRANCH  11  12
HETATM   12  C14 UNL     1      24.143 -77.727  14.951  1.00  0.00     0.263 C 
HETATM   13  O3  UNL     1      22.974 -78.044  14.904  1.00  0.00    -0.304 OA
ENDBRANCH  11  12
BRANCH  11  14
HETATM   14  C15 UNL     1      24.855 -75.413  15.056  1.00  0.00     0.151 C 
HETATM   15  C16 UNL     1      25.428 -74.167  14.504  1.00  0.00     0.093 C 
HETATM   16  O4  UNL     1      24.588 -75.483  16.233  1.00  0.00    -0.296 OA
ENDBRANCH  11  14
ENDBRANCH   9  11
ENDBRANCH   6   9
ENDBRANCH   5   6
ENDBRANCH   1   5
BRANCH   3  17
HETATM   17  C6  UNL     1      26.886 -78.280   8.158  1.00  0.00     0.100 C 
HETATM   18  C7  UNL     1      27.983 -77.612   7.333  1.00  0.00     0.048 C 
HETATM   19  C8  UNL     1      25.560 -78.231   7.448  1.00  0.00     0.048 C 
BRANCH  17  20
HETATM   20  N2  UNL     1      27.325 -79.558   8.553  1.00  0.00    -0.393 N 
ATOM     21  H2  UNL     1      28.283 -79.688   8.879  1.00  0.00     0.155 HD
BRANCH  20  22
HETATM   22  C9  UNL     1      26.443 -80.659   8.498  1.00  0.00     0.166 C 
HETATM   23  C10 UNL     1      26.905 -81.835   7.715  1.00  0.00     0.042 C 
BRANCH  22  24
HETATM   24  C11 UNL     1      26.204 -81.100   9.903  1.00  0.00     0.239 C 
HETATM   25  O2  UNL     1      25.203 -80.741  10.579  1.00  0.00    -0.271 OA
HETATM   26  N3  UNL     1      27.139 -81.960  10.510  1.00  0.00    -0.364 N 
HETATM   27  C12 UNL     1      26.983 -82.437  11.875  1.00  0.00     0.149 C 
ATOM     28  H3  UNL     1      27.954 -82.258   9.974  1.00  0.00     0.161 HD
ENDBRANCH  22  24
ENDBRANCH  20  22
ENDBRANCH  17  20
ENDBRANCH   3  17
TORSDOF 11
ENDMDL
MODEL 5
REMARK VINA RESULT: -6.121813272      2.064      4.207
REMARK  11 active torsions:
REMARK  status: ('A' for Active; 'I' for Inactive)
REMARK    1  A    between atoms: C2_2  and  C3_3 
REMARK    2  A    between atoms: C3_3  and  C4_4 
REMARK    3  A    between atoms: C3_3  and  N4_21 
REMARK    4  A    between atoms: C4_4  and  N1_5 
REMARK       I    between atoms: N1_5  and  C5_7 
REMARK    5  A    between atoms: C5_7  and  C6_9 
REMARK    6  A    between atoms: C6_9  and  N2_12 
REMARK    7  A    between atoms: N2_12  and  C9_14 
REMARK    8  A    between atoms: C9_14  and  C11_16 
REMARK       I    between atoms: C11_16  and  N3_18 
REMARK    9  A    between atoms: N4_21  and  C13_23 
REMARK   10  A    between atoms: C13_23  and  C14_24 
REMARK   11  A    between atoms: C13_23  and  C15_26 
ROOT
HETATM    1  N1  UNL     1      26.148 -78.570   9.811  1.00  0.00    -0.357 N 
ATOM      2  H1  UNL     1      25.328 -78.546  10.417  1.00  0.00     0.162 HD
HETATM    3  C5  UNL     1      26.491 -79.810   9.221  1.00  0.00     0.244 C 
HETATM    4  O1  UNL     1      27.490 -79.890   8.472  1.00  0.00    -0.271 OA
ENDROOT
BRANCH   1   5
HETATM    5  C4  UNL     1      26.862 -77.353   9.622  1.00  0.00     0.147 C 
BRANCH   5   6
HETATM    6  C3  UNL     1      26.617 -76.299  10.687  1.00  0.00     0.095 C 
BRANCH   6   7
HETATM    7  C2  UNL     1      26.639 -74.966   9.970  1.00  0.00     0.022 C 
HETATM    8  C1  UNL     1      27.909 -74.744   9.195  1.00  0.00     0.007 C 
ENDBRANCH   6   7
BRANCH   6   9
HETATM    9  N4  UNL     1      25.356 -76.411  11.304  1.00  0.00    -0.400 N 
ATOM     10  H4  UNL     1      24.519 -76.288  10.734  1.00  0.00     0.154 HD
BRANCH   9  11
HETATM   11  C13 UNL     1      25.207 -76.680  12.655  1.00  0.00     0.209 C 
BRANCH  11  12
HETATM   12  C14 UNL     1      24.661 -78.000  13.040  1.00  0.00     0.263 C 
HETATM   13  O3  UNL     1      25.165 -79.003  12.582  1.00  0.00    -0.304 OA
ENDBRANCH  11  12
BRANCH  11  14
HETATM   14  C15 UNL     1      24.365 -75.610  13.302  1.00  0.00     0.151 C 
HETATM   15  C16 UNL     1      25.030 -74.518  14.045  1.00  0.00     0.093 C 
HETATM   16  O4  UNL     1      23.160 -75.635  13.220  1.00  0.00    -0.296 OA
ENDBRANCH  11  14
ENDBRANCH   9  11
ENDBRANCH   6   9
ENDBRANCH   5   6
ENDBRANCH   1   5
BRANCH   3  17
HETATM   17  C6  UNL     1      25.690 -81.057   9.462  1.00  0.00     0.100 C 
HETATM   18  C7  UNL     1      26.560 -81.920  10.372  1.00  0.00     0.048 C 
HETATM   19  C8  UNL     1      25.496 -81.703   8.117  1.00  0.00     0.048 C 
BRANCH  17  20
HETATM   20  N2  UNL     1      24.514 -80.708  10.152  1.00  0.00    -0.393 N 
ATOM     21  H2  UNL     1      24.515 -80.664  11.171  1.00  0.00     0.155 HD
BRANCH  20  22
HETATM   22  C9  UNL     1      23.331 -80.419   9.436  1.00  0.00     0.166 C 
HETATM   23  C10 UNL     1      22.234 -81.417   9.546  1.00  0.00     0.042 C 
BRANCH  22  24
HETATM   24  C11 UNL     1      22.822 -79.110   9.938  1.00  0.00     0.239 C 
HETATM   25  O2  UNL     1      23.302 -78.000   9.583  1.00  0.00    -0.271 OA
HETATM   26  N3  UNL     1      21.754 -79.107  10.854  1.00  0.00    -0.364 N 
HETATM   27  C12 UNL     1      21.197 -77.877  11.395  1.00  0.00     0.149 C 
ATOM     28  H3  UNL     1      21.356 -79.999  11.150  1.00  0.00     0.161 HD
ENDBRANCH  22  24
ENDBRANCH  20  22
ENDBRANCH  17  20
ENDBRANCH   3  17
TORSDOF 11
ENDMDL
