MODEL 1
REMARK VINA RESULT: -6.779460188      0.000      0.000
REMARK  12 active torsions:
REMARK  status: ('A' for Active; 'I' for Inactive)
REMARK    1  A    between atoms: C2_2  and  C3_3 
REMARK    2  A    between atoms: C4_4  and  C5_5 
REMARK    3  A    between atoms: C5_5  and  C6_6 
REMARK    4  A    between atoms: C5_5  and  C10_16 
REMARK       I    between atoms: C6_6  and  N1_8 
REMARK    5  A    between atoms: N1_8  and  C7_10 
REMARK    6  A    between atoms: C7_10  and  C8_11 
REMARK    7  A    between atoms: C7_10  and  C9_13 
REMARK    8  A    between atoms: C9_13  and  O3_14 
REMARK    9  A    between atoms: C10_16  and  C11_17 
REMARK   10  A    between atoms: C10_16  and  N2_21 
REMARK   11  A    between atoms: C11_17  and  C12_18 
REMARK       I    between atoms: N2_21  and  C15_23 
REMARK   12  A    between atoms: C15_23  and  C16_25 
ROOT
HETATM    1  C5  UNL     1      25.307 -77.834  11.457  1.00  0.00     0.123 C 
ENDROOT
BRANCH   1   2
HETATM    2  C4  UNL     1      25.067 -79.271  11.185  1.00  0.00    -0.015 C 
HETATM    3  C3  UNL     1      26.001 -80.041  10.656  1.00  0.00    -0.030 C 
BRANCH   3   4
HETATM    4  C2  UNL     1      25.772 -81.476  10.380  1.00  0.00     0.022 C 
HETATM    5  C1  UNL     1      26.781 -82.337  11.133  1.00  0.00     0.009 C 
ENDBRANCH   3   4
ENDBRANCH   1   2
BRANCH   1   6
HETATM    6  C6  UNL     1      24.889 -77.556  12.856  1.00  0.00     0.228 C 
HETATM    7  O1  UNL     1      25.056 -78.422  13.777  1.00  0.00    -0.273 OA
HETATM    8  N1  UNL     1      24.291 -76.306  13.200  1.00  0.00    -0.348 N 
ATOM      9  H1  UNL     1      24.143 -75.595  12.484  1.00  0.00     0.163 HD
BRANCH   8  10
HETATM   10  C7  UNL     1      23.900 -76.056  14.562  1.00  0.00     0.169 C 
BRANCH  10  11
HETATM   11  C8  UNL     1      22.583 -75.400  14.712  1.00  0.00     0.258 C 
HETATM   12  O2  UNL     1      21.907 -75.380  15.706  1.00  0.00    -0.305 OA
ENDBRANCH  10  11
BRANCH  10  13
HETATM   13  C9  UNL     1      24.986 -75.226  15.265  1.00  0.00     0.196 C 
BRANCH  13  14
HETATM   14  O3  UNL     1      24.828 -75.475  16.627  1.00  0.00    -0.398 OA
ATOM     15  H3  UNL     1      25.390 -74.849  17.070  1.00  0.00     0.209 HD
ENDBRANCH  13  14
ENDBRANCH  10  13
ENDBRANCH   8  10
ENDBRANCH   1   6
BRANCH   1  16
HETATM   16  C10 UNL     1      24.490 -76.968  10.538  1.00  0.00     0.101 C 
BRANCH  16  17
HETATM   17  C11 UNL     1      25.356 -76.534   9.368  1.00  0.00     0.030 C 
BRANCH  17  18
HETATM   18  C12 UNL     1      26.795 -76.488   9.753  1.00  0.00    -0.021 C 
HETATM   19  C13 UNL     1      27.653 -76.981   8.583  1.00  0.00     0.009 C 
HETATM   20  C14 UNL     1      27.259 -75.046  10.025  1.00  0.00     0.009 C 
ENDBRANCH  17  18
ENDBRANCH  16  17
BRANCH  16  21
HETATM   21  N2  UNL     1      23.332 -77.708  10.084  1.00  0.00    -0.347 N 
HETATM   22  C15 UNL     1      22.049 -77.636  10.672  1.00  0.00     0.306 C 
HETATM   23  O4  UNL     1      21.782 -76.908  11.663  1.00  0.00    -0.263 OA
ATOM     24  H2  UNL     1      23.451 -78.326   9.282  1.00  0.00     0.163 HD
BRANCH  22  25
HETATM   25  C16 UNL     1      20.944 -78.425  10.145  1.00  0.00     0.322 C 
HETATM   26  N3  UNL     1      19.754 -77.866   9.631  1.00  0.00    -0.053 NA
HETATM   27  O5  UNL     1      21.033 -79.687  10.134  1.00  0.00    -0.266 OA
ENDBRANCH  22  25
ENDBRANCH  16  21
ENDBRANCH   1  16
TORSDOF 12
ENDMDL
MODEL 2
REMARK VINA RESULT: -6.742452739      1.575      3.715
REMARK  12 active torsions:
REMARK  status: ('A' for Active; 'I' for Inactive)
REMARK    1  A    between atoms: C2_2  and  C3_3 
REMARK    2  A    between atoms: C4_4  and  C5_5 
REMARK    3  A    between atoms: C5_5  and  C6_6 
REMARK    4  A    between atoms: C5_5  and  C10_16 
REMARK       I    between atoms: C6_6  and  N1_8 
REMARK    5  A    between atoms: N1_8  and  C7_10 
REMARK    6  A    between atoms: C7_10  and  C8_11 
REMARK    7  A    between atoms: C7_10  and  C9_13 
REMARK    8  A    between atoms: C9_13  and  O3_14 
REMARK    9  A    between atoms: C10_16  and  C11_17 
REMARK   10  A    between atoms: C10_16  and  N2_21 
REMARK   11  A    between atoms: C11_17  and  C12_18 
REMARK       I    between atoms: N2_21  and  C15_23 
REMARK   12  A    between atoms: C15_23  and  C16_25 
ROOT
HETATM    1  C5  UNL     1      23.945 -77.238  10.691  1.00  0.00     0.123 C 
ENDROOT
BRANCH   1   2
HETATM    2  C4  UNL     1      25.325 -76.725  10.864  1.00  0.00    -0.015 C 
HETATM    3  C3  UNL     1      25.910 -75.985   9.938  1.00  0.00    -0.030 C 
BRANCH   3   4
HETATM    4  C2  UNL     1      27.286 -75.468  10.101  1.00  0.00     0.022 C 
HETATM    5  C1  UNL     1      27.535 -74.294   9.159  1.00  0.00     0.009 C 
ENDBRANCH   3   4
ENDBRANCH   1   2
BRANCH   1   6
HETATM    6  C6  UNL     1      23.196 -76.973  11.947  1.00  0.00     0.228 C 
HETATM    7  O1  UNL     1      21.930 -76.814  11.937  1.00  0.00    -0.273 OA
HETATM    8  N1  UNL     1      23.880 -76.892  13.196  1.00  0.00    -0.348 N 
ATOM      9  H1  UNL     1      24.892 -77.012  13.235  1.00  0.00     0.163 HD
BRANCH   8  10
HETATM   10  C7  UNL     1      23.134 -76.640  14.401  1.00  0.00     0.169 C 
BRANCH  10  11
HETATM   11  C8  UNL     1      23.757 -75.660  15.316  1.00  0.00     0.258 C 
HETATM   12  O2  UNL     1      24.927 -75.387  15.378  1.00  0.00    -0.305 OA
ENDBRANCH  10  11
BRANCH  10  13
HETATM   13  C9  UNL     1      22.885 -77.966  15.138  1.00  0.00     0.196 C 
BRANCH  13  14
HETATM   14  O3  UNL     1      23.901 -78.068  16.085  1.00  0.00    -0.398 OA
ATOM     15  H3  UNL     1      24.692 -78.263  15.595  1.00  0.00     0.209 HD
ENDBRANCH  13  14
ENDBRANCH  10  13
ENDBRANCH   8  10
ENDBRANCH   1   6
BRANCH   1  16
HETATM   16  C10 UNL     1      23.949 -78.722  10.447  1.00  0.00     0.101 C 
BRANCH  16  17
HETATM   17  C11 UNL     1      25.062 -79.355  11.265  1.00  0.00     0.030 C 
BRANCH  17  18
HETATM   18  C12 UNL     1      25.370 -80.730  10.780  1.00  0.00    -0.021 C 
HETATM   19  C13 UNL     1      26.422 -80.656   9.668  1.00  0.00     0.009 C 
HETATM   20  C14 UNL     1      26.003 -81.589  11.889  1.00  0.00     0.009 C 
ENDBRANCH  17  18
ENDBRANCH  16  17
BRANCH  16  21
HETATM   21  N2  UNL     1      22.660 -79.272  10.807  1.00  0.00    -0.347 N 
HETATM   22  C15 UNL     1      21.797 -79.950   9.916  1.00  0.00     0.306 C 
HETATM   23  O4  UNL     1      22.070 -80.146   8.704  1.00  0.00    -0.263 OA
ATOM     24  H2  UNL     1      22.352 -79.163  11.773  1.00  0.00     0.163 HD
BRANCH  22  25
HETATM   25  C16 UNL     1      20.513 -80.466  10.373  1.00  0.00     0.322 C 
HETATM   26  N3  UNL     1      19.772 -79.902  11.433  1.00  0.00    -0.053 NA
HETATM   27  O5  UNL     1      20.011 -81.476   9.800  1.00  0.00    -0.266 OA
ENDBRANCH  22  25
ENDBRANCH  16  21
ENDBRANCH   1  16
TORSDOF 12
ENDMDL
MODEL 3
REMARK VINA RESULT: -6.656797419      2.054      5.272
REMARK  12 active torsions:
REMARK  status: ('A' for Active; 'I' for Inactive)
REMARK    1  A    between atoms: C2_2  and  C3_3 
REMARK    2  A    between atoms: C4_4  and  C5_5 
REMARK    3  A    between atoms: C5_5  and  C6_6 
REMARK    4  A    between atoms: C5_5  and  C10_16 
REMARK       I    between atoms: C6_6  and  N1_8 
REMARK    5  A    between atoms: N1_8  and  C7_10 
REMARK    6  A    between atoms: C7_10  and  C8_11 
REMARK    7  A    between atoms: C7_10  and  C9_13 
REMARK    8  A    between atoms: C9_13  and  O3_14 
REMARK    9  A    between atoms: C10_16  and  C11_17 
REMARK   10  A    between atoms: C10_16  and  N2_21 
REMARK   11  A    between atoms: C11_17  and  C12_18 
REMARK       I    between atoms: N2_21  and  C15_23 
REMARK   12  A    between atoms: C15_23  and  C16_25 
ROOT
HETATM    1  C5  UNL     1      24.275 -76.334  11.492  1.00  0.00     0.123 C 
ENDROOT
BRANCH   1   2
HETATM    2  C4  UNL     1      24.868 -75.947  12.795  1.00  0.00    -0.015 C 
HETATM    3  C3  UNL     1      24.638 -74.764  13.337  1.00  0.00    -0.030 C 
BRANCH   3   4
HETATM    4  C2  UNL     1      25.225 -74.368  14.635  1.00  0.00     0.022 C 
HETATM    5  C1  UNL     1      24.889 -75.395  15.713  1.00  0.00     0.009 C 
ENDBRANCH   3   4
ENDBRANCH   1   2
BRANCH   1   6
HETATM    6  C6  UNL     1      23.188 -77.312  11.755  1.00  0.00     0.228 C 
HETATM    7  O1  UNL     1      23.063 -77.867  12.897  1.00  0.00    -0.273 OA
HETATM    8  N1  UNL     1      22.254 -77.652  10.731  1.00  0.00    -0.348 N 
ATOM      9  H1  UNL     1      22.329 -77.227   9.807  1.00  0.00     0.163 HD
BRANCH   8  10
HETATM   10  C7  UNL     1      21.205 -78.598  11.010  1.00  0.00     0.169 C 
BRANCH  10  11
HETATM   11  C8  UNL     1      21.337 -79.888  10.300  1.00  0.00     0.258 C 
HETATM   12  O2  UNL     1      22.363 -80.401   9.940  1.00  0.00    -0.305 OA
ENDBRANCH  10  11
BRANCH  10  13
HETATM   13  C9  UNL     1      19.842 -77.961  10.697  1.00  0.00     0.196 C 
BRANCH  13  14
HETATM   14  O3  UNL     1      19.890 -77.609   9.349  1.00  0.00    -0.398 OA
ATOM     15  H3  UNL     1      19.814 -76.662   9.328  1.00  0.00     0.209 HD
ENDBRANCH  13  14
ENDBRANCH  10  13
ENDBRANCH   8  10
ENDBRANCH   1   6
BRANCH   1  16
HETATM   16  C10 UNL     1      25.299 -76.990  10.608  1.00  0.00     0.101 C 
BRANCH  16  17
HETATM   17  C11 UNL     1      26.571 -76.159  10.623  1.00  0.00     0.030 C 
BRANCH  17  18
HETATM   18  C12 UNL     1      26.928 -75.699   9.251  1.00  0.00    -0.021 C 
HETATM   19  C13 UNL     1      27.773 -74.424   9.343  1.00  0.00     0.009 C 
HETATM   20  C14 UNL     1      27.811 -76.728   8.525  1.00  0.00     0.009 C 
ENDBRANCH  17  18
ENDBRANCH  16  17
BRANCH  16  21
HETATM   21  N2  UNL     1      25.550 -78.335  11.080  1.00  0.00    -0.347 N 
HETATM   22  C15 UNL     1      25.686 -79.468  10.246  1.00  0.00     0.306 C 
HETATM   23  O4  UNL     1      25.603 -79.418   8.992  1.00  0.00    -0.263 OA
ATOM     24  H2  UNL     1      25.634 -78.475  12.086  1.00  0.00     0.163 HD
BRANCH  22  25
HETATM   25  C16 UNL     1      25.934 -80.786  10.817  1.00  0.00     0.322 C 
HETATM   26  N3  UNL     1      26.448 -81.876  10.083  1.00  0.00    -0.053 NA
HETATM   27  O5  UNL     1      25.683 -80.989  12.040  1.00  0.00    -0.266 OA
ENDBRANCH  22  25
ENDBRANCH  16  21
ENDBRANCH   1  16
TORSDOF 12
ENDMDL
MODEL 4
REMARK VINA RESULT: -6.585867827      2.268      5.152
REMARK  12 active torsions:
REMARK  status: ('A' for Active; 'I' for Inactive)
REMARK    1  A    between atoms: C2_2  and  C3_3 
REMARK    2  A    between atoms: C4_4  and  C5_5 
REMARK    3  A    between atoms: C5_5  and  C6_6 
REMARK    4  A    between atoms: C5_5  and  C10_16 
REMARK       I    between atoms: C6_6  and  N1_8 
REMARK    5  A    between atoms: N1_8  and  C7_10 
REMARK    6  A    between atoms: C7_10  and  C8_11 
REMARK    7  A    between atoms: C7_10  and  C9_13 
REMARK    8  A    between atoms: C9_13  and  O3_14 
REMARK    9  A    between atoms: C10_16  and  C11_17 
REMARK   10  A    between atoms: C10_16  and  N2_21 
REMARK   11  A    between atoms: C11_17  and  C12_18 
REMARK       I    between atoms: N2_21  and  C15_23 
REMARK   12  A    between atoms: C15_23  and  C16_25 
ROOT
HETATM    1  C5  UNL     1      25.223 -77.161  11.639  1.00  0.00     0.123 C 
ENDROOT
BRANCH   1   2
HETATM    2  C4  UNL     1      25.628 -76.069  10.721  1.00  0.00    -0.015 C 
HETATM    3  C3  UNL     1      26.866 -75.609  10.695  1.00  0.00    -0.030 C 
BRANCH   3   4
HETATM    4  C2  UNL     1      27.280 -74.521   9.783  1.00  0.00     0.022 C 
HETATM    5  C1  UNL     1      28.100 -75.074   8.621  1.00  0.00     0.009 C 
ENDBRANCH   3   4
ENDBRANCH   1   2
BRANCH   1   6
HETATM    6  C6  UNL     1      25.402 -78.451  10.924  1.00  0.00     0.228 C 
HETATM    7  O1  UNL     1      25.730 -78.481   9.692  1.00  0.00    -0.273 OA
HETATM    8  N1  UNL     1      25.212 -79.690  11.606  1.00  0.00    -0.348 N 
ATOM      9  H1  UNL     1      24.947 -79.698  12.591  1.00  0.00     0.163 HD
BRANCH   8  10
HETATM   10  C7  UNL     1      25.397 -80.929  10.896  1.00  0.00     0.169 C 
BRANCH  10  11
HETATM   11  C8  UNL     1      24.173 -81.459  10.258  1.00  0.00     0.258 C 
HETATM   12  O2  UNL     1      23.209 -80.822   9.926  1.00  0.00    -0.305 OA
ENDBRANCH  10  11
BRANCH  10  13
HETATM   13  C9  UNL     1      25.996 -81.980  11.843  1.00  0.00     0.196 C 
BRANCH  13  14
HETATM   14  O3  UNL     1      26.803 -82.790  11.046  1.00  0.00    -0.398 OA
ATOM     15  H3  UNL     1      26.943 -82.303  10.242  1.00  0.00     0.209 HD
ENDBRANCH  13  14
ENDBRANCH  10  13
ENDBRANCH   8  10
ENDBRANCH   1   6
BRANCH   1  16
HETATM   16  C10 UNL     1      23.775 -77.030  12.026  1.00  0.00     0.101 C 
BRANCH  16  17
HETATM   17  C11 UNL     1      23.571 -75.703  12.735  1.00  0.00     0.030 C 
BRANCH  17  18
HETATM   18  C12 UNL     1      24.145 -75.735  14.111  1.00  0.00    -0.021 C 
HETATM   19  C13 UNL     1      25.008 -74.489  14.333  1.00  0.00     0.009 C 
HETATM   20  C14 UNL     1      23.043 -75.669  15.182  1.00  0.00     0.009 C 
ENDBRANCH  17  18
ENDBRANCH  16  17
BRANCH  16  21
HETATM   21  N2  UNL     1      22.952 -77.120  10.840  1.00  0.00    -0.347 N 
HETATM   22  C15 UNL     1      21.721 -77.811  10.764  1.00  0.00     0.306 C 
HETATM   23  O4  UNL     1      21.211 -78.423  11.738  1.00  0.00    -0.263 OA
ATOM     24  H2  UNL     1      23.283 -76.651   9.997  1.00  0.00     0.163 HD
BRANCH  22  25
HETATM   25  C16 UNL     1      20.963 -77.847   9.520  1.00  0.00     0.322 C 
HETATM   26  N3  UNL     1      19.554 -77.827   9.457  1.00  0.00    -0.053 NA
HETATM   27  O5  UNL     1      21.583 -77.899   8.418  1.00  0.00    -0.266 OA
ENDBRANCH  22  25
ENDBRANCH  16  21
ENDBRANCH   1  16
TORSDOF 12
ENDMDL
MODEL 5
REMARK VINA RESULT: -6.576870015      2.152      5.339
REMARK  12 active torsions:
REMARK  status: ('A' for Active; 'I' for Inactive)
REMARK    1  A    between atoms: C2_2  and  C3_3 
REMARK    2  A    between atoms: C4_4  and  C5_5 
REMARK    3  A    between atoms: C5_5  and  C6_6 
REMARK    4  A    between atoms: C5_5  and  C10_16 
REMARK       I    between atoms: C6_6  and  N1_8 
REMARK    5  A    between atoms: N1_8  and  C7_10 
REMARK    6  A    between atoms: C7_10  and  C8_11 
REMARK    7  A    between atoms: C7_10  and  C9_13 
REMARK    8  A    between atoms: C9_13  and  O3_14 
REMARK    9  A    between atoms: C10_16  and  C11_17 
REMARK   10  A    between atoms: C10_16  and  N2_21 
REMARK   11  A    between atoms: C11_17  and  C12_18 
REMARK       I    between atoms: N2_21  and  C15_23 
REMARK   12  A    between atoms: C15_23  and  C16_25 
ROOT
HETATM    1  C5  UNL     1      25.138 -77.227  11.875  1.00  0.00     0.123 C 
ENDROOT
BRANCH   1   2
HETATM    2  C4  UNL     1      25.651 -76.434  10.733  1.00  0.00    -0.015 C 
HETATM    3  C3  UNL     1      26.650 -75.580  10.875  1.00  0.00    -0.030 C 
BRANCH   3   4
HETATM    4  C2  UNL     1      27.169 -74.784   9.742  1.00  0.00     0.022 C 
HETATM    5  C1  UNL     1      27.898 -75.680   8.744  1.00  0.00     0.009 C 
ENDBRANCH   3   4
ENDBRANCH   1   2
BRANCH   1   6
HETATM    6  C6  UNL     1      25.331 -78.666  11.559  1.00  0.00     0.228 C 
HETATM    7  O1  UNL     1      25.275 -79.555  12.472  1.00  0.00    -0.273 OA
HETATM    8  N1  UNL     1      25.583 -79.086  10.218  1.00  0.00    -0.348 N 
ATOM      9  H1  UNL     1      25.636 -78.399   9.467  1.00  0.00     0.163 HD
BRANCH   8  10
HETATM   10  C7  UNL     1      25.761 -80.486   9.933  1.00  0.00     0.169 C 
BRANCH  10  11
HETATM   11  C8  UNL     1      26.882 -80.789   9.019  1.00  0.00     0.258 C 
HETATM   12  O2  UNL     1      27.534 -79.989   8.402  1.00  0.00    -0.305 OA
ENDBRANCH  10  11
BRANCH  10  13
HETATM   13  C9  UNL     1      24.452 -81.068   9.375  1.00  0.00     0.196 C 
BRANCH  13  14
HETATM   14  O3  UNL     1      23.630 -81.277  10.480  1.00  0.00    -0.398 OA
ATOM     15  H3  UNL     1      24.178 -81.696  11.133  1.00  0.00     0.209 HD
ENDBRANCH  13  14
ENDBRANCH  10  13
ENDBRANCH   8  10
ENDBRANCH   1   6
BRANCH   1  16
HETATM   16  C10 UNL     1      23.669 -76.981  12.085  1.00  0.00     0.101 C 
BRANCH  16  17
HETATM   17  C11 UNL     1      23.489 -75.675  12.839  1.00  0.00     0.030 C 
BRANCH  17  18
HETATM   18  C12 UNL     1      24.097 -75.750  14.198  1.00  0.00    -0.021 C 
HETATM   19  C13 UNL     1      24.980 -74.520  14.431  1.00  0.00     0.009 C 
HETATM   20  C14 UNL     1      23.023 -75.701  15.298  1.00  0.00     0.009 C 
ENDBRANCH  17  18
ENDBRANCH  16  17
BRANCH  16  21
HETATM   21  N2  UNL     1      23.001 -76.940  10.802  1.00  0.00    -0.347 N 
HETATM   22  C15 UNL     1      22.136 -77.944  10.311  1.00  0.00     0.306 C 
HETATM   23  O4  UNL     1      21.856 -78.989  10.953  1.00  0.00    -0.263 OA
ATOM     24  H2  UNL     1      23.167 -76.127  10.209  1.00  0.00     0.163 HD
BRANCH  22  25
HETATM   25  C16 UNL     1      21.513 -77.813   9.001  1.00  0.00     0.322 C 
HETATM   26  N3  UNL     1      20.132 -77.598   8.806  1.00  0.00    -0.053 NA
HETATM   27  O5  UNL     1      22.230 -77.892   7.962  1.00  0.00    -0.266 OA
ENDBRANCH  22  25
ENDBRANCH  16  21
ENDBRANCH   1  16
TORSDOF 12
ENDMDL
