MODEL 1
REMARK VINA RESULT: -7.736476607      0.000      0.000
REMARK  4 active torsions:
REMARK  status: ('A' for Active; 'I' for Inactive)
REMARK    1  A    between atoms: O1_2  and  C2_3 
REMARK    2  A    between atoms: C2_3  and  C4_5 
REMARK    3  A    between atoms: C4_5  and  N1_6 
REMARK    4  A    between atoms: N3_19  and  C12_20 
ROOT
HETATM    1  N1  UNL     1      20.348  11.155  44.611  1.00  0.00    -0.366 N 
HETATM    2  C5  UNL     1      20.888  10.242  43.778  1.00  0.00     0.068 C 
HETATM    3  C6  UNL     1      19.960   9.691  42.642  1.00  0.00     0.086 C 
HETATM    4  C7  UNL     1      19.208  10.759  42.076  1.00  0.00    -0.004 A 
HETATM    5  C8  UNL     1      18.801  11.762  42.979  1.00  0.00     0.064 A 
HETATM    6  C9  UNL     1      18.084  12.826  42.482  1.00  0.00     0.301 A 
HETATM    7  O2  UNL     1      17.725  13.728  43.322  1.00  0.00    -0.259 OA
HETATM    8  O3  UNL     1      17.772  12.936  41.228  1.00  0.00    -0.255 OA
HETATM    9  C10 UNL     1      18.125  12.028  40.350  1.00  0.00     0.181 A 
HETATM   10  N2  UNL     1      17.880  11.997  39.042  1.00  0.00    -0.311 N 
ATOM     11  H2  UNL     1      17.370  12.686  38.490  1.00  0.00     0.170 HD
HETATM   12  C11 UNL     1      18.458  10.843  38.602  1.00  0.00     0.184 A 
HETATM   13 CL1  UNL     1      18.397  10.382  36.923  1.00  0.00    -0.044 Cl
HETATM   14  N3  UNL     1      19.054  10.162  39.604  1.00  0.00    -0.310 N 
HETATM   15  C16 UNL     1      18.864  10.898  40.758  1.00  0.00     0.097 A 
HETATM   16  C17 UNL     1      19.085  11.703  44.446  1.00  0.00     0.108 C 
ENDROOT
BRANCH   1  17
HETATM   17  C4  UNL     1      21.213  12.116  45.235  1.00  0.00     0.158 C 
BRANCH  17  18
HETATM   18  C2  UNL     1      21.365  11.951  46.711  1.00  0.00     0.135 C 
HETATM   19  C3  UNL     1      22.797  11.752  47.144  1.00  0.00     0.041 C 
BRANCH  18  20
HETATM   20  O1  UNL     1      20.783  13.020  47.386  1.00  0.00    -0.389 OA
HETATM   21  C1  UNL     1      19.628  12.618  48.074  1.00  0.00     0.202 C 
ENDBRANCH  18  20
ENDBRANCH  17  18
ENDBRANCH   1  17
BRANCH  14  22
HETATM   22  C12 UNL     1      19.748   8.916  39.594  1.00  0.00     0.029 C 
HETATM   23  C13 UNL     1      21.171   8.932  40.109  1.00  0.00     0.038 C 
HETATM   24  C14 UNL     1      18.960   7.651  39.764  1.00  0.00     0.038 C 
HETATM   25  C15 UNL     1      20.116   8.701  38.086  1.00  0.00     0.038 C 
ENDBRANCH  14  22
TORSDOF 4
ENDMDL
MODEL 2
REMARK VINA RESULT: -7.297890444      0.760      1.022
REMARK  4 active torsions:
REMARK  status: ('A' for Active; 'I' for Inactive)
REMARK    1  A    between atoms: O1_2  and  C2_3 
REMARK    2  A    between atoms: C2_3  and  C4_5 
REMARK    3  A    between atoms: C4_5  and  N1_6 
REMARK    4  A    between atoms: N3_19  and  C12_20 
ROOT
HETATM    1  N1  UNL     1      19.852  11.154  44.782  1.00  0.00    -0.366 N 
HETATM    2  C5  UNL     1      20.459  10.226  44.015  1.00  0.00     0.068 C 
HETATM    3  C6  UNL     1      19.649   9.691  42.784  1.00  0.00     0.086 C 
HETATM    4  C7  UNL     1      18.989  10.774  42.137  1.00  0.00    -0.004 A 
HETATM    5  C8  UNL     1      18.508  11.789  42.988  1.00  0.00     0.064 A 
HETATM    6  C9  UNL     1      17.875  12.867  42.414  1.00  0.00     0.301 A 
HETATM    7  O2  UNL     1      17.446  13.781  43.208  1.00  0.00    -0.259 OA
HETATM    8  O3  UNL     1      17.705  12.979  41.133  1.00  0.00    -0.255 OA
HETATM    9  C10 UNL     1      18.132  12.061  40.301  1.00  0.00     0.181 A 
HETATM   10  N2  UNL     1      18.032  12.029  38.974  1.00  0.00    -0.311 N 
ATOM     11  H2  UNL     1      17.602  12.727  38.368  1.00  0.00     0.170 HD
HETATM   12  C11 UNL     1      18.629  10.861  38.602  1.00  0.00     0.184 A 
HETATM   13 CL1  UNL     1      18.741  10.394  36.927  1.00  0.00    -0.044 Cl
HETATM   14  N3  UNL     1      19.095  10.171  39.665  1.00  0.00    -0.310 N 
HETATM   15  C16 UNL     1      18.796  10.916  40.789  1.00  0.00     0.097 A 
HETATM   16  C17 UNL     1      18.627  11.730  44.478  1.00  0.00     0.108 C 
ENDROOT
BRANCH   1  17
HETATM   17  C4  UNL     1      20.664  12.098  45.496  1.00  0.00     0.158 C 
BRANCH  17  18
HETATM   18  C2  UNL     1      20.510  12.056  46.981  1.00  0.00     0.135 C 
HETATM   19  C3  UNL     1      19.407  12.948  47.491  1.00  0.00     0.041 C 
BRANCH  18  20
HETATM   20  O1  UNL     1      20.336  10.745  47.417  1.00  0.00    -0.389 OA
HETATM   21  C1  UNL     1      19.311  10.660  48.371  1.00  0.00     0.202 C 
ENDBRANCH  18  20
ENDBRANCH  17  18
ENDBRANCH   1  17
BRANCH  14  22
HETATM   22  C12 UNL     1      19.756   8.909  39.733  1.00  0.00     0.029 C 
HETATM   23  C13 UNL     1      21.149   8.909  40.326  1.00  0.00     0.038 C 
HETATM   24  C14 UNL     1      18.928   7.669  39.898  1.00  0.00     0.038 C 
HETATM   25  C15 UNL     1      20.202   8.636  38.256  1.00  0.00     0.038 C 
ENDBRANCH  14  22
TORSDOF 4
ENDMDL
MODEL 3
REMARK VINA RESULT: -7.265298873      3.353      6.958
REMARK  4 active torsions:
REMARK  status: ('A' for Active; 'I' for Inactive)
REMARK    1  A    between atoms: O1_2  and  C2_3 
REMARK    2  A    between atoms: C2_3  and  C4_5 
REMARK    3  A    between atoms: C4_5  and  N1_6 
REMARK    4  A    between atoms: N3_19  and  C12_20 
ROOT
HETATM    1  N1  UNL     1      19.684   8.503  40.237  1.00  0.00    -0.366 N 
HETATM    2  C5  UNL     1      18.905   9.450  40.797  1.00  0.00     0.068 C 
HETATM    3  C6  UNL     1      19.080   9.683  42.337  1.00  0.00     0.086 C 
HETATM    4  C7  UNL     1      20.464   9.663  42.672  1.00  0.00    -0.004 A 
HETATM    5  C8  UNL     1      21.253   8.753  41.940  1.00  0.00     0.064 A 
HETATM    6  C9  UNL     1      22.600   8.703  42.213  1.00  0.00     0.301 A 
HETATM    7  O2  UNL     1      23.301   7.868  41.533  1.00  0.00    -0.259 OA
HETATM    8  O3  UNL     1      23.162   9.453  43.109  1.00  0.00    -0.255 OA
HETATM    9  C10 UNL     1      22.471  10.313  43.817  1.00  0.00     0.181 A 
HETATM   10  N2  UNL     1      22.897  11.142  44.767  1.00  0.00    -0.311 N 
ATOM     11  H2  UNL     1      23.851  11.255  45.110  1.00  0.00     0.170 HD
HETATM   12  C11 UNL     1      21.782  11.808  45.182  1.00  0.00     0.184 A 
HETATM   13 CL1  UNL     1      21.862  13.020  46.430  1.00  0.00    -0.044 Cl
HETATM   14  N3  UNL     1      20.678  11.411  44.512  1.00  0.00    -0.310 N 
HETATM   15  C16 UNL     1      21.081  10.442  43.613  1.00  0.00     0.097 A 
HETATM   16  C17 UNL     1      20.688   7.825  40.912  1.00  0.00     0.108 C 
ENDROOT
BRANCH   1  17
HETATM   17  C4  UNL     1      20.038   8.632  38.851  1.00  0.00     0.158 C 
BRANCH  17  18
HETATM   18  C2  UNL     1      20.811   9.864  38.517  1.00  0.00     0.135 C 
HETATM   19  C3  UNL     1      22.127   9.577  37.837  1.00  0.00     0.041 C 
BRANCH  18  20
HETATM   20  O1  UNL     1      20.036  10.737  37.758  1.00  0.00    -0.389 OA
HETATM   21  C1  UNL     1      18.806  10.156  37.415  1.00  0.00     0.202 C 
ENDBRANCH  18  20
ENDBRANCH  17  18
ENDBRANCH   1  17
BRANCH  14  22
HETATM   22  C12 UNL     1      19.318  11.822  44.640  1.00  0.00     0.029 C 
HETATM   23  C13 UNL     1      18.827  12.847  43.640  1.00  0.00     0.038 C 
HETATM   24  C14 UNL     1      18.319  10.847  45.187  1.00  0.00     0.038 C 
HETATM   25  C15 UNL     1      19.330  12.786  45.876  1.00  0.00     0.038 C 
ENDBRANCH  14  22
TORSDOF 4
ENDMDL
MODEL 4
REMARK VINA RESULT: -7.256017394      3.018      6.555
REMARK  4 active torsions:
REMARK  status: ('A' for Active; 'I' for Inactive)
REMARK    1  A    between atoms: O1_2  and  C2_3 
REMARK    2  A    between atoms: C2_3  and  C4_5 
REMARK    3  A    between atoms: C4_5  and  N1_6 
REMARK    4  A    between atoms: N3_19  and  C12_20 
ROOT
HETATM    1  N1  UNL     1      19.626   9.308  41.534  1.00  0.00    -0.366 N 
HETATM    2  C5  UNL     1      19.678   9.206  42.878  1.00  0.00     0.068 C 
HETATM    3  C6  UNL     1      19.865  10.542  43.677  1.00  0.00     0.086 C 
HETATM    4  C7  UNL     1      19.048  11.560  43.108  1.00  0.00    -0.004 A 
HETATM    5  C8  UNL     1      18.914  11.519  41.706  1.00  0.00     0.064 A 
HETATM    6  C9  UNL     1      18.123  12.472  41.106  1.00  0.00     0.301 A 
HETATM    7  O2  UNL     1      18.014  12.415  39.827  1.00  0.00    -0.259 OA
HETATM    8  O3  UNL     1      17.508  13.395  41.776  1.00  0.00    -0.255 OA
HETATM    9  C10 UNL     1      17.604  13.477  43.081  1.00  0.00     0.181 A 
HETATM   10  N2  UNL     1      17.042  14.360  43.902  1.00  0.00    -0.311 N 
ATOM     11  H2  UNL     1      16.427  15.135  43.654  1.00  0.00     0.170 HD
HETATM   12  C11 UNL     1      17.465  14.003  45.148  1.00  0.00     0.184 A 
HETATM   13 CL1  UNL     1      16.966  14.888  46.563  1.00  0.00    -0.044 Cl
HETATM   14  N3  UNL     1      18.275  12.923  45.117  1.00  0.00    -0.310 N 
HETATM   15  C16 UNL     1      18.389  12.546  43.792  1.00  0.00     0.097 A 
HETATM   16  C17 UNL     1      19.613  10.513  40.848  1.00  0.00     0.108 C 
ENDROOT
BRANCH   1  17
HETATM   17  C4  UNL     1      18.885   8.325  40.796  1.00  0.00     0.158 C 
BRANCH  17  18
HETATM   18  C2  UNL     1      19.384   8.080  39.410  1.00  0.00     0.135 C 
HETATM   19  C3  UNL     1      20.070   6.747  39.249  1.00  0.00     0.041 C 
BRANCH  18  20
HETATM   20  O1  UNL     1      18.353   8.226  38.486  1.00  0.00    -0.389 OA
HETATM   21  C1  UNL     1      18.494   9.412  37.750  1.00  0.00     0.202 C 
ENDBRANCH  18  20
ENDBRANCH  17  18
ENDBRANCH   1  17
BRANCH  14  22
HETATM   22  C12 UNL     1      18.949  12.238  46.171  1.00  0.00     0.029 C 
HETATM   23  C13 UNL     1      18.302  10.964  46.670  1.00  0.00     0.038 C 
HETATM   24  C14 UNL     1      20.443  12.341  46.258  1.00  0.00     0.038 C 
HETATM   25  C15 UNL     1      18.632  13.097  47.443  1.00  0.00     0.038 C 
ENDBRANCH  14  22
TORSDOF 4
ENDMDL
MODEL 5
REMARK VINA RESULT: -7.233063443      0.981      1.425
REMARK  4 active torsions:
REMARK  status: ('A' for Active; 'I' for Inactive)
REMARK    1  A    between atoms: O1_2  and  C2_3 
REMARK    2  A    between atoms: C2_3  and  C4_5 
REMARK    3  A    between atoms: C4_5  and  N1_6 
REMARK    4  A    between atoms: N3_19  and  C12_20 
ROOT
HETATM    1  N1  UNL     1      20.870  11.345  44.644  1.00  0.00    -0.366 N 
HETATM    2  C5  UNL     1      21.334  10.434  43.765  1.00  0.00     0.068 C 
HETATM    3  C6  UNL     1      20.298   9.848  42.746  1.00  0.00     0.086 C 
HETATM    4  C7  UNL     1      19.461  10.893  42.258  1.00  0.00    -0.004 A 
HETATM    5  C8  UNL     1      19.135  11.897  43.191  1.00  0.00     0.064 A 
HETATM    6  C9  UNL     1      18.341  12.938  42.769  1.00  0.00     0.301 A 
HETATM    7  O2  UNL     1      18.057  13.842  43.635  1.00  0.00    -0.259 OA
HETATM    8  O3  UNL     1      17.887  13.025  41.557  1.00  0.00    -0.255 OA
HETATM    9  C10 UNL     1      18.161  12.116  40.654  1.00  0.00     0.181 A 
HETATM   10  N2  UNL     1      17.771  12.062  39.382  1.00  0.00    -0.311 N 
ATOM     11  H2  UNL     1      17.185  12.733  38.884  1.00  0.00     0.170 HD
HETATM   12  C11 UNL     1      18.323  10.917  38.890  1.00  0.00     0.184 A 
HETATM   13 CL1  UNL     1      18.084  10.434  37.234  1.00  0.00    -0.044 Cl
HETATM   14  N3  UNL     1      19.045  10.262  39.826  1.00  0.00    -0.310 N 
HETATM   15  C16 UNL     1      18.968  11.008  40.986  1.00  0.00     0.097 A 
HETATM   16  C17 UNL     1      19.583  11.862  44.618  1.00  0.00     0.108 C 
ENDROOT
BRANCH   1  17
HETATM   17  C4  UNL     1      21.776  12.333  45.158  1.00  0.00     0.158 C 
BRANCH  17  18
HETATM   18  C2  UNL     1      22.462  11.950  46.427  1.00  0.00     0.135 C 
HETATM   19  C3  UNL     1      21.527  11.366  47.457  1.00  0.00     0.041 C 
BRANCH  18  20
HETATM   20  O1  UNL     1      23.524  11.088  46.169  1.00  0.00    -0.389 OA
HETATM   21  C1  UNL     1      24.752  11.686  46.487  1.00  0.00     0.202 C 
ENDBRANCH  18  20
ENDBRANCH  17  18
ENDBRANCH   1  17
BRANCH  14  22
HETATM   22  C12 UNL     1      19.762   9.032  39.749  1.00  0.00     0.029 C 
HETATM   23  C13 UNL     1      21.261   9.111  39.948  1.00  0.00     0.038 C 
HETATM   24  C14 UNL     1      19.071   7.767  40.164  1.00  0.00     0.038 C 
HETATM   25  C15 UNL     1      19.812   8.718  38.214  1.00  0.00     0.038 C 
ENDBRANCH  14  22
TORSDOF 4
ENDMDL
