MODEL 1
REMARK VINA RESULT: -7.599238126      0.000      0.000
REMARK  3 active torsions:
REMARK  status: ('A' for Active; 'I' for Inactive)
REMARK    1  A    between atoms: N2_5  and  C3_6 
REMARK    2  A    between atoms: C3_6  and  N3_7 
REMARK    3  A    between atoms: N4_10  and  C6_11 
ROOT
HETATM    1  N3  UNL     1      18.793  12.333  45.166  1.00  0.00    -0.370 N 
HETATM    2  C4  UNL     1      20.170  12.257  44.905  1.00  0.00     0.090 C 
HETATM    3  C5  UNL     1      20.560  11.366  43.755  1.00  0.00     0.317 C 
HETATM    4  N4  UNL     1      19.340  11.090  43.019  1.00  0.00     0.103 N 
HETATM    5  C15 UNL     1      18.444  10.303  43.839  1.00  0.00     0.293 C 
HETATM    6  C16 UNL     1      17.972  11.192  44.938  1.00  0.00     0.154 C 
ENDROOT
BRANCH   4   7
HETATM    7  C6  UNL     1      19.570  10.551  41.731  1.00  0.00     0.259 C 
HETATM    8  C7  UNL     1      19.386   9.080  41.615  1.00  0.00     0.066 C 
HETATM    9  C8  UNL     1      19.913   8.599  40.306  1.00  0.00     0.040 C 
HETATM   10  C9  UNL     1      18.891   7.660  39.683  1.00  0.00     0.033 C 
HETATM   11 CL1  UNL     1      21.377   7.625  40.616  1.00  0.00    -0.119 Cl
HETATM   12  C10 UNL     1      20.271   9.705  39.359  1.00  0.00     0.065 C 
HETATM   13  C11 UNL     1      19.222  10.802  39.385  1.00  0.00    -0.041 A 
HETATM   14  C12 UNL     1      18.619  11.396  38.317  1.00  0.00     0.057 A 
HETATM   15  C14 UNL     1      18.871  11.236  40.616  1.00  0.00    -0.012 A 
HETATM   16  S1  UNL     1      17.586  12.538  39.034  1.00  0.00    -0.113 SA
HETATM   17  C13 UNL     1      17.938  12.241  40.674  1.00  0.00     0.059 A 
ENDBRANCH   4   7
BRANCH   1  18
HETATM   18  C3  UNL     1      18.168  13.606  45.043  1.00  0.00     0.301 C 
BRANCH  18  19
HETATM   19  N2  UNL     1      17.623  13.973  46.350  1.00  0.00    -0.172 N 
HETATM   20  N1  UNL     1      16.453  14.163  46.909  1.00  0.00    -0.258 N 
HETATM   21  C2  UNL     1      17.065  14.449  48.063  1.00  0.00     0.161 A 
ATOM     22  H1  UNL     1      15.484  14.114  46.596  1.00  0.00     0.191 HD
HETATM   23  C1  UNL     1      16.639  14.831  49.445  1.00  0.00     0.101 C 
HETATM   24  O1  UNL     1      18.193  14.249  47.461  1.00  0.00    -0.204 OA
ENDBRANCH  18  19
ENDBRANCH   1  18
TORSDOF 3
ENDMDL
MODEL 2
REMARK VINA RESULT: -7.427444645      2.623      3.535
REMARK  3 active torsions:
REMARK  status: ('A' for Active; 'I' for Inactive)
REMARK    1  A    between atoms: N2_5  and  C3_6 
REMARK    2  A    between atoms: C3_6  and  N3_7 
REMARK    3  A    between atoms: N4_10  and  C6_11 
ROOT
HETATM    1  N3  UNL     1      18.318  12.106  43.767  1.00  0.00    -0.370 N 
HETATM    2  C4  UNL     1      18.238  10.861  44.408  1.00  0.00     0.090 C 
HETATM    3  C5  UNL     1      18.927   9.725  43.699  1.00  0.00     0.317 C 
HETATM    4  N4  UNL     1      19.779  10.328  42.690  1.00  0.00     0.103 N 
HETATM    5  C15 UNL     1      18.962  10.979  41.689  1.00  0.00     0.293 C 
HETATM    6  C16 UNL     1      18.337  12.163  42.343  1.00  0.00     0.154 C 
ENDROOT
BRANCH   4   7
HETATM    7  C6  UNL     1      20.743   9.437  42.162  1.00  0.00     0.259 C 
HETATM    8  C7  UNL     1      20.839   9.410  40.678  1.00  0.00     0.066 C 
HETATM    9  C8  UNL     1      21.678   8.259  40.239  1.00  0.00     0.040 C 
HETATM   10  C9  UNL     1      22.664   8.746  39.188  1.00  0.00     0.033 C 
HETATM   11 CL1  UNL     1      20.617   7.071  39.432  1.00  0.00    -0.119 Cl
HETATM   12  C10 UNL     1      22.390   7.571  41.365  1.00  0.00     0.065 C 
HETATM   13  C11 UNL     1      22.961   8.581  42.343  1.00  0.00    -0.041 A 
HETATM   14  C12 UNL     1      24.224   8.615  42.854  1.00  0.00     0.057 A 
HETATM   15  C14 UNL     1      22.100   9.538  42.753  1.00  0.00    -0.012 A 
HETATM   16  S1  UNL     1      24.193   9.962  43.888  1.00  0.00    -0.113 SA
HETATM   17  C13 UNL     1      22.580  10.457  43.653  1.00  0.00     0.059 A 
ENDBRANCH   4   7
BRANCH   1  18
HETATM   18  C3  UNL     1      18.977  13.163  44.457  1.00  0.00     0.301 C 
BRANCH  18  19
HETATM   19  N2  UNL     1      18.117  13.590  45.561  1.00  0.00    -0.172 N 
HETATM   20  N1  UNL     1      16.844  13.798  45.791  1.00  0.00    -0.258 N 
HETATM   21  C2  UNL     1      17.141  14.146  47.047  1.00  0.00     0.161 A 
ATOM     22  H1  UNL     1      15.987  13.725  45.243  1.00  0.00     0.191 HD
HETATM   23  C1  UNL     1      16.377  14.593  48.253  1.00  0.00     0.101 C 
HETATM   24  O1  UNL     1      18.384  13.927  46.765  1.00  0.00    -0.204 OA
ENDBRANCH  18  19
ENDBRANCH   1  18
TORSDOF 3
ENDMDL
MODEL 3
REMARK VINA RESULT: -6.804325015      2.770      3.709
REMARK  3 active torsions:
REMARK  status: ('A' for Active; 'I' for Inactive)
REMARK    1  A    between atoms: N2_5  and  C3_6 
REMARK    2  A    between atoms: C3_6  and  N3_7 
REMARK    3  A    between atoms: N4_10  and  C6_11 
ROOT
HETATM    1  N3  UNL     1      18.477  12.169  44.580  1.00  0.00    -0.370 N 
HETATM    2  C4  UNL     1      18.052  10.847  44.780  1.00  0.00     0.090 C 
HETATM    3  C5  UNL     1      18.312   9.905  43.633  1.00  0.00     0.317 C 
HETATM    4  N4  UNL     1      19.248  10.581  42.753  1.00  0.00     0.103 N 
HETATM    5  C15 UNL     1      18.616  11.745  42.171  1.00  0.00     0.293 C 
HETATM    6  C16 UNL     1      18.429  12.731  43.272  1.00  0.00     0.154 C 
ENDROOT
BRANCH   4   7
HETATM    7  C6  UNL     1      19.856   9.718  41.810  1.00  0.00     0.259 C 
HETATM    8  C7  UNL     1      19.748  10.151  40.391  1.00  0.00     0.066 C 
HETATM    9  C8  UNL     1      20.176   9.047  39.485  1.00  0.00     0.040 C 
HETATM   10  C9  UNL     1      21.113   9.617  38.430  1.00  0.00     0.033 C 
HETATM   11 CL1  UNL     1      18.735   8.447  38.616  1.00  0.00    -0.119 Cl
HETATM   12  C10 UNL     1      20.813   7.894  40.201  1.00  0.00     0.065 C 
HETATM   13  C11 UNL     1      21.759   8.383  41.281  1.00  0.00    -0.041 A 
HETATM   14  C12 UNL     1      23.039   7.972  41.509  1.00  0.00     0.057 A 
HETATM   15  C14 UNL     1      21.253   9.322  42.111  1.00  0.00    -0.012 A 
HETATM   16  S1  UNL     1      23.511   8.886  42.860  1.00  0.00    -0.113 SA
HETATM   17  C13 UNL     1      22.078   9.772  43.111  1.00  0.00     0.059 A 
ENDBRANCH   4   7
BRANCH   1  18
HETATM   18  C3  UNL     1      19.471  12.683  45.460  1.00  0.00     0.301 C 
BRANCH  18  19
HETATM   19  N2  UNL     1      19.578  11.776  46.603  1.00  0.00    -0.172 N 
HETATM   20  N1  UNL     1      20.370  10.823  47.031  1.00  0.00    -0.258 N 
HETATM   21  C2  UNL     1      19.595  10.681  48.111  1.00  0.00     0.161 A 
ATOM     22  H1  UNL     1      21.220  10.378  46.686  1.00  0.00     0.191 HD
HETATM   23  C1  UNL     1      19.589   9.813  49.329  1.00  0.00     0.101 C 
HETATM   24  O1  UNL     1      18.847  11.627  47.642  1.00  0.00    -0.204 OA
ENDBRANCH  18  19
ENDBRANCH   1  18
TORSDOF 3
ENDMDL
MODEL 4
REMARK VINA RESULT: -6.780784211      2.982      3.801
REMARK  3 active torsions:
REMARK  status: ('A' for Active; 'I' for Inactive)
REMARK    1  A    between atoms: N2_5  and  C3_6 
REMARK    2  A    between atoms: C3_6  and  N3_7 
REMARK    3  A    between atoms: N4_10  and  C6_11 
ROOT
HETATM    1  N3  UNL     1      19.074  11.522  45.713  1.00  0.00    -0.370 N 
HETATM    2  C4  UNL     1      18.045  10.945  44.954  1.00  0.00     0.090 C 
HETATM    3  C5  UNL     1      18.464  10.386  43.619  1.00  0.00     0.317 C 
HETATM    4  N4  UNL     1      19.914  10.312  43.644  1.00  0.00     0.103 N 
HETATM    5  C15 UNL     1      20.469  11.646  43.703  1.00  0.00     0.293 C 
HETATM    6  C16 UNL     1      20.144  12.190  45.052  1.00  0.00     0.154 C 
ENDROOT
BRANCH   4   7
HETATM    7  C6  UNL     1      20.452   9.505  42.613  1.00  0.00     0.259 C 
HETATM    8  C7  UNL     1      20.023   9.863  41.235  1.00  0.00     0.066 C 
HETATM    9  C8  UNL     1      20.428   8.795  40.278  1.00  0.00     0.040 C 
HETATM   10  C9  UNL     1      21.063   9.446  39.059  1.00  0.00     0.033 C 
HETATM   11 CL1  UNL     1      18.951   7.969  39.704  1.00  0.00    -0.119 Cl
HETATM   12  C10 UNL     1      21.344   7.768  40.875  1.00  0.00     0.065 C 
HETATM   13  C11 UNL     1      22.395   8.424  41.752  1.00  0.00    -0.041 A 
HETATM   14  C12 UNL     1      23.739   8.201  41.738  1.00  0.00     0.057 A 
HETATM   15  C14 UNL     1      21.923   9.316  42.650  1.00  0.00    -0.012 A 
HETATM   16  S1  UNL     1      24.319   9.223  42.965  1.00  0.00    -0.113 SA
HETATM   17  C13 UNL     1      22.846   9.913  43.471  1.00  0.00     0.059 A 
ENDBRANCH   4   7
BRANCH   1  18
HETATM   18  C3  UNL     1      19.369  10.937  46.977  1.00  0.00     0.301 C 
BRANCH  18  19
HETATM   19  N2  UNL     1      18.144  10.940  47.777  1.00  0.00    -0.172 N 
HETATM   20  N1  UNL     1      17.316  11.808  48.303  1.00  0.00    -0.258 N 
HETATM   21  C2  UNL     1      16.589  10.800  48.794  1.00  0.00     0.161 A 
ATOM     22  H1  UNL     1      17.252  12.826  48.326  1.00  0.00     0.191 HD
HETATM   23  C1  UNL     1      15.343  10.665  49.609  1.00  0.00     0.101 C 
HETATM   24  O1  UNL     1      17.438   9.986  48.254  1.00  0.00    -0.204 OA
ENDBRANCH  18  19
ENDBRANCH   1  18
TORSDOF 3
ENDMDL
MODEL 5
REMARK VINA RESULT: -6.590058893      3.687      7.742
REMARK  3 active torsions:
REMARK  status: ('A' for Active; 'I' for Inactive)
REMARK    1  A    between atoms: N2_5  and  C3_6 
REMARK    2  A    between atoms: C3_6  and  N3_7 
REMARK    3  A    between atoms: N4_10  and  C6_11 
ROOT
HETATM    1  N3  UNL     1      19.091  11.617  43.005  1.00  0.00    -0.370 N 
HETATM    2  C4  UNL     1      18.399  10.592  43.669  1.00  0.00     0.090 C 
HETATM    3  C5  UNL     1      18.293  10.748  45.163  1.00  0.00     0.317 C 
HETATM    4  N4  UNL     1      18.667  12.119  45.459  1.00  0.00     0.103 N 
HETATM    5  C15 UNL     1      20.063  12.323  45.140  1.00  0.00     0.293 C 
HETATM    6  C16 UNL     1      20.181  12.263  43.656  1.00  0.00     0.154 C 
ENDROOT
BRANCH   4   7
HETATM    7  C6  UNL     1      18.303  12.532  46.763  1.00  0.00     0.259 C 
HETATM    8  C7  UNL     1      19.338  12.318  47.809  1.00  0.00     0.066 C 
HETATM    9  C8  UNL     1      18.752  12.533  49.162  1.00  0.00     0.040 C 
HETATM   10  C9  UNL     1      19.698  13.406  49.973  1.00  0.00     0.033 C 
HETATM   11 CL1  UNL     1      18.675  10.955  49.995  1.00  0.00    -0.119 Cl
HETATM   12  C10 UNL     1      17.373  13.122  49.133  1.00  0.00     0.065 C 
HETATM   13  C11 UNL     1      17.275  14.222  48.093  1.00  0.00    -0.041 A 
HETATM   14  C12 UNL     1      16.751  15.470  48.257  1.00  0.00     0.057 A 
HETATM   15  C14 UNL     1      17.753  13.906  46.870  1.00  0.00    -0.012 A 
HETATM   16  S1  UNL     1      16.928  16.174  46.721  1.00  0.00    -0.113 SA
HETATM   17  C13 UNL     1      17.663  14.874  45.902  1.00  0.00     0.059 A 
ENDBRANCH   4   7
BRANCH   1  18
HETATM   18  C3  UNL     1      18.372  12.386  42.047  1.00  0.00     0.301 C 
BRANCH  18  19
HETATM   19  N2  UNL     1      18.419  11.677  40.768  1.00  0.00    -0.172 N 
HETATM   20  N1  UNL     1      18.847  10.533  40.293  1.00  0.00    -0.258 N 
HETATM   21  C2  UNL     1      18.412  10.888  39.080  1.00  0.00     0.161 A 
ATOM     22  H1  UNL     1      19.315   9.716  40.684  1.00  0.00     0.191 HD
HETATM   23  C1  UNL     1      18.395  10.273  37.717  1.00  0.00     0.101 C 
HETATM   24  O1  UNL     1      18.008  12.002  39.601  1.00  0.00    -0.204 OA
ENDBRANCH  18  19
ENDBRANCH   1  18
TORSDOF 3
ENDMDL
