MODEL 1
REMARK VINA RESULT: -7.056931806      0.000      0.000
REMARK  3 active torsions:
REMARK  status: ('A' for Active; 'I' for Inactive)
REMARK    1  A    between atoms: C5_6  and  C6_7 
REMARK    2  A    between atoms: N5_17  and  C9_18 
REMARK    3  A    between atoms: C9_18  and  C10_19 
ROOT
HETATM    1  C1  UNL     1      16.274  14.742  44.316  1.00  0.00     0.149 C 
HETATM    2  N1  UNL     1      17.429  14.586  45.056  1.00  0.00    -0.391 N 
HETATM    3  C2  UNL     1      17.594  15.211  46.292  1.00  0.00     0.058 C 
HETATM    4  C3  UNL     1      17.909  14.261  47.437  1.00  0.00     0.046 C 
HETATM    5  C4  UNL     1      17.710  12.875  46.860  1.00  0.00     0.026 C 
HETATM    6  C5  UNL     1      18.686  12.640  45.690  1.00  0.00     0.058 C 
HETATM    7  C11 UNL     1      18.397  13.599  44.661  1.00  0.00     0.106 C 
HETATM    8  C12 UNL     1      17.671  12.592  43.741  1.00  0.00     0.030 C 
HETATM    9  C13 UNL     1      18.376  12.507  42.415  1.00  0.00     0.008 C 
HETATM   10  C14 UNL     1      18.575  11.319  41.639  1.00  0.00     0.001 C 
HETATM   11  C15 UNL     1      19.802  10.423  41.831  1.00  0.00     0.011 C 
HETATM   12  C16 UNL     1      19.889   9.867  43.296  1.00  0.00     0.081 C 
HETATM   13  C17 UNL     1      19.060  10.689  44.074  1.00  0.00    -0.172 C 
HETATM   14  C18 UNL     1      18.162  11.520  44.761  1.00  0.00     0.030 C 
HETATM   15  C19 UNL     1      17.018  10.814  45.473  1.00  0.00     0.030 C 
ENDROOT
BRANCH   6  16
HETATM   16  C6  UNL     1      19.982  12.231  46.187  1.00  0.00     0.099 A 
HETATM   17  N2  UNL     1      21.112  12.756  45.569  1.00  0.00    -0.327 N 
HETATM   18  C7  UNL     1      22.184  12.195  46.095  1.00  0.00     0.175 A 
ATOM     19  H2  UNL     1      21.112  13.459  44.830  1.00  0.00     0.169 HD
HETATM   20  N3  UNL     1      23.531  12.110  46.112  1.00  0.00    -0.222 N 
HETATM   21  C8  UNL     1      21.779  11.300  47.061  1.00  0.00     0.177 A 
HETATM   22  O1  UNL     1      23.891  11.244  47.004  1.00  0.00    -0.153 OA
ATOM     23  H3  UNL     1      24.165  12.644  45.517  1.00  0.00     0.198 HD
HETATM   24  N4  UNL     1      22.846  10.719  47.612  1.00  0.00    -0.222 N 
ATOM     25  H4  UNL     1      22.852  10.015  48.350  1.00  0.00     0.198 HD
HETATM   26  N5  UNL     1      20.405  11.356  47.084  1.00  0.00    -0.315 N 
BRANCH  26  27
HETATM   27  C9  UNL     1      19.650  10.605  48.024  1.00  0.00     0.163 C 
BRANCH  27  28
HETATM   28  C10 UNL     1      19.809  11.090  49.438  1.00  0.00     0.242 C 
HETATM   29  F1  UNL     1      19.829  12.449  49.503  1.00  0.00    -0.254 F 
ENDBRANCH  27  28
ENDBRANCH  26  27
ENDBRANCH   6  16
TORSDOF 3
ENDMDL
MODEL 2
REMARK VINA RESULT: -6.120363173      1.542      2.283
REMARK  3 active torsions:
REMARK  status: ('A' for Active; 'I' for Inactive)
REMARK    1  A    between atoms: C5_6  and  C6_7 
REMARK    2  A    between atoms: N5_17  and  C9_18 
REMARK    3  A    between atoms: C9_18  and  C10_19 
ROOT
HETATM    1  C1  UNL     1      16.563  14.798  44.741  1.00  0.00     0.149 C 
HETATM    2  N1  UNL     1      17.610  14.427  45.562  1.00  0.00    -0.391 N 
HETATM    3  C2  UNL     1      17.719  14.906  46.867  1.00  0.00     0.058 C 
HETATM    4  C3  UNL     1      17.803  13.820  47.928  1.00  0.00     0.046 C 
HETATM    5  C4  UNL     1      17.503  12.531  47.191  1.00  0.00     0.026 C 
HETATM    6  C5  UNL     1      18.559  12.286  46.096  1.00  0.00     0.058 C 
HETATM    7  C11 UNL     1      18.491  13.367  45.153  1.00  0.00     0.106 C 
HETATM    8  C12 UNL     1      17.750  12.551  44.069  1.00  0.00     0.030 C 
HETATM    9  C13 UNL     1      18.572  12.503  42.811  1.00  0.00     0.008 C 
HETATM   10  C14 UNL     1      18.709  11.379  41.933  1.00  0.00     0.001 C 
HETATM   11  C15 UNL     1      19.796  10.321  42.139  1.00  0.00     0.011 C 
HETATM   12  C16 UNL     1      19.667   9.622  43.538  1.00  0.00     0.081 C 
HETATM   13  C17 UNL     1      18.865  10.465  44.321  1.00  0.00    -0.172 C 
HETATM   14  C18 UNL     1      18.004  11.335  45.009  1.00  0.00     0.030 C 
HETATM   15  C19 UNL     1      16.719  10.716  45.536  1.00  0.00     0.030 C 
ENDROOT
BRANCH   6  16
HETATM   16  C6  UNL     1      19.740  11.671  46.660  1.00  0.00     0.099 A 
HETATM   17  N2  UNL     1      19.570  10.770  47.707  1.00  0.00    -0.327 N 
HETATM   18  C7  UNL     1      20.757  10.396  48.143  1.00  0.00     0.175 A 
ATOM     19  H2  UNL     1      18.674  10.452  48.075  1.00  0.00     0.169 HD
HETATM   20  N3  UNL     1      21.463   9.643  49.012  1.00  0.00    -0.222 N 
HETATM   21  C8  UNL     1      21.720  11.038  47.396  1.00  0.00     0.177 A 
HETATM   22  O1  UNL     1      22.727   9.823  48.801  1.00  0.00    -0.153 OA
ATOM     23  H3  UNL     1      21.065   9.028  49.722  1.00  0.00     0.198 HD
HETATM   24  N4  UNL     1      22.932  10.675  47.817  1.00  0.00    -0.222 N 
ATOM     25  H4  UNL     1      23.831  10.991  47.452  1.00  0.00     0.198 HD
HETATM   26  N5  UNL     1      21.043  11.818  46.488  1.00  0.00    -0.315 N 
BRANCH  26  27
HETATM   27  C9  UNL     1      21.733  12.572  45.501  1.00  0.00     0.163 C 
BRANCH  27  28
HETATM   28  C10 UNL     1      22.259  11.731  44.370  1.00  0.00     0.242 C 
HETATM   29  F1  UNL     1      23.439  11.137  44.692  1.00  0.00    -0.254 F 
ENDBRANCH  27  28
ENDBRANCH  26  27
ENDBRANCH   6  16
TORSDOF 3
ENDMDL
MODEL 3
REMARK VINA RESULT: -6.075728252      4.297      6.396
REMARK  3 active torsions:
REMARK  status: ('A' for Active; 'I' for Inactive)
REMARK    1  A    between atoms: C5_6  and  C6_7 
REMARK    2  A    between atoms: N5_17  and  C9_18 
REMARK    3  A    between atoms: C9_18  and  C10_19 
ROOT
HETATM    1  C1  UNL     1      14.450  10.410  50.135  1.00  0.00     0.149 C 
HETATM    2  N1  UNL     1      14.514  11.727  49.724  1.00  0.00    -0.391 N 
HETATM    3  C2  UNL     1      13.508  12.639  50.038  1.00  0.00     0.058 C 
HETATM    4  C3  UNL     1      13.993  13.878  50.774  1.00  0.00     0.046 C 
HETATM    5  C4  UNL     1      15.436  13.583  51.126  1.00  0.00     0.026 C 
HETATM    6  C5  UNL     1      16.264  13.368  49.844  1.00  0.00     0.058 C 
HETATM    7  C11 UNL     1      15.731  12.231  49.147  1.00  0.00     0.106 C 
HETATM    8  C12 UNL     1      16.867  11.273  49.569  1.00  0.00     0.030 C 
HETATM    9  C13 UNL     1      17.570  10.741  48.351  1.00  0.00     0.008 C 
HETATM   10  C14 UNL     1      18.978  10.510  48.221  1.00  0.00     0.001 C 
HETATM   11  C15 UNL     1      19.935  11.602  47.733  1.00  0.00     0.011 C 
HETATM   12  C16 UNL     1      19.901  12.862  48.669  1.00  0.00     0.081 C 
HETATM   13  C17 UNL     1      18.714  12.764  49.410  1.00  0.00    -0.172 C 
HETATM   14  C18 UNL     1      17.541  12.552  50.151  1.00  0.00     0.030 C 
HETATM   15  C19 UNL     1      17.712  12.496  51.661  1.00  0.00     0.030 C 
ENDROOT
BRANCH   6  16
HETATM   16  C6  UNL     1      16.675  14.639  49.288  1.00  0.00     0.099 A 
HETATM   17  N2  UNL     1      17.052  15.646  50.171  1.00  0.00    -0.327 N 
HETATM   18  C7  UNL     1      17.297  16.745  49.484  1.00  0.00     0.175 A 
ATOM     19  H2  UNL     1      17.127  15.550  51.183  1.00  0.00     0.169 HD
HETATM   20  N3  UNL     1      17.675  18.040  49.507  1.00  0.00    -0.222 N 
HETATM   21  C8  UNL     1      17.088  16.481  48.148  1.00  0.00     0.177 A 
HETATM   22  O1  UNL     1      17.687  18.502  48.298  1.00  0.00    -0.153 OA
ATOM     23  H3  UNL     1      17.914  18.572  50.345  1.00  0.00     0.198 HD
HETATM   24  N4  UNL     1      17.331  17.577  47.429  1.00  0.00    -0.222 N 
ATOM     25  H4  UNL     1      17.258  17.679  46.417  1.00  0.00     0.198 HD
HETATM   26  N5  UNL     1      16.703  15.162  48.073  1.00  0.00    -0.315 N 
BRANCH  26  27
HETATM   27  C9  UNL     1      16.473  14.529  46.823  1.00  0.00     0.163 C 
BRANCH  27  28
HETATM   28  C10 UNL     1      17.739  14.155  46.103  1.00  0.00     0.242 C 
HETATM   29  F1  UNL     1      17.713  12.863  45.678  1.00  0.00    -0.254 F 
ENDBRANCH  27  28
ENDBRANCH  26  27
ENDBRANCH   6  16
TORSDOF 3
ENDMDL
MODEL 4
REMARK VINA RESULT: -5.905883973      2.854      5.773
REMARK  3 active torsions:
REMARK  status: ('A' for Active; 'I' for Inactive)
REMARK    1  A    between atoms: C5_6  and  C6_7 
REMARK    2  A    between atoms: N5_17  and  C9_18 
REMARK    3  A    between atoms: C9_18  and  C10_19 
ROOT
HETATM    1  C1  UNL     1      20.641   8.822  50.158  1.00  0.00     0.149 C 
HETATM    2  N1  UNL     1      19.852   9.402  49.186  1.00  0.00    -0.391 N 
HETATM    3  C2  UNL     1      18.466   9.250  49.183  1.00  0.00     0.058 C 
HETATM    4  C3  UNL     1      17.692  10.558  49.194  1.00  0.00     0.046 C 
HETATM    5  C4  UNL     1      18.736  11.628  49.439  1.00  0.00     0.026 C 
HETATM    6  C5  UNL     1      19.771  11.633  48.297  1.00  0.00     0.058 C 
HETATM    7  C11 UNL     1      20.431  10.357  48.279  1.00  0.00     0.106 C 
HETATM    8  C12 UNL     1      21.733  10.873  48.932  1.00  0.00     0.030 C 
HETATM    9  C13 UNL     1      22.898  10.642  48.009  1.00  0.00     0.008 C 
HETATM   10  C14 UNL     1      24.004  11.529  47.806  1.00  0.00     0.001 C 
HETATM   11  C15 UNL     1      23.971  12.633  46.746  1.00  0.00     0.011 C 
HETATM   12  C16 UNL     1      22.794  13.641  46.994  1.00  0.00     0.081 C 
HETATM   13  C17 UNL     1      21.898  12.987  47.854  1.00  0.00    -0.172 C 
HETATM   14  C18 UNL     1      21.094  12.284  48.764  1.00  0.00     0.030 C 
HETATM   15  C19 UNL     1      20.833  12.978  50.092  1.00  0.00     0.030 C 
ENDROOT
BRANCH   6  16
HETATM   16  C6  UNL     1      19.277  12.394  47.170  1.00  0.00     0.099 A 
HETATM   17  N2  UNL     1      18.508  13.522  47.432  1.00  0.00    -0.327 N 
HETATM   18  C7  UNL     1      18.077  14.019  46.288  1.00  0.00     0.175 A 
ATOM     19  H2  UNL     1      18.309  13.903  48.357  1.00  0.00     0.169 HD
HETATM   20  N3  UNL     1      17.365  14.979  45.661  1.00  0.00    -0.222 N 
HETATM   21  C8  UNL     1      18.554  13.231  45.263  1.00  0.00     0.177 A 
HETATM   22  O1  UNL     1      17.414  14.779  44.384  1.00  0.00    -0.153 OA
ATOM     23  H3  UNL     1      16.868  15.742  46.121  1.00  0.00     0.198 HD
HETATM   24  N4  UNL     1      18.134  13.714  44.093  1.00  0.00    -0.222 N 
ATOM     25  H4  UNL     1      18.329  13.336  43.165  1.00  0.00     0.198 HD
HETATM   26  N5  UNL     1      19.294  12.236  45.857  1.00  0.00    -0.315 N 
BRANCH  26  27
HETATM   27  C9  UNL     1      19.998  11.275  45.082  1.00  0.00     0.163 C 
BRANCH  27  28
HETATM   28  C10 UNL     1      21.162  11.858  44.327  1.00  0.00     0.242 C 
HETATM   29  F1  UNL     1      22.280  11.095  44.462  1.00  0.00    -0.254 F 
ENDBRANCH  27  28
ENDBRANCH  26  27
ENDBRANCH   6  16
TORSDOF 3
ENDMDL
MODEL 5
REMARK VINA RESULT: -5.813881647      4.486      7.316
REMARK  3 active torsions:
REMARK  status: ('A' for Active; 'I' for Inactive)
REMARK    1  A    between atoms: C5_6  and  C6_7 
REMARK    2  A    between atoms: N5_17  and  C9_18 
REMARK    3  A    between atoms: C9_18  and  C10_19 
ROOT
HETATM    1  C1  UNL     1      21.450   8.913  36.867  1.00  0.00     0.149 C 
HETATM    2  N1  UNL     1      20.694   9.676  37.734  1.00  0.00    -0.391 N 
HETATM    3  C2  UNL     1      19.451  10.187  37.362  1.00  0.00     0.058 C 
HETATM    4  C3  UNL     1      18.308   9.790  38.284  1.00  0.00     0.046 C 
HETATM    5  C4  UNL     1      18.899   8.746  39.209  1.00  0.00     0.026 C 
HETATM    6  C5  UNL     1      20.056   9.353  40.027  1.00  0.00     0.058 C 
HETATM    7  C11 UNL     1      21.082   9.775  39.115  1.00  0.00     0.106 C 
HETATM    8  C12 UNL     1      22.020   8.583  39.411  1.00  0.00     0.030 C 
HETATM    9  C13 UNL     1      23.336   9.084  39.939  1.00  0.00     0.008 C 
HETATM   10  C14 UNL     1      24.118   8.475  40.973  1.00  0.00     0.001 C 
HETATM   11  C15 UNL     1      23.914   8.820  42.451  1.00  0.00     0.011 C 
HETATM   12  C16 UNL     1      22.453   8.500  42.925  1.00  0.00     0.081 C 
HETATM   13  C17 UNL     1      21.681   8.394  41.758  1.00  0.00    -0.172 C 
HETATM   14  C18 UNL     1      21.001   8.241  40.540  1.00  0.00     0.030 C 
HETATM   15  C19 UNL     1      20.312   6.902  40.328  1.00  0.00     0.030 C 
ENDROOT
BRANCH   6  16
HETATM   16  C6  UNL     1      19.543  10.062  41.179  1.00  0.00     0.099 A 
HETATM   17  N2  UNL     1      19.411   9.360  42.372  1.00  0.00    -0.327 N 
HETATM   18  C7  UNL     1      18.844  10.145  43.268  1.00  0.00     0.175 A 
ATOM     19  H2  UNL     1      19.704   8.396  42.529  1.00  0.00     0.169 HD
HETATM   20  N3  UNL     1      18.393  10.288  44.532  1.00  0.00    -0.222 N 
HETATM   21  C8  UNL     1      18.597  11.368  42.683  1.00  0.00     0.177 A 
HETATM   22  O1  UNL     1      17.921  11.484  44.682  1.00  0.00    -0.153 OA
ATOM     23  H3  UNL     1      18.420   9.568  45.254  1.00  0.00     0.198 HD
HETATM   24  N4  UNL     1      18.025  12.183  43.570  1.00  0.00    -0.222 N 
ATOM     25  H4  UNL     1      17.729  13.147  43.418  1.00  0.00     0.198 HD
HETATM   26  N5  UNL     1      19.048  11.271  41.387  1.00  0.00    -0.315 N 
BRANCH  26  27
HETATM   27  C9  UNL     1      19.014  12.386  40.507  1.00  0.00     0.163 C 
BRANCH  27  28
HETATM   28  C10 UNL     1      17.619  12.842  40.178  1.00  0.00     0.242 C 
HETATM   29  F1  UNL     1      17.471  13.089  38.849  1.00  0.00    -0.254 F 
ENDBRANCH  27  28
ENDBRANCH  26  27
ENDBRANCH   6  16
TORSDOF 3
ENDMDL
