MODEL 1
REMARK VINA RESULT: -7.920048389      0.000      0.000
REMARK  4 active torsions:
REMARK  status: ('A' for Active; 'I' for Inactive)
REMARK    1  A    between atoms: O1_2  and  C2_3 
REMARK    2  A    between atoms: C7_8  and  O2_9 
REMARK    3  A    between atoms: O2_9  and  C8_10 
REMARK    4  A    between atoms: C10_13  and  O4_14 
ROOT
HETATM    1  C2  UNL     1      21.505  85.976   5.885  1.00  0.00     0.111 A 
HETATM    2  C3  UNL     1      20.364  85.214   5.807  1.00  0.00    -0.016 A 
HETATM    3  C4  UNL     1      19.537  85.014   7.034  1.00  0.00     0.052 C 
HETATM    4  C5  UNL     1      19.979  84.635   4.615  1.00  0.00    -0.009 A 
HETATM    5  C6  UNL     1      20.765  84.840   3.511  1.00  0.00     0.114 A 
HETATM    6  C7  UNL     1      21.926  85.611   3.574  1.00  0.00     0.149 A 
HETATM    7  C10 UNL     1      22.303  86.186   4.768  1.00  0.00     0.139 A 
HETATM    8  O5  UNL     1      20.620  84.385   2.201  1.00  0.00    -0.327 OA
HETATM    9  C12 UNL     1      19.478  83.821   1.579  1.00  0.00     0.267 A 
HETATM   10  C13 UNL     1      19.668  83.049   0.378  1.00  0.00     0.300 A 
HETATM   11  O6  UNL     1      20.160  83.423  -0.711  1.00  0.00    -0.261 OA
HETATM   12  O7  UNL     1      19.196  81.740   0.612  1.00  0.00    -0.252 OA
HETATM   13  C14 UNL     1      18.773  81.598   1.946  1.00  0.00     0.203 A 
HETATM   14  O8  UNL     1      18.281  80.841   2.899  1.00  0.00    -0.299 OA
HETATM   15  C15 UNL     1      18.169  81.516   4.046  1.00  0.00     0.153 A 
HETATM   16  C16 UNL     1      18.616  82.786   3.814  1.00  0.00    -0.017 A 
HETATM   17  C17 UNL     1      18.976  82.804   2.515  1.00  0.00     0.048 A 
HETATM   18  C18 UNL     1      18.704  83.862   4.832  1.00  0.00     0.083 C 
ENDROOT
BRANCH   6  19
HETATM   19  O2  UNL     1      22.668  85.774   2.424  1.00  0.00    -0.273 OA
BRANCH  19  20
HETATM   20  C8  UNL     1      23.819  85.011   2.275  1.00  0.00     0.260 C 
HETATM   21  C9  UNL     1      25.100  85.566   1.766  1.00  0.00     0.126 C 
HETATM   22  O3  UNL     1      23.820  83.781   2.575  1.00  0.00    -0.265 OA
ENDBRANCH  19  20
ENDBRANCH   6  19
BRANCH   7  23
HETATM   23  O4  UNL     1      23.464  86.945   4.794  1.00  0.00    -0.351 OA
HETATM   24  C11 UNL     1      24.649  86.305   5.230  1.00  0.00     0.210 C 
ENDBRANCH   7  23
BRANCH   1  25
HETATM   25  O1  UNL     1      21.885  86.554   7.083  1.00  0.00    -0.352 OA
HETATM   26  C1  UNL     1      22.577  85.765   8.026  1.00  0.00     0.210 C 
ENDBRANCH   1  25
TORSDOF 4
ENDMDL
MODEL 2
REMARK VINA RESULT: -7.887101906      1.693      6.367
REMARK  4 active torsions:
REMARK  status: ('A' for Active; 'I' for Inactive)
REMARK    1  A    between atoms: O1_2  and  C2_3 
REMARK    2  A    between atoms: C7_8  and  O2_9 
REMARK    3  A    between atoms: O2_9  and  C8_10 
REMARK    4  A    between atoms: C10_13  and  O4_14 
ROOT
HETATM    1  C2  UNL     1      22.414  83.185   1.101  1.00  0.00     0.111 A 
HETATM    2  C3  UNL     1      23.169  84.047   1.859  1.00  0.00    -0.016 A 
HETATM    3  C4  UNL     1      24.625  84.193   1.564  1.00  0.00     0.052 C 
HETATM    4  C5  UNL     1      22.598  84.774   2.885  1.00  0.00    -0.009 A 
HETATM    5  C6  UNL     1      21.259  84.612   3.126  1.00  0.00     0.114 A 
HETATM    6  C7  UNL     1      20.479  83.740   2.365  1.00  0.00     0.149 A 
HETATM    7  C10 UNL     1      21.057  83.019   1.343  1.00  0.00     0.139 A 
HETATM    8  O5  UNL     1      20.433  85.207   4.080  1.00  0.00    -0.327 OA
HETATM    9  C12 UNL     1      20.684  86.350   4.879  1.00  0.00     0.267 A 
HETATM   10  C13 UNL     1      19.892  86.536   6.068  1.00  0.00     0.300 A 
HETATM   11  O6  UNL     1      18.650  86.661   6.158  1.00  0.00    -0.261 OA
HETATM   12  O7  UNL     1      20.760  86.558   7.181  1.00  0.00    -0.252 OA
HETATM   13  C14 UNL     1      22.086  86.316   6.778  1.00  0.00     0.203 A 
HETATM   14  O8  UNL     1      23.351  86.166   7.094  1.00  0.00    -0.299 OA
HETATM   15  C15 UNL     1      24.094  85.914   6.013  1.00  0.00     0.153 A 
HETATM   16  C16 UNL     1      23.253  85.904   4.936  1.00  0.00    -0.017 A 
HETATM   17  C17 UNL     1      22.029  86.158   5.440  1.00  0.00     0.048 A 
HETATM   18  C18 UNL     1      23.658  85.623   3.537  1.00  0.00     0.083 C 
ENDROOT
BRANCH   6  19
HETATM   19  O2  UNL     1      19.139  83.628   2.665  1.00  0.00    -0.273 OA
BRANCH  19  20
HETATM   20  C8  UNL     1      18.752  82.653   3.576  1.00  0.00     0.260 C 
HETATM   21  C9  UNL     1      18.547  82.929   5.021  1.00  0.00     0.126 C 
HETATM   22  O3  UNL     1      18.554  81.461   3.198  1.00  0.00    -0.265 OA
ENDBRANCH  19  20
ENDBRANCH   6  19
BRANCH   7  23
HETATM   23  O4  UNL     1      20.251  82.161   0.608  1.00  0.00    -0.351 OA
HETATM   24  C11 UNL     1      19.490  82.727  -0.444  1.00  0.00     0.210 C 
ENDBRANCH   7  23
BRANCH   1  25
HETATM   25  O1  UNL     1      22.993  82.460   0.075  1.00  0.00    -0.352 OA
HETATM   26  C1  UNL     1      23.017  83.019  -1.220  1.00  0.00     0.210 C 
ENDBRANCH   1  25
TORSDOF 4
ENDMDL
MODEL 3
REMARK VINA RESULT: -7.778867666      2.040      3.998
REMARK  4 active torsions:
REMARK  status: ('A' for Active; 'I' for Inactive)
REMARK    1  A    between atoms: O1_2  and  C2_3 
REMARK    2  A    between atoms: C7_8  and  O2_9 
REMARK    3  A    between atoms: O2_9  and  C8_10 
REMARK    4  A    between atoms: C10_13  and  O4_14 
ROOT
HETATM    1  C2  UNL     1      23.415  85.010   2.293  1.00  0.00     0.111 A 
HETATM    2  C3  UNL     1      22.339  85.371   3.068  1.00  0.00    -0.016 A 
HETATM    3  C4  UNL     1      22.387  86.655   3.828  1.00  0.00     0.052 C 
HETATM    4  C5  UNL     1      21.223  84.563   3.153  1.00  0.00    -0.009 A 
HETATM    5  C6  UNL     1      21.217  83.391   2.442  1.00  0.00     0.114 A 
HETATM    6  C7  UNL     1      22.301  83.010   1.651  1.00  0.00     0.149 A 
HETATM    7  C10 UNL     1      23.412  83.823   1.572  1.00  0.00     0.139 A 
HETATM    8  O5  UNL     1      20.241  82.400   2.341  1.00  0.00    -0.327 OA
HETATM    9  C12 UNL     1      18.876  82.458   2.717  1.00  0.00     0.267 A 
HETATM   10  C13 UNL     1      18.171  81.218   2.915  1.00  0.00     0.300 A 
HETATM   11  O6  UNL     1      17.974  80.300   2.087  1.00  0.00    -0.261 OA
HETATM   12  O7  UNL     1      17.707  81.179   4.247  1.00  0.00    -0.252 OA
HETATM   13  C14 UNL     1      18.146  82.311   4.957  1.00  0.00     0.203 A 
HETATM   14  O8  UNL     1      18.193  82.990   6.080  1.00  0.00    -0.299 OA
HETATM   15  C15 UNL     1      18.910  84.109   5.940  1.00  0.00     0.153 A 
HETATM   16  C16 UNL     1      19.349  84.150   4.646  1.00  0.00    -0.017 A 
HETATM   17  C17 UNL     1      18.859  83.033   4.070  1.00  0.00     0.048 A 
HETATM   18  C18 UNL     1      20.217  85.206   4.070  1.00  0.00     0.083 C 
ENDROOT
BRANCH   6  19
HETATM   19  O2  UNL     1      22.225  81.817   0.964  1.00  0.00    -0.273 OA
BRANCH  19  20
HETATM   20  C8  UNL     1      21.941  81.862  -0.395  1.00  0.00     0.260 C 
HETATM   21  C9  UNL     1      22.561  80.943  -1.384  1.00  0.00     0.126 C 
HETATM   22  O3  UNL     1      21.120  82.710  -0.854  1.00  0.00    -0.265 OA
ENDBRANCH  19  20
ENDBRANCH   6  19
BRANCH   7  23
HETATM   23  O4  UNL     1      24.471  83.413   0.776  1.00  0.00    -0.351 OA
HETATM   24  C11 UNL     1      24.643  84.071  -0.466  1.00  0.00     0.210 C 
ENDBRANCH   7  23
BRANCH   1  25
HETATM   25  O1  UNL     1      24.530  85.824   2.213  1.00  0.00    -0.352 OA
HETATM   26  C1  UNL     1      25.559  85.660   3.165  1.00  0.00     0.210 C 
ENDBRANCH   1  25
TORSDOF 4
ENDMDL
MODEL 4
REMARK VINA RESULT: -7.661530376      1.633      6.605
REMARK  4 active torsions:
REMARK  status: ('A' for Active; 'I' for Inactive)
REMARK    1  A    between atoms: O1_2  and  C2_3 
REMARK    2  A    between atoms: C7_8  and  O2_9 
REMARK    3  A    between atoms: O2_9  and  C8_10 
REMARK    4  A    between atoms: C10_13  and  O4_14 
ROOT
HETATM    1  C2  UNL     1      21.490  82.434   0.588  1.00  0.00     0.111 A 
HETATM    2  C3  UNL     1      22.477  83.291   1.012  1.00  0.00    -0.016 A 
HETATM    3  C4  UNL     1      23.806  83.264   0.332  1.00  0.00     0.052 C 
HETATM    4  C5  UNL     1      22.256  84.167   2.055  1.00  0.00    -0.009 A 
HETATM    5  C6  UNL     1      21.024  84.161   2.656  1.00  0.00     0.114 A 
HETATM    6  C7  UNL     1      20.011  83.298   2.237  1.00  0.00     0.149 A 
HETATM    7  C10 UNL     1      20.241  82.425   1.195  1.00  0.00     0.139 A 
HETATM    8  O5  UNL     1      20.528  84.926   3.712  1.00  0.00    -0.327 OA
HETATM    9  C12 UNL     1      21.061  86.113   4.273  1.00  0.00     0.267 A 
HETATM   10  C13 UNL     1      20.635  86.491   5.595  1.00  0.00     0.300 A 
HETATM   11  O6  UNL     1      19.475  86.745   5.990  1.00  0.00    -0.261 OA
HETATM   12  O7  UNL     1      21.771  86.540   6.431  1.00  0.00    -0.252 OA
HETATM   13  C14 UNL     1      22.919  86.132   5.729  1.00  0.00     0.203 A 
HETATM   14  O8  UNL     1      24.210  85.892   5.720  1.00  0.00    -0.299 OA
HETATM   15  C15 UNL     1      24.615  85.463   4.521  1.00  0.00     0.153 A 
HETATM   16  C16 UNL     1      23.515  85.427   3.710  1.00  0.00    -0.017 A 
HETATM   17  C17 UNL     1      22.492  85.848   4.482  1.00  0.00     0.048 A 
HETATM   18  C18 UNL     1      23.507  84.970   2.299  1.00  0.00     0.083 C 
ENDROOT
BRANCH   6  19
HETATM   19  O2  UNL     1      18.797  83.346   2.888  1.00  0.00    -0.273 OA
BRANCH  19  20
HETATM   20  C8  UNL     1      18.626  82.549   4.013  1.00  0.00     0.260 C 
HETATM   21  C9  UNL     1      18.536  83.098   5.390  1.00  0.00     0.126 C 
HETATM   22  O3  UNL     1      18.537  81.291   3.903  1.00  0.00    -0.265 OA
ENDBRANCH  19  20
ENDBRANCH   6  19
BRANCH   7  23
HETATM   23  O4  UNL     1      19.211  81.581   0.805  1.00  0.00    -0.351 OA
HETATM   24  C11 UNL     1      18.243  82.105  -0.086  1.00  0.00     0.210 C 
ENDBRANCH   7  23
BRANCH   1  25
HETATM   25  O1  UNL     1      21.720  81.558  -0.457  1.00  0.00    -0.352 OA
HETATM   26  C1  UNL     1      21.433  81.982  -1.772  1.00  0.00     0.210 C 
ENDBRANCH   1  25
TORSDOF 4
ENDMDL
MODEL 5
REMARK VINA RESULT: -7.546854079      2.754      6.872
REMARK  4 active torsions:
REMARK  status: ('A' for Active; 'I' for Inactive)
REMARK    1  A    between atoms: O1_2  and  C2_3 
REMARK    2  A    between atoms: C7_8  and  O2_9 
REMARK    3  A    between atoms: O2_9  and  C8_10 
REMARK    4  A    between atoms: C10_13  and  O4_14 
ROOT
HETATM    1  C2  UNL     1      17.173  80.642  -0.659  1.00  0.00     0.111 A 
HETATM    2  C3  UNL     1      17.472  80.363   0.653  1.00  0.00    -0.016 A 
HETATM    3  C4  UNL     1      17.047  79.055   1.234  1.00  0.00     0.052 C 
HETATM    4  C5  UNL     1      18.155  81.273   1.434  1.00  0.00    -0.009 A 
HETATM    5  C6  UNL     1      18.528  82.463   0.865  1.00  0.00     0.114 A 
HETATM    6  C7  UNL     1      18.232  82.762  -0.465  1.00  0.00     0.149 A 
HETATM    7  C10 UNL     1      17.549  81.847  -1.238  1.00  0.00     0.139 A 
HETATM    8  O5  UNL     1      19.216  83.548   1.407  1.00  0.00    -0.327 OA
HETATM    9  C12 UNL     1      19.967  83.611   2.607  1.00  0.00     0.267 A 
HETATM   10  C13 UNL     1      20.232  84.908   3.177  1.00  0.00     0.300 A 
HETATM   11  O6  UNL     1      20.848  85.868   2.661  1.00  0.00    -0.261 OA
HETATM   12  O7  UNL     1      19.670  84.947   4.470  1.00  0.00    -0.252 OA
HETATM   13  C14 UNL     1      18.977  83.754   4.745  1.00  0.00     0.203 A 
HETATM   14  O8  UNL     1      18.250  83.036   5.570  1.00  0.00    -0.299 OA
HETATM   15  C15 UNL     1      17.926  81.858   5.029  1.00  0.00     0.153 A 
HETATM   16  C16 UNL     1      18.481  81.818   3.781  1.00  0.00    -0.017 A 
HETATM   17  C17 UNL     1      19.122  82.995   3.640  1.00  0.00     0.048 A 
HETATM   18  C18 UNL     1      18.335  80.701   2.815  1.00  0.00     0.083 C 
ENDROOT
BRANCH   6  19
HETATM   19  O2  UNL     1      18.637  83.979  -0.970  1.00  0.00    -0.273 OA
BRANCH  19  20
HETATM   20  C8  UNL     1      19.699  83.994  -1.865  1.00  0.00     0.260 C 
HETATM   21  C9  UNL     1      19.653  84.710  -3.166  1.00  0.00     0.126 C 
HETATM   22  O3  UNL     1      20.775  83.383  -1.598  1.00  0.00    -0.265 OA
ENDBRANCH  19  20
ENDBRANCH   6  19
BRANCH   7  23
HETATM   23  O4  UNL     1      17.272  82.178  -2.556  1.00  0.00    -0.351 OA
HETATM   24  C11 UNL     1      16.077  82.895  -2.808  1.00  0.00     0.210 C 
ENDBRANCH   7  23
BRANCH   1  25
HETATM   25  O1  UNL     1      16.488  79.725  -1.435  1.00  0.00    -0.352 OA
HETATM   26  C1  UNL     1      17.206  78.978  -2.394  1.00  0.00     0.210 C 
ENDBRANCH   1  25
TORSDOF 4
ENDMDL
