MODEL 1
REMARK VINA RESULT: -8.939644934      0.000      0.000
REMARK  6 active torsions:
REMARK  status: ('A' for Active; 'I' for Inactive)
REMARK       I    between atoms: C1_2  and  N1_3 
REMARK    1  A    between atoms: C1_2  and  O2_9 
REMARK    2  A    between atoms: N1_3  and  C2_4 
REMARK    3  A    between atoms: O2_9  and  C7_10 
REMARK    4  A    between atoms: C10_14  and  C11_15 
REMARK    5  A    between atoms: C11_15  and  O4_16 
REMARK    6  A    between atoms: C15_21  and  N2_22 
ROOT
HETATM    1  C7  UNL     1      19.071  84.975   5.765  1.00  0.00     0.117 A 
HETATM    2  C8  UNL     1      19.110  84.640   4.419  1.00  0.00     0.078 A 
HETATM    3  C9  UNL     1      18.717  83.402   3.937  1.00  0.00     0.088 A 
HETATM    4  O3  UNL     1      18.653  82.843   2.768  1.00  0.00    -0.312 OA
HETATM    5  C10 UNL     1      18.198  81.617   2.834  1.00  0.00     0.078 A 
HETATM    6  C12 UNL     1      17.944  81.356   4.162  1.00  0.00     0.049 A 
HETATM    7  C13 UNL     1      18.271  82.490   4.890  1.00  0.00     0.003 A 
HETATM    8  C14 UNL     1      18.232  82.821   6.226  1.00  0.00     0.053 A 
HETATM    9  C15 UNL     1      18.621  84.048   6.707  1.00  0.00     0.137 A 
ENDROOT
BRANCH   1  10
HETATM   10  O2  UNL     1      19.460  86.208   6.253  1.00  0.00    -0.248 OA
BRANCH  10  11
HETATM   11  C1  UNL     1      20.851  86.477   6.578  1.00  0.00     0.440 C 
HETATM   12  O1  UNL     1      20.958  86.701   7.819  1.00  0.00    -0.221 OA
HETATM   13  N1  UNL     1      21.780  86.456   5.595  1.00  0.00    -0.385 NA
BRANCH  13  14
HETATM   14  C2  UNL     1      22.719  86.436   4.601  1.00  0.00     0.169 C 
HETATM   15  C3  UNL     1      22.328  85.391   3.531  1.00  0.00     0.039 C 
HETATM   16  C4  UNL     1      23.627  85.052   2.850  1.00  0.00     0.003 C 
HETATM   17  C5  UNL     1      24.718  85.245   3.847  1.00  0.00     0.003 C 
HETATM   18  C6  UNL     1      24.055  85.798   5.057  1.00  0.00     0.039 C 
ENDBRANCH  13  14
ENDBRANCH  10  11
ENDBRANCH   1  10
BRANCH   9  19
HETATM   19  N2  UNL     1      18.575  84.383   8.088  1.00  0.00    -0.113 N 
HETATM   20  O5  UNL     1      19.465  84.013   8.901  1.00  0.00    -0.532 OA
HETATM   21  O6  UNL     1      17.523  85.138   8.542  1.00  0.00    -0.532 OA
ENDBRANCH   9  19
BRANCH   5  22
HETATM   22  C11 UNL     1      17.973  80.640   1.712  1.00  0.00     0.229 C 
BRANCH  22  23
HETATM   23  O4  UNL     1      17.466  79.450   2.227  1.00  0.00    -0.394 OA
ATOM     24  H4  UNL     1      16.957  79.633   3.007  1.00  0.00     0.209 HD
ENDBRANCH  22  23
ENDBRANCH   5  22
TORSDOF 6
ENDMDL
MODEL 2
REMARK VINA RESULT: -8.473690726      1.497      1.732
REMARK  6 active torsions:
REMARK  status: ('A' for Active; 'I' for Inactive)
REMARK       I    between atoms: C1_2  and  N1_3 
REMARK    1  A    between atoms: C1_2  and  O2_9 
REMARK    2  A    between atoms: N1_3  and  C2_4 
REMARK    3  A    between atoms: O2_9  and  C7_10 
REMARK    4  A    between atoms: C10_14  and  C11_15 
REMARK    5  A    between atoms: C11_15  and  O4_16 
REMARK    6  A    between atoms: C15_21  and  N2_22 
ROOT
HETATM    1  C7  UNL     1      18.753  83.748   5.686  1.00  0.00     0.117 A 
HETATM    2  C8  UNL     1      19.026  84.005   4.351  1.00  0.00     0.078 A 
HETATM    3  C9  UNL     1      18.753  83.103   3.336  1.00  0.00     0.088 A 
HETATM    4  O3  UNL     1      18.901  83.088   2.048  1.00  0.00    -0.312 OA
HETATM    5  C10 UNL     1      18.474  81.970   1.517  1.00  0.00     0.078 A 
HETATM    6  C12 UNL     1      18.007  81.189   2.551  1.00  0.00     0.049 A 
HETATM    7  C13 UNL     1      18.177  81.897   3.731  1.00  0.00     0.003 A 
HETATM    8  C14 UNL     1      17.906  81.640   5.056  1.00  0.00     0.053 A 
HETATM    9  C15 UNL     1      18.175  82.534   6.064  1.00  0.00     0.137 A 
ENDROOT
BRANCH   1  10
HETATM   10  O2  UNL     1      19.021  84.644   6.704  1.00  0.00    -0.248 OA
BRANCH  10  11
HETATM   11  C1  UNL     1      19.405  86.015   6.410  1.00  0.00     0.440 C 
HETATM   12  O1  UNL     1      18.462  86.794   6.730  1.00  0.00    -0.221 OA
HETATM   13  N1  UNL     1      20.622  86.264   5.876  1.00  0.00    -0.385 NA
BRANCH  13  14
HETATM   14  C2  UNL     1      21.853  86.517   5.336  1.00  0.00     0.169 C 
HETATM   15  C3  UNL     1      22.006  85.754   3.999  1.00  0.00     0.039 C 
HETATM   16  C4  UNL     1      23.493  85.633   3.808  1.00  0.00     0.003 C 
HETATM   17  C5  UNL     1      24.117  85.610   5.161  1.00  0.00     0.003 C 
HETATM   18  C6  UNL     1      23.000  85.828   6.116  1.00  0.00     0.039 C 
ENDBRANCH  13  14
ENDBRANCH  10  11
ENDBRANCH   1  10
BRANCH   9  19
HETATM   19  N2  UNL     1      17.889  82.262   7.430  1.00  0.00    -0.113 N 
HETATM   20  O5  UNL     1      17.933  81.096   7.909  1.00  0.00    -0.532 OA
HETATM   21  O6  UNL     1      17.557  83.312   8.250  1.00  0.00    -0.532 OA
ENDBRANCH   9  19
BRANCH   5  22
HETATM   22  C11 UNL     1      18.467  81.564   0.068  1.00  0.00     0.229 C 
BRANCH  22  23
HETATM   23  O4  UNL     1      18.899  80.246  -0.047  1.00  0.00    -0.394 OA
ATOM     24  H4  UNL     1      18.235  79.662   0.298  1.00  0.00     0.209 HD
ENDBRANCH  22  23
ENDBRANCH   5  22
TORSDOF 6
ENDMDL
MODEL 3
REMARK VINA RESULT: -8.314346378      2.512      5.543
REMARK  6 active torsions:
REMARK  status: ('A' for Active; 'I' for Inactive)
REMARK       I    between atoms: C1_2  and  N1_3 
REMARK    1  A    between atoms: C1_2  and  O2_9 
REMARK    2  A    between atoms: N1_3  and  C2_4 
REMARK    3  A    between atoms: O2_9  and  C7_10 
REMARK    4  A    between atoms: C10_14  and  C11_15 
REMARK    5  A    between atoms: C11_15  and  O4_16 
REMARK    6  A    between atoms: C15_21  and  N2_22 
ROOT
HETATM    1  C7  UNL     1      20.836  85.685   5.109  1.00  0.00     0.117 A 
HETATM    2  C8  UNL     1      21.280  85.347   3.839  1.00  0.00     0.078 A 
HETATM    3  C9  UNL     1      22.618  85.348   3.481  1.00  0.00     0.088 A 
HETATM    4  O3  UNL     1      23.286  85.083   2.401  1.00  0.00    -0.312 OA
HETATM    5  C10 UNL     1      24.575  85.233   2.572  1.00  0.00     0.078 A 
HETATM    6  C12 UNL     1      24.762  85.631   3.877  1.00  0.00     0.049 A 
HETATM    7  C13 UNL     1      23.517  85.712   4.481  1.00  0.00     0.003 A 
HETATM    8  C14 UNL     1      23.078  86.048   5.742  1.00  0.00     0.053 A 
HETATM    9  C15 UNL     1      21.751  86.048   6.099  1.00  0.00     0.137 A 
ENDROOT
BRANCH   1  10
HETATM   10  O2  UNL     1      19.503  85.686   5.474  1.00  0.00    -0.248 OA
BRANCH  10  11
HETATM   11  C1  UNL     1      18.786  84.440   5.684  1.00  0.00     0.440 C 
HETATM   12  O1  UNL     1      18.471  84.336   6.904  1.00  0.00    -0.221 OA
HETATM   13  N1  UNL     1      18.563  83.616   4.634  1.00  0.00    -0.385 NA
BRANCH  13  14
HETATM   14  C2  UNL     1      18.338  82.783   3.573  1.00  0.00     0.169 C 
HETATM   15  C3  UNL     1      19.616  81.968   3.266  1.00  0.00     0.039 C 
HETATM   16  C4  UNL     1      19.458  81.559   1.826  1.00  0.00     0.003 C 
HETATM   17  C5  UNL     1      18.635  82.602   1.153  1.00  0.00     0.003 C 
HETATM   18  C6  UNL     1      18.232  83.544   2.229  1.00  0.00     0.039 C 
ENDBRANCH  13  14
ENDBRANCH  10  11
ENDBRANCH   1  10
BRANCH   9  19
HETATM   19  N2  UNL     1      21.306  86.394   7.405  1.00  0.00    -0.113 N 
HETATM   20  O5  UNL     1      21.551  85.676   8.412  1.00  0.00    -0.532 OA
HETATM   21  O6  UNL     1      20.589  87.554   7.565  1.00  0.00    -0.532 OA
ENDBRANCH   9  19
BRANCH   5  22
HETATM   22  C11 UNL     1      25.683  85.025   1.575  1.00  0.00     0.229 C 
BRANCH  22  23
HETATM   23  O4  UNL     1      26.697  84.271   2.157  1.00  0.00    -0.394 OA
ATOM     24  H4  UNL     1      26.713  83.405   1.767  1.00  0.00     0.209 HD
ENDBRANCH  22  23
ENDBRANCH   5  22
TORSDOF 6
ENDMDL
MODEL 4
REMARK VINA RESULT: -8.295626727      1.823      2.178
REMARK  6 active torsions:
REMARK  status: ('A' for Active; 'I' for Inactive)
REMARK       I    between atoms: C1_2  and  N1_3 
REMARK    1  A    between atoms: C1_2  and  O2_9 
REMARK    2  A    between atoms: N1_3  and  C2_4 
REMARK    3  A    between atoms: O2_9  and  C7_10 
REMARK    4  A    between atoms: C10_14  and  C11_15 
REMARK    5  A    between atoms: C11_15  and  O4_16 
REMARK    6  A    between atoms: C15_21  and  N2_22 
ROOT
HETATM    1  C7  UNL     1      18.750  83.730   5.383  1.00  0.00     0.117 A 
HETATM    2  C8  UNL     1      18.913  84.191   4.085  1.00  0.00     0.078 A 
HETATM    3  C9  UNL     1      18.629  83.422   2.968  1.00  0.00     0.088 A 
HETATM    4  O3  UNL     1      18.688  83.598   1.685  1.00  0.00    -0.312 OA
HETATM    5  C10 UNL     1      18.297  82.538   1.025  1.00  0.00     0.078 A 
HETATM    6  C12 UNL     1      17.953  81.588   1.961  1.00  0.00     0.049 A 
HETATM    7  C13 UNL     1      18.159  82.134   3.219  1.00  0.00     0.003 A 
HETATM    8  C14 UNL     1      17.997  81.675   4.506  1.00  0.00     0.053 A 
HETATM    9  C15 UNL     1      18.278  82.436   5.615  1.00  0.00     0.137 A 
ENDROOT
BRANCH   1  10
HETATM   10  O2  UNL     1      19.031  84.491   6.502  1.00  0.00    -0.248 OA
BRANCH  10  11
HETATM   11  C1  UNL     1      19.428  85.884   6.377  1.00  0.00     0.440 C 
HETATM   12  O1  UNL     1      18.494  86.627   6.795  1.00  0.00    -0.221 OA
HETATM   13  N1  UNL     1      20.645  86.185   5.870  1.00  0.00    -0.385 NA
BRANCH  13  14
HETATM   14  C2  UNL     1      21.877  86.490   5.359  1.00  0.00     0.169 C 
HETATM   15  C3  UNL     1      22.074  85.771   4.004  1.00  0.00     0.039 C 
HETATM   16  C4  UNL     1      23.568  85.701   3.835  1.00  0.00     0.003 C 
HETATM   17  C5  UNL     1      24.170  85.657   5.197  1.00  0.00     0.003 C 
HETATM   18  C6  UNL     1      23.031  85.814   6.139  1.00  0.00     0.039 C 
ENDBRANCH  13  14
ENDBRANCH  10  11
ENDBRANCH   1  10
BRANCH   9  19
HETATM   19  N2  UNL     1      18.105  81.955   6.943  1.00  0.00    -0.113 N 
HETATM   20  O5  UNL     1      17.482  82.611   7.821  1.00  0.00    -0.532 OA
HETATM   21  O6  UNL     1      18.637  80.732   7.268  1.00  0.00    -0.532 OA
ENDBRANCH   9  19
BRANCH   5  22
HETATM   22  C11 UNL     1      18.215  82.339  -0.465  1.00  0.00     0.229 C 
BRANCH  22  23
HETATM   23  O4  UNL     1      16.881  82.281  -0.854  1.00  0.00    -0.394 OA
ATOM     24  H4  UNL     1      16.328  82.569  -0.137  1.00  0.00     0.209 HD
ENDBRANCH  22  23
ENDBRANCH   5  22
TORSDOF 6
ENDMDL
MODEL 5
REMARK VINA RESULT: -7.878750504      1.472      1.834
REMARK  6 active torsions:
REMARK  status: ('A' for Active; 'I' for Inactive)
REMARK       I    between atoms: C1_2  and  N1_3 
REMARK    1  A    between atoms: C1_2  and  O2_9 
REMARK    2  A    between atoms: N1_3  and  C2_4 
REMARK    3  A    between atoms: O2_9  and  C7_10 
REMARK    4  A    between atoms: C10_14  and  C11_15 
REMARK    5  A    between atoms: C11_15  and  O4_16 
REMARK    6  A    between atoms: C15_21  and  N2_22 
ROOT
HETATM    1  C7  UNL     1      20.093  84.911   4.593  1.00  0.00     0.117 A 
HETATM    2  C8  UNL     1      20.095  84.102   3.467  1.00  0.00     0.078 A 
HETATM    3  C9  UNL     1      19.284  82.986   3.336  1.00  0.00     0.088 A 
HETATM    4  O3  UNL     1      19.090  82.086   2.423  1.00  0.00    -0.312 OA
HETATM    5  C10 UNL     1      18.187  81.209   2.782  1.00  0.00     0.078 A 
HETATM    6  C12 UNL     1      17.755  81.571   4.039  1.00  0.00     0.049 A 
HETATM    7  C13 UNL     1      18.447  82.711   4.416  1.00  0.00     0.003 A 
HETATM    8  C14 UNL     1      18.445  83.514   5.535  1.00  0.00     0.053 A 
HETATM    9  C15 UNL     1      19.248  84.621   5.666  1.00  0.00     0.137 A 
ENDROOT
BRANCH   1  10
HETATM   10  O2  UNL     1      20.898  86.026   4.730  1.00  0.00    -0.248 OA
BRANCH  10  11
HETATM   11  C1  UNL     1      22.345  85.899   4.796  1.00  0.00     0.440 C 
HETATM   12  O1  UNL     1      22.726  86.043   5.993  1.00  0.00    -0.221 OA
HETATM   13  N1  UNL     1      23.044  85.663   3.662  1.00  0.00    -0.385 NA
BRANCH  13  14
HETATM   14  C2  UNL     1      23.751  85.424   2.516  1.00  0.00     0.169 C 
HETATM   15  C3  UNL     1      23.407  84.018   1.971  1.00  0.00     0.039 C 
HETATM   16  C4  UNL     1      24.590  83.651   1.117  1.00  0.00     0.003 C 
HETATM   17  C5  UNL     1      25.782  84.347   1.680  1.00  0.00     0.003 C 
HETATM   18  C6  UNL     1      25.260  85.195   2.783  1.00  0.00     0.039 C 
ENDBRANCH  13  14
ENDBRANCH  10  11
ENDBRANCH   1  10
BRANCH   9  19
HETATM   19  N2  UNL     1      19.238  85.446   6.825  1.00  0.00    -0.113 N 
HETATM   20  O5  UNL     1      19.989  85.228   7.813  1.00  0.00    -0.532 OA
HETATM   21  O6  UNL     1      18.379  86.516   6.856  1.00  0.00    -0.532 OA
ENDBRANCH   9  19
BRANCH   5  22
HETATM   22  C11 UNL     1      17.678  80.020   2.013  1.00  0.00     0.229 C 
BRANCH  22  23
HETATM   23  O4  UNL     1      16.503  79.557   2.596  1.00  0.00    -0.394 OA
ATOM     24  H4  UNL     1      15.767  79.757   2.030  1.00  0.00     0.209 HD
ENDBRANCH  22  23
ENDBRANCH   5  22
TORSDOF 6
ENDMDL
