MODEL 1
REMARK VINA RESULT: -7.098932076      0.000      0.000
REMARK  4 active torsions:
REMARK  status: ('A' for Active; 'I' for Inactive)
REMARK    1  A    between atoms: C2_2  and  C3_3 
REMARK    2  A    between atoms: C3_3  and  C4_4 
REMARK    3  A    between atoms: C8_12  and  N2_13 
REMARK    4  A    between atoms: N2_13  and  C9_15 
ROOT
HETATM    1  C4  UNL     1      18.704  83.012   0.598  1.00  0.00     0.115 C 
HETATM    2  S1  UNL     1      17.499  81.772   1.139  1.00  0.00    -0.147 SA
HETATM    3  C5  UNL     1      18.334  80.806   2.452  1.00  0.00     0.135 C 
HETATM    4  C6  UNL     1      18.369  81.687   3.665  1.00  0.00     0.055 A 
HETATM    5  N1  UNL     1      17.862  81.172   4.799  1.00  0.00    -0.321 N 
ATOM      6  H1  UNL     1      17.482  80.226   4.802  1.00  0.00     0.169 HD
HETATM    7  C7  UNL     1      17.854  81.905   5.933  1.00  0.00     0.289 A 
HETATM    8  O1  UNL     1      17.380  81.431   7.002  1.00  0.00    -0.264 OA
HETATM    9  C8  UNL     1      18.384  83.178   5.864  1.00  0.00     0.173 A 
HETATM   10  N3  UNL     1      18.892  83.685   4.720  1.00  0.00    -0.331 N 
ATOM     11  H3  UNL     1      19.273  84.631   4.715  1.00  0.00     0.168 HD
HETATM   12  C14 UNL     1      18.902  82.955   3.579  1.00  0.00     0.096 A 
HETATM   13  S2  UNL     1      19.573  83.609   2.059  1.00  0.00    -0.095 SA
ENDROOT
BRANCH   9  14
HETATM   14  N2  UNL     1      18.375  83.953   7.068  1.00  0.00    -0.345 N 
ATOM     15  H2  UNL     1      18.012  83.562   7.937  1.00  0.00     0.163 HD
BRANCH  14  16
HETATM   16  C9  UNL     1      18.895  85.308   7.027  1.00  0.00     0.222 C 
HETATM   17  C10 UNL     1      18.337  86.121   8.167  1.00  0.00     0.054 C 
HETATM   18  C11 UNL     1      18.544  87.585   7.819  1.00  0.00     0.006 C 
HETATM   19  C12 UNL     1      19.859  87.681   7.076  1.00  0.00     0.026 C 
HETATM   20  C13 UNL     1      20.797  86.533   7.466  1.00  0.00     0.170 C 
HETATM   21  O2  UNL     1      20.288  85.320   7.013  1.00  0.00    -0.367 OA
ENDBRANCH  14  16
ENDBRANCH   9  14
BRANCH   1  22
HETATM   22  C3  UNL     1      19.675  82.384  -0.401  1.00  0.00     0.026 C 
BRANCH  22  23
HETATM   23  C2  UNL     1      20.045  83.379  -1.480  1.00  0.00    -0.003 C 
HETATM   24  C1  UNL     1      18.858  84.123  -2.004  1.00  0.00     0.005 C 
ENDBRANCH  22  23
ENDBRANCH   1  22
TORSDOF 4
ENDMDL
MODEL 2
REMARK VINA RESULT: -7.095667315      0.638      1.045
REMARK  4 active torsions:
REMARK  status: ('A' for Active; 'I' for Inactive)
REMARK    1  A    between atoms: C2_2  and  C3_3 
REMARK    2  A    between atoms: C3_3  and  C4_4 
REMARK    3  A    between atoms: C8_12  and  N2_13 
REMARK    4  A    between atoms: N2_13  and  C9_15 
ROOT
HETATM    1  C4  UNL     1      18.699  83.012   0.598  1.00  0.00     0.115 C 
HETATM    2  S1  UNL     1      17.496  81.772   1.143  1.00  0.00    -0.147 SA
HETATM    3  C5  UNL     1      18.335  80.807   2.456  1.00  0.00     0.135 C 
HETATM    4  C6  UNL     1      18.372  81.689   3.668  1.00  0.00     0.055 A 
HETATM    5  N1  UNL     1      17.868  81.176   4.803  1.00  0.00    -0.321 N 
ATOM      6  H1  UNL     1      17.489  80.229   4.808  1.00  0.00     0.169 HD
HETATM    7  C7  UNL     1      17.863  81.910   5.937  1.00  0.00     0.289 A 
HETATM    8  O1  UNL     1      17.392  81.437   7.007  1.00  0.00    -0.264 OA
HETATM    9  C8  UNL     1      18.392  83.183   5.865  1.00  0.00     0.173 A 
HETATM   10  N3  UNL     1      18.897  83.689   4.719  1.00  0.00    -0.331 N 
ATOM     11  H3  UNL     1      19.277  84.635   4.712  1.00  0.00     0.168 HD
HETATM   12  C14 UNL     1      18.904  82.958   3.579  1.00  0.00     0.096 A 
HETATM   13  S2  UNL     1      19.571  83.611   2.056  1.00  0.00    -0.095 SA
ENDROOT
BRANCH   9  14
HETATM   14  N2  UNL     1      18.386  83.959   7.068  1.00  0.00    -0.345 N 
ATOM     15  H2  UNL     1      18.026  83.568   7.938  1.00  0.00     0.163 HD
BRANCH  14  16
HETATM   16  C9  UNL     1      18.902  85.315   7.024  1.00  0.00     0.222 C 
HETATM   17  C10 UNL     1      18.343  86.129   8.163  1.00  0.00     0.054 C 
HETATM   18  C11 UNL     1      18.547  87.593   7.813  1.00  0.00     0.006 C 
HETATM   19  C12 UNL     1      19.860  87.691   7.067  1.00  0.00     0.026 C 
HETATM   20  C13 UNL     1      20.802  86.546   7.459  1.00  0.00     0.170 C 
HETATM   21  O2  UNL     1      20.295  85.331   7.008  1.00  0.00    -0.367 OA
ENDBRANCH  14  16
ENDBRANCH   9  14
BRANCH   1  22
HETATM   22  C3  UNL     1      19.668  82.383  -0.402  1.00  0.00     0.026 C 
BRANCH  22  23
HETATM   23  C2  UNL     1      21.053  82.266   0.200  1.00  0.00    -0.003 C 
HETATM   24  C1  UNL     1      22.033  81.639  -0.740  1.00  0.00     0.005 C 
ENDBRANCH  22  23
ENDBRANCH   1  22
TORSDOF 4
ENDMDL
MODEL 3
REMARK VINA RESULT: -6.878943074      5.009      6.351
REMARK  4 active torsions:
REMARK  status: ('A' for Active; 'I' for Inactive)
REMARK    1  A    between atoms: C2_2  and  C3_3 
REMARK    2  A    between atoms: C3_3  and  C4_4 
REMARK    3  A    between atoms: C8_12  and  N2_13 
REMARK    4  A    between atoms: N2_13  and  C9_15 
ROOT
HETATM    1  C4  UNL     1      24.981  83.233  -0.810  1.00  0.00     0.115 C 
HETATM    2  S1  UNL     1      26.058  82.756   0.566  1.00  0.00    -0.147 SA
HETATM    3  C5  UNL     1      26.500  84.316   1.418  1.00  0.00     0.135 C 
HETATM    4  C6  UNL     1      25.278  84.743   2.175  1.00  0.00     0.055 A 
HETATM    5  N1  UNL     1      25.435  84.983   3.488  1.00  0.00    -0.321 N 
ATOM      6  H1  UNL     1      26.354  84.874   3.918  1.00  0.00     0.169 HD
HETATM    7  C7  UNL     1      24.382  85.368   4.239  1.00  0.00     0.289 A 
HETATM    8  O1  UNL     1      24.519  85.595   5.472  1.00  0.00    -0.264 OA
HETATM    9  C8  UNL     1      23.166  85.499   3.599  1.00  0.00     0.173 A 
HETATM   10  N3  UNL     1      23.018  85.256   2.279  1.00  0.00    -0.331 N 
ATOM     11  H3  UNL     1      22.101  85.365   1.847  1.00  0.00     0.168 HD
HETATM   12  C14 UNL     1      24.072  84.869   1.520  1.00  0.00     0.096 A 
HETATM   13  S2  UNL     1      23.895  84.547  -0.228  1.00  0.00    -0.095 SA
ENDROOT
BRANCH   9  14
HETATM   14  N2  UNL     1      22.050  85.907   4.397  1.00  0.00    -0.345 N 
ATOM     15  H2  UNL     1      22.075  86.783   4.919  1.00  0.00     0.163 HD
BRANCH  14  16
HETATM   16  C9  UNL     1      20.880  85.049   4.448  1.00  0.00     0.222 C 
HETATM   17  C10 UNL     1      19.845  85.624   5.381  1.00  0.00     0.054 C 
HETATM   18  C11 UNL     1      18.883  84.502   5.733  1.00  0.00     0.006 C 
HETATM   19  C12 UNL     1      18.743  83.637   4.499  1.00  0.00     0.026 C 
HETATM   20  C13 UNL     1      19.021  84.445   3.226  1.00  0.00     0.170 C 
HETATM   21  O2  UNL     1      20.361  84.818   3.176  1.00  0.00    -0.367 OA
ENDBRANCH  14  16
ENDBRANCH   9  14
BRANCH   1  22
HETATM   22  C3  UNL     1      25.831  83.704  -1.989  1.00  0.00     0.026 C 
BRANCH  22  23
HETATM   23  C2  UNL     1      25.710  85.203  -2.167  1.00  0.00    -0.003 C 
HETATM   24  C1  UNL     1      27.008  85.911  -1.941  1.00  0.00     0.005 C 
ENDBRANCH  22  23
ENDBRANCH   1  22
TORSDOF 4
ENDMDL
MODEL 4
REMARK VINA RESULT: -6.681127971      2.443      6.691
REMARK  4 active torsions:
REMARK  status: ('A' for Active; 'I' for Inactive)
REMARK    1  A    between atoms: C2_2  and  C3_3 
REMARK    2  A    between atoms: C3_3  and  C4_4 
REMARK    3  A    between atoms: C8_12  and  N2_13 
REMARK    4  A    between atoms: N2_13  and  C9_15 
ROOT
HETATM    1  C4  UNL     1      20.752  86.453   7.143  1.00  0.00     0.115 C 
HETATM    2  S1  UNL     1      20.609  85.252   8.491  1.00  0.00    -0.147 SA
HETATM    3  C5  UNL     1      18.837  84.792   8.562  1.00  0.00     0.135 C 
HETATM    4  C6  UNL     1      18.587  83.898   7.385  1.00  0.00     0.055 A 
HETATM    5  N1  UNL     1      18.025  82.704   7.642  1.00  0.00    -0.321 N 
ATOM      6  H1  UNL     1      17.790  82.450   8.602  1.00  0.00     0.169 HD
HETATM    7  C7  UNL     1      17.771  81.842   6.635  1.00  0.00     0.289 A 
HETATM    8  O1  UNL     1      17.245  80.719   6.867  1.00  0.00    -0.264 OA
HETATM    9  C8  UNL     1      18.110  82.246   5.359  1.00  0.00     0.173 A 
HETATM   10  N3  UNL     1      18.674  83.448   5.111  1.00  0.00    -0.331 N 
ATOM     11  H3  UNL     1      18.908  83.705   4.153  1.00  0.00     0.168 HD
HETATM   12  C14 UNL     1      18.932  84.317   6.117  1.00  0.00     0.096 A 
HETATM   13  S2  UNL     1      19.672  85.912   5.806  1.00  0.00    -0.095 SA
ENDROOT
BRANCH   9  14
HETATM   14  N2  UNL     1      17.840  81.330   4.293  1.00  0.00    -0.345 N 
ATOM     15  H2  UNL     1      17.331  80.463   4.467  1.00  0.00     0.163 HD
BRANCH  14  16
HETATM   16  C9  UNL     1      18.304  81.660   2.957  1.00  0.00     0.222 C 
HETATM   17  C10 UNL     1      17.741  80.691   1.949  1.00  0.00     0.054 C 
HETATM   18  C11 UNL     1      18.591  80.803   0.695  1.00  0.00     0.006 C 
HETATM   19  C12 UNL     1      18.996  82.255   0.564  1.00  0.00     0.026 C 
HETATM   20  C13 UNL     1      17.979  83.174   1.250  1.00  0.00     0.170 C 
HETATM   21  O2  UNL     1      18.009  82.982   2.627  1.00  0.00    -0.367 OA
ENDBRANCH  14  16
ENDBRANCH   9  14
BRANCH   1  22
HETATM   22  C3  UNL     1      20.353  87.840   7.645  1.00  0.00     0.026 C 
BRANCH  22  23
HETATM   23  C2  UNL     1      18.908  88.135   7.298  1.00  0.00    -0.003 C 
HETATM   24  C1  UNL     1      18.003  88.028   8.484  1.00  0.00     0.005 C 
ENDBRANCH  22  23
ENDBRANCH   1  22
TORSDOF 4
ENDMDL
MODEL 5
REMARK VINA RESULT: -6.531541095      2.457      2.955
REMARK  4 active torsions:
REMARK  status: ('A' for Active; 'I' for Inactive)
REMARK    1  A    between atoms: C2_2  and  C3_3 
REMARK    2  A    between atoms: C3_3  and  C4_4 
REMARK    3  A    between atoms: C8_12  and  N2_13 
REMARK    4  A    between atoms: N2_13  and  C9_15 
ROOT
HETATM    1  C4  UNL     1      17.121  81.086  -0.616  1.00  0.00     0.115 C 
HETATM    2  S1  UNL     1      16.477  80.068   0.736  1.00  0.00    -0.147 SA
HETATM    3  C5  UNL     1      17.897  79.770   1.856  1.00  0.00     0.135 C 
HETATM    4  C6  UNL     1      18.134  81.058   2.586  1.00  0.00     0.055 A 
HETATM    5  N1  UNL     1      18.163  80.994   3.928  1.00  0.00    -0.321 N 
ATOM      6  H1  UNL     1      18.030  80.098   4.397  1.00  0.00     0.169 HD
HETATM    7  C7  UNL     1      18.369  82.112   4.657  1.00  0.00     0.289 A 
HETATM    8  O1  UNL     1      18.398  82.062   5.917  1.00  0.00    -0.264 OA
HETATM    9  C8  UNL     1      18.545  83.293   3.964  1.00  0.00     0.173 A 
HETATM   10  N3  UNL     1      18.515  83.346   2.615  1.00  0.00    -0.331 N 
ATOM     11  H3  UNL     1      18.649  84.240   2.144  1.00  0.00     0.168 HD
HETATM   12  C14 UNL     1      18.308  82.228   1.878  1.00  0.00     0.096 A 
HETATM   13  S2  UNL     1      18.269  82.280   0.093  1.00  0.00    -0.095 SA
ENDROOT
BRANCH   9  14
HETATM   14  N2  UNL     1      18.763  84.476   4.738  1.00  0.00    -0.345 N 
ATOM     15  H2  UNL     1      17.978  84.992   5.134  1.00  0.00     0.163 HD
BRANCH  14  16
HETATM   16  C9  UNL     1      20.127  84.928   4.950  1.00  0.00     0.222 C 
HETATM   17  C10 UNL     1      20.546  85.872   3.852  1.00  0.00     0.054 C 
HETATM   18  C11 UNL     1      22.063  85.944   3.874  1.00  0.00     0.006 C 
HETATM   19  C12 UNL     1      22.488  85.849   5.324  1.00  0.00     0.026 C 
HETATM   20  C13 UNL     1      21.381  86.353   6.257  1.00  0.00     0.170 C 
HETATM   21  O2  UNL     1      20.286  85.496   6.212  1.00  0.00    -0.367 OA
ENDBRANCH  14  16
ENDBRANCH   9  14
BRANCH   1  22
HETATM   22  C3  UNL     1      17.819  80.196  -1.643  1.00  0.00     0.026 C 
BRANCH  22  23
HETATM   23  C2  UNL     1      16.801  79.483  -2.508  1.00  0.00    -0.003 C 
HETATM   24  C1  UNL     1      15.661  80.370  -2.898  1.00  0.00     0.005 C 
ENDBRANCH  22  23
ENDBRANCH   1  22
TORSDOF 4
ENDMDL
