MODEL 1
REMARK VINA RESULT: -8.671583250      0.000      0.000
REMARK  6 active torsions:
REMARK  status: ('A' for Active; 'I' for Inactive)
REMARK    1  A    between atoms: O1_2  and  C2_3 
REMARK    2  A    between atoms: C4_5  and  C5_6 
REMARK    3  A    between atoms: C10_13  and  O2_14 
REMARK    4  A    between atoms: O2_14  and  C11_15 
REMARK       I    between atoms: C11_15  and  N3_17 
REMARK    5  A    between atoms: N3_17  and  C12_19 
REMARK    6  A    between atoms: C17_24  and  O4_25 
ROOT
HETATM    1  C5  UNL     1      18.971  86.060   6.300  1.00  0.00     0.045 C 
HETATM    2  C6  UNL     1      20.096  86.648   6.579  1.00  0.00     0.125 C 
HETATM    3  C7  UNL     1      21.413  86.174   6.251  1.00  0.00     0.110 C 
HETATM    4  N1  UNL     1      22.483  85.813   5.977  1.00  0.00    -0.191 NA
HETATM    5  C8  UNL     1      20.030  87.916   7.296  1.00  0.00     0.110 C 
HETATM    6  N2  UNL     1      19.971  88.913   7.844  1.00  0.00    -0.191 NA
ENDROOT
BRANCH   1   7
HETATM    7  C4  UNL     1      18.914  84.800   5.596  1.00  0.00    -0.029 A 
HETATM    8  C3  UNL     1      18.358  83.668   6.187  1.00  0.00     0.051 A 
HETATM    9  C2  UNL     1      18.338  82.478   5.510  1.00  0.00     0.104 A 
HETATM   10  C17 UNL     1      18.863  82.353   4.227  1.00  0.00     0.133 A 
HETATM   11  C10 UNL     1      19.402  83.483   3.678  1.00  0.00     0.117 A 
HETATM   12  C9  UNL     1      19.442  84.712   4.332  1.00  0.00     0.052 A 
BRANCH   9  13
HETATM   13  O1  UNL     1      17.781  81.375   6.117  1.00  0.00    -0.353 OA
HETATM   14  C1  UNL     1      17.633  81.115   7.468  1.00  0.00     0.210 C 
ENDBRANCH   9  13
BRANCH  10  15
HETATM   15  O4  UNL     1      18.815  81.133   3.596  1.00  0.00    -0.356 OA
ATOM     16  H4  UNL     1      18.338  81.050   2.779  1.00  0.00     0.218 HD
ENDBRANCH  10  15
BRANCH  11  17
HETATM   17  O2  UNL     1      19.929  83.349   2.385  1.00  0.00    -0.259 OA
BRANCH  17  18
HETATM   18  C11 UNL     1      21.284  83.093   2.251  1.00  0.00     0.366 C 
HETATM   19  O3  UNL     1      21.663  81.903   2.270  1.00  0.00    -0.238 OA
HETATM   20  N3  UNL     1      22.199  84.169   2.097  1.00  0.00    -0.332 N 
ATOM     21  H3  UNL     1      21.844  85.126   2.086  1.00  0.00     0.165 HD
BRANCH  20  22
HETATM   22  C12 UNL     1      23.625  83.943   1.954  1.00  0.00     0.086 C 
HETATM   23  C13 UNL     1      23.920  83.935   0.465  1.00  0.00     0.025 C 
HETATM   24  C14 UNL     1      25.354  84.437   0.448  1.00  0.00     0.002 C 
HETATM   25  C15 UNL     1      25.428  85.492   1.530  1.00  0.00     0.002 C 
HETATM   26  C16 UNL     1      24.345  85.136   2.530  1.00  0.00     0.025 C 
ENDBRANCH  20  22
ENDBRANCH  17  18
ENDBRANCH  11  17
ENDBRANCH   1   7
TORSDOF 6
ENDMDL
MODEL 2
REMARK VINA RESULT: -8.348977247      2.799      4.500
REMARK  6 active torsions:
REMARK  status: ('A' for Active; 'I' for Inactive)
REMARK    1  A    between atoms: O1_2  and  C2_3 
REMARK    2  A    between atoms: C4_5  and  C5_6 
REMARK    3  A    between atoms: C10_13  and  O2_14 
REMARK    4  A    between atoms: O2_14  and  C11_15 
REMARK       I    between atoms: C11_15  and  N3_17 
REMARK    5  A    between atoms: N3_17  and  C12_19 
REMARK    6  A    between atoms: C17_24  and  O4_25 
ROOT
HETATM    1  C5  UNL     1      18.275  82.619   3.670  1.00  0.00     0.045 C 
HETATM    2  C6  UNL     1      18.933  81.822   2.882  1.00  0.00     0.125 C 
HETATM    3  C7  UNL     1      20.348  81.840   2.636  1.00  0.00     0.110 C 
HETATM    4  N1  UNL     1      21.494  81.829   2.442  1.00  0.00    -0.191 NA
HETATM    5  C8  UNL     1      18.169  80.804   2.169  1.00  0.00     0.110 C 
HETATM    6  N2  UNL     1      17.569  80.002   1.626  1.00  0.00    -0.191 NA
ENDROOT
BRANCH   1   7
HETATM    7  C4  UNL     1      18.925  83.665   4.424  1.00  0.00    -0.029 A 
HETATM    8  C3  UNL     1      18.570  83.930   5.744  1.00  0.00     0.051 A 
HETATM    9  C2  UNL     1      19.183  84.944   6.431  1.00  0.00     0.104 A 
HETATM   10  C17 UNL     1      20.168  85.738   5.849  1.00  0.00     0.133 A 
HETATM   11  C10 UNL     1      20.490  85.451   4.552  1.00  0.00     0.117 A 
HETATM   12  C9  UNL     1      19.892  84.429   3.818  1.00  0.00     0.052 A 
BRANCH   9  13
HETATM   13  O1  UNL     1      18.814  85.184   7.736  1.00  0.00    -0.353 OA
HETATM   14  C1  UNL     1      18.172  84.336   8.622  1.00  0.00     0.210 C 
ENDBRANCH   9  13
BRANCH  10  15
HETATM   15  O4  UNL     1      20.748  86.741   6.587  1.00  0.00    -0.356 OA
ATOM     16  H4  UNL     1      20.194  87.369   7.034  1.00  0.00     0.218 HD
ENDBRANCH  10  15
BRANCH  11  17
HETATM   17  O2  UNL     1      21.483  86.254   3.971  1.00  0.00    -0.259 OA
BRANCH  17  18
HETATM   18  C11 UNL     1      22.727  85.691   3.733  1.00  0.00     0.366 C 
HETATM   19  O3  UNL     1      23.537  85.628   4.683  1.00  0.00    -0.238 OA
HETATM   20  N3  UNL     1      23.051  85.206   2.438  1.00  0.00    -0.332 N 
ATOM     21  H3  UNL     1      22.358  85.277   1.692  1.00  0.00     0.165 HD
BRANCH  20  22
HETATM   22  C12 UNL     1      24.342  84.611   2.147  1.00  0.00     0.086 C 
HETATM   23  C13 UNL     1      24.145  83.700   0.948  1.00  0.00     0.025 C 
HETATM   24  C14 UNL     1      25.523  83.752   0.312  1.00  0.00     0.002 C 
HETATM   25  C15 UNL     1      25.997  85.179   0.483  1.00  0.00     0.002 C 
HETATM   26  C16 UNL     1      25.273  85.711   1.706  1.00  0.00     0.025 C 
ENDBRANCH  20  22
ENDBRANCH  17  18
ENDBRANCH  11  17
ENDBRANCH   1   7
TORSDOF 6
ENDMDL
MODEL 3
REMARK VINA RESULT: -8.288372722      2.989      4.480
REMARK  6 active torsions:
REMARK  status: ('A' for Active; 'I' for Inactive)
REMARK    1  A    between atoms: O1_2  and  C2_3 
REMARK    2  A    between atoms: C4_5  and  C5_6 
REMARK    3  A    between atoms: C10_13  and  O2_14 
REMARK    4  A    between atoms: O2_14  and  C11_15 
REMARK       I    between atoms: C11_15  and  N3_17 
REMARK    5  A    between atoms: N3_17  and  C12_19 
REMARK    6  A    between atoms: C17_24  and  O4_25 
ROOT
HETATM    1  C5  UNL     1      18.796  84.863   3.070  1.00  0.00     0.045 C 
HETATM    2  C6  UNL     1      18.614  83.621   2.736  1.00  0.00     0.125 C 
HETATM    3  C7  UNL     1      19.083  82.466   3.451  1.00  0.00     0.110 C 
HETATM    4  N1  UNL     1      19.439  81.522   4.028  1.00  0.00    -0.191 NA
HETATM    5  C8  UNL     1      17.859  83.358   1.515  1.00  0.00     0.110 C 
HETATM    6  N2  UNL     1      17.257  83.160   0.569  1.00  0.00    -0.191 NA
ENDROOT
BRANCH   1   7
HETATM    7  C4  UNL     1      19.530  85.242   4.254  1.00  0.00    -0.029 A 
HETATM    8  C3  UNL     1      18.945  85.178   5.517  1.00  0.00     0.051 A 
HETATM    9  C2  UNL     1      19.652  85.567   6.623  1.00  0.00     0.104 A 
HETATM   10  C17 UNL     1      20.961  86.034   6.534  1.00  0.00     0.133 A 
HETATM   11  C10 UNL     1      21.503  86.085   5.280  1.00  0.00     0.117 A 
HETATM   12  C9  UNL     1      20.819  85.699   4.129  1.00  0.00     0.052 A 
BRANCH   9  13
HETATM   13  O1  UNL     1      19.051  85.492   7.859  1.00  0.00    -0.353 OA
HETATM   14  C1  UNL     1      18.302  84.458   8.394  1.00  0.00     0.210 C 
ENDBRANCH   9  13
BRANCH  10  15
HETATM   15  O4  UNL     1      21.622  86.409   7.678  1.00  0.00    -0.356 OA
ATOM     16  H4  UNL     1      21.570  85.857   8.449  1.00  0.00     0.218 HD
ENDBRANCH  10  15
BRANCH  11  17
HETATM   17  O2  UNL     1      22.822  86.556   5.197  1.00  0.00    -0.259 OA
BRANCH  17  18
HETATM   18  C11 UNL     1      23.761  85.769   4.550  1.00  0.00     0.366 C 
HETATM   19  O3  UNL     1      24.684  85.273   5.232  1.00  0.00    -0.238 OA
HETATM   20  N3  UNL     1      23.659  85.545   3.151  1.00  0.00    -0.332 N 
ATOM     21  H3  UNL     1      22.888  85.970   2.635  1.00  0.00     0.165 HD
BRANCH  20  22
HETATM   22  C12 UNL     1      24.623  84.729   2.436  1.00  0.00     0.086 C 
HETATM   23  C13 UNL     1      23.825  83.752   1.590  1.00  0.00     0.025 C 
HETATM   24  C14 UNL     1      24.780  83.524   0.430  1.00  0.00     0.002 C 
HETATM   25  C15 UNL     1      25.423  84.868   0.163  1.00  0.00     0.002 C 
HETATM   26  C16 UNL     1      25.369  85.621   1.478  1.00  0.00     0.025 C 
ENDBRANCH  20  22
ENDBRANCH  17  18
ENDBRANCH  11  17
ENDBRANCH   1   7
TORSDOF 6
ENDMDL
MODEL 4
REMARK VINA RESULT: -8.217181839      2.725      4.676
REMARK  6 active torsions:
REMARK  status: ('A' for Active; 'I' for Inactive)
REMARK    1  A    between atoms: O1_2  and  C2_3 
REMARK    2  A    between atoms: C4_5  and  C5_6 
REMARK    3  A    between atoms: C10_13  and  O2_14 
REMARK    4  A    between atoms: O2_14  and  C11_15 
REMARK       I    between atoms: C11_15  and  N3_17 
REMARK    5  A    between atoms: N3_17  and  C12_19 
REMARK    6  A    between atoms: C17_24  and  O4_25 
ROOT
HETATM    1  C5  UNL     1      18.604  81.808   3.839  1.00  0.00     0.045 C 
HETATM    2  C6  UNL     1      18.104  81.765   2.639  1.00  0.00     0.125 C 
HETATM    3  C7  UNL     1      17.858  82.887   1.775  1.00  0.00     0.110 C 
HETATM    4  N1  UNL     1      17.671  83.782   1.058  1.00  0.00    -0.191 NA
HETATM    5  C8  UNL     1      17.755  80.454   2.105  1.00  0.00     0.110 C 
HETATM    6  N2  UNL     1      17.498  79.426   1.689  1.00  0.00    -0.191 NA
ENDROOT
BRANCH   1   7
HETATM    7  C4  UNL     1      18.983  83.050   4.470  1.00  0.00    -0.029 A 
HETATM    8  C3  UNL     1      18.429  83.440   5.687  1.00  0.00     0.051 A 
HETATM    9  C2  UNL     1      18.785  84.634   6.255  1.00  0.00     0.104 A 
HETATM   10  C17 UNL     1      19.700  85.492   5.651  1.00  0.00     0.133 A 
HETATM   11  C10 UNL     1      20.224  85.079   4.458  1.00  0.00     0.117 A 
HETATM   12  C9  UNL     1      19.889  83.873   3.846  1.00  0.00     0.052 A 
BRANCH   9  13
HETATM   13  O1  UNL     1      18.222  84.994   7.459  1.00  0.00    -0.353 OA
HETATM   14  C1  UNL     1      18.017  84.214   8.584  1.00  0.00     0.210 C 
ENDBRANCH   9  13
BRANCH  10  15
HETATM   15  O4  UNL     1      20.020  86.677   6.268  1.00  0.00    -0.356 OA
ATOM     16  H4  UNL     1      19.347  87.152   6.740  1.00  0.00     0.218 HD
ENDBRANCH  10  15
BRANCH  11  17
HETATM   17  O2  UNL     1      21.145  85.948   3.855  1.00  0.00    -0.259 OA
BRANCH  17  18
HETATM   18  C11 UNL     1      22.452  85.515   3.701  1.00  0.00     0.366 C 
HETATM   19  O3  UNL     1      23.235  85.650   4.666  1.00  0.00    -0.238 OA
HETATM   20  N3  UNL     1      22.870  84.939   2.471  1.00  0.00    -0.332 N 
ATOM     21  H3  UNL     1      22.196  84.849   1.710  1.00  0.00     0.165 HD
BRANCH  20  22
HETATM   22  C12 UNL     1      24.229  84.474   2.269  1.00  0.00     0.086 C 
HETATM   23  C13 UNL     1      24.200  83.544   1.068  1.00  0.00     0.025 C 
HETATM   24  C14 UNL     1      25.604  83.731   0.520  1.00  0.00     0.002 C 
HETATM   25  C15 UNL     1      25.923  85.199   0.708  1.00  0.00     0.002 C 
HETATM   26  C16 UNL     1      25.073  85.660   1.876  1.00  0.00     0.025 C 
ENDBRANCH  20  22
ENDBRANCH  17  18
ENDBRANCH  11  17
ENDBRANCH   1   7
TORSDOF 6
ENDMDL
MODEL 5
REMARK VINA RESULT: -8.149830558      2.828      5.598
REMARK  6 active torsions:
REMARK  status: ('A' for Active; 'I' for Inactive)
REMARK    1  A    between atoms: O1_2  and  C2_3 
REMARK    2  A    between atoms: C4_5  and  C5_6 
REMARK    3  A    between atoms: C10_13  and  O2_14 
REMARK    4  A    between atoms: O2_14  and  C11_15 
REMARK       I    between atoms: C11_15  and  N3_17 
REMARK    5  A    between atoms: N3_17  and  C12_19 
REMARK    6  A    between atoms: C17_24  and  O4_25 
ROOT
HETATM    1  C5  UNL     1      22.177  85.432   3.399  1.00  0.00     0.045 C 
HETATM    2  C6  UNL     1      23.431  85.592   3.702  1.00  0.00     0.125 C 
HETATM    3  C7  UNL     1      23.978  85.754   5.022  1.00  0.00     0.110 C 
HETATM    4  N1  UNL     1      24.436  85.867   6.084  1.00  0.00    -0.191 NA
HETATM    5  C8  UNL     1      24.390  85.609   2.603  1.00  0.00     0.110 C 
HETATM    6  N2  UNL     1      25.135  85.607   1.742  1.00  0.00    -0.191 NA
ENDROOT
BRANCH   1   7
HETATM    7  C4  UNL     1      21.140  85.402   4.403  1.00  0.00    -0.029 A 
HETATM    8  C3  UNL     1      21.127  86.315   5.455  1.00  0.00     0.051 A 
HETATM    9  C2  UNL     1      20.148  86.251   6.409  1.00  0.00     0.104 A 
HETATM   10  C17 UNL     1      19.142  85.288   6.369  1.00  0.00     0.133 A 
HETATM   11  C10 UNL     1      19.186  84.408   5.324  1.00  0.00     0.117 A 
HETATM   12  C9  UNL     1      20.164  84.438   4.333  1.00  0.00     0.052 A 
BRANCH   9  13
HETATM   13  O1  UNL     1      20.157  87.167   7.438  1.00  0.00    -0.353 OA
HETATM   14  C1  UNL     1      19.570  88.419   7.484  1.00  0.00     0.210 C 
ENDBRANCH   9  13
BRANCH  10  15
HETATM   15  O4  UNL     1      18.185  85.273   7.355  1.00  0.00    -0.356 OA
ATOM     16  H4  UNL     1      18.428  85.015   8.236  1.00  0.00     0.218 HD
ENDBRANCH  10  15
BRANCH  11  17
HETATM   17  O2  UNL     1      18.170  83.441   5.290  1.00  0.00    -0.259 OA
BRANCH  17  18
HETATM   18  C11 UNL     1      18.415  82.255   4.616  1.00  0.00     0.366 C 
HETATM   19  O3  UNL     1      18.885  81.296   5.265  1.00  0.00    -0.238 OA
HETATM   20  N3  UNL     1      18.132  82.155   3.228  1.00  0.00    -0.332 N 
ATOM     21  H3  UNL     1      17.748  82.964   2.739  1.00  0.00     0.165 HD
BRANCH  20  22
HETATM   22  C12 UNL     1      18.375  80.931   2.486  1.00  0.00     0.086 C 
HETATM   23  C13 UNL     1      17.053  80.186   2.428  1.00  0.00     0.025 C 
HETATM   24  C14 UNL     1      17.203  79.427   1.120  1.00  0.00     0.002 C 
HETATM   25  C15 UNL     1      17.921  80.372   0.182  1.00  0.00     0.002 C 
HETATM   26  C16 UNL     1      18.722  81.307   1.069  1.00  0.00     0.025 C 
ENDBRANCH  20  22
ENDBRANCH  17  18
ENDBRANCH  11  17
ENDBRANCH   1   7
TORSDOF 6
ENDMDL
