MODEL 1
REMARK VINA RESULT: -7.403989486      0.000      0.000
REMARK  5 active torsions:
REMARK  status: ('A' for Active; 'I' for Inactive)
REMARK    1  A    between atoms: O1_2  and  C2_3 
REMARK    2  A    between atoms: C2_3  and  C3_5 
REMARK    3  A    between atoms: C4_6  and  N1_7 
REMARK       I    between atoms: N1_7  and  C5_9 
REMARK    4  A    between atoms: C9_16  and  N3_17 
REMARK    5  A    between atoms: N3_17  and  C10_19 
ROOT
HETATM    1  C3  UNL     1      18.645  82.872   3.798  1.00  0.00     0.101 A 
HETATM    2  C4  UNL     1      18.509  81.511   3.741  1.00  0.00     0.096 A 
HETATM    3  S1  UNL     1      18.170  81.088   5.386  1.00  0.00    -0.058 SA
HETATM    4  C7  UNL     1      18.217  82.633   6.073  1.00  0.00     0.114 A 
HETATM    5  C8  UNL     1      18.010  83.030   7.470  1.00  0.00     0.109 C 
HETATM    6  N2  UNL     1      17.844  83.319   8.571  1.00  0.00    -0.191 NA
HETATM    7  C9  UNL     1      18.495  83.456   5.018  1.00  0.00     0.075 A 
ENDROOT
BRANCH   7   8
HETATM    8  N3  UNL     1      18.684  84.893   5.270  1.00  0.00    -0.383 N 
ATOM      9  H3  UNL     1      18.091  85.559   4.775  1.00  0.00     0.160 HD
BRANCH   8  10
HETATM   10  C10 UNL     1      19.663  85.389   6.175  1.00  0.00     0.082 C 
HETATM   11  C11 UNL     1      20.892  85.971   5.528  1.00  0.00     0.025 C 
HETATM   12  C12 UNL     1      21.973  86.022   6.605  1.00  0.00     0.002 C 
HETATM   13  C13 UNL     1      21.401  86.790   7.768  1.00  0.00     0.000 C 
HETATM   14  C14 UNL     1      20.126  87.524   7.393  1.00  0.00     0.002 C 
HETATM   15  C15 UNL     1      19.043  86.561   6.956  1.00  0.00     0.025 C 
ENDBRANCH   8  10
ENDBRANCH   7   8
BRANCH   2  16
HETATM   16  N1  UNL     1      18.610  80.596   2.636  1.00  0.00    -0.321 N 
HETATM   17  C5  UNL     1      17.386  80.012   2.189  1.00  0.00     0.218 C 
HETATM   18  C6  UNL     1      17.339  79.050   1.059  1.00  0.00     0.117 C 
HETATM   19  O3  UNL     1      16.268  80.277   2.727  1.00  0.00    -0.274 OA
ATOM     20  H1  UNL     1      19.504  80.377   2.197  1.00  0.00     0.169 HD
ENDBRANCH   2  16
BRANCH   1  21
HETATM   21  C2  UNL     1      18.907  83.674   2.556  1.00  0.00     0.298 C 
HETATM   22  O2  UNL     1      19.465  84.797   2.594  1.00  0.00    -0.259 OA
BRANCH  21  23
HETATM   23  O1  UNL     1      18.550  83.227   1.309  1.00  0.00    -0.322 OA
HETATM   24  C1  UNL     1      17.293  83.523   0.731  1.00  0.00     0.213 C 
ENDBRANCH  21  23
ENDBRANCH   1  21
TORSDOF 5
ENDMDL
MODEL 2
REMARK VINA RESULT: -7.328311577      2.386      3.093
REMARK  5 active torsions:
REMARK  status: ('A' for Active; 'I' for Inactive)
REMARK    1  A    between atoms: O1_2  and  C2_3 
REMARK    2  A    between atoms: C2_3  and  C3_5 
REMARK    3  A    between atoms: C4_6  and  N1_7 
REMARK       I    between atoms: N1_7  and  C5_9 
REMARK    4  A    between atoms: C9_16  and  N3_17 
REMARK    5  A    between atoms: N3_17  and  C10_19 
ROOT
HETATM    1  C3  UNL     1      19.754  82.776   3.081  1.00  0.00     0.101 A 
HETATM    2  C4  UNL     1      18.866  81.850   3.559  1.00  0.00     0.096 A 
HETATM    3  S1  UNL     1      18.196  82.640   4.946  1.00  0.00    -0.058 SA
HETATM    4  C7  UNL     1      19.058  84.093   4.867  1.00  0.00     0.114 A 
HETATM    5  C8  UNL     1      18.988  85.259   5.756  1.00  0.00     0.109 C 
HETATM    6  N2  UNL     1      18.917  86.162   6.465  1.00  0.00    -0.191 NA
HETATM    7  C9  UNL     1      19.854  83.947   3.767  1.00  0.00     0.075 A 
ENDROOT
BRANCH   7   8
HETATM    8  N3  UNL     1      20.810  85.014   3.435  1.00  0.00    -0.383 N 
ATOM      9  H3  UNL     1      20.476  85.826   2.916  1.00  0.00     0.160 HD
BRANCH   8  10
HETATM   10  C10 UNL     1      22.181  84.958   3.810  1.00  0.00     0.082 C 
HETATM   11  C11 UNL     1      23.153  85.354   2.731  1.00  0.00     0.025 C 
HETATM   12  C12 UNL     1      24.518  84.813   3.148  1.00  0.00     0.002 C 
HETATM   13  C13 UNL     1      24.800  85.342   4.530  1.00  0.00     0.000 C 
HETATM   14  C14 UNL     1      23.847  86.460   4.915  1.00  0.00     0.002 C 
HETATM   15  C15 UNL     1      22.412  85.981   4.935  1.00  0.00     0.025 C 
ENDBRANCH   8  10
ENDBRANCH   7   8
BRANCH   2  16
HETATM   16  N1  UNL     1      18.525  80.534   3.088  1.00  0.00    -0.321 N 
HETATM   17  C5  UNL     1      17.649  80.477   1.962  1.00  0.00     0.218 C 
HETATM   18  C6  UNL     1      17.212  79.188   1.369  1.00  0.00     0.117 C 
HETATM   19  O3  UNL     1      17.191  81.519   1.402  1.00  0.00    -0.274 OA
ATOM     20  H1  UNL     1      18.889  79.691   3.532  1.00  0.00     0.169 HD
ENDBRANCH   2  16
BRANCH   1  21
HETATM   21  C2  UNL     1      20.542  82.514   1.830  1.00  0.00     0.298 C 
HETATM   22  O2  UNL     1      20.131  82.867   0.698  1.00  0.00    -0.259 OA
BRANCH  21  23
HETATM   23  O1  UNL     1      21.756  81.875   1.851  1.00  0.00    -0.322 OA
HETATM   24  C1  UNL     1      22.723  82.056   0.834  1.00  0.00     0.213 C 
ENDBRANCH  21  23
ENDBRANCH   1  21
TORSDOF 5
ENDMDL
MODEL 3
REMARK VINA RESULT: -7.117411338      1.109      1.544
REMARK  5 active torsions:
REMARK  status: ('A' for Active; 'I' for Inactive)
REMARK    1  A    between atoms: O1_2  and  C2_3 
REMARK    2  A    between atoms: C2_3  and  C3_5 
REMARK    3  A    between atoms: C4_6  and  N1_7 
REMARK       I    between atoms: N1_7  and  C5_9 
REMARK    4  A    between atoms: C9_16  and  N3_17 
REMARK    5  A    between atoms: N3_17  and  C10_19 
ROOT
HETATM    1  C3  UNL     1      18.506  82.472   3.294  1.00  0.00     0.101 A 
HETATM    2  C4  UNL     1      18.216  81.135   3.255  1.00  0.00     0.096 A 
HETATM    3  S1  UNL     1      17.883  80.766   4.914  1.00  0.00    -0.058 SA
HETATM    4  C7  UNL     1      18.125  82.300   5.582  1.00  0.00     0.114 A 
HETATM    5  C8  UNL     1      18.008  82.728   6.981  1.00  0.00     0.109 C 
HETATM    6  N2  UNL     1      17.910  83.042   8.083  1.00  0.00    -0.191 NA
HETATM    7  C9  UNL     1      18.460  83.079   4.511  1.00  0.00     0.075 A 
ENDROOT
BRANCH   7   8
HETATM    8  N3  UNL     1      18.818  84.487   4.741  1.00  0.00    -0.383 N 
ATOM      9  H3  UNL     1      18.074  85.184   4.762  1.00  0.00     0.160 HD
BRANCH   8  10
HETATM   10  C10 UNL     1      20.161  84.914   4.936  1.00  0.00     0.082 C 
HETATM   11  C11 UNL     1      20.666  85.907   3.924  1.00  0.00     0.025 C 
HETATM   12  C12 UNL     1      22.189  85.894   4.016  1.00  0.00     0.002 C 
HETATM   13  C13 UNL     1      22.547  86.163   5.455  1.00  0.00     0.000 C 
HETATM   14  C14 UNL     1      21.358  86.673   6.250  1.00  0.00     0.002 C 
HETATM   15  C15 UNL     1      20.237  85.657   6.281  1.00  0.00     0.025 C 
ENDBRANCH   8  10
ENDBRANCH   7   8
BRANCH   2  16
HETATM   16  N1  UNL     1      18.179  80.206   2.157  1.00  0.00    -0.321 N 
HETATM   17  C5  UNL     1      16.907  79.626   1.867  1.00  0.00     0.218 C 
HETATM   18  C6  UNL     1      16.720  78.652   0.763  1.00  0.00     0.117 C 
HETATM   19  O3  UNL     1      15.863  79.905   2.532  1.00  0.00    -0.274 OA
ATOM     20  H1  UNL     1      19.012  79.976   1.618  1.00  0.00     0.169 HD
ENDBRANCH   2  16
BRANCH   1  21
HETATM   21  C2  UNL     1      18.817  83.231   2.036  1.00  0.00     0.298 C 
HETATM   22  O2  UNL     1      18.095  84.175   1.631  1.00  0.00    -0.259 OA
BRANCH  21  23
HETATM   23  O1  UNL     1      19.907  82.937   1.255  1.00  0.00    -0.322 OA
HETATM   24  C1  UNL     1      21.206  82.794   1.795  1.00  0.00     0.213 C 
ENDBRANCH  21  23
ENDBRANCH   1  21
TORSDOF 5
ENDMDL
MODEL 4
REMARK VINA RESULT: -7.059076883      3.315      5.477
REMARK  5 active torsions:
REMARK  status: ('A' for Active; 'I' for Inactive)
REMARK    1  A    between atoms: O1_2  and  C2_3 
REMARK    2  A    between atoms: C2_3  and  C3_5 
REMARK    3  A    between atoms: C4_6  and  N1_7 
REMARK       I    between atoms: N1_7  and  C5_9 
REMARK    4  A    between atoms: C9_16  and  N3_17 
REMARK    5  A    between atoms: N3_17  and  C10_19 
ROOT
HETATM    1  C3  UNL     1      21.191  84.604   3.398  1.00  0.00     0.101 A 
HETATM    2  C4  UNL     1      22.360  85.301   3.249  1.00  0.00     0.096 A 
HETATM    3  S1  UNL     1      22.322  86.405   4.582  1.00  0.00    -0.058 SA
HETATM    4  C7  UNL     1      20.845  85.946   5.266  1.00  0.00     0.114 A 
HETATM    5  C8  UNL     1      20.172  86.480   6.456  1.00  0.00     0.109 C 
HETATM    6  N2  UNL     1      19.662  86.912   7.392  1.00  0.00    -0.191 NA
HETATM    7  C9  UNL     1      20.400  84.944   4.452  1.00  0.00     0.075 A 
ENDROOT
BRANCH   7   8
HETATM    8  N3  UNL     1      19.080  84.350   4.713  1.00  0.00    -0.383 N 
ATOM      9  H3  UNL     1      18.266  84.735   4.234  1.00  0.00     0.160 HD
BRANCH   8  10
HETATM   10  C10 UNL     1      18.895  83.260   5.607  1.00  0.00     0.082 C 
HETATM   11  C11 UNL     1      18.005  83.548   6.787  1.00  0.00     0.025 C 
HETATM   12  C12 UNL     1      18.285  82.465   7.825  1.00  0.00     0.002 C 
HETATM   13  C13 UNL     1      18.082  81.137   7.143  1.00  0.00     0.000 C 
HETATM   14  C14 UNL     1      17.372  81.286   5.809  1.00  0.00     0.002 C 
HETATM   15  C15 UNL     1      18.176  82.132   4.846  1.00  0.00     0.025 C 
ENDBRANCH   8  10
ENDBRANCH   7   8
BRANCH   2  16
HETATM   16  N1  UNL     1      23.401  85.202   2.261  1.00  0.00    -0.321 N 
HETATM   17  C5  UNL     1      24.604  84.558   2.677  1.00  0.00     0.218 C 
HETATM   18  C6  UNL     1      25.762  84.385   1.765  1.00  0.00     0.117 C 
HETATM   19  O3  UNL     1      24.759  84.094   3.849  1.00  0.00    -0.274 OA
ATOM     20  H1  UNL     1      23.286  85.572   1.318  1.00  0.00     0.169 HD
ENDBRANCH   2  16
BRANCH   1  21
HETATM   21  C2  UNL     1      20.834  83.488   2.459  1.00  0.00     0.298 C 
HETATM   22  O2  UNL     1      19.725  83.439   1.875  1.00  0.00    -0.259 OA
BRANCH  21  23
HETATM   23  O1  UNL     1      21.697  82.457   2.186  1.00  0.00    -0.322 OA
HETATM   24  C1  UNL     1      22.115  82.150   0.871  1.00  0.00     0.213 C 
ENDBRANCH  21  23
ENDBRANCH   1  21
TORSDOF 5
ENDMDL
MODEL 5
REMARK VINA RESULT: -7.045053357      2.852      4.008
REMARK  5 active torsions:
REMARK  status: ('A' for Active; 'I' for Inactive)
REMARK    1  A    between atoms: O1_2  and  C2_3 
REMARK    2  A    between atoms: C2_3  and  C3_5 
REMARK    3  A    between atoms: C4_6  and  N1_7 
REMARK       I    between atoms: N1_7  and  C5_9 
REMARK    4  A    between atoms: C9_16  and  N3_17 
REMARK    5  A    between atoms: N3_17  and  C10_19 
ROOT
HETATM    1  C3  UNL     1      20.327  83.346   2.573  1.00  0.00     0.101 A 
HETATM    2  C4  UNL     1      20.437  82.227   1.792  1.00  0.00     0.096 A 
HETATM    3  S1  UNL     1      22.117  82.214   1.373  1.00  0.00    -0.058 SA
HETATM    4  C7  UNL     1      22.607  83.610   2.191  1.00  0.00     0.114 A 
HETATM    5  C8  UNL     1      23.943  84.213   2.273  1.00  0.00     0.109 C 
HETATM    6  N2  UNL     1      24.997  84.669   2.324  1.00  0.00    -0.191 NA
HETATM    7  C9  UNL     1      21.462  84.069   2.778  1.00  0.00     0.075 A 
ENDROOT
BRANCH   7   8
HETATM    8  N3  UNL     1      21.505  85.335   3.525  1.00  0.00    -0.383 N 
ATOM      9  H3  UNL     1      21.332  86.206   3.024  1.00  0.00     0.160 HD
BRANCH   8  10
HETATM   10  C10 UNL     1      21.779  85.391   4.920  1.00  0.00     0.082 C 
HETATM   11  C11 UNL     1      22.951  86.256   5.304  1.00  0.00     0.025 C 
HETATM   12  C12 UNL     1      23.357  85.844   6.717  1.00  0.00     0.002 C 
HETATM   13  C13 UNL     1      22.129  85.960   7.581  1.00  0.00     0.000 C 
HETATM   14  C14 UNL     1      21.018  86.732   6.890  1.00  0.00     0.002 C 
HETATM   15  C15 UNL     1      20.573  86.041   5.620  1.00  0.00     0.025 C 
ENDBRANCH   8  10
ENDBRANCH   7   8
BRANCH   2  16
HETATM   16  N1  UNL     1      19.454  81.262   1.378  1.00  0.00    -0.321 N 
HETATM   17  C5  UNL     1      18.784  81.535   0.147  1.00  0.00     0.218 C 
HETATM   18  C6  UNL     1      17.746  80.627  -0.402  1.00  0.00     0.117 C 
HETATM   19  O3  UNL     1      19.033  82.566  -0.550  1.00  0.00    -0.274 OA
ATOM     20  H1  UNL     1      19.248  80.431   1.931  1.00  0.00     0.169 HD
ENDBRANCH   2  16
BRANCH   1  21
HETATM   21  C2  UNL     1      19.017  83.722   3.202  1.00  0.00     0.298 C 
HETATM   22  O2  UNL     1      18.511  84.860   3.056  1.00  0.00    -0.259 OA
BRANCH  21  23
HETATM   23  O1  UNL     1      18.298  82.843   3.973  1.00  0.00    -0.322 OA
HETATM   24  C1  UNL     1      18.370  82.844   5.385  1.00  0.00     0.213 C 
ENDBRANCH  21  23
ENDBRANCH   1  21
TORSDOF 5
ENDMDL
