MODEL 1
REMARK VINA RESULT: -4.941242154      0.000      0.000
REMARK  4 active torsions:
REMARK  status: ('A' for Active; 'I' for Inactive)
REMARK    1  A    between atoms: C2_2  and  N1_3 
REMARK    2  A    between atoms: C6_8  and  O1_9 
REMARK    3  A    between atoms: C6_8  and  C7_11 
REMARK    4  A    between atoms: C7_11  and  C8_12 
ROOT
HETATM    1  N1  UNL     1    -100.350  37.803  27.617  1.00  0.00    -0.017 N 
HETATM    2  C3  UNL     1     -99.360  38.817  27.999  1.00  0.00     0.275 C 
HETATM    3  C4  UNL     1     -98.473  39.015  26.769  1.00  0.00     0.303 C 
HETATM    4  N2  UNL     1     -99.347  38.420  25.737  1.00  0.00     0.119 N 
HETATM    5  C5  UNL     1    -100.353  39.385  25.453  1.00  0.00     0.314 C 
HETATM    6  C6  UNL     1    -101.680  39.182  26.096  1.00  0.00     0.115 C 
HETATM    7  C9  UNL     1    -101.603  38.450  27.388  1.00  0.00     0.285 C 
HETATM    8  C10 UNL     1     -99.764  37.244  26.432  1.00  0.00     0.513 C 
ENDROOT
BRANCH   6   9
HETATM    9  O1  UNL     1    -102.268  40.441  26.376  1.00  0.00    -0.386 OA
ATOM     10  H1  UNL     1    -103.211  40.381  26.272  1.00  0.00     0.210 HD
ENDBRANCH   6   9
BRANCH   6  11
HETATM   11  C7  UNL     1    -102.629  38.541  25.106  1.00  0.00     0.110 C 
BRANCH  11  12
HETATM   12  C8  UNL     1    -104.024  38.969  25.298  1.00  0.00     0.234 C 
HETATM   13  O2  UNL     1    -104.703  38.421  26.140  1.00  0.00    -0.307 OA
ENDBRANCH  11  12
ENDBRANCH   6  11
BRANCH   1  14
HETATM   14  C2  UNL     1    -100.437  36.805  28.608  1.00  0.00     0.194 C 
HETATM   15  C1  UNL     1    -100.106  35.550  28.304  1.00  0.00     0.038 C 
ENDBRANCH   1  14
TORSDOF 4
ENDMDL
MODEL 2
REMARK VINA RESULT: -4.848683891      1.032      1.254
REMARK  4 active torsions:
REMARK  status: ('A' for Active; 'I' for Inactive)
REMARK    1  A    between atoms: C2_2  and  N1_3 
REMARK    2  A    between atoms: C6_8  and  O1_9 
REMARK    3  A    between atoms: C6_8  and  C7_11 
REMARK    4  A    between atoms: C7_11  and  C8_12 
ROOT
HETATM    1  N1  UNL     1    -100.352  37.726  27.560  1.00  0.00    -0.017 N 
HETATM    2  C3  UNL     1     -99.420  38.699  28.142  1.00  0.00     0.275 C 
HETATM    3  C4  UNL     1     -98.389  38.989  27.051  1.00  0.00     0.303 C 
HETATM    4  N2  UNL     1     -99.128  38.487  25.875  1.00  0.00     0.119 N 
HETATM    5  C5  UNL     1    -100.094  39.480  25.550  1.00  0.00     0.314 C 
HETATM    6  C6  UNL     1    -101.490  39.235  26.006  1.00  0.00     0.115 C 
HETATM    7  C9  UNL     1    -101.569  38.399  27.234  1.00  0.00     0.285 C 
HETATM    8  C10 UNL     1     -99.624  37.262  26.415  1.00  0.00     0.513 C 
ENDROOT
BRANCH   6   9
HETATM    9  O1  UNL     1    -102.111  40.470  26.314  1.00  0.00    -0.386 OA
ATOM     10  H1  UNL     1    -101.795  41.142  25.721  1.00  0.00     0.210 HD
ENDBRANCH   6   9
BRANCH   6  11
HETATM   11  C7  UNL     1    -102.308  38.684  24.858  1.00  0.00     0.110 C 
BRANCH  11  12
HETATM   12  C8  UNL     1    -102.148  39.464  23.621  1.00  0.00     0.234 C 
HETATM   13  O2  UNL     1    -102.878  40.411  23.416  1.00  0.00    -0.307 OA
ENDBRANCH  11  12
ENDBRANCH   6  11
BRANCH   1  14
HETATM   14  C2  UNL     1    -100.557  36.651  28.448  1.00  0.00     0.194 C 
HETATM   15  C1  UNL     1    -100.201  35.420  28.079  1.00  0.00     0.038 C 
ENDBRANCH   1  14
TORSDOF 4
ENDMDL
MODEL 3
REMARK VINA RESULT: -4.674735745      2.359      4.301
REMARK  4 active torsions:
REMARK  status: ('A' for Active; 'I' for Inactive)
REMARK    1  A    between atoms: C2_2  and  N1_3 
REMARK    2  A    between atoms: C6_8  and  O1_9 
REMARK    3  A    between atoms: C6_8  and  C7_11 
REMARK    4  A    between atoms: C7_11  and  C8_12 
ROOT
HETATM    1  N1  UNL     1    -102.612  38.968  26.297  1.00  0.00    -0.017 N 
HETATM    2  C3  UNL     1    -102.461  38.521  24.907  1.00  0.00     0.275 C 
HETATM    3  C4  UNL     1    -101.239  39.262  24.363  1.00  0.00     0.303 C 
HETATM    4  N2  UNL     1    -100.617  39.677  25.637  1.00  0.00     0.119 N 
HETATM    5  C5  UNL     1     -99.972  38.525  26.167  1.00  0.00     0.314 C 
HETATM    6  C6  UNL     1    -100.689  37.788  27.243  1.00  0.00     0.115 C 
HETATM    7  C9  UNL     1    -102.168  37.923  27.164  1.00  0.00     0.285 C 
HETATM    8  C10 UNL     1    -101.779  40.136  26.328  1.00  0.00     0.513 C 
ENDROOT
BRANCH   6   9
HETATM    9  O1  UNL     1    -100.401  36.404  27.142  1.00  0.00    -0.386 OA
ATOM     10  H1  UNL     1    -100.124  36.201  26.256  1.00  0.00     0.210 HD
ENDBRANCH   6   9
BRANCH   6  11
HETATM   11  C7  UNL     1    -100.127  38.187  28.591  1.00  0.00     0.110 C 
BRANCH  11  12
HETATM   12  C8  UNL     1     -98.657  38.138  28.630  1.00  0.00     0.234 C 
HETATM   13  O2  UNL     1     -98.101  37.067  28.754  1.00  0.00    -0.307 OA
ENDBRANCH  11  12
ENDBRANCH   6  11
BRANCH   1  14
HETATM   14  C2  UNL     1    -103.947  39.342  26.550  1.00  0.00     0.194 C 
HETATM   15  C1  UNL     1    -104.907  38.947  25.712  1.00  0.00     0.038 C 
ENDBRANCH   1  14
TORSDOF 4
ENDMDL
MODEL 4
REMARK VINA RESULT: -4.486385124      2.709      4.488
REMARK  4 active torsions:
REMARK  status: ('A' for Active; 'I' for Inactive)
REMARK    1  A    between atoms: C2_2  and  N1_3 
REMARK    2  A    between atoms: C6_8  and  O1_9 
REMARK    3  A    between atoms: C6_8  and  C7_11 
REMARK    4  A    between atoms: C7_11  and  C8_12 
ROOT
HETATM    1  N1  UNL     1    -102.979  39.798  24.118  1.00  0.00    -0.017 N 
HETATM    2  C3  UNL     1    -102.003  38.711  24.256  1.00  0.00     0.275 C 
HETATM    3  C4  UNL     1    -101.207  39.025  25.524  1.00  0.00     0.303 C 
HETATM    4  N2  UNL     1    -102.127  39.992  26.157  1.00  0.00     0.119 N 
HETATM    5  C5  UNL     1    -103.183  39.231  26.730  1.00  0.00     0.314 C 
HETATM    6  C6  UNL     1    -104.457  39.163  25.962  1.00  0.00     0.115 C 
HETATM    7  C9  UNL     1    -104.266  39.306  24.494  1.00  0.00     0.285 C 
HETATM    8  C10 UNL     1    -102.454  40.786  25.016  1.00  0.00     0.513 C 
ENDROOT
BRANCH   6   9
HETATM    9  O1  UNL     1    -105.069  37.902  26.171  1.00  0.00    -0.386 OA
ATOM     10  H1  UNL     1    -104.398  37.240  26.293  1.00  0.00     0.210 HD
ENDBRANCH   6   9
BRANCH   6  11
HETATM   11  C7  UNL     1    -105.446  40.156  26.532  1.00  0.00     0.110 C 
BRANCH  11  12
HETATM   12  C8  UNL     1    -106.627  39.505  27.122  1.00  0.00     0.234 C 
HETATM   13  O2  UNL     1    -106.827  39.602  28.315  1.00  0.00    -0.307 OA
ENDBRANCH  11  12
ENDBRANCH   6  11
BRANCH   1  14
HETATM   14  C2  UNL     1    -102.963  40.307  22.804  1.00  0.00     0.194 C 
HETATM   15  C1  UNL     1    -102.025  39.891  21.953  1.00  0.00     0.038 C 
ENDBRANCH   1  14
TORSDOF 4
ENDMDL
MODEL 5
REMARK VINA RESULT: -4.410696455      1.526      2.717
REMARK  4 active torsions:
REMARK  status: ('A' for Active; 'I' for Inactive)
REMARK    1  A    between atoms: C2_2  and  N1_3 
REMARK    2  A    between atoms: C6_8  and  O1_9 
REMARK    3  A    between atoms: C6_8  and  C7_11 
REMARK    4  A    between atoms: C7_11  and  C8_12 
ROOT
HETATM    1  N1  UNL     1     -99.289  38.078  28.153  1.00  0.00    -0.017 N 
HETATM    2  C3  UNL     1     -99.005  36.688  27.776  1.00  0.00     0.275 C 
HETATM    3  C4  UNL     1    -100.274  35.901  28.106  1.00  0.00     0.303 C 
HETATM    4  N2  UNL     1    -101.236  37.017  28.205  1.00  0.00     0.119 N 
HETATM    5  C5  UNL     1    -101.545  37.405  26.871  1.00  0.00     0.314 C 
HETATM    6  C6  UNL     1    -100.847  38.608  26.342  1.00  0.00     0.115 C 
HETATM    7  C9  UNL     1     -99.515  38.837  26.964  1.00  0.00     0.285 C 
HETATM    8  C10 UNL     1    -100.456  37.932  28.975  1.00  0.00     0.513 C 
ENDROOT
BRANCH   6   9
HETATM    9  O1  UNL     1    -100.625  38.454  24.951  1.00  0.00    -0.386 OA
ATOM     10  H1  UNL     1    -101.431  38.177  24.530  1.00  0.00     0.210 HD
ENDBRANCH   6   9
BRANCH   6  11
HETATM   11  C7  UNL     1    -101.762  39.810  26.441  1.00  0.00     0.110 C 
BRANCH  11  12
HETATM   12  C8  UNL     1    -103.130  39.520  25.982  1.00  0.00     0.234 C 
HETATM   13  O2  UNL     1    -103.386  39.588  24.798  1.00  0.00    -0.307 OA
ENDBRANCH  11  12
ENDBRANCH   6  11
BRANCH   1  14
HETATM   14  C2  UNL     1     -98.235  38.601  28.929  1.00  0.00     0.194 C 
HETATM   15  C1  UNL     1     -98.334  39.838  29.418  1.00  0.00     0.038 C 
ENDBRANCH   1  14
TORSDOF 4
ENDMDL
