MODEL 1
REMARK VINA RESULT: -6.159180685      0.000      0.000
REMARK  4 active torsions:
REMARK  status: ('A' for Active; 'I' for Inactive)
REMARK    1  A    between atoms: N2_5  and  C4_6 
REMARK    2  A    between atoms: C4_6  and  C5_7 
REMARK    3  A    between atoms: C5_7  and  C6_8 
REMARK    4  A    between atoms: C6_8  and  N3_9 
ROOT
HETATM    1  C5  UNL     1    -102.928  39.473  26.132  1.00  0.00     0.011 C 
ENDROOT
BRANCH   1   2
HETATM    2  C4  UNL     1    -102.535  38.403  27.047  1.00  0.00     0.157 C 
BRANCH   2   3
HETATM    3  N2  UNL     1    -101.115  38.262  27.199  1.00  0.00    -0.348 N 
HETATM    4  C3  UNL     1    -100.214  38.911  26.443  1.00  0.00     0.109 A 
HETATM    5  C2  UNL     1     -98.964  38.554  26.843  1.00  0.00     0.108 A 
HETATM    6  N1  UNL     1     -99.118  37.688  27.842  1.00  0.00    -0.356 N 
HETATM    7  C1  UNL     1     -97.990  37.075  28.538  1.00  0.00     0.156 C 
HETATM    8  C9  UNL     1    -100.417  37.508  28.061  1.00  0.00     0.184 A 
ENDBRANCH   2   3
ENDBRANCH   1   2
BRANCH   1   9
HETATM    9  C6  UNL     1    -103.680  39.181  25.086  1.00  0.00     0.096 C 
BRANCH   9  10
HETATM   10  N3  UNL     1    -103.340  39.658  23.768  1.00  0.00    -0.312 N 
HETATM   11  C7  UNL     1    -102.168  39.512  23.134  1.00  0.00     0.205 A 
HETATM   12  N4  UNL     1    -102.269  40.092  21.949  1.00  0.00    -0.295 N 
HETATM   13  N5  UNL     1    -103.479  40.609  21.804  1.00  0.00    -0.295 N 
ATOM     14  H4  UNL     1    -101.526  40.135  21.252  1.00  0.00     0.187 HD
HETATM   15  C8  UNL     1    -104.140  40.339  22.932  1.00  0.00     0.205 A 
ATOM     16  H5  UNL     1    -103.836  41.113  20.992  1.00  0.00     0.187 HD
ENDBRANCH   9  10
ENDBRANCH   1   9
TORSDOF 4
ENDMDL
MODEL 2
REMARK VINA RESULT: -6.048634699      0.594      1.153
REMARK  4 active torsions:
REMARK  status: ('A' for Active; 'I' for Inactive)
REMARK    1  A    between atoms: N2_5  and  C4_6 
REMARK    2  A    between atoms: C4_6  and  C5_7 
REMARK    3  A    between atoms: C5_7  and  C6_8 
REMARK    4  A    between atoms: C6_8  and  N3_9 
ROOT
HETATM    1  C5  UNL     1    -102.943  39.470  26.099  1.00  0.00     0.011 C 
ENDROOT
BRANCH   1   2
HETATM    2  C4  UNL     1    -101.495  39.649  26.177  1.00  0.00     0.157 C 
BRANCH   2   3
HETATM    3  N2  UNL     1    -100.834  38.684  27.009  1.00  0.00    -0.348 N 
HETATM    4  C3  UNL     1    -101.481  37.788  27.771  1.00  0.00     0.109 A 
HETATM    5  C2  UNL     1    -100.566  37.027  28.431  1.00  0.00     0.108 A 
HETATM    6  N1  UNL     1     -99.367  37.472  28.061  1.00  0.00    -0.356 N 
HETATM    7  C1  UNL     1     -98.122  36.898  28.564  1.00  0.00     0.156 C 
HETATM    8  C9  UNL     1     -99.524  38.473  27.202  1.00  0.00     0.184 A 
ENDBRANCH   2   3
ENDBRANCH   1   2
BRANCH   1   9
HETATM    9  C6  UNL     1    -103.470  38.952  25.004  1.00  0.00     0.096 C 
BRANCH   9  10
HETATM   10  N3  UNL     1    -103.255  39.561  23.714  1.00  0.00    -0.312 N 
HETATM   11  C7  UNL     1    -102.148  39.488  22.962  1.00  0.00     0.205 A 
HETATM   12  N4  UNL     1    -102.359  40.183  21.856  1.00  0.00    -0.295 N 
HETATM   13  N5  UNL     1    -103.577  40.701  21.877  1.00  0.00    -0.295 N 
ATOM     14  H4  UNL     1    -101.685  40.301  21.100  1.00  0.00     0.187 HD
HETATM   15  C8  UNL     1    -104.129  40.314  23.029  1.00  0.00     0.205 A 
ATOM     16  H5  UNL     1    -104.008  41.280  21.156  1.00  0.00     0.187 HD
ENDBRANCH   9  10
ENDBRANCH   1   9
TORSDOF 4
ENDMDL
MODEL 3
REMARK VINA RESULT: -5.822657267      2.076      5.588
REMARK  4 active torsions:
REMARK  status: ('A' for Active; 'I' for Inactive)
REMARK    1  A    between atoms: N2_5  and  C4_6 
REMARK    2  A    between atoms: C4_6  and  C5_7 
REMARK    3  A    between atoms: C5_7  and  C6_8 
REMARK    4  A    between atoms: C6_8  and  N3_9 
ROOT
HETATM    1  C5  UNL     1     -99.046  39.170  27.727  1.00  0.00     0.011 C 
ENDROOT
BRANCH   1   2
HETATM    2  C4  UNL     1     -99.218  39.093  26.277  1.00  0.00     0.157 C 
BRANCH   2   3
HETATM    3  N2  UNL     1    -100.585  39.168  25.849  1.00  0.00    -0.348 N 
HETATM    4  C3  UNL     1    -100.960  39.309  24.567  1.00  0.00     0.109 A 
HETATM    5  C2  UNL     1    -102.319  39.346  24.507  1.00  0.00     0.108 A 
HETATM    6  N1  UNL     1    -102.758  39.228  25.759  1.00  0.00    -0.356 N 
HETATM    7  C1  UNL     1    -104.177  39.226  26.102  1.00  0.00     0.156 C 
HETATM    8  C9  UNL     1    -101.713  39.120  26.573  1.00  0.00     0.184 A 
ENDBRANCH   2   3
ENDBRANCH   1   2
BRANCH   1   9
HETATM    9  C6  UNL     1     -98.858  38.058  28.413  1.00  0.00     0.096 C 
BRANCH   9  10
HETATM   10  N3  UNL     1     -99.352  36.792  27.930  1.00  0.00    -0.312 N 
HETATM   11  C7  UNL     1     -98.824  36.037  26.957  1.00  0.00     0.205 A 
HETATM   12  N4  UNL     1     -99.578  34.958  26.821  1.00  0.00    -0.295 N 
HETATM   13  N5  UNL     1    -100.580  35.000  27.685  1.00  0.00    -0.295 N 
ATOM     14  H4  UNL     1     -99.412  34.207  26.152  1.00  0.00     0.187 HD
HETATM   15  C8  UNL     1    -100.438  36.137  28.371  1.00  0.00     0.205 A 
ATOM     16  H5  UNL     1    -101.314  34.302  27.804  1.00  0.00     0.187 HD
ENDBRANCH   9  10
ENDBRANCH   1   9
TORSDOF 4
ENDMDL
MODEL 4
REMARK VINA RESULT: -5.695795077      1.594      5.880
REMARK  4 active torsions:
REMARK  status: ('A' for Active; 'I' for Inactive)
REMARK    1  A    between atoms: N2_5  and  C4_6 
REMARK    2  A    between atoms: C4_6  and  C5_7 
REMARK    3  A    between atoms: C5_7  and  C6_8 
REMARK    4  A    between atoms: C6_8  and  N3_9 
ROOT
HETATM    1  C5  UNL     1     -99.068  39.256  26.963  1.00  0.00     0.011 C 
ENDROOT
BRANCH   1   2
HETATM    2  C4  UNL     1     -99.554  39.066  25.598  1.00  0.00     0.157 C 
BRANCH   2   3
HETATM    3  N2  UNL     1    -100.970  39.249  25.455  1.00  0.00    -0.348 N 
HETATM    4  C3  UNL     1    -101.838  39.191  26.478  1.00  0.00     0.109 A 
HETATM    5  C2  UNL     1    -103.095  39.405  26.003  1.00  0.00     0.108 A 
HETATM    6  N1  UNL     1    -102.978  39.591  24.690  1.00  0.00    -0.356 N 
HETATM    7  C1  UNL     1    -104.123  39.852  23.824  1.00  0.00     0.156 C 
HETATM    8  C9  UNL     1    -101.695  39.497  24.354  1.00  0.00     0.184 A 
ENDBRANCH   2   3
ENDBRANCH   1   2
BRANCH   1   9
HETATM    9  C6  UNL     1     -98.532  38.234  27.604  1.00  0.00     0.096 C 
BRANCH   9  10
HETATM   10  N3  UNL     1     -99.203  36.958  27.664  1.00  0.00    -0.312 N 
HETATM   11  C7  UNL     1    -100.040  36.530  28.620  1.00  0.00     0.205 A 
HETATM   12  N4  UNL     1    -100.435  35.309  28.300  1.00  0.00    -0.295 N 
HETATM   13  N5  UNL     1     -99.873  34.939  27.160  1.00  0.00    -0.295 N 
ATOM     14  H4  UNL     1    -101.077  34.737  28.849  1.00  0.00     0.187 HD
HETATM   15  C8  UNL     1     -99.110  35.962  26.769  1.00  0.00     0.205 A 
ATOM     16  H5  UNL     1     -99.998  34.049  26.677  1.00  0.00     0.187 HD
ENDBRANCH   9  10
ENDBRANCH   1   9
TORSDOF 4
ENDMDL
MODEL 5
REMARK VINA RESULT: -5.675662328      1.937      5.731
REMARK  4 active torsions:
REMARK  status: ('A' for Active; 'I' for Inactive)
REMARK    1  A    between atoms: N2_5  and  C4_6 
REMARK    2  A    between atoms: C4_6  and  C5_7 
REMARK    3  A    between atoms: C5_7  and  C6_8 
REMARK    4  A    between atoms: C6_8  and  N3_9 
ROOT
HETATM    1  C5  UNL     1     -99.309  39.297  27.004  1.00  0.00     0.011 C 
ENDROOT
BRANCH   1   2
HETATM    2  C4  UNL     1     -99.678  39.221  25.591  1.00  0.00     0.157 C 
BRANCH   2   3
HETATM    3  N2  UNL     1    -101.093  39.270  25.357  1.00  0.00    -0.348 N 
HETATM    4  C3  UNL     1    -101.644  39.417  24.141  1.00  0.00     0.109 A 
HETATM    5  C2  UNL     1    -102.999  39.426  24.269  1.00  0.00     0.108 A 
HETATM    6  N1  UNL     1    -103.258  39.285  25.567  1.00  0.00    -0.356 N 
HETATM    7  C1  UNL     1    -104.616  39.249  26.102  1.00  0.00     0.156 C 
HETATM    8  C9  UNL     1    -102.109  39.191  26.228  1.00  0.00     0.184 A 
ENDBRANCH   2   3
ENDBRANCH   1   2
BRANCH   1   9
HETATM    9  C6  UNL     1     -98.693  38.273  27.565  1.00  0.00     0.096 C 
BRANCH   9  10
HETATM   10  N3  UNL     1     -99.312  36.972  27.623  1.00  0.00    -0.312 N 
HETATM   11  C7  UNL     1    -100.185  36.534  28.542  1.00  0.00     0.205 A 
HETATM   12  N4  UNL     1    -100.510  35.288  28.236  1.00  0.00    -0.295 N 
HETATM   13  N5  UNL     1     -99.867  34.913  27.141  1.00  0.00    -0.295 N 
ATOM     14  H4  UNL     1    -101.158  34.704  28.764  1.00  0.00     0.187 HD
HETATM   15  C8  UNL     1     -99.126  35.958  26.764  1.00  0.00     0.205 A 
ATOM     16  H5  UNL     1     -99.927  34.006  26.677  1.00  0.00     0.187 HD
ENDBRANCH   9  10
ENDBRANCH   1   9
TORSDOF 4
ENDMDL
