MODEL 1
REMARK VINA RESULT: -7.097653393      0.000      0.000
REMARK  5 active torsions:
REMARK  status: ('A' for Active; 'I' for Inactive)
REMARK       I    between atoms: C1_2  and  N1_3 
REMARK    1  A    between atoms: C1_2  and  C7_17 
REMARK    2  A    between atoms: N1_3  and  N2_5 
REMARK       I    between atoms: N2_5  and  C2_7 
REMARK       I    between atoms: C2_7  and  N3_9 
REMARK    3  A    between atoms: N6_24  and  C12_26 
REMARK    4  A    between atoms: C12_26  and  C13_27 
REMARK    5  A    between atoms: C13_27  and  N7_28 
ROOT
HETATM    1  C7  UNL     1     -13.939  15.869  24.273  1.00  0.00     0.077 A 
HETATM    2  C8  UNL     1     -14.314  16.481  25.477  1.00  0.00     0.022 A 
HETATM    3  C9  UNL     1     -15.485  16.142  26.110  1.00  0.00     0.018 A 
HETATM    4  C10 UNL     1     -16.261  15.178  25.500  1.00  0.00     0.089 A 
HETATM    5  N5  UNL     1     -15.898  14.594  24.354  1.00  0.00    -0.352 N 
ATOM      6  H5  UNL     1     -16.518  13.888  23.958  1.00  0.00     0.166 HD
HETATM    7  C11 UNL     1     -14.750  14.886  23.687  1.00  0.00     0.116 A 
HETATM    8  N6  UNL     1     -14.251  14.172  22.637  1.00  0.00    -0.374 N 
ATOM      9  H6  UNL     1     -13.267  14.342  22.426  1.00  0.00     0.161 HD
ENDROOT
BRANCH   1  10
HETATM   10  C1  UNL     1     -12.867  16.446  23.522  1.00  0.00     0.273 C 
HETATM   11  O1  UNL     1     -13.051  17.201  22.555  1.00  0.00    -0.266 OA
HETATM   12  N1  UNL     1     -11.483  16.187  23.846  1.00  0.00    -0.262 N 
ATOM     13  H1  UNL     1     -11.263  15.544  24.607  1.00  0.00     0.190 HD
BRANCH  12  14
HETATM   14  N2  UNL     1     -10.454  16.785  23.157  1.00  0.00    -0.249 N 
HETATM   15  C2  UNL     1      -9.160  16.868  23.742  1.00  0.00     0.337 C 
HETATM   16  O2  UNL     1      -9.025  16.376  24.896  1.00  0.00    -0.245 OA
HETATM   17  N3  UNL     1      -8.044  17.460  23.105  1.00  0.00    -0.330 N 
HETATM   18  C3  UNL     1      -6.772  17.461  23.812  1.00  0.00     0.155 C 
HETATM   19  C6  UNL     1      -8.079  18.060  21.805  1.00  0.00     0.155 C 
HETATM   20  C4  UNL     1      -5.637  17.080  22.909  1.00  0.00     0.252 C 
HETATM   21  N4  UNL     1      -5.738  17.623  21.597  1.00  0.00    -0.072 N 
HETATM   22  C5  UNL     1      -6.996  17.381  20.958  1.00  0.00     0.252 C 
ATOM     23  H42 UNL     1      -5.528  18.621  21.607  1.00  0.00     0.277 HD
ATOM     24  H41 UNL     1      -4.970  17.289  21.013  1.00  0.00     0.277 HD
ATOM     25  H2  UNL     1     -10.619  17.169  22.228  1.00  0.00     0.192 HD
ENDBRANCH  12  14
ENDBRANCH   1  10
BRANCH   8  26
HETATM   26  C12 UNL     1     -14.917  13.191  21.763  1.00  0.00     0.151 C 
BRANCH  26  27
HETATM   27  C13 UNL     1     -15.750  13.928  20.754  1.00  0.00     0.292 C 
BRANCH  27  28
HETATM   28  N7  UNL     1     -15.885  13.080  19.577  1.00  0.00     0.094 N 
HETATM   29  C14 UNL     1     -16.210  13.900  18.409  1.00  0.00     0.298 C 
HETATM   30  C15 UNL     1     -16.358  12.936  17.250  1.00  0.00     0.198 C 
HETATM   31  O3  UNL     1     -15.147  12.341  16.955  1.00  0.00    -0.388 OA
HETATM   32  C16 UNL     1     -14.180  12.548  17.903  1.00  0.00     0.198 C 
HETATM   33  C17 UNL     1     -14.650  12.351  19.320  1.00  0.00     0.298 C 
ENDBRANCH  27  28
ENDBRANCH  26  27
ENDBRANCH   8  26
TORSDOF 5
ENDMDL
MODEL 2
REMARK VINA RESULT: -6.989504816      1.554      1.902
REMARK  5 active torsions:
REMARK  status: ('A' for Active; 'I' for Inactive)
REMARK       I    between atoms: C1_2  and  N1_3 
REMARK    1  A    between atoms: C1_2  and  C7_17 
REMARK    2  A    between atoms: N1_3  and  N2_5 
REMARK       I    between atoms: N2_5  and  C2_7 
REMARK       I    between atoms: C2_7  and  N3_9 
REMARK    3  A    between atoms: N6_24  and  C12_26 
REMARK    4  A    between atoms: C12_26  and  C13_27 
REMARK    5  A    between atoms: C13_27  and  N7_28 
ROOT
HETATM    1  C7  UNL     1     -12.154  16.043  24.939  1.00  0.00     0.077 A 
HETATM    2  C8  UNL     1     -11.996  16.457  26.269  1.00  0.00     0.022 A 
HETATM    3  C9  UNL     1     -13.058  16.467  27.140  1.00  0.00     0.018 A 
HETATM    4  C10 UNL     1     -14.273  16.053  26.637  1.00  0.00     0.089 A 
HETATM    5  N5  UNL     1     -14.420  15.655  25.370  1.00  0.00    -0.352 N 
ATOM      6  H5  UNL     1     -15.347  15.361  25.063  1.00  0.00     0.166 HD
HETATM    7  C11 UNL     1     -13.406  15.619  24.466  1.00  0.00     0.116 A 
HETATM    8  N6  UNL     1     -13.471  15.029  23.237  1.00  0.00    -0.374 N 
ATOM      9  H6  UNL     1     -12.569  14.846  22.797  1.00  0.00     0.161 HD
ENDROOT
BRANCH   1  10
HETATM   10  C1  UNL     1     -11.098  16.310  24.012  1.00  0.00     0.273 C 
HETATM   11  O1  UNL     1     -11.297  16.761  22.874  1.00  0.00    -0.266 OA
HETATM   12  N1  UNL     1      -9.712  16.072  24.346  1.00  0.00    -0.262 N 
ATOM     13  H1  UNL     1      -9.482  15.665  25.253  1.00  0.00     0.190 HD
BRANCH  12  14
HETATM   14  N2  UNL     1      -8.694  16.380  23.474  1.00  0.00    -0.249 N 
HETATM   15  C2  UNL     1      -8.084  17.663  23.519  1.00  0.00     0.337 C 
HETATM   16  O2  UNL     1      -8.524  18.473  24.379  1.00  0.00    -0.245 OA
HETATM   17  N3  UNL     1      -7.029  18.064  22.664  1.00  0.00    -0.330 N 
HETATM   18  C3  UNL     1      -6.484  19.403  22.830  1.00  0.00     0.155 C 
HETATM   19  C6  UNL     1      -6.456  17.238  21.645  1.00  0.00     0.155 C 
HETATM   20  C4  UNL     1      -4.985  19.400  22.787  1.00  0.00     0.252 C 
HETATM   21  N4  UNL     1      -4.439  18.510  21.821  1.00  0.00    -0.072 N 
HETATM   22  C5  UNL     1      -4.946  17.173  21.902  1.00  0.00     0.252 C 
ATOM     23  H42 UNL     1      -4.566  18.883  20.880  1.00  0.00     0.277 HD
ATOM     24  H41 UNL     1      -3.420  18.509  21.872  1.00  0.00     0.277 HD
ATOM     25  H2  UNL     1      -8.377  15.688  22.796  1.00  0.00     0.192 HD
ENDBRANCH  12  14
ENDBRANCH   1  10
BRANCH   8  26
HETATM   26  C12 UNL     1     -14.647  14.618  22.451  1.00  0.00     0.151 C 
BRANCH  26  27
HETATM   27  C13 UNL     1     -14.618  13.126  22.280  1.00  0.00     0.292 C 
BRANCH  27  28
HETATM   28  N7  UNL     1     -15.380  12.796  21.084  1.00  0.00     0.094 N 
HETATM   29  C14 UNL     1     -15.832  14.025  20.428  1.00  0.00     0.298 C 
HETATM   30  C15 UNL     1     -16.634  13.585  19.221  1.00  0.00     0.198 C 
HETATM   31  O3  UNL     1     -15.820  12.954  18.300  1.00  0.00    -0.388 OA
HETATM   32  C16 UNL     1     -14.573  12.647  18.777  1.00  0.00     0.198 C 
HETATM   33  C17 UNL     1     -14.571  12.026  20.149  1.00  0.00     0.298 C 
ENDBRANCH  27  28
ENDBRANCH  26  27
ENDBRANCH   8  26
TORSDOF 5
ENDMDL
MODEL 3
REMARK VINA RESULT: -6.937253603      6.628     12.843
REMARK  5 active torsions:
REMARK  status: ('A' for Active; 'I' for Inactive)
REMARK       I    between atoms: C1_2  and  N1_3 
REMARK    1  A    between atoms: C1_2  and  C7_17 
REMARK    2  A    between atoms: N1_3  and  N2_5 
REMARK       I    between atoms: N2_5  and  C2_7 
REMARK       I    between atoms: C2_7  and  N3_9 
REMARK    3  A    between atoms: N6_24  and  C12_26 
REMARK    4  A    between atoms: C12_26  and  C13_27 
REMARK    5  A    between atoms: C13_27  and  N7_28 
ROOT
HETATM    1  C7  UNL     1      -1.022  19.467  22.147  1.00  0.00     0.077 A 
HETATM    2  C8  UNL     1      -0.685  19.862  23.450  1.00  0.00     0.022 A 
HETATM    3  C9  UNL     1       0.619  19.845  23.881  1.00  0.00     0.018 A 
HETATM    4  C10 UNL     1       1.565  19.423  22.971  1.00  0.00     0.089 A 
HETATM    5  N5  UNL     1       1.242  19.052  21.729  1.00  0.00    -0.352 N 
ATOM      6  H5  UNL     1       1.992  18.751  21.107  1.00  0.00     0.166 HD
HETATM    7  C11 UNL     1      -0.029  19.052  21.246  1.00  0.00     0.116 A 
HETATM    8  N6  UNL     1      -0.370  18.881  19.936  1.00  0.00    -0.374 N 
ATOM      9  H6  UNL     1      -1.316  19.176  19.693  1.00  0.00     0.161 HD
ENDROOT
BRANCH   1  10
HETATM   10  C1  UNL     1      -2.400  19.240  21.840  1.00  0.00     0.273 C 
HETATM   11  O1  UNL     1      -3.180  20.153  21.527  1.00  0.00    -0.266 OA
HETATM   12  N1  UNL     1      -2.981  17.917  21.870  1.00  0.00    -0.262 N 
ATOM     13  H1  UNL     1      -2.403  17.127  22.158  1.00  0.00     0.190 HD
BRANCH  12  14
HETATM   14  N2  UNL     1      -4.293  17.694  21.522  1.00  0.00    -0.249 N 
HETATM   15  C2  UNL     1      -5.269  17.478  22.533  1.00  0.00     0.337 C 
HETATM   16  O2  UNL     1      -4.866  17.500  23.728  1.00  0.00    -0.245 OA
HETATM   17  N3  UNL     1      -6.640  17.246  22.268  1.00  0.00    -0.330 N 
HETATM   18  C3  UNL     1      -7.535  17.057  23.399  1.00  0.00     0.155 C 
HETATM   19  C6  UNL     1      -7.210  17.187  20.955  1.00  0.00     0.155 C 
HETATM   20  C4  UNL     1      -8.812  17.825  23.229  1.00  0.00     0.252 C 
HETATM   21  N4  UNL     1      -9.315  17.819  21.898  1.00  0.00    -0.072 N 
HETATM   22  C5  UNL     1      -8.356  18.205  20.907  1.00  0.00     0.252 C 
ATOM     23  H42 UNL     1      -9.715  16.908  21.672  1.00  0.00     0.277 HD
ATOM     24  H41 UNL     1     -10.152  18.398  21.830  1.00  0.00     0.277 HD
ATOM     25  H2  UNL     1      -4.565  17.684  20.540  1.00  0.00     0.192 HD
ENDBRANCH  12  14
ENDBRANCH   1  10
BRANCH   8  26
HETATM   26  C12 UNL     1       0.421  18.335  18.821  1.00  0.00     0.151 C 
BRANCH  26  27
HETATM   27  C13 UNL     1       1.098  19.469  18.105  1.00  0.00     0.292 C 
BRANCH  27  28
HETATM   28  N7  UNL     1       0.720  19.404  16.700  1.00  0.00     0.094 N 
HETATM   29  C14 UNL     1       0.647  18.007  16.270  1.00  0.00     0.298 C 
HETATM   30  C15 UNL     1       0.280  18.041  14.801  1.00  0.00     0.198 C 
HETATM   31  O3  UNL     1      -0.995  18.545  14.630  1.00  0.00    -0.388 OA
HETATM   32  C16 UNL     1      -1.520  19.122  15.757  1.00  0.00     0.198 C 
HETATM   33  C17 UNL     1      -0.572  20.040  16.481  1.00  0.00     0.298 C 
ENDBRANCH  27  28
ENDBRANCH  26  27
ENDBRANCH   8  26
TORSDOF 5
ENDMDL
MODEL 4
REMARK VINA RESULT: -6.926344254      1.032      1.397
REMARK  5 active torsions:
REMARK  status: ('A' for Active; 'I' for Inactive)
REMARK       I    between atoms: C1_2  and  N1_3 
REMARK    1  A    between atoms: C1_2  and  C7_17 
REMARK    2  A    between atoms: N1_3  and  N2_5 
REMARK       I    between atoms: N2_5  and  C2_7 
REMARK       I    between atoms: C2_7  and  N3_9 
REMARK    3  A    between atoms: N6_24  and  C12_26 
REMARK    4  A    between atoms: C12_26  and  C13_27 
REMARK    5  A    between atoms: C13_27  and  N7_28 
ROOT
HETATM    1  C7  UNL     1     -14.443  15.205  23.748  1.00  0.00     0.077 A 
HETATM    2  C8  UNL     1     -15.043  15.673  24.926  1.00  0.00     0.022 A 
HETATM    3  C9  UNL     1     -16.191  15.098  25.413  1.00  0.00     0.018 A 
HETATM    4  C10 UNL     1     -16.714  14.049  24.686  1.00  0.00     0.089 A 
HETATM    5  N5  UNL     1     -16.137  13.604  23.566  1.00  0.00    -0.352 N 
ATOM      6  H5  UNL     1     -16.576  12.823  23.078  1.00  0.00     0.166 HD
HETATM    7  C11 UNL     1     -14.999  14.129  23.040  1.00  0.00     0.116 A 
HETATM    8  N6  UNL     1     -14.274  13.574  22.027  1.00  0.00    -0.374 N 
ATOM      9  H6  UNL     1     -13.322  13.926  21.932  1.00  0.00     0.161 HD
ENDROOT
BRANCH   1  10
HETATM   10  C1  UNL     1     -13.421  16.002  23.143  1.00  0.00     0.273 C 
HETATM   11  O1  UNL     1     -13.669  16.949  22.380  1.00  0.00    -0.266 OA
HETATM   12  N1  UNL     1     -12.018  15.756  23.384  1.00  0.00    -0.262 N 
ATOM     13  H1  UNL     1     -11.745  14.968  23.971  1.00  0.00     0.190 HD
BRANCH  12  14
HETATM   14  N2  UNL     1     -11.039  16.557  22.843  1.00  0.00    -0.249 N 
HETATM   15  C2  UNL     1      -9.816  16.754  23.541  1.00  0.00     0.337 C 
HETATM   16  O2  UNL     1      -9.693  16.168  24.651  1.00  0.00    -0.245 OA
HETATM   17  N3  UNL     1      -8.754  17.556  23.059  1.00  0.00    -0.330 N 
HETATM   18  C3  UNL     1      -7.549  17.657  23.868  1.00  0.00     0.155 C 
HETATM   19  C6  UNL     1      -8.783  18.277  21.821  1.00  0.00     0.155 C 
HETATM   20  C4  UNL     1      -6.310  17.530  23.033  1.00  0.00     0.252 C 
HETATM   21  N4  UNL     1      -6.394  18.187  21.774  1.00  0.00    -0.072 N 
HETATM   22  C5  UNL     1      -7.556  17.844  21.010  1.00  0.00     0.252 C 
ATOM     23  H42 UNL     1      -6.331  19.198  21.894  1.00  0.00     0.277 HD
ATOM     24  H41 UNL     1      -5.547  18.024  21.229  1.00  0.00     0.277 HD
ATOM     25  H2  UNL     1     -11.191  17.010  21.942  1.00  0.00     0.192 HD
ENDBRANCH  12  14
ENDBRANCH   1  10
BRANCH   8  26
HETATM   26  C12 UNL     1     -14.660  12.542  21.049  1.00  0.00     0.151 C 
BRANCH  26  27
HETATM   27  C13 UNL     1     -15.680  13.120  20.111  1.00  0.00     0.292 C 
BRANCH  27  28
HETATM   28  N7  UNL     1     -14.968  13.765  19.015  1.00  0.00     0.094 N 
HETATM   29  C14 UNL     1     -14.558  12.762  18.031  1.00  0.00     0.298 C 
HETATM   30  C15 UNL     1     -13.807  13.517  16.954  1.00  0.00     0.198 C 
HETATM   31  O3  UNL     1     -14.655  14.371  16.277  1.00  0.00    -0.388 OA
HETATM   32  C16 UNL     1     -15.877  14.532  16.876  1.00  0.00     0.198 C 
HETATM   33  C17 UNL     1     -15.812  14.758  18.363  1.00  0.00     0.298 C 
ENDBRANCH  27  28
ENDBRANCH  26  27
ENDBRANCH   8  26
TORSDOF 5
ENDMDL
MODEL 5
REMARK VINA RESULT: -6.844488165      6.604     12.612
REMARK  5 active torsions:
REMARK  status: ('A' for Active; 'I' for Inactive)
REMARK       I    between atoms: C1_2  and  N1_3 
REMARK    1  A    between atoms: C1_2  and  C7_17 
REMARK    2  A    between atoms: N1_3  and  N2_5 
REMARK       I    between atoms: N2_5  and  C2_7 
REMARK       I    between atoms: C2_7  and  N3_9 
REMARK    3  A    between atoms: N6_24  and  C12_26 
REMARK    4  A    between atoms: C12_26  and  C13_27 
REMARK    5  A    between atoms: C13_27  and  N7_28 
ROOT
HETATM    1  C7  UNL     1      -1.074  19.412  22.088  1.00  0.00     0.077 A 
HETATM    2  C8  UNL     1      -0.703  19.877  23.358  1.00  0.00     0.022 A 
HETATM    3  C9  UNL     1       0.609  19.865  23.763  1.00  0.00     0.018 A 
HETATM    4  C10 UNL     1       1.529  19.375  22.860  1.00  0.00     0.089 A 
HETATM    5  N5  UNL     1       1.174  18.937  21.650  1.00  0.00    -0.352 N 
ATOM      6  H5  UNL     1       1.906  18.588  21.031  1.00  0.00     0.166 HD
HETATM    7  C11 UNL     1      -0.107  18.929  21.193  1.00  0.00     0.116 A 
HETATM    8  N6  UNL     1      -0.479  18.688  19.903  1.00  0.00    -0.374 N 
ATOM      9  H6  UNL     1      -1.425  18.983  19.662  1.00  0.00     0.161 HD
ENDROOT
BRANCH   1  10
HETATM   10  C1  UNL     1      -2.461  19.190  21.823  1.00  0.00     0.273 C 
HETATM   11  O1  UNL     1      -3.264  20.113  21.613  1.00  0.00    -0.266 OA
HETATM   12  N1  UNL     1      -3.027  17.861  21.779  1.00  0.00    -0.262 N 
ATOM     13  H1  UNL     1      -2.429  17.060  21.982  1.00  0.00     0.190 HD
BRANCH  12  14
HETATM   14  N2  UNL     1      -4.350  17.647  21.471  1.00  0.00    -0.249 N 
HETATM   15  C2  UNL     1      -5.297  17.439  22.511  1.00  0.00     0.337 C 
HETATM   16  O2  UNL     1      -4.859  17.461  23.693  1.00  0.00    -0.245 OA
HETATM   17  N3  UNL     1      -6.677  17.216  22.287  1.00  0.00    -0.330 N 
HETATM   18  C3  UNL     1      -7.539  17.035  23.445  1.00  0.00     0.155 C 
HETATM   19  C6  UNL     1      -7.287  17.159  20.992  1.00  0.00     0.155 C 
HETATM   20  C4  UNL     1      -8.815  17.813  23.312  1.00  0.00     0.252 C 
HETATM   21  N4  UNL     1      -9.358  17.808  21.997  1.00  0.00    -0.072 N 
HETATM   22  C5  UNL     1      -8.426  18.185  20.977  1.00  0.00     0.252 C 
ATOM     23  H42 UNL     1      -9.771  16.900  21.785  1.00  0.00     0.277 HD
ATOM     24  H41 UNL     1     -10.192  18.393  21.953  1.00  0.00     0.277 HD
ATOM     25  H2  UNL     1      -4.651  17.637  20.497  1.00  0.00     0.192 HD
ENDBRANCH  12  14
ENDBRANCH   1  10
BRANCH   8  26
HETATM   26  C12 UNL     1       0.281  18.064  18.806  1.00  0.00     0.151 C 
BRANCH  26  27
HETATM   27  C13 UNL     1       0.390  19.045  17.673  1.00  0.00     0.292 C 
BRANCH  27  28
HETATM   28  N7  UNL     1      -0.885  19.738  17.554  1.00  0.00     0.094 N 
HETATM   29  C14 UNL     1      -0.670  21.185  17.600  1.00  0.00     0.298 C 
HETATM   30  C15 UNL     1      -2.043  21.815  17.500  1.00  0.00     0.198 C 
HETATM   31  O3  UNL     1      -2.604  21.566  16.262  1.00  0.00    -0.388 OA
HETATM   32  C16 UNL     1      -1.932  20.624  15.527  1.00  0.00     0.198 C 
HETATM   33  C17 UNL     1      -1.548  19.393  16.303  1.00  0.00     0.298 C 
ENDBRANCH  27  28
ENDBRANCH  26  27
ENDBRANCH   8  26
TORSDOF 5
ENDMDL
