MODEL 1
REMARK VINA RESULT: -6.234375268      0.000      0.000
REMARK  6 active torsions:
REMARK  status: ('A' for Active; 'I' for Inactive)
REMARK       I    between atoms: C1_2  and  N1_3 
REMARK       I    between atoms: C1_2  and  N6_24 
REMARK    1  A    between atoms: N1_3  and  C2_5 
REMARK    2  A    between atoms: C2_5  and  C3_6 
REMARK    3  A    between atoms: C3_6  and  O2_7 
REMARK    4  A    between atoms: C3_6  and  C4_9 
REMARK    5  A    between atoms: C4_9  and  N2_10 
REMARK    6  A    between atoms: N3_13  and  C7_14 
ROOT
HETATM    1  C4  UNL     1      -7.107  18.533  21.911  1.00  0.00     0.091 C 
ENDROOT
BRANCH   1   2
HETATM    2  C3  UNL     1      -6.305  17.370  21.386  1.00  0.00     0.174 C 
BRANCH   2   3
HETATM    3  C2  UNL     1      -5.334  16.977  22.477  1.00  0.00     0.161 C 
BRANCH   3   4
HETATM    4  N1  UNL     1      -4.473  18.033  22.914  1.00  0.00    -0.340 N 
HETATM    5  C1  UNL     1      -4.305  18.469  24.245  1.00  0.00     0.328 C 
HETATM    6  O1  UNL     1      -4.971  17.876  25.140  1.00  0.00    -0.246 OA
HETATM    7  N6  UNL     1      -3.419  19.534  24.553  1.00  0.00    -0.274 N 
HETATM    8  C13 UNL     1      -3.286  19.937  25.918  1.00  0.00     0.141 C 
HETATM    9  S1  UNL     1      -2.537  20.298  23.234  1.00  0.00    -0.049 SA
HETATM   10  C14 UNL     1      -1.936  20.511  26.259  1.00  0.00     0.022 C 
HETATM   11  C15 UNL     1      -1.519  21.619  25.330  1.00  0.00     0.013 C 
HETATM   12  C16 UNL     1      -1.054  21.063  23.999  1.00  0.00     0.098 C 
ATOM     13  H1  UNL     1      -3.932  18.516  22.197  1.00  0.00     0.164 HD
ENDBRANCH   3   4
ENDBRANCH   2   3
BRANCH   2  14
HETATM   14  O2  UNL     1      -7.090  16.254  21.135  1.00  0.00    -0.389 OA
ATOM     15  H2  UNL     1      -7.817  16.292  21.744  1.00  0.00     0.210 HD
ENDBRANCH   2  14
ENDBRANCH   1   2
BRANCH   1  16
HETATM   16  N2  UNL     1      -8.291  18.192  22.591  1.00  0.00    -0.387 N 
HETATM   17  C5  UNL     1      -9.497  18.771  22.076  1.00  0.00     0.152 C 
HETATM   18  C6  UNL     1     -10.587  17.700  22.248  1.00  0.00     0.294 C 
HETATM   19  N3  UNL     1     -10.426  17.148  23.542  1.00  0.00     0.114 N 
HETATM   20  C11 UNL     1      -9.688  17.913  24.489  1.00  0.00     0.294 C 
HETATM   21  C12 UNL     1      -8.242  18.114  24.009  1.00  0.00     0.152 C 
BRANCH  19  22
HETATM   22  C7  UNL     1     -11.624  16.615  24.062  1.00  0.00     0.324 C 
HETATM   23  C8  UNL     1     -11.596  16.208  25.514  1.00  0.00     0.077 C 
HETATM   24  C9  UNL     1     -13.003  15.801  25.976  1.00  0.00     0.124 C 
HETATM   25  N4  UNL     1     -13.847  15.492  24.821  1.00  0.00    -0.386 N 
HETATM   26  C10 UNL     1     -13.249  14.981  23.639  1.00  0.00     0.172 C 
ATOM     27  H4  UNL     1     -14.855  15.641  24.864  1.00  0.00     0.160 HD
HETATM   28  N5  UNL     1     -12.148  15.517  23.238  1.00  0.00    -0.357 N 
ATOM     29  H5  UNL     1     -11.668  15.197  22.396  1.00  0.00     0.162 HD
ENDBRANCH  19  22
ENDBRANCH   1  16
TORSDOF 6
ENDMDL
MODEL 2
REMARK VINA RESULT: -6.096956320      1.423      1.709
REMARK  6 active torsions:
REMARK  status: ('A' for Active; 'I' for Inactive)
REMARK       I    between atoms: C1_2  and  N1_3 
REMARK       I    between atoms: C1_2  and  N6_24 
REMARK    1  A    between atoms: N1_3  and  C2_5 
REMARK    2  A    between atoms: C2_5  and  C3_6 
REMARK    3  A    between atoms: C3_6  and  O2_7 
REMARK    4  A    between atoms: C3_6  and  C4_9 
REMARK    5  A    between atoms: C4_9  and  N2_10 
REMARK    6  A    between atoms: N3_13  and  C7_14 
ROOT
HETATM    1  C4  UNL     1      -7.097  18.560  21.857  1.00  0.00     0.091 C 
ENDROOT
BRANCH   1   2
HETATM    2  C3  UNL     1      -6.303  17.404  21.306  1.00  0.00     0.174 C 
BRANCH   2   3
HETATM    3  C2  UNL     1      -5.182  17.134  22.284  1.00  0.00     0.161 C 
BRANCH   3   4
HETATM    4  N1  UNL     1      -3.980  17.866  22.025  1.00  0.00    -0.340 N 
HETATM    5  C1  UNL     1      -3.537  19.009  22.724  1.00  0.00     0.328 C 
HETATM    6  O1  UNL     1      -4.263  19.429  23.669  1.00  0.00    -0.246 OA
HETATM    7  N6  UNL     1      -2.322  19.650  22.370  1.00  0.00    -0.274 N 
HETATM    8  C13 UNL     1      -1.920  20.805  23.111  1.00  0.00     0.141 C 
HETATM    9  S1  UNL     1      -1.383  18.988  21.036  1.00  0.00    -0.049 SA
HETATM   10  C14 UNL     1      -0.429  21.000  23.180  1.00  0.00     0.022 C 
HETATM   11  C15 UNL     1       0.229  20.975  21.827  1.00  0.00     0.013 C 
HETATM   12  C16 UNL     1       0.342  19.556  21.307  1.00  0.00     0.098 C 
ATOM     13  H1  UNL     1      -3.389  17.531  21.264  1.00  0.00     0.164 HD
ENDBRANCH   3   4
ENDBRANCH   2   3
BRANCH   2  14
HETATM   14  O2  UNL     1      -7.049  16.237  21.228  1.00  0.00    -0.389 OA
ATOM     15  H2  UNL     1      -7.328  16.154  20.325  1.00  0.00     0.210 HD
ENDBRANCH   2  14
ENDBRANCH   1   2
BRANCH   1  16
HETATM   16  N2  UNL     1      -8.270  18.211  22.553  1.00  0.00    -0.387 N 
HETATM   17  C5  UNL     1      -9.484  18.797  22.065  1.00  0.00     0.152 C 
HETATM   18  C6  UNL     1     -10.571  17.724  22.242  1.00  0.00     0.294 C 
HETATM   19  N3  UNL     1     -10.389  17.156  23.526  1.00  0.00     0.114 N 
HETATM   20  C11 UNL     1      -9.635  17.908  24.470  1.00  0.00     0.294 C 
HETATM   21  C12 UNL     1      -8.197  18.115  23.968  1.00  0.00     0.152 C 
BRANCH  19  22
HETATM   22  C7  UNL     1     -11.578  16.617  24.059  1.00  0.00     0.324 C 
HETATM   23  C8  UNL     1     -11.527  16.197  25.508  1.00  0.00     0.077 C 
HETATM   24  C9  UNL     1     -12.927  15.784  25.987  1.00  0.00     0.124 C 
HETATM   25  N4  UNL     1     -13.788  15.483  24.842  1.00  0.00    -0.386 N 
HETATM   26  C10 UNL     1     -13.207  14.985  23.647  1.00  0.00     0.172 C 
ATOM     27  H4  UNL     1     -14.795  15.631  24.902  1.00  0.00     0.160 HD
HETATM   28  N5  UNL     1     -12.113  15.525  23.234  1.00  0.00    -0.357 N 
ATOM     29  H5  UNL     1     -11.646  15.214  22.382  1.00  0.00     0.162 HD
ENDBRANCH  19  22
ENDBRANCH   1  16
TORSDOF 6
ENDMDL
MODEL 3
REMARK VINA RESULT: -6.069004144      4.908     10.060
REMARK  6 active torsions:
REMARK  status: ('A' for Active; 'I' for Inactive)
REMARK       I    between atoms: C1_2  and  N1_3 
REMARK       I    between atoms: C1_2  and  N6_24 
REMARK    1  A    between atoms: N1_3  and  C2_5 
REMARK    2  A    between atoms: C2_5  and  C3_6 
REMARK    3  A    between atoms: C3_6  and  O2_7 
REMARK    4  A    between atoms: C3_6  and  C4_9 
REMARK    5  A    between atoms: C4_9  and  N2_10 
REMARK    6  A    between atoms: N3_13  and  C7_14 
ROOT
HETATM    1  C4  UNL     1     -12.491  15.342  24.469  1.00  0.00     0.091 C 
ENDROOT
BRANCH   1   2
HETATM    2  C3  UNL     1     -13.452  16.021  25.411  1.00  0.00     0.174 C 
BRANCH   2   3
HETATM    3  C2  UNL     1     -14.817  15.965  24.761  1.00  0.00     0.161 C 
BRANCH   3   4
HETATM    4  N1  UNL     1     -14.917  15.044  23.670  1.00  0.00    -0.340 N 
HETATM    5  C1  UNL     1     -15.514  15.303  22.418  1.00  0.00     0.328 C 
HETATM    6  O1  UNL     1     -16.007  16.452  22.236  1.00  0.00    -0.246 OA
HETATM    7  N6  UNL     1     -15.553  14.303  21.413  1.00  0.00    -0.274 N 
HETATM    8  C13 UNL     1     -16.171  14.618  20.162  1.00  0.00     0.141 C 
HETATM    9  S1  UNL     1     -14.840  12.732  21.765  1.00  0.00    -0.049 SA
HETATM   10  C14 UNL     1     -15.602  13.862  18.991  1.00  0.00     0.022 C 
HETATM   11  C15 UNL     1     -15.569  12.374  19.213  1.00  0.00     0.013 C 
HETATM   12  C16 UNL     1     -14.431  11.991  20.137  1.00  0.00     0.098 C 
ATOM     13  H1  UNL     1     -14.520  14.115  23.811  1.00  0.00     0.164 HD
ENDBRANCH   3   4
ENDBRANCH   2   3
BRANCH   2  14
HETATM   14  O2  UNL     1     -13.564  15.358  26.624  1.00  0.00    -0.389 OA
ATOM     15  H2  UNL     1     -13.258  14.471  26.477  1.00  0.00     0.210 HD
ENDBRANCH   2  14
ENDBRANCH   1   2
BRANCH   1  16
HETATM   16  N2  UNL     1     -11.457  16.157  23.969  1.00  0.00    -0.387 N 
HETATM   17  C5  UNL     1     -10.610  16.766  24.952  1.00  0.00     0.152 C 
HETATM   18  C6  UNL     1      -9.198  16.778  24.344  1.00  0.00     0.294 C 
HETATM   19  N3  UNL     1      -9.330  17.197  22.998  1.00  0.00     0.114 N 
HETATM   20  C11 UNL     1     -10.522  17.889  22.645  1.00  0.00     0.294 C 
HETATM   21  C12 UNL     1     -11.750  16.990  22.856  1.00  0.00     0.152 C 
BRANCH  19  22
HETATM   22  C7  UNL     1      -8.159  17.802  22.497  1.00  0.00     0.324 C 
HETATM   23  C8  UNL     1      -8.360  18.897  21.477  1.00  0.00     0.077 C 
HETATM   24  C9  UNL     1      -7.016  19.565  21.148  1.00  0.00     0.124 C 
HETATM   25  N4  UNL     1      -5.907  18.695  21.542  1.00  0.00    -0.386 N 
HETATM   26  C10 UNL     1      -6.088  17.287  21.529  1.00  0.00     0.172 C 
ATOM     27  H4  UNL     1      -5.012  19.096  21.822  1.00  0.00     0.160 HD
HETATM   28  N5  UNL     1      -7.192  16.815  21.996  1.00  0.00    -0.357 N 
ATOM     29  H5  UNL     1      -7.384  15.813  22.016  1.00  0.00     0.162 HD
ENDBRANCH  19  22
ENDBRANCH   1  16
TORSDOF 6
ENDMDL
MODEL 4
REMARK VINA RESULT: -6.003920160      3.463      9.507
REMARK  6 active torsions:
REMARK  status: ('A' for Active; 'I' for Inactive)
REMARK       I    between atoms: C1_2  and  N1_3 
REMARK       I    between atoms: C1_2  and  N6_24 
REMARK    1  A    between atoms: N1_3  and  C2_5 
REMARK    2  A    between atoms: C2_5  and  C3_6 
REMARK    3  A    between atoms: C3_6  and  O2_7 
REMARK    4  A    between atoms: C3_6  and  C4_9 
REMARK    5  A    between atoms: C4_9  and  N2_10 
REMARK    6  A    between atoms: N3_13  and  C7_14 
ROOT
HETATM    1  C4  UNL     1      -8.481  17.569  22.813  1.00  0.00     0.091 C 
ENDROOT
BRANCH   1   2
HETATM    2  C3  UNL     1      -8.878  17.557  24.267  1.00  0.00     0.174 C 
BRANCH   2   3
HETATM    3  C2  UNL     1     -10.261  18.164  24.350  1.00  0.00     0.161 C 
BRANCH   3   4
HETATM    4  N1  UNL     1     -11.330  17.214  24.303  1.00  0.00    -0.340 N 
HETATM    5  C1  UNL     1     -12.421  17.147  25.194  1.00  0.00     0.328 C 
HETATM    6  O1  UNL     1     -12.466  18.003  26.123  1.00  0.00    -0.246 OA
HETATM    7  N6  UNL     1     -13.420  16.152  25.043  1.00  0.00    -0.274 N 
HETATM    8  C13 UNL     1     -14.505  16.128  25.975  1.00  0.00     0.141 C 
HETATM    9  S1  UNL     1     -13.266  15.003  23.718  1.00  0.00    -0.049 SA
HETATM   10  C14 UNL     1     -15.789  15.583  25.408  1.00  0.00     0.022 C 
HETATM   11  C15 UNL     1     -15.616  14.240  24.752  1.00  0.00     0.013 C 
HETATM   12  C16 UNL     1     -14.963  14.383  23.392  1.00  0.00     0.098 C 
ATOM     13  H1  UNL     1     -11.299  16.521  23.555  1.00  0.00     0.164 HD
ENDBRANCH   3   4
ENDBRANCH   2   3
BRANCH   2  14
HETATM   14  O2  UNL     1      -8.979  16.272  24.779  1.00  0.00    -0.389 OA
ATOM     15  H2  UNL     1      -8.092  15.977  24.948  1.00  0.00     0.210 HD
ENDBRANCH   2  14
ENDBRANCH   1   2
BRANCH   1  16
HETATM   16  N2  UNL     1      -7.126  17.854  22.559  1.00  0.00    -0.387 N 
HETATM   17  C5  UNL     1      -6.870  18.763  21.479  1.00  0.00     0.152 C 
HETATM   18  C6  UNL     1      -5.658  19.603  21.913  1.00  0.00     0.294 C 
HETATM   19  N3  UNL     1      -4.715  18.710  22.478  1.00  0.00     0.114 N 
HETATM   20  C11 UNL     1      -4.848  17.331  22.153  1.00  0.00     0.294 C 
HETATM   21  C12 UNL     1      -6.195  16.786  22.654  1.00  0.00     0.152 C 
BRANCH  19  22
HETATM   22  C7  UNL     1      -3.390  19.183  22.386  1.00  0.00     0.324 C 
HETATM   23  C8  UNL     1      -3.227  20.671  22.194  1.00  0.00     0.077 C 
HETATM   24  C9  UNL     1      -1.742  21.054  22.274  1.00  0.00     0.124 C 
HETATM   25  N4  UNL     1      -0.901  19.875  22.061  1.00  0.00    -0.386 N 
HETATM   26  C10 UNL     1      -1.379  18.819  21.242  1.00  0.00     0.172 C 
ATOM     27  H4  UNL     1       0.020  19.813  22.496  1.00  0.00     0.160 HD
HETATM   28  N5  UNL     1      -2.607  18.453  21.380  1.00  0.00    -0.357 N 
ATOM     29  H5  UNL     1      -3.011  17.700  20.823  1.00  0.00     0.162 HD
ENDBRANCH  19  22
ENDBRANCH   1  16
TORSDOF 6
ENDMDL
MODEL 5
REMARK VINA RESULT: -5.999278679      4.584      7.399
REMARK  6 active torsions:
REMARK  status: ('A' for Active; 'I' for Inactive)
REMARK       I    between atoms: C1_2  and  N1_3 
REMARK       I    between atoms: C1_2  and  N6_24 
REMARK    1  A    between atoms: N1_3  and  C2_5 
REMARK    2  A    between atoms: C2_5  and  C3_6 
REMARK    3  A    between atoms: C3_6  and  O2_7 
REMARK    4  A    between atoms: C3_6  and  C4_9 
REMARK    5  A    between atoms: C4_9  and  N2_10 
REMARK    6  A    between atoms: N3_13  and  C7_14 
ROOT
HETATM    1  C4  UNL     1     -14.570  15.143  23.647  1.00  0.00     0.091 C 
ENDROOT
BRANCH   1   2
HETATM    2  C3  UNL     1     -13.608  16.283  23.433  1.00  0.00     0.174 C 
BRANCH   2   3
HETATM    3  C2  UNL     1     -12.228  15.762  23.771  1.00  0.00     0.161 C 
BRANCH   3   4
HETATM    4  N1  UNL     1     -11.153  16.547  23.246  1.00  0.00    -0.340 N 
HETATM    5  C1  UNL     1      -9.878  16.703  23.829  1.00  0.00     0.328 C 
HETATM    6  O1  UNL     1      -9.657  16.095  24.914  1.00  0.00    -0.246 OA
HETATM    7  N6  UNL     1      -8.892  17.513  23.209  1.00  0.00    -0.274 N 
HETATM    8  C13 UNL     1      -7.616  17.638  23.843  1.00  0.00     0.141 C 
HETATM    9  S1  UNL     1      -9.298  18.319  21.698  1.00  0.00    -0.049 SA
HETATM   10  C14 UNL     1      -6.478  17.883  22.887  1.00  0.00     0.022 C 
HETATM   11  C15 UNL     1      -6.731  19.039  21.959  1.00  0.00     0.013 C 
HETATM   12  C16 UNL     1      -7.699  18.649  20.859  1.00  0.00     0.098 C 
ATOM     13  H1  UNL     1     -11.325  17.038  22.369  1.00  0.00     0.164 HD
ENDBRANCH   3   4
ENDBRANCH   2   3
BRANCH   2  14
HETATM   14  O2  UNL     1     -13.560  16.697  22.110  1.00  0.00    -0.389 OA
ATOM     15  H2  UNL     1     -13.518  15.909  21.582  1.00  0.00     0.210 HD
ENDBRANCH   2  14
ENDBRANCH   1   2
BRANCH   1  16
HETATM   16  N2  UNL     1     -14.851  14.368  22.505  1.00  0.00    -0.387 N 
HETATM   17  C5  UNL     1     -16.211  14.392  22.052  1.00  0.00     0.152 C 
HETATM   18  C6  UNL     1     -16.146  14.342  20.517  1.00  0.00     0.294 C 
HETATM   19  N3  UNL     1     -15.181  13.363  20.175  1.00  0.00     0.114 N 
HETATM   20  C11 UNL     1     -14.843  12.405  21.172  1.00  0.00     0.294 C 
HETATM   21  C12 UNL     1     -14.224  13.098  22.396  1.00  0.00     0.152 C 
BRANCH  19  22
HETATM   22  C7  UNL     1     -15.406  12.795  18.904  1.00  0.00     0.324 C 
HETATM   23  C8  UNL     1     -14.347  13.056  17.861  1.00  0.00     0.077 C 
HETATM   24  C9  UNL     1     -14.647  12.248  16.590  1.00  0.00     0.124 C 
HETATM   25  N4  UNL     1     -16.050  11.832  16.572  1.00  0.00    -0.386 N 
HETATM   26  C10 UNL     1     -17.023  12.639  17.216  1.00  0.00     0.172 C 
ATOM     27  H4  UNL     1     -16.326  10.970  16.100  1.00  0.00     0.160 HD
HETATM   28  N5  UNL     1     -16.735  13.130  18.372  1.00  0.00    -0.357 N 
ATOM     29  H5  UNL     1     -17.390  13.717  18.887  1.00  0.00     0.162 HD
ENDBRANCH  19  22
ENDBRANCH   1  16
TORSDOF 6
ENDMDL
