MODEL 1
REMARK VINA RESULT: -7.156592825      0.000      0.000
REMARK  7 active torsions:
REMARK  status: ('A' for Active; 'I' for Inactive)
REMARK    1  A    between atoms: C2_2  and  N1_3 
REMARK    2  A    between atoms: C5_8  and  N3_9 
REMARK    3  A    between atoms: N3_9  and  C6_11 
REMARK    4  A    between atoms: C6_11  and  C7_12 
REMARK    5  A    between atoms: C7_12  and  N4_13 
REMARK    6  A    between atoms: C12_25  and  N8_26 
REMARK    7  A    between atoms: N8_26  and  C13_28 
ROOT
HETATM    1  N1  UNL     1     -14.956  16.764  26.170  1.00  0.00    -0.276 N 
HETATM    2  N2  UNL     1     -13.993  17.638  26.391  1.00  0.00    -0.307 N 
ATOM      3  H2  UNL     1     -14.021  18.361  27.109  1.00  0.00     0.186 HD
HETATM    4  C3  UNL     1     -12.973  17.445  25.544  1.00  0.00     0.126 A 
HETATM    5  C4  UNL     1     -13.314  16.389  24.744  1.00  0.00     0.071 A 
HETATM    6  C5  UNL     1     -12.680  15.720  23.687  1.00  0.00     0.132 A 
HETATM    7  N7  UNL     1     -13.330  14.707  23.128  1.00  0.00    -0.176 N 
ATOM      8  H7  UNL     1     -12.873  14.218  22.358  1.00  0.00     0.186 HD
HETATM    9  C12 UNL     1     -14.565  14.274  23.511  1.00  0.00     0.686 A 
HETATM   10  N10 UNL     1     -15.151  14.928  24.524  1.00  0.00    -0.174 N 
ATOM     11  H10 UNL     1     -16.075  14.631  24.836  1.00  0.00     0.186 HD
HETATM   12  C18 UNL     1     -14.555  15.968  25.142  1.00  0.00     0.153 A 
ENDROOT
BRANCH   6  13
HETATM   13  N3  UNL     1     -11.534  16.154  23.368  1.00  0.00    -0.373 N 
ATOM     14  H3  UNL     1     -10.720  15.707  23.792  1.00  0.00     0.161 HD
BRANCH  13  15
HETATM   15  C6  UNL     1     -11.309  17.220  22.460  1.00  0.00     0.141 C 
BRANCH  15  16
HETATM   16  C7  UNL     1     -10.512  18.366  23.096  1.00  0.00     0.142 C 
BRANCH  16  17
HETATM   17  N4  UNL     1      -9.273  18.504  22.437  1.00  0.00    -0.383 N 
HETATM   18  C8  UNL     1      -9.212  19.074  21.164  1.00  0.00     0.078 C 
HETATM   19  C9  UNL     1      -8.148  18.526  20.250  1.00  0.00     0.165 C 
HETATM   20  N5  UNL     1      -7.672  17.221  20.603  1.00  0.00    -0.374 N 
HETATM   21  C10 UNL     1      -7.461  16.952  21.983  1.00  0.00     0.089 C 
ATOM     22  H5  UNL     1      -7.490  16.514  19.891  1.00  0.00     0.161 HD
HETATM   23  N6  UNL     1      -6.692  15.991  22.367  1.00  0.00    -0.388 N 
HETATM   24  C11 UNL     1      -8.156  17.812  22.953  1.00  0.00     0.197 C 
ATOM     25  H62 UNL     1      -6.210  15.395  21.694  1.00  0.00     0.157 HD
ATOM     26  H61 UNL     1      -6.540  15.798  23.357  1.00  0.00     0.157 HD
ENDBRANCH  16  17
ENDBRANCH  15  16
ENDBRANCH  13  15
ENDBRANCH   6  13
BRANCH   9  27
HETATM   27  N8  UNL     1     -15.073  13.286  22.887  1.00  0.00    -0.190 N 
ATOM     28  H8  UNL     1     -15.552  12.589  23.458  1.00  0.00     0.184 HD
BRANCH  27  29
HETATM   29  C13 UNL     1     -15.050  13.048  21.518  1.00  0.00     0.064 A 
HETATM   30  C14 UNL     1     -15.705  13.887  20.652  1.00  0.00     0.033 A 
HETATM   31  C15 UNL     1     -15.669  13.625  19.282  1.00  0.00     0.019 A 
HETATM   32  C16 UNL     1     -14.981  12.533  18.799  1.00  0.00     0.088 A 
HETATM   33  N9  UNL     1     -14.355  11.740  19.686  1.00  0.00    -0.373 N 
HETATM   34  C17 UNL     1     -14.376  11.969  21.005  1.00  0.00     0.117 A 
ATOM     35  H9  UNL     1     -13.843  10.930  19.339  1.00  0.00     0.164 HD
ENDBRANCH  27  29
ENDBRANCH   9  27
BRANCH   1  36
HETATM   36  C2  UNL     1     -16.232  16.618  26.855  1.00  0.00     0.146 C 
HETATM   37  C1  UNL     1     -17.234  17.503  26.117  1.00  0.00     0.028 C 
ENDBRANCH   1  36
TORSDOF 7
ENDMDL
MODEL 2
REMARK VINA RESULT: -7.127119382      1.515      1.923
REMARK  7 active torsions:
REMARK  status: ('A' for Active; 'I' for Inactive)
REMARK    1  A    between atoms: C2_2  and  N1_3 
REMARK    2  A    between atoms: C5_8  and  N3_9 
REMARK    3  A    between atoms: N3_9  and  C6_11 
REMARK    4  A    between atoms: C6_11  and  C7_12 
REMARK    5  A    between atoms: C7_12  and  N4_13 
REMARK    6  A    between atoms: C12_25  and  N8_26 
REMARK    7  A    between atoms: N8_26  and  C13_28 
ROOT
HETATM    1  N1  UNL     1     -12.632  16.216  27.088  1.00  0.00    -0.276 N 
HETATM    2  N2  UNL     1     -11.522  16.922  27.007  1.00  0.00    -0.307 N 
ATOM      3  H2  UNL     1     -11.039  17.335  27.805  1.00  0.00     0.186 HD
HETATM    4  C3  UNL     1     -11.114  17.023  25.735  1.00  0.00     0.126 A 
HETATM    5  C4  UNL     1     -12.019  16.340  24.971  1.00  0.00     0.071 A 
HETATM    6  C5  UNL     1     -12.144  16.085  23.598  1.00  0.00     0.132 A 
HETATM    7  N7  UNL     1     -13.184  15.363  23.202  1.00  0.00    -0.176 N 
ATOM      8  H7  UNL     1     -13.279  15.175  22.204  1.00  0.00     0.186 HD
HETATM    9  C12 UNL     1     -14.135  14.855  24.037  1.00  0.00     0.686 A 
HETATM   10  N10 UNL     1     -13.996  15.111  25.344  1.00  0.00    -0.174 N 
ATOM     11  H10 UNL     1     -14.690  14.746  25.997  1.00  0.00     0.186 HD
HETATM   12  C18 UNL     1     -12.967  15.838  25.824  1.00  0.00     0.153 A 
ENDROOT
BRANCH   6  13
HETATM   13  N3  UNL     1     -11.236  16.573  22.862  1.00  0.00    -0.373 N 
ATOM     14  H3  UNL     1     -10.379  16.033  22.740  1.00  0.00     0.161 HD
BRANCH  13  15
HETATM   15  C6  UNL     1     -11.334  17.822  22.197  1.00  0.00     0.141 C 
BRANCH  15  16
HETATM   16  C7  UNL     1     -10.411  18.882  22.813  1.00  0.00     0.142 C 
BRANCH  16  17
HETATM   17  N4  UNL     1      -9.152  18.838  22.179  1.00  0.00    -0.383 N 
HETATM   18  C8  UNL     1      -9.009  19.285  20.864  1.00  0.00     0.078 C 
HETATM   19  C9  UNL     1      -7.988  18.555  20.031  1.00  0.00     0.165 C 
HETATM   20  N5  UNL     1      -7.653  17.246  20.508  1.00  0.00    -0.374 N 
HETATM   21  C10 UNL     1      -7.497  17.080  21.912  1.00  0.00     0.089 C 
ATOM     22  H5  UNL     1      -7.530  16.464  19.865  1.00  0.00     0.161 HD
HETATM   23  N6  UNL     1      -6.837  16.086  22.399  1.00  0.00    -0.388 N 
HETATM   24  C11 UNL     1      -8.120  18.088  22.785  1.00  0.00     0.197 C 
ATOM     25  H62 UNL     1      -6.405  15.388  21.793  1.00  0.00     0.157 HD
ATOM     26  H61 UNL     1      -6.725  15.967  23.405  1.00  0.00     0.157 HD
ENDBRANCH  16  17
ENDBRANCH  15  16
ENDBRANCH  13  15
ENDBRANCH   6  13
BRANCH   9  27
HETATM   27  N8  UNL     1     -15.083  14.176  23.520  1.00  0.00    -0.190 N 
ATOM     28  H8  UNL     1     -15.872  13.965  24.132  1.00  0.00     0.184 HD
BRANCH  27  29
HETATM   29  C13 UNL     1     -15.166  13.689  22.222  1.00  0.00     0.064 A 
HETATM   30  C14 UNL     1     -14.489  12.553  21.858  1.00  0.00     0.033 A 
HETATM   31  C15 UNL     1     -14.586  12.085  20.547  1.00  0.00     0.019 A 
HETATM   32  C16 UNL     1     -15.356  12.757  19.623  1.00  0.00     0.088 A 
HETATM   33  N9  UNL     1     -16.002  13.865  20.027  1.00  0.00    -0.373 N 
HETATM   34  C17 UNL     1     -15.923  14.334  21.278  1.00  0.00     0.117 A 
ATOM     35  H9  UNL     1     -16.575  14.369  19.351  1.00  0.00     0.164 HD
ENDBRANCH  27  29
ENDBRANCH   9  27
BRANCH   1  36
HETATM   36  C2  UNL     1     -13.410  15.865  28.268  1.00  0.00     0.146 C 
HETATM   37  C1  UNL     1     -12.425  15.756  29.430  1.00  0.00     0.028 C 
ENDBRANCH   1  36
TORSDOF 7
ENDMDL
MODEL 3
REMARK VINA RESULT: -6.792284231      6.321     11.032
REMARK  7 active torsions:
REMARK  status: ('A' for Active; 'I' for Inactive)
REMARK    1  A    between atoms: C2_2  and  N1_3 
REMARK    2  A    between atoms: C5_8  and  N3_9 
REMARK    3  A    between atoms: N3_9  and  C6_11 
REMARK    4  A    between atoms: C6_11  and  C7_12 
REMARK    5  A    between atoms: C7_12  and  N4_13 
REMARK    6  A    between atoms: C12_25  and  N8_26 
REMARK    7  A    between atoms: N8_26  and  C13_28 
ROOT
HETATM    1  N1  UNL     1      -3.945  20.086  25.519  1.00  0.00    -0.276 N 
HETATM    2  N2  UNL     1      -4.993  20.857  25.728  1.00  0.00    -0.307 N 
ATOM      3  H2  UNL     1      -5.302  21.178  26.646  1.00  0.00     0.186 HD
HETATM    4  C3  UNL     1      -5.598  21.163  24.573  1.00  0.00     0.126 A 
HETATM    5  C4  UNL     1      -4.889  20.549  23.578  1.00  0.00     0.071 A 
HETATM    6  C5  UNL     1      -5.015  20.487  22.183  1.00  0.00     0.132 A 
HETATM    7  N7  UNL     1      -4.116  19.773  21.518  1.00  0.00    -0.176 N 
ATOM      8  H7  UNL     1      -4.205  19.724  20.503  1.00  0.00     0.186 HD
HETATM    9  C12 UNL     1      -3.082  19.098  22.097  1.00  0.00     0.686 A 
HETATM   10  N10 UNL     1      -2.981  19.172  23.432  1.00  0.00    -0.174 N 
ATOM     11  H10 UNL     1      -2.219  18.680  23.898  1.00  0.00     0.186 HD
HETATM   12  C18 UNL     1      -3.856  19.877  24.177  1.00  0.00     0.153 A 
ENDROOT
BRANCH   6  13
HETATM   13  N3  UNL     1      -5.988  21.131  21.688  1.00  0.00    -0.373 N 
ATOM     14  H3  UNL     1      -5.797  22.048  21.286  1.00  0.00     0.161 HD
BRANCH  13  15
HETATM   15  C6  UNL     1      -7.325  20.657  21.658  1.00  0.00     0.141 C 
BRANCH  15  16
HETATM   16  C7  UNL     1      -7.514  19.517  20.648  1.00  0.00     0.142 C 
BRANCH  16  17
HETATM   17  N4  UNL     1      -7.736  18.307  21.338  1.00  0.00    -0.383 N 
HETATM   18  C8  UNL     1      -8.784  18.202  22.255  1.00  0.00     0.078 C 
HETATM   19  C9  UNL     1      -8.532  17.305  23.438  1.00  0.00     0.165 C 
HETATM   20  N5  UNL     1      -7.148  17.066  23.723  1.00  0.00    -0.374 N 
HETATM   21  C10 UNL     1      -6.281  16.843  22.618  1.00  0.00     0.089 C 
ATOM     22  H5  UNL     1      -6.798  17.055  24.681  1.00  0.00     0.161 HD
HETATM   23  N6  UNL     1      -5.146  16.251  22.767  1.00  0.00    -0.388 N 
HETATM   24  C11 UNL     1      -6.731  17.316  21.300  1.00  0.00     0.197 C 
ATOM     25  H62 UNL     1      -4.834  15.923  23.682  1.00  0.00     0.157 HD
ATOM     26  H61 UNL     1      -4.524  16.091  21.975  1.00  0.00     0.157 HD
ENDBRANCH  16  17
ENDBRANCH  15  16
ENDBRANCH  13  15
ENDBRANCH   6  13
BRANCH   9  27
HETATM   27  N8  UNL     1      -2.290  18.451  21.337  1.00  0.00    -0.190 N 
ATOM     28  H8  UNL     1      -2.596  17.519  21.055  1.00  0.00     0.184 HD
BRANCH  27  29
HETATM   29  C13 UNL     1      -1.057  18.866  20.848  1.00  0.00     0.064 A 
HETATM   30  C14 UNL     1      -0.923  19.266  19.543  1.00  0.00     0.033 A 
HETATM   31  C15 UNL     1       0.325  19.678  19.076  1.00  0.00     0.019 A 
HETATM   32  C16 UNL     1       1.417  19.684  19.916  1.00  0.00     0.088 A 
HETATM   33  N9  UNL     1       1.236  19.284  21.187  1.00  0.00    -0.373 N 
HETATM   34  C17 UNL     1       0.049  18.884  21.659  1.00  0.00     0.117 A 
ATOM     35  H9  UNL     1       2.037  19.286  21.818  1.00  0.00     0.164 HD
ENDBRANCH  27  29
ENDBRANCH   9  27
BRANCH   1  36
HETATM   36  C2  UNL     1      -3.013  19.526  26.486  1.00  0.00     0.146 C 
HETATM   37  C1  UNL     1      -3.268  20.241  27.811  1.00  0.00     0.028 C 
ENDBRANCH   1  36
TORSDOF 7
ENDMDL
MODEL 4
REMARK VINA RESULT: -6.772802897      2.086      8.199
REMARK  7 active torsions:
REMARK  status: ('A' for Active; 'I' for Inactive)
REMARK    1  A    between atoms: C2_2  and  N1_3 
REMARK    2  A    between atoms: C5_8  and  N3_9 
REMARK    3  A    between atoms: N3_9  and  C6_11 
REMARK    4  A    between atoms: C6_11  and  C7_12 
REMARK    5  A    between atoms: C7_12  and  N4_13 
REMARK    6  A    between atoms: C12_25  and  N8_26 
REMARK    7  A    between atoms: N8_26  and  C13_28 
ROOT
HETATM    1  N1  UNL     1     -10.819  19.216  21.729  1.00  0.00    -0.276 N 
HETATM    2  N2  UNL     1     -12.000  19.239  22.315  1.00  0.00    -0.307 N 
ATOM      3  H2  UNL     1     -12.779  19.830  22.025  1.00  0.00     0.186 HD
HETATM    4  C3  UNL     1     -12.038  18.379  23.341  1.00  0.00     0.126 A 
HETATM    5  C4  UNL     1     -10.811  17.780  23.406  1.00  0.00     0.071 A 
HETATM    6  C5  UNL     1     -10.239  16.811  24.243  1.00  0.00     0.132 A 
HETATM    7  N7  UNL     1      -8.982  16.461  24.002  1.00  0.00    -0.176 N 
ATOM      8  H7  UNL     1      -8.561  15.757  24.609  1.00  0.00     0.186 HD
HETATM    9  C12 UNL     1      -8.213  16.975  23.000  1.00  0.00     0.686 A 
HETATM   10  N10 UNL     1      -8.781  17.899  22.213  1.00  0.00    -0.174 N 
ATOM     11  H10 UNL     1      -8.235  18.305  21.453  1.00  0.00     0.186 HD
HETATM   12  C18 UNL     1     -10.053  18.308  22.394  1.00  0.00     0.153 A 
ENDROOT
BRANCH   6  13
HETATM   13  N3  UNL     1     -10.990  16.359  25.157  1.00  0.00    -0.373 N 
ATOM     14  H3  UNL     1     -10.924  16.784  26.082  1.00  0.00     0.161 HD
BRANCH  13  15
HETATM   15  C6  UNL     1     -11.918  15.301  24.976  1.00  0.00     0.141 C 
BRANCH  15  16
HETATM   16  C7  UNL     1     -13.239  15.555  25.714  1.00  0.00     0.142 C 
BRANCH  16  17
HETATM   17  N4  UNL     1     -14.318  15.404  24.818  1.00  0.00    -0.383 N 
HETATM   18  C8  UNL     1     -15.626  15.320  25.299  1.00  0.00     0.078 C 
HETATM   19  C9  UNL     1     -16.559  14.439  24.511  1.00  0.00     0.165 C 
HETATM   20  N5  UNL     1     -15.907  13.460  23.692  1.00  0.00    -0.374 N 
HETATM   21  C10 UNL     1     -14.741  13.867  22.986  1.00  0.00     0.089 C 
ATOM     22  H5  UNL     1     -16.265  12.508  23.618  1.00  0.00     0.161 HD
HETATM   23  N6  UNL     1     -14.321  13.215  21.957  1.00  0.00    -0.388 N 
HETATM   24  C11 UNL     1     -14.036  15.061  23.478  1.00  0.00     0.197 C 
ATOM     25  H62 UNL     1     -14.810  12.387  21.616  1.00  0.00     0.157 HD
ATOM     26  H61 UNL     1     -13.485  13.507  21.450  1.00  0.00     0.157 HD
ENDBRANCH  16  17
ENDBRANCH  15  16
ENDBRANCH  13  15
ENDBRANCH   6  13
BRANCH   9  27
HETATM   27  N8  UNL     1      -7.019  16.546  22.882  1.00  0.00    -0.190 N 
ATOM     28  H8  UNL     1      -6.905  15.533  22.846  1.00  0.00     0.184 HD
BRANCH  27  29
HETATM   29  C13 UNL     1      -5.854  17.299  22.797  1.00  0.00     0.064 A 
HETATM   30  C14 UNL     1      -5.635  18.346  23.656  1.00  0.00     0.033 A 
HETATM   31  C15 UNL     1      -4.457  19.087  23.549  1.00  0.00     0.019 A 
HETATM   32  C16 UNL     1      -3.520  18.772  22.589  1.00  0.00     0.088 A 
HETATM   33  N9  UNL     1      -3.779  17.737  21.771  1.00  0.00    -0.373 N 
HETATM   34  C17 UNL     1      -4.901  17.011  21.853  1.00  0.00     0.117 A 
ATOM     35  H9  UNL     1      -3.092  17.495  21.058  1.00  0.00     0.164 HD
ENDBRANCH  27  29
ENDBRANCH   9  27
BRANCH   1  36
HETATM   36  C2  UNL     1     -10.350  19.985  20.586  1.00  0.00     0.146 C 
HETATM   37  C1  UNL     1      -9.900  21.343  21.121  1.00  0.00     0.028 C 
ENDBRANCH   1  36
TORSDOF 7
ENDMDL
MODEL 5
REMARK VINA RESULT: -6.700206707      7.147     12.345
REMARK  7 active torsions:
REMARK  status: ('A' for Active; 'I' for Inactive)
REMARK    1  A    between atoms: C2_2  and  N1_3 
REMARK    2  A    between atoms: C5_8  and  N3_9 
REMARK    3  A    between atoms: N3_9  and  C6_11 
REMARK    4  A    between atoms: C6_11  and  C7_12 
REMARK    5  A    between atoms: C7_12  and  N4_13 
REMARK    6  A    between atoms: C12_25  and  N8_26 
REMARK    7  A    between atoms: N8_26  and  C13_28 
ROOT
HETATM    1  N1  UNL     1      -0.743  20.212  24.557  1.00  0.00    -0.276 N 
HETATM    2  N2  UNL     1      -1.505  21.037  25.247  1.00  0.00    -0.307 N 
ATOM      3  H2  UNL     1      -1.301  21.360  26.193  1.00  0.00     0.186 HD
HETATM    4  C3  UNL     1      -2.584  21.394  24.538  1.00  0.00     0.126 A 
HETATM    5  C4  UNL     1      -2.496  20.758  23.331  1.00  0.00     0.071 A 
HETATM    6  C5  UNL     1      -3.299  20.725  22.182  1.00  0.00     0.132 A 
HETATM    7  N7  UNL     1      -2.888  19.973  21.170  1.00  0.00    -0.176 N 
ATOM      8  H7  UNL     1      -3.470  19.945  20.333  1.00  0.00     0.186 HD
HETATM    9  C12 UNL     1      -1.743  19.233  21.171  1.00  0.00     0.686 A 
HETATM   10  N10 UNL     1      -0.991  19.279  22.279  1.00  0.00    -0.174 N 
ATOM     11  H10 UNL     1      -0.127  18.738  22.314  1.00  0.00     0.186 HD
HETATM   12  C18 UNL     1      -1.342  20.020  23.350  1.00  0.00     0.153 A 
ENDROOT
BRANCH   6  13
HETATM   13  N3  UNL     1      -4.351  21.430  22.225  1.00  0.00    -0.373 N 
ATOM     14  H3  UNL     1      -4.249  22.427  22.415  1.00  0.00     0.161 HD
BRANCH  13  15
HETATM   15  C6  UNL     1      -5.660  20.922  22.025  1.00  0.00     0.141 C 
BRANCH  15  16
HETATM   16  C7  UNL     1      -6.241  20.297  23.301  1.00  0.00     0.142 C 
BRANCH  16  17
HETATM   17  N4  UNL     1      -6.306  18.896  23.152  1.00  0.00    -0.383 N 
HETATM   18  C8  UNL     1      -5.214  18.099  23.504  1.00  0.00     0.078 C 
HETATM   19  C9  UNL     1      -5.011  16.860  22.672  1.00  0.00     0.165 C 
HETATM   20  N5  UNL     1      -5.634  16.899  21.382  1.00  0.00    -0.374 N 
HETATM   21  C10 UNL     1      -6.940  17.457  21.301  1.00  0.00     0.089 C 
ATOM     22  H5  UNL     1      -5.160  16.538  20.554  1.00  0.00     0.161 HD
HETATM   23  N6  UNL     1      -7.720  17.193  20.309  1.00  0.00    -0.388 N 
HETATM   24  C11 UNL     1      -7.363  18.348  22.393  1.00  0.00     0.197 C 
ATOM     25  H62 UNL     1      -7.426  16.576  19.552  1.00  0.00     0.157 HD
ATOM     26  H61 UNL     1      -8.656  17.593  20.251  1.00  0.00     0.157 HD
ENDBRANCH  16  17
ENDBRANCH  15  16
ENDBRANCH  13  15
ENDBRANCH   6  13
BRANCH   9  27
HETATM   27  N8  UNL     1      -1.468  18.554  20.128  1.00  0.00    -0.190 N 
ATOM     28  H8  UNL     1      -1.993  17.688  20.001  1.00  0.00     0.184 HD
BRANCH  27  29
HETATM   29  C13 UNL     1      -0.536  18.857  19.142  1.00  0.00     0.064 A 
HETATM   30  C14 UNL     1       0.698  18.258  19.142  1.00  0.00     0.033 A 
HETATM   31  C15 UNL     1       1.617  18.580  18.142  1.00  0.00     0.019 A 
HETATM   32  C16 UNL     1       1.290  19.492  17.162  1.00  0.00     0.088 A 
HETATM   33  N9  UNL     1       0.068  20.051  17.204  1.00  0.00    -0.373 N 
HETATM   34  C17 UNL     1      -0.831  19.759  18.153  1.00  0.00     0.117 A 
ATOM     35  H9  UNL     1      -0.185  20.726  16.483  1.00  0.00     0.164 HD
ENDBRANCH  27  29
ENDBRANCH   9  27
BRANCH   1  36
HETATM   36  C2  UNL     1       0.512  19.586  24.945  1.00  0.00     0.146 C 
HETATM   37  C1  UNL     1       0.252  18.846  26.255  1.00  0.00     0.028 C 
ENDBRANCH   1  36
TORSDOF 7
ENDMDL
