MODEL 1
REMARK VINA RESULT: -6.776454969      0.000      0.000
REMARK  7 active torsions:
REMARK  status: ('A' for Active; 'I' for Inactive)
REMARK    1  A    between atoms: C1_2  and  C2_4 
REMARK    2  A    between atoms: C2_4  and  O2_5 
REMARK    3  A    between atoms: N2_9  and  C5_10 
REMARK    4  A    between atoms: C9_20  and  N6_21 
REMARK    5  A    between atoms: N6_21  and  C10_23 
REMARK    6  A    between atoms: C10_23  and  C11_24 
REMARK    7  A    between atoms: C11_24  and  N7_25 
ROOT
HETATM    1  C5  UNL     1     -10.285  17.381  24.150  1.00  0.00     0.683 A 
HETATM    2  N3  UNL     1     -10.527  17.475  25.467  1.00  0.00    -0.174 N 
ATOM      3  H3  UNL     1      -9.946  18.108  26.016  1.00  0.00     0.186 HD
HETATM    4  C6  UNL     1     -11.493  16.782  26.112  1.00  0.00     0.152 A 
HETATM    5  N4  UNL     1     -11.918  16.694  27.382  1.00  0.00    -0.336 N 
ATOM      6  H4  UNL     1     -11.521  17.216  28.162  1.00  0.00     0.168 HD
HETATM    7  C7  UNL     1     -12.937  15.827  27.486  1.00  0.00     0.182 A 
HETATM    8  N5  UNL     1     -13.171  15.346  26.253  1.00  0.00    -0.346 N 
ATOM      9  H5  UNL     1     -13.889  14.664  26.011  1.00  0.00     0.167 HD
HETATM   10  C8  UNL     1     -12.295  15.916  25.379  1.00  0.00     0.123 A 
HETATM   11  C9  UNL     1     -12.059  15.811  24.032  1.00  0.00     0.147 A 
HETATM   12  N8  UNL     1     -11.066  16.538  23.445  1.00  0.00    -0.174 N 
ATOM     13  H8  UNL     1     -10.910  16.441  22.442  1.00  0.00     0.186 HD
ENDROOT
BRANCH   1  14
HETATM   14  N2  UNL     1      -9.301  18.113  23.470  1.00  0.00    -0.217 N 
HETATM   15  C4  UNL     1      -8.131  18.579  24.145  1.00  0.00     0.145 C 
HETATM   16  C3  UNL     1      -7.110  19.123  23.164  1.00  0.00     0.068 C 
HETATM   17  C2  UNL     1      -6.986  18.242  21.941  1.00  0.00     0.139 C 
HETATM   18  C17 UNL     1      -8.263  17.751  21.368  1.00  0.00     0.068 C 
HETATM   19  C16 UNL     1      -9.433  18.410  22.069  1.00  0.00     0.145 C 
BRANCH  17  20
HETATM   20  C1  UNL     1      -6.092  17.088  22.200  1.00  0.00     0.265 C 
HETATM   21  N1  UNL     1      -4.715  17.188  21.917  1.00  0.00    -0.059 NA
HETATM   22  O1  UNL     1      -6.578  16.034  22.672  1.00  0.00    -0.273 OA
ENDBRANCH  17  20
BRANCH  17  23
HETATM   23  O2  UNL     1      -6.350  19.049  20.964  1.00  0.00    -0.380 OA
ATOM     24  H2  UNL     1      -7.037  19.447  20.442  1.00  0.00     0.211 HD
ENDBRANCH  17  23
ENDBRANCH   1  14
BRANCH  11  25
HETATM   25  N6  UNL     1     -12.795  15.054  23.315  1.00  0.00    -0.372 N 
ATOM     26  H6  UNL     1     -12.344  14.220  22.938  1.00  0.00     0.161 HD
BRANCH  25  27
HETATM   27  C10 UNL     1     -14.176  15.227  22.975  1.00  0.00     0.151 C 
BRANCH  27  28
HETATM   28  C11 UNL     1     -14.861  13.898  23.226  1.00  0.00     0.292 C 
BRANCH  28  29
HETATM   29  N7  UNL     1     -15.370  13.257  22.061  1.00  0.00     0.090 N 
HETATM   30  C12 UNL     1     -14.416  12.365  21.442  1.00  0.00     0.272 C 
HETATM   31  C13 UNL     1     -14.999  12.152  20.064  1.00  0.00     0.032 C 
HETATM   32  C14 UNL     1     -15.363  13.605  19.706  1.00  0.00     0.032 C 
HETATM   33  C15 UNL     1     -15.912  14.101  21.052  1.00  0.00     0.272 C 
ENDBRANCH  28  29
ENDBRANCH  27  28
ENDBRANCH  25  27
ENDBRANCH  11  25
TORSDOF 7
ENDMDL
MODEL 2
REMARK VINA RESULT: -6.634642916      2.281      3.325
REMARK  7 active torsions:
REMARK  status: ('A' for Active; 'I' for Inactive)
REMARK    1  A    between atoms: C1_2  and  C2_4 
REMARK    2  A    between atoms: C2_4  and  O2_5 
REMARK    3  A    between atoms: N2_9  and  C5_10 
REMARK    4  A    between atoms: C9_20  and  N6_21 
REMARK    5  A    between atoms: N6_21  and  C10_23 
REMARK    6  A    between atoms: C10_23  and  C11_24 
REMARK    7  A    between atoms: C11_24  and  N7_25 
ROOT
HETATM    1  C5  UNL     1      -8.983  18.481  22.353  1.00  0.00     0.683 A 
HETATM    2  N3  UNL     1      -9.627  19.636  22.587  1.00  0.00    -0.174 N 
ATOM      3  H3  UNL     1      -9.104  20.505  22.480  1.00  0.00     0.186 HD
HETATM    4  C6  UNL     1     -10.925  19.719  22.955  1.00  0.00     0.152 A 
HETATM    5  N4  UNL     1     -11.772  20.717  23.249  1.00  0.00    -0.336 N 
ATOM      6  H4  UNL     1     -11.528  21.707  23.229  1.00  0.00     0.168 HD
HETATM    7  C7  UNL     1     -12.983  20.239  23.571  1.00  0.00     0.182 A 
HETATM    8  N5  UNL     1     -12.912  18.899  23.482  1.00  0.00    -0.346 N 
ATOM      9  H5  UNL     1     -13.678  18.253  23.668  1.00  0.00     0.167 HD
HETATM   10  C8  UNL     1     -11.652  18.544  23.105  1.00  0.00     0.123 A 
HETATM   11  C9  UNL     1     -11.006  17.357  22.868  1.00  0.00     0.147 A 
HETATM   12  N8  UNL     1      -9.694  17.346  22.500  1.00  0.00    -0.174 N 
ATOM     13  H8  UNL     1      -9.236  16.450  22.330  1.00  0.00     0.186 HD
ENDROOT
BRANCH   1  14
HETATM   14  N2  UNL     1      -7.643  18.388  21.946  1.00  0.00    -0.217 N 
HETATM   15  C4  UNL     1      -6.806  19.544  21.898  1.00  0.00     0.145 C 
HETATM   16  C3  UNL     1      -5.355  19.164  21.672  1.00  0.00     0.068 C 
HETATM   17  C2  UNL     1      -4.956  17.967  22.505  1.00  0.00     0.139 C 
HETATM   18  C17 UNL     1      -5.936  16.855  22.546  1.00  0.00     0.068 C 
HETATM   19  C16 UNL     1      -7.067  17.124  21.575  1.00  0.00     0.145 C 
BRANCH  17  20
HETATM   20  C1  UNL     1      -4.613  18.368  23.890  1.00  0.00     0.265 C 
HETATM   21  N1  UNL     1      -3.692  19.410  24.113  1.00  0.00    -0.059 NA
HETATM   22  O1  UNL     1      -5.153  17.770  24.849  1.00  0.00    -0.273 OA
ENDBRANCH  17  20
BRANCH  17  23
HETATM   23  O2  UNL     1      -3.766  17.479  21.907  1.00  0.00    -0.380 OA
ATOM     24  H2  UNL     1      -3.896  16.552  21.746  1.00  0.00     0.211 HD
ENDBRANCH  17  23
ENDBRANCH   1  14
BRANCH  11  25
HETATM   25  N6  UNL     1     -11.647  16.257  22.959  1.00  0.00    -0.372 N 
ATOM     26  H6  UNL     1     -12.089  15.926  22.101  1.00  0.00     0.161 HD
BRANCH  25  27
HETATM   27  C10 UNL     1     -11.822  15.427  24.114  1.00  0.00     0.151 C 
BRANCH  27  28
HETATM   28  C11 UNL     1     -13.303  15.428  24.435  1.00  0.00     0.292 C 
BRANCH  28  29
HETATM   29  N7  UNL     1     -14.161  15.281  23.309  1.00  0.00     0.090 N 
HETATM   30  C12 UNL     1     -15.326  16.135  23.367  1.00  0.00     0.272 C 
HETATM   31  C13 UNL     1     -16.246  15.518  22.339  1.00  0.00     0.032 C 
HETATM   32  C14 UNL     1     -16.097  14.032  22.711  1.00  0.00     0.032 C 
HETATM   33  C15 UNL     1     -14.589  13.960  23.000  1.00  0.00     0.272 C 
ENDBRANCH  28  29
ENDBRANCH  27  28
ENDBRANCH  25  27
ENDBRANCH  11  25
TORSDOF 7
ENDMDL
MODEL 3
REMARK VINA RESULT: -6.507021855      2.997      4.840
REMARK  7 active torsions:
REMARK  status: ('A' for Active; 'I' for Inactive)
REMARK    1  A    between atoms: C1_2  and  C2_4 
REMARK    2  A    between atoms: C2_4  and  O2_5 
REMARK    3  A    between atoms: N2_9  and  C5_10 
REMARK    4  A    between atoms: C9_20  and  N6_21 
REMARK    5  A    between atoms: N6_21  and  C10_23 
REMARK    6  A    between atoms: C10_23  and  C11_24 
REMARK    7  A    between atoms: C11_24  and  N7_25 
ROOT
HETATM    1  C5  UNL     1      -9.038  18.427  21.957  1.00  0.00     0.683 A 
HETATM    2  N3  UNL     1      -9.797  19.525  21.810  1.00  0.00    -0.174 N 
ATOM      3  H3  UNL     1      -9.346  20.376  21.474  1.00  0.00     0.186 HD
HETATM    4  C6  UNL     1     -11.121  19.574  22.079  1.00  0.00     0.152 A 
HETATM    5  N4  UNL     1     -12.072  20.519  22.024  1.00  0.00    -0.336 N 
ATOM      6  H4  UNL     1     -11.915  21.480  21.723  1.00  0.00     0.168 HD
HETATM    7  C7  UNL     1     -13.256  20.029  22.419  1.00  0.00     0.182 A 
HETATM    8  N5  UNL     1     -13.061  18.737  22.735  1.00  0.00    -0.346 N 
ATOM      9  H5  UNL     1     -13.780  18.096  23.069  1.00  0.00     0.167 HD
HETATM   10  C8  UNL     1     -11.751  18.423  22.537  1.00  0.00     0.123 A 
HETATM   11  C9  UNL     1     -10.988  17.294  22.692  1.00  0.00     0.147 A 
HETATM   12  N8  UNL     1      -9.656  17.315  22.402  1.00  0.00    -0.174 N 
ATOM     13  H8  UNL     1      -9.110  16.462  22.527  1.00  0.00     0.186 HD
ENDROOT
BRANCH   1  14
HETATM   14  N2  UNL     1      -7.669  18.362  21.658  1.00  0.00    -0.217 N 
HETATM   15  C4  UNL     1      -6.845  19.527  21.722  1.00  0.00     0.145 C 
HETATM   16  C3  UNL     1      -5.376  19.170  21.599  1.00  0.00     0.068 C 
HETATM   17  C2  UNL     1      -5.031  17.944  22.415  1.00  0.00     0.139 C 
HETATM   18  C17 UNL     1      -5.997  16.822  22.334  1.00  0.00     0.068 C 
HETATM   19  C16 UNL     1      -7.049  17.119  21.286  1.00  0.00     0.145 C 
BRANCH  17  20
HETATM   20  C1  UNL     1      -4.805  18.293  23.839  1.00  0.00     0.265 C 
HETATM   21  N1  UNL     1      -3.810  19.228  24.184  1.00  0.00    -0.059 NA
HETATM   22  O1  UNL     1      -5.511  17.748  24.719  1.00  0.00    -0.273 OA
ENDBRANCH  17  20
BRANCH  17  23
HETATM   23  O2  UNL     1      -3.790  17.490  21.898  1.00  0.00    -0.380 OA
ATOM     24  H2  UNL     1      -3.912  16.585  21.639  1.00  0.00     0.211 HD
ENDBRANCH  17  23
ENDBRANCH   1  14
BRANCH  11  25
HETATM   25  N6  UNL     1     -11.534  16.206  23.076  1.00  0.00    -0.372 N 
ATOM     26  H6  UNL     1     -12.112  15.729  22.384  1.00  0.00     0.161 HD
BRANCH  25  27
HETATM   27  C10 UNL     1     -11.438  15.571  24.357  1.00  0.00     0.151 C 
BRANCH  27  28
HETATM   28  C11 UNL     1     -12.728  15.872  25.094  1.00  0.00     0.292 C 
BRANCH  28  29
HETATM   29  N7  UNL     1     -12.582  16.705  26.239  1.00  0.00     0.090 N 
HETATM   30  C12 UNL     1     -11.218  17.123  26.468  1.00  0.00     0.272 C 
HETATM   31  C13 UNL     1     -11.250  17.608  27.899  1.00  0.00     0.032 C 
HETATM   32  C14 UNL     1     -12.048  16.462  28.546  1.00  0.00     0.032 C 
HETATM   33  C15 UNL     1     -13.108  16.206  27.464  1.00  0.00     0.272 C 
ENDBRANCH  28  29
ENDBRANCH  27  28
ENDBRANCH  25  27
ENDBRANCH  11  25
TORSDOF 7
ENDMDL
MODEL 4
REMARK VINA RESULT: -6.475943034      6.317     12.002
REMARK  7 active torsions:
REMARK  status: ('A' for Active; 'I' for Inactive)
REMARK    1  A    between atoms: C1_2  and  C2_4 
REMARK    2  A    between atoms: C2_4  and  O2_5 
REMARK    3  A    between atoms: N2_9  and  C5_10 
REMARK    4  A    between atoms: C9_20  and  N6_21 
REMARK    5  A    between atoms: N6_21  and  C10_23 
REMARK    6  A    between atoms: C10_23  and  C11_24 
REMARK    7  A    between atoms: C11_24  and  N7_25 
ROOT
HETATM    1  C5  UNL     1      -2.610  19.356  22.377  1.00  0.00     0.683 A 
HETATM    2  N3  UNL     1      -1.613  19.655  23.225  1.00  0.00    -0.174 N 
ATOM      3  H3  UNL     1      -1.862  19.996  24.154  1.00  0.00     0.186 HD
HETATM    4  C6  UNL     1      -0.300  19.534  22.926  1.00  0.00     0.152 A 
HETATM    5  N4  UNL     1       0.852  19.768  23.573  1.00  0.00    -0.336 N 
ATOM      6  H4  UNL     1       0.917  20.119  24.528  1.00  0.00     0.168 HD
HETATM    7  C7  UNL     1       1.905  19.479  22.795  1.00  0.00     0.182 A 
HETATM    8  N5  UNL     1       1.417  19.048  21.619  1.00  0.00    -0.346 N 
ATOM      9  H5  UNL     1       1.977  18.752  20.819  1.00  0.00     0.167 HD
HETATM   10  C8  UNL     1       0.056  19.071  21.666  1.00  0.00     0.123 A 
HETATM   11  C9  UNL     1      -0.952  18.760  20.789  1.00  0.00     0.147 A 
HETATM   12  N8  UNL     1      -2.257  18.907  21.156  1.00  0.00    -0.174 N 
ATOM     13  H8  UNL     1      -2.988  18.670  20.486  1.00  0.00     0.186 HD
ENDROOT
BRANCH   1  14
HETATM   14  N2  UNL     1      -3.974  19.456  22.688  1.00  0.00    -0.217 N 
HETATM   15  C4  UNL     1      -4.872  20.172  21.839  1.00  0.00     0.145 C 
HETATM   16  C3  UNL     1      -6.316  19.937  22.242  1.00  0.00     0.068 C 
HETATM   17  C2  UNL     1      -6.573  18.484  22.573  1.00  0.00     0.139 C 
HETATM   18  C17 UNL     1      -5.535  17.818  23.397  1.00  0.00     0.068 C 
HETATM   19  C16 UNL     1      -4.514  18.833  23.866  1.00  0.00     0.145 C 
BRANCH  17  20
HETATM   20  C1  UNL     1      -6.808  17.687  21.345  1.00  0.00     0.265 C 
HETATM   21  N1  UNL     1      -7.950  17.931  20.557  1.00  0.00    -0.059 NA
HETATM   22  O1  UNL     1      -5.980  16.804  21.024  1.00  0.00    -0.273 OA
ENDBRANCH  17  20
BRANCH  17  23
HETATM   23  O2  UNL     1      -7.785  18.480  23.310  1.00  0.00    -0.380 OA
ATOM     24  H2  UNL     1      -7.654  19.040  24.065  1.00  0.00     0.211 HD
ENDBRANCH  17  23
ENDBRANCH   1  14
BRANCH  11  25
HETATM   25  N6  UNL     1      -0.669  18.297  19.634  1.00  0.00    -0.372 N 
ATOM     26  H6  UNL     1      -0.439  17.304  19.595  1.00  0.00     0.161 HD
BRANCH  25  27
HETATM   27  C10 UNL     1      -0.634  18.997  18.384  1.00  0.00     0.151 C 
BRANCH  27  28
HETATM   28  C11 UNL     1       0.827  19.185  18.025  1.00  0.00     0.292 C 
BRANCH  28  29
HETATM   29  N7  UNL     1       1.297  18.351  16.972  1.00  0.00     0.090 N 
HETATM   30  C12 UNL     1       2.559  18.789  16.422  1.00  0.00     0.272 C 
HETATM   31  C13 UNL     1       2.630  18.044  15.108  1.00  0.00     0.032 C 
HETATM   32  C14 UNL     1       1.199  18.282  14.594  1.00  0.00     0.032 C 
HETATM   33  C15 UNL     1       0.398  18.114  15.894  1.00  0.00     0.272 C 
ENDBRANCH  28  29
ENDBRANCH  27  28
ENDBRANCH  25  27
ENDBRANCH  11  25
TORSDOF 7
ENDMDL
MODEL 5
REMARK VINA RESULT: -6.415924398      1.955      2.692
REMARK  7 active torsions:
REMARK  status: ('A' for Active; 'I' for Inactive)
REMARK    1  A    between atoms: C1_2  and  C2_4 
REMARK    2  A    between atoms: C2_4  and  O2_5 
REMARK    3  A    between atoms: N2_9  and  C5_10 
REMARK    4  A    between atoms: C9_20  and  N6_21 
REMARK    5  A    between atoms: N6_21  and  C10_23 
REMARK    6  A    between atoms: C10_23  and  C11_24 
REMARK    7  A    between atoms: C11_24  and  N7_25 
ROOT
HETATM    1  C5  UNL     1      -8.927  17.527  23.274  1.00  0.00     0.683 A 
HETATM    2  N3  UNL     1      -9.077  17.723  24.593  1.00  0.00    -0.174 N 
ATOM      3  H3  UNL     1      -8.246  17.954  25.139  1.00  0.00     0.186 HD
HETATM    4  C6  UNL     1     -10.258  17.634  25.245  1.00  0.00     0.152 A 
HETATM    5  N4  UNL     1     -10.659  17.771  26.518  1.00  0.00    -0.336 N 
ATOM      6  H4  UNL     1     -10.042  18.002  27.296  1.00  0.00     0.168 HD
HETATM    7  C7  UNL     1     -11.980  17.565  26.629  1.00  0.00     0.182 A 
HETATM    8  N5  UNL     1     -12.438  17.288  25.396  1.00  0.00    -0.346 N 
ATOM      9  H5  UNL     1     -13.409  17.085  25.158  1.00  0.00     0.167 HD
HETATM   10  C8  UNL     1     -11.399  17.322  24.516  1.00  0.00     0.123 A 
HETATM   11  C9  UNL     1     -11.261  17.119  23.166  1.00  0.00     0.147 A 
HETATM   12  N8  UNL     1     -10.038  17.224  22.573  1.00  0.00    -0.174 N 
ATOM     13  H8  UNL     1      -9.962  17.068  21.568  1.00  0.00     0.186 HD
ENDROOT
BRANCH   1  14
HETATM   14  N2  UNL     1      -7.709  17.642  22.587  1.00  0.00    -0.217 N 
HETATM   15  C4  UNL     1      -7.181  18.921  22.232  1.00  0.00     0.145 C 
HETATM   16  C3  UNL     1      -5.757  18.806  21.723  1.00  0.00     0.068 C 
HETATM   17  C2  UNL     1      -4.940  17.849  22.563  1.00  0.00     0.139 C 
HETATM   18  C17 UNL     1      -5.616  16.584  22.939  1.00  0.00     0.068 C 
HETATM   19  C16 UNL     1      -6.949  16.476  22.227  1.00  0.00     0.145 C 
BRANCH  17  20
HETATM   20  C1  UNL     1      -4.428  18.512  23.786  1.00  0.00     0.265 C 
HETATM   21  N1  UNL     1      -4.800  18.028  25.056  1.00  0.00    -0.059 NA
HETATM   22  O1  UNL     1      -3.665  19.498  23.671  1.00  0.00    -0.273 OA
ENDBRANCH  17  20
BRANCH  17  23
HETATM   23  O2  UNL     1      -3.814  17.522  21.765  1.00  0.00    -0.380 OA
ATOM     24  H2  UNL     1      -4.140  17.308  20.899  1.00  0.00     0.211 HD
ENDBRANCH  17  23
ENDBRANCH   1  14
BRANCH  11  25
HETATM   25  N6  UNL     1     -12.289  16.866  22.454  1.00  0.00    -0.372 N 
ATOM     26  H6  UNL     1     -12.377  15.904  22.124  1.00  0.00     0.161 HD
BRANCH  25  27
HETATM   27  C10 UNL     1     -13.336  17.761  22.059  1.00  0.00     0.151 C 
BRANCH  27  28
HETATM   28  C11 UNL     1     -14.636  17.168  22.565  1.00  0.00     0.292 C 
BRANCH  28  29
HETATM   29  N7  UNL     1     -14.599  15.767  22.813  1.00  0.00     0.090 N 
HETATM   30  C12 UNL     1     -15.380  15.003  21.867  1.00  0.00     0.272 C 
HETATM   31  C13 UNL     1     -15.529  13.666  22.557  1.00  0.00     0.032 C 
HETATM   32  C14 UNL     1     -15.893  14.142  23.975  1.00  0.00     0.032 C 
HETATM   33  C15 UNL     1     -14.944  15.340  24.126  1.00  0.00     0.272 C 
ENDBRANCH  28  29
ENDBRANCH  27  28
ENDBRANCH  25  27
ENDBRANCH  11  25
TORSDOF 7
ENDMDL
