MODEL 1
REMARK VINA RESULT: -8.651506294      0.000      0.000
REMARK  7 active torsions:
REMARK  status: ('A' for Active; 'I' for Inactive)
REMARK    1  A    between atoms: C4_4  and  C5_5 
REMARK    2  A    between atoms: C5_5  and  C6_7 
REMARK    3  A    between atoms: C6_7  and  C7_8 
REMARK    4  A    between atoms: C7_8  and  C8_9 
REMARK    5  A    between atoms: C11_14  and  C12_15 
REMARK    6  A    between atoms: C12_15  and  C13_16 
REMARK    7  A    between atoms: C15_18  and  O4_19 
ROOT
HETATM    1  C13 UNL     1     -18.630  11.949  -1.953  1.00  0.00     0.132 A 
HETATM    2  C14 UNL     1     -18.893  13.385  -1.853  1.00  0.00     0.087 A 
HETATM    3  C15 UNL     1     -18.590  12.566  -0.616  1.00  0.00     0.116 A 
HETATM    4  C16 UNL     1     -17.264  12.804  -0.017  1.00  0.00     0.212 C 
HETATM    5  O5  UNL     1     -16.194  12.161  -0.564  1.00  0.00    -0.349 OA
HETATM    6  C17 UNL     1     -16.306  10.795  -0.660  1.00  0.00     0.197 C 
HETATM    7  C18 UNL     1     -16.819  10.223   0.639  1.00  0.00     0.071 C 
HETATM    8  C19 UNL     1     -16.163   8.862   0.902  1.00  0.00     0.006 C 
HETATM    9  C20 UNL     1     -16.222   8.093  -0.393  1.00  0.00     0.000 C 
HETATM   10  C21 UNL     1     -15.200   8.733  -1.329  1.00  0.00     0.006 C 
HETATM   11  C22 UNL     1     -14.944  10.188  -0.921  1.00  0.00     0.071 C 
HETATM   12  O6  UNL     1     -17.105  10.433  -1.741  1.00  0.00    -0.200 OA
HETATM   13  O7  UNL     1     -17.370  11.532  -2.416  1.00  0.00    -0.223 OA
ENDROOT
BRANCH   1  14
HETATM   14  C12 UNL     1     -19.722  10.951  -2.274  1.00  0.00     0.049 C 
BRANCH  14  15
HETATM   15  C11 UNL     1     -19.248   9.748  -3.007  1.00  0.00    -0.008 C 
HETATM   16  C2  UNL     1     -19.704   9.835  -4.440  1.00  0.00    -0.014 C 
HETATM   17  C1  UNL     1     -21.120  10.361  -4.552  1.00  0.00     0.010 C 
HETATM   18  C3  UNL     1     -19.698   8.432  -5.009  1.00  0.00     0.016 C 
HETATM   19  C4  UNL     1     -18.538   7.618  -4.455  1.00  0.00     0.056 C 
HETATM   20  C9  UNL     1     -18.670   7.393  -2.976  1.00  0.00     0.013 C 
HETATM   21  C10 UNL     1     -19.665   8.434  -2.442  1.00  0.00     0.006 C 
BRANCH  19  22
HETATM   22  C5  UNL     1     -18.523   6.337  -5.218  1.00  0.00     0.131 C 
HETATM   23  O1  UNL     1     -17.549   6.077  -5.903  1.00  0.00    -0.298 OA
BRANCH  22  24
HETATM   24  C6  UNL     1     -19.644   5.375  -5.173  1.00  0.00     0.089 C 
BRANCH  24  25
HETATM   25  C7  UNL     1     -19.320   4.108  -4.439  1.00  0.00     0.120 C 
BRANCH  25  26
HETATM   26  C8  UNL     1     -18.993   2.966  -5.288  1.00  0.00     0.172 C 
HETATM   27  O2  UNL     1     -18.768   3.088  -6.496  1.00  0.00    -0.648 OA
HETATM   28  O3  UNL     1     -18.939   1.704  -4.688  1.00  0.00    -0.648 OA
ENDBRANCH  25  26
ENDBRANCH  24  25
ENDBRANCH  22  24
ENDBRANCH  19  22
ENDBRANCH  14  15
ENDBRANCH   1  14
BRANCH   3  29
HETATM   29  O4  UNL     1     -19.662  12.353   0.273  1.00  0.00    -0.384 OA
ATOM     30  H4  UNL     1     -19.506  12.401   1.208  1.00  0.00     0.210 HD
ENDBRANCH   3  29
TORSDOF 7
ENDMDL
MODEL 2
REMARK VINA RESULT: -8.487694575      0.968      1.061
REMARK  7 active torsions:
REMARK  status: ('A' for Active; 'I' for Inactive)
REMARK    1  A    between atoms: C4_4  and  C5_5 
REMARK    2  A    between atoms: C5_5  and  C6_7 
REMARK    3  A    between atoms: C6_7  and  C7_8 
REMARK    4  A    between atoms: C7_8  and  C8_9 
REMARK    5  A    between atoms: C11_14  and  C12_15 
REMARK    6  A    between atoms: C12_15  and  C13_16 
REMARK    7  A    between atoms: C15_18  and  O4_19 
ROOT
HETATM    1  C13 UNL     1     -18.844  11.663  -2.985  1.00  0.00     0.132 A 
HETATM    2  C14 UNL     1     -19.024  13.107  -3.141  1.00  0.00     0.087 A 
HETATM    3  C15 UNL     1     -18.974  12.477  -1.765  1.00  0.00     0.116 A 
HETATM    4  C16 UNL     1     -17.746  12.750  -0.996  1.00  0.00     0.212 C 
HETATM    5  O5  UNL     1     -16.649  11.987  -1.258  1.00  0.00    -0.349 OA
HETATM    6  C17 UNL     1     -16.834  10.628  -1.171  1.00  0.00     0.197 C 
HETATM    7  C18 UNL     1     -17.582  10.286   0.095  1.00  0.00     0.071 C 
HETATM    8  C19 UNL     1     -17.066   8.955   0.659  1.00  0.00     0.006 C 
HETATM    9  C20 UNL     1     -16.971   7.998  -0.502  1.00  0.00     0.000 C 
HETATM   10  C21 UNL     1     -15.775   8.444  -1.340  1.00  0.00     0.006 C 
HETATM   11  C22 UNL     1     -15.491   9.932  -1.111  1.00  0.00     0.071 C 
HETATM   12  O6  UNL     1     -17.475  10.136  -2.305  1.00  0.00    -0.200 OA
HETATM   13  O7  UNL     1     -17.557  11.127  -3.167  1.00  0.00    -0.223 OA
ENDROOT
BRANCH   1  14
HETATM   14  C12 UNL     1     -19.935  10.674  -3.333  1.00  0.00     0.049 C 
BRANCH  14  15
HETATM   15  C11 UNL     1     -19.432   9.363  -3.822  1.00  0.00    -0.008 C 
HETATM   16  C2  UNL     1     -19.679   9.265  -5.305  1.00  0.00    -0.014 C 
HETATM   17  C1  UNL     1     -21.034   9.821  -5.691  1.00  0.00     0.010 C 
HETATM   18  C3  UNL     1     -19.673   7.797  -5.675  1.00  0.00     0.016 C 
HETATM   19  C4  UNL     1     -18.649   7.027  -4.854  1.00  0.00     0.056 C 
HETATM   20  C9  UNL     1     -18.998   7.016  -3.393  1.00  0.00     0.013 C 
HETATM   21  C10 UNL     1     -19.997   8.157  -3.154  1.00  0.00     0.006 C 
BRANCH  19  22
HETATM   22  C5  UNL     1     -18.600   5.652  -5.429  1.00  0.00     0.131 C 
HETATM   23  O1  UNL     1     -17.793   5.416  -6.312  1.00  0.00    -0.298 OA
BRANCH  22  24
HETATM   24  C6  UNL     1     -19.491   4.567  -4.966  1.00  0.00     0.089 C 
BRANCH  24  25
HETATM   25  C7  UNL     1     -18.970   3.829  -3.769  1.00  0.00     0.120 C 
BRANCH  25  26
HETATM   26  C8  UNL     1     -18.795   2.392  -3.955  1.00  0.00     0.172 C 
HETATM   27  O2  UNL     1     -18.936   1.849  -5.055  1.00  0.00    -0.648 OA
HETATM   28  O3  UNL     1     -18.457   1.627  -2.833  1.00  0.00    -0.648 OA
ENDBRANCH  25  26
ENDBRANCH  24  25
ENDBRANCH  22  24
ENDBRANCH  19  22
ENDBRANCH  14  15
ENDBRANCH   1  14
BRANCH   3  29
HETATM   29  O4  UNL     1     -20.184  12.449  -1.045  1.00  0.00    -0.384 OA
ATOM     30  H4  UNL     1     -20.174  12.631  -0.112  1.00  0.00     0.210 HD
ENDBRANCH   3  29
TORSDOF 7
ENDMDL
MODEL 3
REMARK VINA RESULT: -8.293546840      1.792      3.529
REMARK  7 active torsions:
REMARK  status: ('A' for Active; 'I' for Inactive)
REMARK    1  A    between atoms: C4_4  and  C5_5 
REMARK    2  A    between atoms: C5_5  and  C6_7 
REMARK    3  A    between atoms: C6_7  and  C7_8 
REMARK    4  A    between atoms: C7_8  and  C8_9 
REMARK    5  A    between atoms: C11_14  and  C12_15 
REMARK    6  A    between atoms: C12_15  and  C13_16 
REMARK    7  A    between atoms: C15_18  and  O4_19 
ROOT
HETATM    1  C13 UNL     1     -16.712   9.829  -1.728  1.00  0.00     0.132 A 
HETATM    2  C14 UNL     1     -15.711   8.763  -1.812  1.00  0.00     0.087 A 
HETATM    3  C15 UNL     1     -15.392  10.165  -2.290  1.00  0.00     0.116 A 
HETATM    4  C16 UNL     1     -14.461  10.920  -1.431  1.00  0.00     0.212 C 
HETATM    5  O5  UNL     1     -14.971  11.537  -0.328  1.00  0.00    -0.349 OA
HETATM    6  C17 UNL     1     -16.024  12.390  -0.556  1.00  0.00     0.197 C 
HETATM    7  C18 UNL     1     -15.719  13.292  -1.727  1.00  0.00     0.071 C 
HETATM    8  C19 UNL     1     -16.318  14.682  -1.481  1.00  0.00     0.006 C 
HETATM    9  C20 UNL     1     -17.723  14.467  -0.977  1.00  0.00     0.000 C 
HETATM   10  C21 UNL     1     -17.600  13.945   0.452  1.00  0.00     0.006 C 
HETATM   11  C22 UNL     1     -16.240  13.270   0.656  1.00  0.00     0.071 C 
HETATM   12  O6  UNL     1     -17.210  11.683  -0.737  1.00  0.00    -0.200 OA
HETATM   13  O7  UNL     1     -16.955  10.418  -0.476  1.00  0.00    -0.223 OA
ENDROOT
BRANCH   1  14
HETATM   14  C12 UNL     1     -17.927   9.864  -2.628  1.00  0.00     0.049 C 
BRANCH  14  15
HETATM   15  C11 UNL     1     -18.688   8.587  -2.670  1.00  0.00    -0.008 C 
HETATM   16  C2  UNL     1     -18.931   8.207  -4.108  1.00  0.00    -0.014 C 
HETATM   17  C1  UNL     1     -19.294   9.408  -4.956  1.00  0.00     0.010 C 
HETATM   18  C3  UNL     1     -20.111   7.260  -4.139  1.00  0.00     0.016 C 
HETATM   19  C4  UNL     1     -20.112   6.342  -2.926  1.00  0.00     0.056 C 
HETATM   20  C9  UNL     1     -20.311   7.103  -1.647  1.00  0.00     0.013 C 
HETATM   21  C10 UNL     1     -19.985   8.576  -1.938  1.00  0.00     0.006 C 
BRANCH  19  22
HETATM   22  C5  UNL     1     -21.195   5.343  -3.158  1.00  0.00     0.131 C 
HETATM   23  O1  UNL     1     -22.353   5.689  -3.001  1.00  0.00    -0.298 OA
BRANCH  22  24
HETATM   24  C6  UNL     1     -20.914   3.951  -3.571  1.00  0.00     0.089 C 
BRANCH  24  25
HETATM   25  C7  UNL     1     -19.452   3.653  -3.722  1.00  0.00     0.120 C 
BRANCH  25  26
HETATM   26  C8  UNL     1     -19.089   2.934  -4.940  1.00  0.00     0.172 C 
HETATM   27  O2  UNL     1     -18.943   1.708  -4.960  1.00  0.00    -0.648 OA
HETATM   28  O3  UNL     1     -18.905   3.682  -6.107  1.00  0.00    -0.648 OA
ENDBRANCH  25  26
ENDBRANCH  24  25
ENDBRANCH  22  24
ENDBRANCH  19  22
ENDBRANCH  14  15
ENDBRANCH   1  14
BRANCH   3  29
HETATM   29  O4  UNL     1     -15.259  10.338  -3.681  1.00  0.00    -0.384 OA
ATOM     30  H4  UNL     1     -14.432  10.128  -4.098  1.00  0.00     0.210 HD
ENDBRANCH   3  29
TORSDOF 7
ENDMDL
MODEL 4
REMARK VINA RESULT: -8.226903717      1.892      2.937
REMARK  7 active torsions:
REMARK  status: ('A' for Active; 'I' for Inactive)
REMARK    1  A    between atoms: C4_4  and  C5_5 
REMARK    2  A    between atoms: C5_5  and  C6_7 
REMARK    3  A    between atoms: C6_7  and  C7_8 
REMARK    4  A    between atoms: C7_8  and  C8_9 
REMARK    5  A    between atoms: C11_14  and  C12_15 
REMARK    6  A    between atoms: C12_15  and  C13_16 
REMARK    7  A    between atoms: C15_18  and  O4_19 
ROOT
HETATM    1  C13 UNL     1     -18.106  11.715  -2.022  1.00  0.00     0.132 A 
HETATM    2  C14 UNL     1     -19.537  12.003  -2.134  1.00  0.00     0.087 A 
HETATM    3  C15 UNL     1     -18.805  12.213  -0.824  1.00  0.00     0.116 A 
HETATM    4  C16 UNL     1     -18.589  13.622  -0.448  1.00  0.00     0.212 C 
HETATM    5  O5  UNL     1     -17.533  14.276  -1.009  1.00  0.00    -0.349 OA
HETATM    6  C17 UNL     1     -16.309  13.670  -0.858  1.00  0.00     0.197 C 
HETATM    7  C18 UNL     1     -16.120  13.231   0.574  1.00  0.00     0.071 C 
HETATM    8  C19 UNL     1     -14.649  13.396   0.978  1.00  0.00     0.006 C 
HETATM    9  C20 UNL     1     -13.822  12.835  -0.150  1.00  0.00     0.000 C 
HETATM   10  C21 UNL     1     -13.922  13.830  -1.304  1.00  0.00     0.006 C 
HETATM   11  C22 UNL     1     -15.207  14.656  -1.183  1.00  0.00     0.071 C 
HETATM   12  O6  UNL     1     -16.159  12.613  -1.752  1.00  0.00    -0.200 OA
HETATM   13  O7  UNL     1     -17.195  12.639  -2.563  1.00  0.00    -0.223 OA
ENDROOT
BRANCH   1  14
HETATM   14  C12 UNL     1     -17.567  10.302  -2.028  1.00  0.00     0.049 C 
BRANCH  14  15
HETATM   15  C11 UNL     1     -18.553   9.279  -2.465  1.00  0.00    -0.008 C 
HETATM   16  C2  UNL     1     -18.701   8.244  -1.379  1.00  0.00    -0.014 C 
HETATM   17  C1  UNL     1     -17.369   7.887  -0.754  1.00  0.00     0.010 C 
HETATM   18  C3  UNL     1     -19.251   6.986  -2.017  1.00  0.00     0.016 C 
HETATM   19  C4  UNL     1     -20.244   7.317  -3.121  1.00  0.00     0.056 C 
HETATM   20  C9  UNL     1     -19.587   8.029  -4.268  1.00  0.00     0.013 C 
HETATM   21  C10 UNL     1     -18.254   8.592  -3.754  1.00  0.00     0.006 C 
BRANCH  19  22
HETATM   22  C5  UNL     1     -20.852   6.022  -3.540  1.00  0.00     0.131 C 
HETATM   23  O1  UNL     1     -21.842   5.623  -2.949  1.00  0.00    -0.298 OA
BRANCH  22  24
HETATM   24  C6  UNL     1     -20.300   5.207  -4.643  1.00  0.00     0.089 C 
BRANCH  24  25
HETATM   25  C7  UNL     1     -19.483   4.039  -4.178  1.00  0.00     0.120 C 
BRANCH  25  26
HETATM   26  C8  UNL     1     -19.111   3.088  -5.221  1.00  0.00     0.172 C 
HETATM   27  O2  UNL     1     -18.956   3.430  -6.397  1.00  0.00    -0.648 OA
HETATM   28  O3  UNL     1     -18.932   1.752  -4.850  1.00  0.00    -0.648 OA
ENDBRANCH  25  26
ENDBRANCH  24  25
ENDBRANCH  22  24
ENDBRANCH  19  22
ENDBRANCH  14  15
ENDBRANCH   1  14
BRANCH   3  29
HETATM   29  O4  UNL     1     -19.113  11.315   0.216  1.00  0.00    -0.384 OA
ATOM     30  H4  UNL     1     -19.331  10.416   0.004  1.00  0.00     0.210 HD
ENDBRANCH   3  29
TORSDOF 7
ENDMDL
MODEL 5
REMARK VINA RESULT: -8.203716343      1.703      3.799
REMARK  7 active torsions:
REMARK  status: ('A' for Active; 'I' for Inactive)
REMARK    1  A    between atoms: C4_4  and  C5_5 
REMARK    2  A    between atoms: C5_5  and  C6_7 
REMARK    3  A    between atoms: C6_7  and  C7_8 
REMARK    4  A    between atoms: C7_8  and  C8_9 
REMARK    5  A    between atoms: C11_14  and  C12_15 
REMARK    6  A    between atoms: C12_15  and  C13_16 
REMARK    7  A    between atoms: C15_18  and  O4_19 
ROOT
HETATM    1  C13 UNL     1     -16.281   9.580  -0.580  1.00  0.00     0.132 A 
HETATM    2  C14 UNL     1     -15.307   9.252   0.463  1.00  0.00     0.087 A 
HETATM    3  C15 UNL     1     -15.212  10.556  -0.302  1.00  0.00     0.116 A 
HETATM    4  C16 UNL     1     -15.576  11.760   0.467  1.00  0.00     0.212 C 
HETATM    5  O5  UNL     1     -16.899  12.061   0.589  1.00  0.00    -0.349 OA
HETATM    6  C17 UNL     1     -17.599  12.162  -0.589  1.00  0.00     0.197 C 
HETATM    7  C18 UNL     1     -16.827  12.996  -1.582  1.00  0.00     0.071 C 
HETATM    8  C19 UNL     1     -17.799  13.828  -2.429  1.00  0.00     0.006 C 
HETATM    9  C20 UNL     1     -18.910  12.901  -2.850  1.00  0.00     0.000 C 
HETATM   10  C21 UNL     1     -19.757  12.637  -1.607  1.00  0.00     0.006 C 
HETATM   11  C22 UNL     1     -18.922  12.853  -0.341  1.00  0.00     0.071 C 
HETATM   12  O6  UNL     1     -17.909  10.902  -1.096  1.00  0.00    -0.200 OA
HETATM   13  O7  UNL     1     -17.557  10.018  -0.187  1.00  0.00    -0.223 OA
ENDROOT
BRANCH   1  14
HETATM   14  C12 UNL     1     -16.301   8.867  -1.914  1.00  0.00     0.049 C 
BRANCH  14  15
HETATM   15  C11 UNL     1     -17.581   8.171  -2.211  1.00  0.00    -0.008 C 
HETATM   16  C2  UNL     1     -17.410   6.697  -1.952  1.00  0.00    -0.014 C 
HETATM   17  C1  UNL     1     -16.068   6.189  -2.436  1.00  0.00     0.010 C 
HETATM   18  C3  UNL     1     -18.478   5.967  -2.738  1.00  0.00     0.016 C 
HETATM   19  C4  UNL     1     -19.778   6.757  -2.766  1.00  0.00     0.056 C 
HETATM   20  C9  UNL     1     -19.627   8.055  -3.507  1.00  0.00     0.013 C 
HETATM   21  C10 UNL     1     -18.125   8.364  -3.585  1.00  0.00     0.006 C 
BRANCH  19  22
HETATM   22  C5  UNL     1     -20.796   5.867  -3.395  1.00  0.00     0.131 C 
HETATM   23  O1  UNL     1     -21.853   5.687  -2.816  1.00  0.00    -0.298 OA
BRANCH  22  24
HETATM   24  C6  UNL     1     -20.569   5.198  -4.694  1.00  0.00     0.089 C 
BRANCH  24  25
HETATM   25  C7  UNL     1     -20.480   3.705  -4.594  1.00  0.00     0.120 C 
BRANCH  25  26
HETATM   26  C8  UNL     1     -19.345   3.103  -5.287  1.00  0.00     0.172 C 
HETATM   27  O2  UNL     1     -18.759   3.677  -6.210  1.00  0.00    -0.648 OA
HETATM   28  O3  UNL     1     -18.928   1.834  -4.872  1.00  0.00    -0.648 OA
ENDBRANCH  25  26
ENDBRANCH  24  25
ENDBRANCH  22  24
ENDBRANCH  19  22
ENDBRANCH  14  15
ENDBRANCH   1  14
BRANCH   3  29
HETATM   29  O4  UNL     1     -14.138  10.676  -1.205  1.00  0.00    -0.384 OA
ATOM     30  H4  UNL     1     -14.155  11.366  -1.857  1.00  0.00     0.210 HD
ENDBRANCH   3  29
TORSDOF 7
ENDMDL
