MODEL 1
REMARK VINA RESULT: -7.692269043      0.000      0.000
REMARK  8 active torsions:
REMARK  status: ('A' for Active; 'I' for Inactive)
REMARK    1  A    between atoms: C2_2  and  C3_3 
REMARK    2  A    between atoms: C3_3  and  N1_4 
REMARK       I    between atoms: N1_4  and  C4_6 
REMARK    3  A    between atoms: C4_6  and  C5_8 
REMARK    4  A    between atoms: C5_8  and  C6_9 
REMARK    5  A    between atoms: C8_12  and  O3_13 
REMARK    6  A    between atoms: O3_13  and  C9_14 
REMARK    7  A    between atoms: C9_14  and  C10_16 
REMARK    8  A    between atoms: C11_17  and  O5_18 
ROOT
HETATM    1  C10 UNL     1     -18.499   5.175  -5.719  1.00  0.00     0.130 C 
HETATM    2  C11 UNL     1     -19.444   4.367  -5.348  1.00  0.00     0.152 C 
HETATM    3  C12 UNL     1     -19.137   2.997  -5.058  1.00  0.00     0.124 C 
HETATM    4  N2  UNL     1     -18.874   1.886  -4.816  1.00  0.00    -0.189 NA
ENDROOT
BRANCH   2   5
HETATM    5  O5  UNL     1     -20.741   4.875  -5.246  1.00  0.00    -0.351 OA
ATOM      6  H5  UNL     1     -21.085   5.050  -4.378  1.00  0.00     0.218 HD
ENDBRANCH   2   5
BRANCH   1   7
HETATM    7  C9  UNL     1     -18.726   6.594  -6.036  1.00  0.00     0.286 C 
HETATM    8  O4  UNL     1     -19.446   6.915  -7.013  1.00  0.00    -0.260 OA
BRANCH   7   9
HETATM    9  O3  UNL     1     -18.191   7.619  -5.317  1.00  0.00    -0.310 OA
BRANCH   9  10
HETATM   10  C8  UNL     1     -18.677   8.078  -4.066  1.00  0.00     0.162 C 
HETATM   11  C7  UNL     1     -18.003   9.453  -3.910  1.00  0.00     0.156 C 
HETATM   12  O2  UNL     1     -16.875   9.253  -3.190  1.00  0.00    -0.376 OA
HETATM   13  C21 UNL     1     -18.874  10.424  -3.210  1.00  0.00     0.024 C 
HETATM   14  C6  UNL     1     -16.642  10.405  -2.372  1.00  0.00     0.139 C 
HETATM   15  C19 UNL     1     -17.996  10.868  -2.062  1.00  0.00    -0.012 C 
HETATM   16  C18 UNL     1     -18.580  10.283  -0.796  1.00  0.00     0.012 C 
HETATM   17  C20 UNL     1     -18.223  12.355  -1.915  1.00  0.00     0.018 C 
HETATM   18  C17 UNL     1     -18.241   8.853  -0.519  1.00  0.00     0.001 C 
HETATM   19  C16 UNL     1     -19.378   7.925  -0.792  1.00  0.00     0.004 C 
HETATM   20  C14 UNL     1     -19.249   6.951  -1.871  1.00  0.00    -0.016 C 
HETATM   21  C13 UNL     1     -18.257   7.143  -2.945  1.00  0.00     0.039 C 
HETATM   22  C15 UNL     1     -20.652   6.746  -2.471  1.00  0.00     0.010 C 
HETATM   23  C22 UNL     1     -19.347  11.527  -4.104  1.00  0.00     0.013 C 
BRANCH  14  24
HETATM   24  C5  UNL     1     -15.724  11.222  -3.173  1.00  0.00     0.135 C 
BRANCH  24  25
HETATM   25  C4  UNL     1     -14.480  10.667  -3.662  1.00  0.00     0.220 C 
HETATM   26  N1  UNL     1     -13.745   9.785  -2.804  1.00  0.00    -0.361 N 
ATOM     27  H1  UNL     1     -14.139   9.584  -1.885  1.00  0.00     0.162 HD
HETATM   28  O1  UNL     1     -14.011  10.911  -4.787  1.00  0.00    -0.274 OA
BRANCH  26  29
HETATM   29  C3  UNL     1     -12.498   9.163  -3.138  1.00  0.00     0.122 C 
BRANCH  29  30
HETATM   30  C2  UNL     1     -12.452   7.783  -2.534  1.00  0.00     0.015 C 
HETATM   31  C1  UNL     1     -13.809   7.397  -1.957  1.00  0.00     0.006 C 
ENDBRANCH  29  30
ENDBRANCH  26  29
ENDBRANCH  24  25
ENDBRANCH  14  24
ENDBRANCH   9  10
ENDBRANCH   7   9
ENDBRANCH   1   7
TORSDOF 8
ENDMDL
MODEL 2
REMARK VINA RESULT: -7.522463303      2.672      5.889
REMARK  8 active torsions:
REMARK  status: ('A' for Active; 'I' for Inactive)
REMARK    1  A    between atoms: C2_2  and  C3_3 
REMARK    2  A    between atoms: C3_3  and  N1_4 
REMARK       I    between atoms: N1_4  and  C4_6 
REMARK    3  A    between atoms: C4_6  and  C5_8 
REMARK    4  A    between atoms: C5_8  and  C6_9 
REMARK    5  A    between atoms: C8_12  and  O3_13 
REMARK    6  A    between atoms: O3_13  and  C9_14 
REMARK    7  A    between atoms: C9_14  and  C10_16 
REMARK    8  A    between atoms: C11_17  and  O5_18 
ROOT
HETATM    1  C10 UNL     1     -18.067   9.915  -0.408  1.00  0.00     0.130 C 
HETATM    2  C11 UNL     1     -17.703   8.854   0.244  1.00  0.00     0.152 C 
HETATM    3  C12 UNL     1     -16.462   8.848   0.961  1.00  0.00     0.124 C 
HETATM    4  N2  UNL     1     -15.453   8.859   1.548  1.00  0.00    -0.189 NA
ENDROOT
BRANCH   2   5
HETATM    5  O5  UNL     1     -18.552   7.745   0.220  1.00  0.00    -0.351 OA
ATOM      6  H5  UNL     1     -18.919   7.444   1.043  1.00  0.00     0.218 HD
ENDBRANCH   2   5
BRANCH   1   7
HETATM    7  C9  UNL     1     -19.323  10.006  -1.169  1.00  0.00     0.286 C 
HETATM    8  O4  UNL     1     -19.773  11.127  -1.514  1.00  0.00    -0.260 OA
BRANCH   7   9
HETATM    9  O3  UNL     1     -20.058   8.921  -1.539  1.00  0.00    -0.310 OA
BRANCH   9  10
HETATM   10  C8  UNL     1     -20.279   8.504  -2.876  1.00  0.00     0.162 C 
HETATM   11  C7  UNL     1     -19.908   7.010  -2.844  1.00  0.00     0.156 C 
HETATM   12  O2  UNL     1     -18.613   6.923  -3.227  1.00  0.00    -0.376 OA
HETATM   13  C21 UNL     1     -20.751   6.208  -3.759  1.00  0.00     0.024 C 
HETATM   14  C6  UNL     1     -18.429   5.702  -3.951  1.00  0.00     0.139 C 
HETATM   15  C19 UNL     1     -19.718   5.520  -4.622  1.00  0.00    -0.012 C 
HETATM   16  C18 UNL     1     -19.796   6.141  -5.999  1.00  0.00     0.012 C 
HETATM   17  C20 UNL     1     -20.219   4.110  -4.830  1.00  0.00     0.018 C 
HETATM   18  C17 UNL     1     -19.088   7.447  -6.169  1.00  0.00     0.001 C 
HETATM   19  C16 UNL     1     -20.023   8.611  -6.217  1.00  0.00     0.004 C 
HETATM   20  C14 UNL     1     -19.977   9.596  -5.142  1.00  0.00    -0.016 C 
HETATM   21  C13 UNL     1     -19.378   9.261  -3.836  1.00  0.00     0.039 C 
HETATM   22  C15 UNL     1     -21.408  10.130  -4.949  1.00  0.00     0.010 C 
HETATM   23  C22 UNL     1     -21.678   5.284  -3.032  1.00  0.00     0.013 C 
BRANCH  14  24
HETATM   24  C5  UNL     1     -17.963   4.757  -2.930  1.00  0.00     0.135 C 
BRANCH  24  25
HETATM   25  C4  UNL     1     -16.688   4.950  -2.276  1.00  0.00     0.220 C 
HETATM   26  N1  UNL     1     -15.959   6.154  -2.546  1.00  0.00    -0.361 N 
ATOM     27  H1  UNL     1     -16.380   6.826  -3.188  1.00  0.00     0.162 HD
HETATM   28  O1  UNL     1     -16.186   4.129  -1.488  1.00  0.00    -0.274 OA
BRANCH  26  29
HETATM   29  C3  UNL     1     -14.684   6.487  -1.983  1.00  0.00     0.122 C 
BRANCH  29  30
HETATM   30  C2  UNL     1     -14.482   7.980  -2.056  1.00  0.00     0.015 C 
HETATM   31  C1  UNL     1     -13.209   8.391  -1.328  1.00  0.00     0.006 C 
ENDBRANCH  29  30
ENDBRANCH  26  29
ENDBRANCH  24  25
ENDBRANCH  14  24
ENDBRANCH   9  10
ENDBRANCH   7   9
ENDBRANCH   1   7
TORSDOF 8
ENDMDL
MODEL 3
REMARK VINA RESULT: -7.275033582      2.549      5.632
REMARK  8 active torsions:
REMARK  status: ('A' for Active; 'I' for Inactive)
REMARK    1  A    between atoms: C2_2  and  C3_3 
REMARK    2  A    between atoms: C3_3  and  N1_4 
REMARK       I    between atoms: N1_4  and  C4_6 
REMARK    3  A    between atoms: C4_6  and  C5_8 
REMARK    4  A    between atoms: C5_8  and  C6_9 
REMARK    5  A    between atoms: C8_12  and  O3_13 
REMARK    6  A    between atoms: O3_13  and  C9_14 
REMARK    7  A    between atoms: C9_14  and  C10_16 
REMARK    8  A    between atoms: C11_17  and  O5_18 
ROOT
HETATM    1  C10 UNL     1     -17.733  10.702  -1.138  1.00  0.00     0.130 C 
HETATM    2  C11 UNL     1     -17.806   9.875  -0.140  1.00  0.00     0.152 C 
HETATM    3  C12 UNL     1     -16.605   9.417   0.495  1.00  0.00     0.124 C 
HETATM    4  N2  UNL     1     -15.621   9.059   1.009  1.00  0.00    -0.189 NA
ENDROOT
BRANCH   2   5
HETATM    5  O5  UNL     1     -19.073   9.461   0.279  1.00  0.00    -0.351 OA
ATOM      6  H5  UNL     1     -19.805   9.596  -0.311  1.00  0.00     0.218 HD
ENDBRANCH   2   5
BRANCH   1   7
HETATM    7  C9  UNL     1     -18.915  11.221  -1.846  1.00  0.00     0.286 C 
HETATM    8  O4  UNL     1     -18.911  12.388  -2.309  1.00  0.00    -0.260 OA
BRANCH   7   9
HETATM    9  O3  UNL     1     -20.051  10.497  -2.043  1.00  0.00    -0.310 OA
BRANCH   9  10
HETATM   10  C8  UNL     1     -20.332   9.717  -3.193  1.00  0.00     0.162 C 
HETATM   11  C7  UNL     1     -19.869   8.307  -2.784  1.00  0.00     0.156 C 
HETATM   12  O2  UNL     1     -18.598   8.172  -3.230  1.00  0.00    -0.376 OA
HETATM   13  C21 UNL     1     -20.718   7.248  -3.376  1.00  0.00     0.024 C 
HETATM   14  C6  UNL     1     -18.387   6.806  -3.606  1.00  0.00     0.139 C 
HETATM   15  C19 UNL     1     -19.703   6.393  -4.098  1.00  0.00    -0.012 C 
HETATM   16  C18 UNL     1     -19.908   6.604  -5.581  1.00  0.00     0.012 C 
HETATM   17  C20 UNL     1     -20.128   4.961  -3.872  1.00  0.00     0.018 C 
HETATM   18  C17 UNL     1     -19.294   7.841  -6.156  1.00  0.00     0.001 C 
HETATM   19  C16 UNL     1     -20.300   8.906  -6.446  1.00  0.00     0.004 C 
HETATM   20  C14 UNL     1     -20.246  10.151  -5.688  1.00  0.00    -0.016 C 
HETATM   21  C13 UNL     1     -19.543  10.215  -4.392  1.00  0.00     0.039 C 
HETATM   22  C15 UNL     1     -21.692  10.657  -5.535  1.00  0.00     0.010 C 
HETATM   23  C22 UNL     1     -21.537   6.524  -2.353  1.00  0.00     0.013 C 
BRANCH  14  24
HETATM   24  C5  UNL     1     -17.798   6.201  -2.406  1.00  0.00     0.135 C 
BRANCH  24  25
HETATM   25  C4  UNL     1     -16.365   6.195  -2.212  1.00  0.00     0.220 C 
HETATM   26  N1  UNL     1     -15.659   7.439  -2.314  1.00  0.00    -0.361 N 
ATOM     27  H1  UNL     1     -16.206   8.276  -2.515  1.00  0.00     0.162 HD
HETATM   28  O1  UNL     1     -15.707   5.171  -1.959  1.00  0.00    -0.274 OA
BRANCH  26  29
HETATM   29  C3  UNL     1     -14.244   7.596  -2.155  1.00  0.00     0.122 C 
BRANCH  29  30
HETATM   30  C2  UNL     1     -13.858   9.010  -2.506  1.00  0.00     0.015 C 
HETATM   31  C1  UNL     1     -12.438   9.064  -3.056  1.00  0.00     0.006 C 
ENDBRANCH  29  30
ENDBRANCH  26  29
ENDBRANCH  24  25
ENDBRANCH  14  24
ENDBRANCH   9  10
ENDBRANCH   7   9
ENDBRANCH   1   7
TORSDOF 8
ENDMDL
MODEL 4
REMARK VINA RESULT: -7.234822116      2.559      6.133
REMARK  8 active torsions:
REMARK  status: ('A' for Active; 'I' for Inactive)
REMARK    1  A    between atoms: C2_2  and  C3_3 
REMARK    2  A    between atoms: C3_3  and  N1_4 
REMARK       I    between atoms: N1_4  and  C4_6 
REMARK    3  A    between atoms: C4_6  and  C5_8 
REMARK    4  A    between atoms: C5_8  and  C6_9 
REMARK    5  A    between atoms: C8_12  and  O3_13 
REMARK    6  A    between atoms: O3_13  and  C9_14 
REMARK    7  A    between atoms: C9_14  and  C10_16 
REMARK    8  A    between atoms: C11_17  and  O5_18 
ROOT
HETATM    1  C10 UNL     1     -17.760   9.876  -0.868  1.00  0.00     0.130 C 
HETATM    2  C11 UNL     1     -17.955  11.103  -0.491  1.00  0.00     0.152 C 
HETATM    3  C12 UNL     1     -16.902  12.066  -0.626  1.00  0.00     0.124 C 
HETATM    4  N2  UNL     1     -16.040  12.843  -0.748  1.00  0.00    -0.189 NA
ENDROOT
BRANCH   2   5
HETATM    5  O5  UNL     1     -19.205  11.437   0.036  1.00  0.00    -0.351 OA
ATOM      6  H5  UNL     1     -19.242  12.111   0.706  1.00  0.00     0.218 HD
ENDBRANCH   2   5
BRANCH   1   7
HETATM    7  C9  UNL     1     -18.785   8.826  -0.766  1.00  0.00     0.286 C 
HETATM    8  O4  UNL     1     -18.571   7.799  -0.076  1.00  0.00    -0.260 OA
BRANCH   7   9
HETATM    9  O3  UNL     1     -19.994   8.893  -1.389  1.00  0.00    -0.310 OA
BRANCH   9  10
HETATM   10  C8  UNL     1     -20.235   8.536  -2.740  1.00  0.00     0.162 C 
HETATM   11  C7  UNL     1     -19.780   7.066  -2.802  1.00  0.00     0.156 C 
HETATM   12  O2  UNL     1     -18.495   7.076  -3.227  1.00  0.00    -0.376 OA
HETATM   13  C21 UNL     1     -20.606   6.266  -3.735  1.00  0.00     0.024 C 
HETATM   14  C6  UNL     1     -18.267   5.908  -4.024  1.00  0.00     0.139 C 
HETATM   15  C19 UNL     1     -19.565   5.688  -4.665  1.00  0.00    -0.012 C 
HETATM   16  C18 UNL     1     -19.723   6.375  -6.002  1.00  0.00     0.012 C 
HETATM   17  C20 UNL     1     -19.991   4.264  -4.935  1.00  0.00     0.018 C 
HETATM   18  C17 UNL     1     -19.096   7.728  -6.121  1.00  0.00     0.001 C 
HETATM   19  C16 UNL     1     -20.097   8.836  -6.076  1.00  0.00     0.004 C 
HETATM   20  C14 UNL     1     -20.071   9.764  -4.950  1.00  0.00    -0.016 C 
HETATM   21  C13 UNL     1     -19.411   9.394  -3.683  1.00  0.00     0.039 C 
HETATM   22  C15 UNL     1     -21.523  10.202  -4.686  1.00  0.00     0.010 C 
HETATM   23  C22 UNL     1     -21.455   5.253  -3.033  1.00  0.00     0.013 C 
BRANCH  14  24
HETATM   24  C5  UNL     1     -17.715   4.938  -3.071  1.00  0.00     0.135 C 
BRANCH  24  25
HETATM   25  C4  UNL     1     -16.495   5.228  -2.349  1.00  0.00     0.220 C 
HETATM   26  N1  UNL     1     -15.815   6.459  -2.627  1.00  0.00    -0.361 N 
ATOM     27  H1  UNL     1     -16.230   7.080  -3.323  1.00  0.00     0.162 HD
HETATM   28  O1  UNL     1     -16.001   4.469  -1.497  1.00  0.00    -0.274 OA
BRANCH  26  29
HETATM   29  C3  UNL     1     -14.598   6.884  -2.003  1.00  0.00     0.122 C 
BRANCH  29  30
HETATM   30  C2  UNL     1     -14.494   8.386  -2.087  1.00  0.00     0.015 C 
HETATM   31  C1  UNL     1     -14.189   8.987  -0.720  1.00  0.00     0.006 C 
ENDBRANCH  29  30
ENDBRANCH  26  29
ENDBRANCH  24  25
ENDBRANCH  14  24
ENDBRANCH   9  10
ENDBRANCH   7   9
ENDBRANCH   1   7
TORSDOF 8
ENDMDL
MODEL 5
REMARK VINA RESULT: -7.231803994      2.889      6.202
REMARK  8 active torsions:
REMARK  status: ('A' for Active; 'I' for Inactive)
REMARK    1  A    between atoms: C2_2  and  C3_3 
REMARK    2  A    between atoms: C3_3  and  N1_4 
REMARK       I    between atoms: N1_4  and  C4_6 
REMARK    3  A    between atoms: C4_6  and  C5_8 
REMARK    4  A    between atoms: C5_8  and  C6_9 
REMARK    5  A    between atoms: C8_12  and  O3_13 
REMARK    6  A    between atoms: O3_13  and  C9_14 
REMARK    7  A    between atoms: C9_14  and  C10_16 
REMARK    8  A    between atoms: C11_17  and  O5_18 
ROOT
HETATM    1  C10 UNL     1     -18.322  12.727  -1.334  1.00  0.00     0.130 C 
HETATM    2  C11 UNL     1     -17.969  12.162  -0.220  1.00  0.00     0.152 C 
HETATM    3  C12 UNL     1     -16.857  12.680   0.521  1.00  0.00     0.124 C 
HETATM    4  N2  UNL     1     -15.955  13.116   1.120  1.00  0.00    -0.189 NA
ENDROOT
BRANCH   2   5
HETATM    5  O5  UNL     1     -18.702  11.055   0.216  1.00  0.00    -0.351 OA
ATOM      6  H5  UNL     1     -18.251  10.395   0.729  1.00  0.00     0.218 HD
ENDBRANCH   2   5
BRANCH   1   7
HETATM    7  C9  UNL     1     -19.450  12.261  -2.157  1.00  0.00     0.286 C 
HETATM    8  O4  UNL     1     -19.915  12.994  -3.063  1.00  0.00    -0.260 OA
BRANCH   7   9
HETATM    9  O3  UNL     1     -20.044  11.046  -1.997  1.00  0.00    -0.310 OA
BRANCH   9  10
HETATM   10  C8  UNL     1     -20.307  10.124  -3.042  1.00  0.00     0.162 C 
HETATM   11  C7  UNL     1     -19.819   8.785  -2.461  1.00  0.00     0.156 C 
HETATM   12  O2  UNL     1     -18.545   8.619  -2.885  1.00  0.00    -0.376 OA
HETATM   13  C21 UNL     1     -20.647   7.645  -2.917  1.00  0.00     0.024 C 
HETATM   14  C6  UNL     1     -18.307   7.221  -3.088  1.00  0.00     0.139 C 
HETATM   15  C19 UNL     1     -19.614   6.726  -3.526  1.00  0.00    -0.012 C 
HETATM   16  C18 UNL     1     -19.818   6.747  -5.024  1.00  0.00     0.012 C 
HETATM   17  C20 UNL     1     -20.014   5.325  -3.124  1.00  0.00     0.018 C 
HETATM   18  C17 UNL     1     -19.226   7.914  -5.748  1.00  0.00     0.001 C 
HETATM   19  C16 UNL     1     -20.250   8.916  -6.169  1.00  0.00     0.004 C 
HETATM   20  C14 UNL     1     -20.221  10.247  -5.571  1.00  0.00    -0.016 C 
HETATM   21  C13 UNL     1     -19.524  10.484  -4.293  1.00  0.00     0.039 C 
HETATM   22  C15 UNL     1     -21.676  10.741  -5.484  1.00  0.00     0.010 C 
HETATM   23  C22 UNL     1     -21.456   7.039  -1.813  1.00  0.00     0.013 C 
BRANCH  14  24
HETATM   24  C5  UNL     1     -17.712   6.781  -1.822  1.00  0.00     0.135 C 
BRANCH  24  25
HETATM   25  C4  UNL     1     -17.143   7.741  -0.902  1.00  0.00     0.220 C 
HETATM   26  N1  UNL     1     -15.936   8.415  -1.283  1.00  0.00    -0.361 N 
ATOM     27  H1  UNL     1     -15.535   8.188  -2.193  1.00  0.00     0.162 HD
HETATM   28  O1  UNL     1     -17.641   8.019   0.202  1.00  0.00    -0.274 OA
BRANCH  26  29
HETATM   29  C3  UNL     1     -15.248   9.384  -0.482  1.00  0.00     0.122 C 
BRANCH  29  30
HETATM   30  C2  UNL     1     -14.667  10.449  -1.378  1.00  0.00     0.015 C 
HETATM   31  C1  UNL     1     -15.518  10.628  -2.629  1.00  0.00     0.006 C 
ENDBRANCH  29  30
ENDBRANCH  26  29
ENDBRANCH  24  25
ENDBRANCH  14  24
ENDBRANCH   9  10
ENDBRANCH   7   9
ENDBRANCH   1   7
TORSDOF 8
ENDMDL
