MODEL 1
REMARK VINA RESULT: -7.933161771      0.000      0.000
REMARK  8 active torsions:
REMARK  status: ('A' for Active; 'I' for Inactive)
REMARK    1  A    between atoms: C3_3  and  C4_4 
REMARK    2  A    between atoms: C4_4  and  C5_5 
REMARK    3  A    between atoms: C5_5  and  C6_6 
REMARK    4  A    between atoms: C6_6  and  C7_7 
REMARK    5  A    between atoms: C10_13  and  C11_14 
REMARK    6  A    between atoms: C16_19  and  C17_20 
REMARK    7  A    between atoms: C19_24  and  N3_25 
REMARK    8  A    between atoms: C20_28  and  O1_29 
ROOT
HETATM    1  C1  UNL     1      15.200  20.530  -8.087  1.00  0.00     0.012 C 
HETATM    2  C2  UNL     1      15.744  21.361  -8.767  1.00  0.00    -0.117 C 
HETATM    3  C3  UNL     1      16.379  22.376  -9.576  1.00  0.00     0.093 C 
ENDROOT
BRANCH   3   4
HETATM    4  C4  UNL     1      15.252  23.191 -10.290  1.00  0.00     0.012 C 
BRANCH   4   5
HETATM    5  C5  UNL     1      15.919  24.258 -11.074  1.00  0.00     0.002 C 
BRANCH   5   6
HETATM    6  C6  UNL     1      16.715  23.900 -12.274  1.00  0.00     0.017 C 
BRANCH   6   7
HETATM    7  C7  UNL     1      17.861  24.814 -12.563  1.00  0.00     0.015 C 
HETATM    8  C8  UNL     1      17.475  26.233 -12.885  1.00  0.00     0.023 C 
HETATM    9  C9  UNL     1      18.483  25.030 -11.083  1.00  0.00     0.150 C 
HETATM   10  N1  UNL     1      19.660  25.697 -11.572  1.00  0.00    -0.140 NA
HETATM   11  N2  UNL     1      20.091  24.899 -12.607  1.00  0.00    -0.306 N 
HETATM   12  C10 UNL     1      19.034  24.335 -13.250  1.00  0.00     0.048 C 
ATOM     13  H2  UNL     1      21.068  24.750 -12.857  1.00  0.00     0.182 HD
BRANCH  12  14
HETATM   14  C11 UNL     1      19.436  23.425 -14.342  1.00  0.00     0.063 A 
HETATM   15  C12 UNL     1      18.994  23.470 -15.624  1.00  0.00    -0.032 A 
HETATM   16  C13 UNL     1      18.329  24.635 -16.224  1.00  0.00     0.050 C 
HETATM   17  C14 UNL     1      19.304  22.442 -16.535  1.00  0.00     0.001 A 
HETATM   18  C15 UNL     1      18.730  22.651 -17.767  1.00  0.00     0.027 C 
HETATM   19  C21 UNL     1      20.075  21.357 -16.153  1.00  0.00     0.081 A 
HETATM   20  C16 UNL     1      19.209  22.169 -18.987  1.00  0.00     0.009 C 
HETATM   21  C18 UNL     1      19.936  21.011 -19.166  1.00  0.00     0.044 C 
HETATM   22  C19 UNL     1      20.294  20.044 -18.216  1.00  0.00     0.062 C 
HETATM   23  C20 UNL     1      20.504  20.253 -16.884  1.00  0.00     0.119 C 
HETATM   24  N4  UNL     1      20.517  21.311 -14.896  1.00  0.00    -0.320 N 
HETATM   25  C22 UNL     1      20.212  22.286 -14.049  1.00  0.00     0.258 A 
ATOM     26  H4  UNL     1      21.088  20.525 -14.585  1.00  0.00     0.169 HD
HETATM   27  O2  UNL     1      20.668  22.166 -12.882  1.00  0.00    -0.267 OA
BRANCH  20  28
HETATM   28  C17 UNL     1      18.889  22.986 -20.160  1.00  0.00     0.386 C 
HETATM   29  F1  UNL     1      17.813  22.392 -20.836  1.00  0.00    -0.209 F 
HETATM   30  F2  UNL     1      18.435  24.256 -19.810  1.00  0.00    -0.209 F 
ENDBRANCH  20  28
BRANCH  22  31
HETATM   31  N3  UNL     1      20.425  18.882 -18.668  1.00  0.00    -0.397 N 
ATOM     32  H32 UNL     1      20.396  18.746 -19.679  1.00  0.00     0.156 HD
ATOM     33  H31 UNL     1      20.553  18.157 -17.962  1.00  0.00     0.156 HD
ENDBRANCH  22  31
BRANCH  23  34
HETATM   34  O1  UNL     1      21.196  19.320 -16.156  1.00  0.00    -0.356 OA
ATOM     35  H1  UNL     1      20.719  18.662 -15.666  1.00  0.00     0.218 HD
ENDBRANCH  23  34
ENDBRANCH  12  14
ENDBRANCH   6   7
ENDBRANCH   5   6
ENDBRANCH   4   5
ENDBRANCH   3   4
TORSDOF 8
ENDMDL
MODEL 2
REMARK VINA RESULT: -7.806918900      2.061      3.957
REMARK  8 active torsions:
REMARK  status: ('A' for Active; 'I' for Inactive)
REMARK    1  A    between atoms: C3_3  and  C4_4 
REMARK    2  A    between atoms: C4_4  and  C5_5 
REMARK    3  A    between atoms: C5_5  and  C6_6 
REMARK    4  A    between atoms: C6_6  and  C7_7 
REMARK    5  A    between atoms: C10_13  and  C11_14 
REMARK    6  A    between atoms: C16_19  and  C17_20 
REMARK    7  A    between atoms: C19_24  and  N3_25 
REMARK    8  A    between atoms: C20_28  and  O1_29 
ROOT
HETATM    1  C1  UNL     1      20.027  24.588 -18.200  1.00  0.00     0.012 C 
HETATM    2  C2  UNL     1      20.016  25.188 -17.157  1.00  0.00    -0.117 C 
HETATM    3  C3  UNL     1      19.980  25.898 -15.899  1.00  0.00     0.093 C 
ENDROOT
BRANCH   3   4
HETATM    4  C4  UNL     1      18.512  26.378 -15.663  1.00  0.00     0.012 C 
BRANCH   4   5
HETATM    5  C5  UNL     1      18.355  26.593 -14.205  1.00  0.00     0.002 C 
BRANCH   5   6
HETATM    6  C6  UNL     1      17.394  25.762 -13.438  1.00  0.00     0.017 C 
BRANCH   6   7
HETATM    7  C7  UNL     1      18.012  24.879 -12.404  1.00  0.00     0.015 C 
HETATM    8  C8  UNL     1      18.738  25.605 -11.302  1.00  0.00     0.023 C 
HETATM    9  C9  UNL     1      16.707  24.377 -11.586  1.00  0.00     0.150 C 
HETATM   10  N1  UNL     1      17.441  23.396 -10.832  1.00  0.00    -0.140 NA
HETATM   11  N2  UNL     1      18.197  22.745 -11.779  1.00  0.00    -0.306 N 
HETATM   12  C10 UNL     1      18.577  23.603 -12.762  1.00  0.00     0.048 C 
ATOM     13  H2  UNL     1      18.440  21.755 -11.748  1.00  0.00     0.182 HD
BRANCH  12  14
HETATM   14  C11 UNL     1      19.351  22.950 -13.837  1.00  0.00     0.063 A 
HETATM   15  C12 UNL     1      18.849  22.447 -14.993  1.00  0.00    -0.032 A 
HETATM   16  C13 UNL     1      17.522  22.783 -15.529  1.00  0.00     0.050 C 
HETATM   17  C14 UNL     1      19.653  21.685 -15.863  1.00  0.00     0.001 A 
HETATM   18  C15 UNL     1      18.950  21.232 -16.955  1.00  0.00     0.027 C 
HETATM   19  C21 UNL     1      20.983  21.430 -15.569  1.00  0.00     0.081 A 
HETATM   20  C16 UNL     1      19.488  20.923 -18.206  1.00  0.00     0.009 C 
HETATM   21  C18 UNL     1      20.771  20.474 -18.442  1.00  0.00     0.044 C 
HETATM   22  C19 UNL     1      21.777  20.163 -17.516  1.00  0.00     0.062 C 
HETATM   23  C20 UNL     1      21.945  20.722 -16.283  1.00  0.00     0.119 C 
HETATM   24  N4  UNL     1      21.483  21.927 -14.438  1.00  0.00    -0.320 N 
HETATM   25  C22 UNL     1      20.710  22.641 -13.627  1.00  0.00     0.258 A 
ATOM     26  H4  UNL     1      22.459  21.759 -14.195  1.00  0.00     0.169 HD
HETATM   27  O2  UNL     1      21.259  23.073 -12.581  1.00  0.00    -0.267 OA
BRANCH  20  28
HETATM   28  C17 UNL     1      18.584  21.099 -19.344  1.00  0.00     0.386 C 
HETATM   29  F1  UNL     1      17.949  19.875 -19.601  1.00  0.00    -0.209 F 
HETATM   30  F2  UNL     1      17.549  21.988 -19.063  1.00  0.00    -0.209 F 
ENDBRANCH  20  28
BRANCH  22  31
HETATM   31  N3  UNL     1      22.585  19.281 -17.890  1.00  0.00    -0.397 N 
ATOM     32  H32 UNL     1      22.570  18.988 -18.867  1.00  0.00     0.156 HD
ATOM     33  H31 UNL     1      23.203  18.927 -17.160  1.00  0.00     0.156 HD
ENDBRANCH  22  31
BRANCH  23  34
HETATM   34  O1  UNL     1      23.154  20.604 -15.648  1.00  0.00    -0.356 OA
ATOM     35  H1  UNL     1      23.845  21.228 -15.839  1.00  0.00     0.218 HD
ENDBRANCH  23  34
ENDBRANCH  12  14
ENDBRANCH   6   7
ENDBRANCH   5   6
ENDBRANCH   4   5
ENDBRANCH   3   4
TORSDOF 8
ENDMDL
MODEL 3
REMARK VINA RESULT: -7.783347905      4.690      5.809
REMARK  8 active torsions:
REMARK  status: ('A' for Active; 'I' for Inactive)
REMARK    1  A    between atoms: C3_3  and  C4_4 
REMARK    2  A    between atoms: C4_4  and  C5_5 
REMARK    3  A    between atoms: C5_5  and  C6_6 
REMARK    4  A    between atoms: C6_6  and  C7_7 
REMARK    5  A    between atoms: C10_13  and  C11_14 
REMARK    6  A    between atoms: C16_19  and  C17_20 
REMARK    7  A    between atoms: C19_24  and  N3_25 
REMARK    8  A    between atoms: C20_28  and  O1_29 
ROOT
HETATM    1  C1  UNL     1      19.620  21.447 -15.403  1.00  0.00     0.012 C 
HETATM    2  C2  UNL     1      19.042  22.502 -15.373  1.00  0.00    -0.117 C 
HETATM    3  C3  UNL     1      18.366  23.780 -15.352  1.00  0.00     0.093 C 
ENDROOT
BRANCH   3   4
HETATM    4  C4  UNL     1      19.454  24.893 -15.219  1.00  0.00     0.012 C 
BRANCH   4   5
HETATM    5  C5  UNL     1      19.187  25.890 -16.283  1.00  0.00     0.002 C 
BRANCH   5   6
HETATM    6  C6  UNL     1      17.823  26.008 -16.855  1.00  0.00     0.017 C 
BRANCH   6   7
HETATM    7  C7  UNL     1      17.768  26.039 -18.347  1.00  0.00     0.015 C 
HETATM    8  C8  UNL     1      16.499  26.606 -18.924  1.00  0.00     0.023 C 
HETATM    9  C9  UNL     1      18.786  27.253 -18.683  1.00  0.00     0.150 C 
HETATM   10  N1  UNL     1      18.795  26.981 -20.095  1.00  0.00    -0.140 NA
HETATM   11  N2  UNL     1      18.982  25.620 -20.172  1.00  0.00    -0.306 N 
HETATM   12  C10 UNL     1      18.375  24.993 -19.131  1.00  0.00     0.048 C 
ATOM     13  H2  UNL     1      19.505  25.147 -20.909  1.00  0.00     0.182 HD
BRANCH  12  14
HETATM   14  C11 UNL     1      18.584  23.531 -19.131  1.00  0.00     0.063 A 
HETATM   15  C12 UNL     1      19.761  22.891 -18.917  1.00  0.00    -0.032 A 
HETATM   16  C13 UNL     1      20.939  23.519 -18.301  1.00  0.00     0.050 C 
HETATM   17  C14 UNL     1      19.880  21.502 -19.121  1.00  0.00     0.001 A 
HETATM   18  C15 UNL     1      21.160  21.053 -18.892  1.00  0.00     0.027 C 
HETATM   19  C21 UNL     1      18.798  20.745 -19.538  1.00  0.00     0.081 A 
HETATM   20  C16 UNL     1      21.517  19.762 -18.499  1.00  0.00     0.009 C 
HETATM   21  C18 UNL     1      20.821  18.608 -18.795  1.00  0.00     0.044 C 
HETATM   22  C19 UNL     1      19.675  18.453 -19.588  1.00  0.00     0.062 C 
HETATM   23  C20 UNL     1      18.694  19.380 -19.784  1.00  0.00     0.119 C 
HETATM   24  N4  UNL     1      17.637  21.368 -19.743  1.00  0.00    -0.320 N 
HETATM   25  C22 UNL     1      17.543  22.678 -19.550  1.00  0.00     0.258 A 
ATOM     26  H4  UNL     1      16.821  20.838 -20.049  1.00  0.00     0.169 HD
HETATM   27  O2  UNL     1      16.413  23.188 -19.767  1.00  0.00    -0.267 OA
BRANCH  20  28
HETATM   28  C17 UNL     1      22.745  19.658 -17.709  1.00  0.00     0.386 C 
HETATM   29  F1  UNL     1      22.515  20.229 -16.449  1.00  0.00    -0.209 F 
HETATM   30  F2  UNL     1      23.092  18.334 -17.445  1.00  0.00    -0.209 F 
ENDBRANCH  20  28
BRANCH  22  31
HETATM   31  N3  UNL     1      19.574  17.342 -20.159  1.00  0.00    -0.397 N 
ATOM     32  H32 UNL     1      19.576  17.315 -21.178  1.00  0.00     0.156 HD
ATOM     33  H31 UNL     1      19.497  16.541 -19.531  1.00  0.00     0.156 HD
ENDBRANCH  22  31
BRANCH  23  34
HETATM   34  O1  UNL     1      17.474  18.978 -20.266  1.00  0.00    -0.356 OA
ATOM     35  H1  UNL     1      17.400  18.694 -21.170  1.00  0.00     0.218 HD
ENDBRANCH  23  34
ENDBRANCH  12  14
ENDBRANCH   6   7
ENDBRANCH   5   6
ENDBRANCH   4   5
ENDBRANCH   3   4
TORSDOF 8
ENDMDL
MODEL 4
REMARK VINA RESULT: -7.763371336      5.831      7.467
REMARK  8 active torsions:
REMARK  status: ('A' for Active; 'I' for Inactive)
REMARK    1  A    between atoms: C3_3  and  C4_4 
REMARK    2  A    between atoms: C4_4  and  C5_5 
REMARK    3  A    between atoms: C5_5  and  C6_6 
REMARK    4  A    between atoms: C6_6  and  C7_7 
REMARK    5  A    between atoms: C10_13  and  C11_14 
REMARK    6  A    between atoms: C16_19  and  C17_20 
REMARK    7  A    between atoms: C19_24  and  N3_25 
REMARK    8  A    between atoms: C20_28  and  O1_29 
ROOT
HETATM    1  C1  UNL     1      22.710  23.066 -21.230  1.00  0.00     0.012 C 
HETATM    2  C2  UNL     1      21.682  23.572 -21.596  1.00  0.00    -0.117 C 
HETATM    3  C3  UNL     1      20.460  24.199 -22.046  1.00  0.00     0.093 C 
ENDROOT
BRANCH   3   4
HETATM    4  C4  UNL     1      20.578  25.732 -21.765  1.00  0.00     0.012 C 
BRANCH   4   5
HETATM    5  C5  UNL     1      19.355  26.134 -21.029  1.00  0.00     0.002 C 
BRANCH   5   6
HETATM    6  C6  UNL     1      19.438  26.452 -19.582  1.00  0.00     0.017 C 
BRANCH   6   7
HETATM    7  C7  UNL     1      18.213  26.122 -18.795  1.00  0.00     0.015 C 
HETATM    8  C8  UNL     1      18.123  26.791 -17.450  1.00  0.00     0.023 C 
HETATM    9  C9  UNL     1      17.080  26.961 -19.593  1.00  0.00     0.150 C 
HETATM   10  N1  UNL     1      15.991  26.350 -18.880  1.00  0.00    -0.140 NA
HETATM   11  N2  UNL     1      16.283  25.007 -18.910  1.00  0.00    -0.306 N 
HETATM   12  C10 UNL     1      17.626  24.806 -18.858  1.00  0.00     0.048 C 
ATOM     13  H2  UNL     1      15.588  24.262 -18.963  1.00  0.00     0.182 HD
BRANCH  12  14
HETATM   14  C11 UNL     1      18.006  23.381 -18.938  1.00  0.00     0.063 A 
HETATM   15  C12 UNL     1      19.248  22.872 -18.740  1.00  0.00    -0.032 A 
HETATM   16  C13 UNL     1      20.336  23.595 -18.067  1.00  0.00     0.050 C 
HETATM   17  C14 UNL     1      19.532  21.521 -19.020  1.00  0.00     0.001 A 
HETATM   18  C15 UNL     1      20.852  21.212 -18.795  1.00  0.00     0.027 C 
HETATM   19  C21 UNL     1      18.551  20.669 -19.500  1.00  0.00     0.081 A 
HETATM   20  C16 UNL     1      21.355  19.950 -18.470  1.00  0.00     0.009 C 
HETATM   21  C18 UNL     1      20.803  18.742 -18.844  1.00  0.00     0.044 C 
HETATM   22  C19 UNL     1      19.693  18.502 -19.665  1.00  0.00     0.062 C 
HETATM   23  C20 UNL     1      18.611  19.318 -19.826  1.00  0.00     0.119 C 
HETATM   24  N4  UNL     1      17.327  21.163 -19.691  1.00  0.00    -0.320 N 
HETATM   25  C22 UNL     1      17.077  22.439 -19.424  1.00  0.00     0.258 A 
ATOM     26  H4  UNL     1      16.583  20.560 -20.041  1.00  0.00     0.169 HD
HETATM   27  O2  UNL     1      15.898  22.825 -19.632  1.00  0.00    -0.267 OA
BRANCH  20  28
HETATM   28  C17 UNL     1      22.578  19.944 -17.665  1.00  0.00     0.386 C 
HETATM   29  F1  UNL     1      22.265  20.397 -16.375  1.00  0.00    -0.209 F 
HETATM   30  F2  UNL     1      23.082  18.658 -17.481  1.00  0.00    -0.209 F 
ENDBRANCH  20  28
BRANCH  22  31
HETATM   31  N3  UNL     1      19.729  17.422 -20.301  1.00  0.00    -0.397 N 
ATOM     32  H32 UNL     1      19.370  17.405 -21.255  1.00  0.00     0.156 HD
ATOM     33  H31 UNL     1      20.128  16.635 -19.789  1.00  0.00     0.156 HD
ENDBRANCH  22  31
BRANCH  23  34
HETATM   34  O1  UNL     1      17.453  18.806 -20.353  1.00  0.00    -0.356 OA
ATOM     35  H1  UNL     1      17.433  17.902 -20.647  1.00  0.00     0.218 HD
ENDBRANCH  23  34
ENDBRANCH  12  14
ENDBRANCH   6   7
ENDBRANCH   5   6
ENDBRANCH   4   5
ENDBRANCH   3   4
TORSDOF 8
ENDMDL
MODEL 5
REMARK VINA RESULT: -7.760918453      3.019      7.056
REMARK  8 active torsions:
REMARK  status: ('A' for Active; 'I' for Inactive)
REMARK    1  A    between atoms: C3_3  and  C4_4 
REMARK    2  A    between atoms: C4_4  and  C5_5 
REMARK    3  A    between atoms: C5_5  and  C6_6 
REMARK    4  A    between atoms: C6_6  and  C7_7 
REMARK    5  A    between atoms: C10_13  and  C11_14 
REMARK    6  A    between atoms: C16_19  and  C17_20 
REMARK    7  A    between atoms: C19_24  and  N3_25 
REMARK    8  A    between atoms: C20_28  and  O1_29 
ROOT
HETATM    1  C1  UNL     1      21.809  22.780 -13.639  1.00  0.00     0.012 C 
HETATM    2  C2  UNL     1      21.895  22.553 -14.818  1.00  0.00    -0.117 C 
HETATM    3  C3  UNL     1      21.978  22.266 -16.232  1.00  0.00     0.093 C 
ENDROOT
BRANCH   3   4
HETATM    4  C4  UNL     1      21.682  20.744 -16.427  1.00  0.00     0.012 C 
BRANCH   4   5
HETATM    5  C5  UNL     1      21.091  20.586 -17.778  1.00  0.00     0.002 C 
BRANCH   5   6
HETATM    6  C6  UNL     1      20.939  21.772 -18.657  1.00  0.00     0.017 C 
BRANCH   6   7
HETATM    7  C7  UNL     1      19.534  22.080 -19.059  1.00  0.00     0.015 C 
HETATM    8  C8  UNL     1      19.398  22.910 -20.307  1.00  0.00     0.023 C 
HETATM    9  C9  UNL     1      19.040  20.646 -19.631  1.00  0.00     0.150 C 
HETATM   10  N1  UNL     1      17.664  21.054 -19.731  1.00  0.00    -0.140 NA
HETATM   11  N2  UNL     1      17.408  21.662 -18.524  1.00  0.00    -0.306 N 
HETATM   12  C10 UNL     1      18.514  22.306 -18.067  1.00  0.00     0.048 C 
ATOM     13  H2  UNL     1      16.511  21.634 -18.039  1.00  0.00     0.182 HD
BRANCH  12  14
HETATM   14  C11 UNL     1      18.315  22.938 -16.747  1.00  0.00     0.063 A 
HETATM   15  C12 UNL     1      18.361  24.268 -16.481  1.00  0.00    -0.032 A 
HETATM   16  C13 UNL     1      18.258  25.316 -17.507  1.00  0.00     0.050 C 
HETATM   17  C14 UNL     1      18.338  24.745 -15.156  1.00  0.00     0.001 A 
HETATM   18  C15 UNL     1      18.435  26.116 -15.097  1.00  0.00     0.027 C 
HETATM   19  C21 UNL     1      18.261  23.873 -14.084  1.00  0.00     0.081 A 
HETATM   20  C16 UNL     1      17.946  26.930 -14.074  1.00  0.00     0.009 C 
HETATM   21  C18 UNL     1      17.802  26.563 -12.752  1.00  0.00     0.044 C 
HETATM   22  C19 UNL     1      18.164  25.359 -12.131  1.00  0.00     0.062 C 
HETATM   23  C20 UNL     1      18.214  24.127 -12.716  1.00  0.00     0.119 C 
HETATM   24  N4  UNL     1      18.209  22.566 -14.339  1.00  0.00    -0.320 N 
HETATM   25  C22 UNL     1      18.235  22.132 -15.593  1.00  0.00     0.258 A 
ATOM     26  H4  UNL     1      18.149  21.898 -13.570  1.00  0.00     0.169 HD
HETATM   27  O2  UNL     1      18.183  20.884 -15.747  1.00  0.00    -0.267 OA
BRANCH  20  28
HETATM   28  C17 UNL     1      17.565  28.286 -14.471  1.00  0.00     0.386 C 
HETATM   29  F1  UNL     1      17.419  28.318 -15.866  1.00  0.00    -0.209 F 
HETATM   30  F2  UNL     1      16.316  28.651 -13.971  1.00  0.00    -0.209 F 
ENDBRANCH  20  28
BRANCH  22  31
HETATM   31  N3  UNL     1      18.467  25.459 -10.919  1.00  0.00    -0.397 N 
ATOM     32  H32 UNL     1      19.402  25.178 -10.625  1.00  0.00     0.156 HD
ATOM     33  H31 UNL     1      17.727  25.825 -10.320  1.00  0.00     0.156 HD
ENDBRANCH  22  31
BRANCH  23  34
HETATM   34  O1  UNL     1      18.219  23.006 -11.927  1.00  0.00    -0.356 OA
ATOM     35  H1  UNL     1      17.650  22.967 -11.166  1.00  0.00     0.218 HD
ENDBRANCH  23  34
ENDBRANCH  12  14
ENDBRANCH   6   7
ENDBRANCH   5   6
ENDBRANCH   4   5
ENDBRANCH   3   4
TORSDOF 8
ENDMDL
