MODEL 1
REMARK VINA RESULT: -6.965170441      0.000      0.000
REMARK  7 active torsions:
REMARK  status: ('A' for Active; 'I' for Inactive)
REMARK    1  A    between atoms: O1_2  and  C2_3 
REMARK    2  A    between atoms: C5_7  and  N1_8 
REMARK    3  A    between atoms: N1_8  and  C6_10 
REMARK    4  A    between atoms: C7_11  and  C8_12 
REMARK    5  A    between atoms: C8_12  and  N2_14 
REMARK    6  A    between atoms: N2_14  and  C10_16 
REMARK    7  A    between atoms: C16_27  and  C17_28 
ROOT
HETATM    1  C6  UNL     1      20.186  21.993 -16.652  1.00  0.00     0.061 A 
HETATM    2  C7  UNL     1      20.981  21.720 -17.774  1.00  0.00     0.059 A 
HETATM    3  C13 UNL     1      22.328  21.647 -17.589  1.00  0.00     0.257 A 
HETATM    4  O2  UNL     1      23.107  21.406 -18.538  1.00  0.00    -0.267 OA
HETATM    5  N3  UNL     1      22.871  21.837 -16.349  1.00  0.00    -0.308 N 
ATOM      6  H3  UNL     1      23.883  21.776 -16.235  1.00  0.00     0.170 HD
HETATM    7  C14 UNL     1      22.109  22.099 -15.277  1.00  0.00     0.121 A 
HETATM    8  N4  UNL     1      22.393  22.327 -13.980  1.00  0.00    -0.351 N 
ATOM      9  H4  UNL     1      23.335  22.322 -13.588  1.00  0.00     0.166 HD
HETATM   10  C15 UNL     1      21.295  22.556 -13.279  1.00  0.00     0.105 A 
HETATM   11  C16 UNL     1      20.205  22.482 -14.139  1.00  0.00     0.033 A 
HETATM   12  C18 UNL     1      20.717  22.193 -15.378  1.00  0.00     0.050 A 
ENDROOT
BRANCH   1  13
HETATM   13  N1  UNL     1      18.815  22.050 -16.870  1.00  0.00    -0.352 N 
ATOM     14  H1  UNL     1      18.261  21.223 -16.648  1.00  0.00     0.166 HD
BRANCH  13  15
HETATM   15  C5  UNL     1      18.140  23.186 -17.383  1.00  0.00     0.074 A 
HETATM   16  C4  UNL     1      17.294  23.026 -18.504  1.00  0.00     0.145 A 
HETATM   17  C3  UNL     1      16.655  24.096 -19.067  1.00  0.00     0.084 A 
HETATM   18  F1  UNL     1      17.112  21.799 -19.016  1.00  0.00    -0.204 F 
HETATM   19  C2  UNL     1      16.793  25.380 -18.582  1.00  0.00     0.109 A 
HETATM   20  C20 UNL     1      17.615  25.540 -17.489  1.00  0.00     0.151 A 
HETATM   21  C19 UNL     1      18.254  24.472 -16.928  1.00  0.00     0.077 A 
HETATM   22  F2  UNL     1      17.763  26.810 -16.989  1.00  0.00    -0.203 F 
BRANCH  19  23
HETATM   23  O1  UNL     1      16.136  26.461 -19.163  1.00  0.00    -0.353 OA
HETATM   24  C1  UNL     1      16.872  27.319 -19.998  1.00  0.00     0.210 C 
ENDBRANCH  19  23
ENDBRANCH  13  15
ENDBRANCH   1  13
BRANCH   2  25
HETATM   25  C8  UNL     1      20.373  21.467 -19.102  1.00  0.00     0.114 C 
HETATM   26  C9  UNL     1      20.913  22.357 -20.197  1.00  0.00     0.037 C 
BRANCH  25  27
HETATM   27  N2  UNL     1      20.798  20.123 -19.483  1.00  0.00    -0.409 N 
ATOM     28  H2  UNL     1      21.710  19.973 -19.915  1.00  0.00     0.154 HD
BRANCH  27  29
HETATM   29  C10 UNL     1      19.938  19.043 -19.247  1.00  0.00     0.077 A 
HETATM   30  C11 UNL     1      18.719  18.634 -19.949  1.00  0.00     0.027 A 
HETATM   31  C12 UNL     1      19.994  17.949 -20.298  1.00  0.00     0.027 A 
ENDBRANCH  27  29
ENDBRANCH  25  27
ENDBRANCH   2  25
BRANCH  11  32
HETATM   32  C17 UNL     1      18.830  22.744 -13.813  1.00  0.00     0.272 C 
HETATM   33  O3  UNL     1      18.403  23.891 -13.474  1.00  0.00    -0.301 OA
ENDBRANCH  11  32
TORSDOF 7
ENDMDL
MODEL 2
REMARK VINA RESULT: -6.818444958      2.926      5.060
REMARK  7 active torsions:
REMARK  status: ('A' for Active; 'I' for Inactive)
REMARK    1  A    between atoms: O1_2  and  C2_3 
REMARK    2  A    between atoms: C5_7  and  N1_8 
REMARK    3  A    between atoms: N1_8  and  C6_10 
REMARK    4  A    between atoms: C7_11  and  C8_12 
REMARK    5  A    between atoms: C8_12  and  N2_14 
REMARK    6  A    between atoms: N2_14  and  C10_16 
REMARK    7  A    between atoms: C16_27  and  C17_28 
ROOT
HETATM    1  C6  UNL     1      20.424  21.228 -18.421  1.00  0.00     0.061 A 
HETATM    2  C7  UNL     1      21.637  21.253 -17.717  1.00  0.00     0.059 A 
HETATM    3  C13 UNL     1      22.317  20.080 -17.592  1.00  0.00     0.257 A 
HETATM    4  O2  UNL     1      23.406  20.017 -16.980  1.00  0.00    -0.267 OA
HETATM    5  N3  UNL     1      21.823  18.929 -18.138  1.00  0.00    -0.308 N 
ATOM      6  H3  UNL     1      22.351  18.062 -18.032  1.00  0.00     0.170 HD
HETATM    7  C14 UNL     1      20.662  18.907 -18.810  1.00  0.00     0.121 A 
HETATM    8  N4  UNL     1      19.973  17.925 -19.423  1.00  0.00    -0.351 N 
ATOM      9  H4  UNL     1      20.278  16.953 -19.472  1.00  0.00     0.166 HD
HETATM   10  C15 UNL     1      18.851  18.383 -19.953  1.00  0.00     0.105 A 
HETATM   11  C16 UNL     1      18.768  19.745 -19.691  1.00  0.00     0.033 A 
HETATM   12  C18 UNL     1      19.899  20.066 -18.984  1.00  0.00     0.050 A 
ENDROOT
BRANCH   1  13
HETATM   13  N1  UNL     1      19.760  22.442 -18.541  1.00  0.00    -0.352 N 
ATOM     14  H1  UNL     1      19.029  22.657 -17.863  1.00  0.00     0.166 HD
BRANCH  13  15
HETATM   15  C5  UNL     1      20.036  23.401 -19.548  1.00  0.00     0.074 A 
HETATM   16  C4  UNL     1      20.114  24.766 -19.186  1.00  0.00     0.145 A 
HETATM   17  C3  UNL     1      20.332  25.736 -20.125  1.00  0.00     0.084 A 
HETATM   18  F1  UNL     1      19.978  25.108 -17.895  1.00  0.00    -0.204 F 
HETATM   19  C2  UNL     1      20.489  25.448 -21.464  1.00  0.00     0.109 A 
HETATM   20  C20 UNL     1      20.415  24.120 -21.821  1.00  0.00     0.151 A 
HETATM   21  C19 UNL     1      20.197  23.151 -20.885  1.00  0.00     0.077 A 
HETATM   22  F2  UNL     1      20.573  23.812 -23.150  1.00  0.00    -0.203 F 
BRANCH  19  23
HETATM   23  O1  UNL     1      20.712  26.444 -22.411  1.00  0.00    -0.353 OA
HETATM   24  C1  UNL     1      19.598  27.047 -23.020  1.00  0.00     0.210 C 
ENDBRANCH  19  23
ENDBRANCH  13  15
ENDBRANCH   1  13
BRANCH   2  25
HETATM   25  C8  UNL     1      22.183  22.520 -17.175  1.00  0.00     0.114 C 
HETATM   26  C9  UNL     1      22.481  22.468 -15.693  1.00  0.00     0.037 C 
BRANCH  25  27
HETATM   27  N2  UNL     1      23.490  22.688 -17.802  1.00  0.00    -0.409 N 
ATOM     28  H2  UNL     1      24.344  22.529 -17.267  1.00  0.00     0.154 HD
BRANCH  27  29
HETATM   29  C10 UNL     1      23.556  23.069 -19.148  1.00  0.00     0.077 A 
HETATM   30  C11 UNL     1      23.823  24.379 -19.749  1.00  0.00     0.027 A 
HETATM   31  C12 UNL     1      24.951  23.414 -19.640  1.00  0.00     0.027 A 
ENDBRANCH  27  29
ENDBRANCH  25  27
ENDBRANCH   2  25
BRANCH  11  32
HETATM   32  C17 UNL     1      17.676  20.621 -20.015  1.00  0.00     0.272 C 
HETATM   33  O3  UNL     1      17.000  21.242 -19.138  1.00  0.00    -0.301 OA
ENDBRANCH  11  32
TORSDOF 7
ENDMDL
MODEL 3
REMARK VINA RESULT: -6.811353773      3.083      6.390
REMARK  7 active torsions:
REMARK  status: ('A' for Active; 'I' for Inactive)
REMARK    1  A    between atoms: O1_2  and  C2_3 
REMARK    2  A    between atoms: C5_7  and  N1_8 
REMARK    3  A    between atoms: N1_8  and  C6_10 
REMARK    4  A    between atoms: C7_11  and  C8_12 
REMARK    5  A    between atoms: C8_12  and  N2_14 
REMARK    6  A    between atoms: N2_14  and  C10_16 
REMARK    7  A    between atoms: C16_27  and  C17_28 
ROOT
HETATM    1  C6  UNL     1      20.390  21.662 -16.896  1.00  0.00     0.061 A 
HETATM    2  C7  UNL     1      19.290  22.530 -16.834  1.00  0.00     0.059 A 
HETATM    3  C13 UNL     1      18.226  22.256 -17.637  1.00  0.00     0.257 A 
HETATM    4  O2  UNL     1      17.205  22.979 -17.642  1.00  0.00    -0.267 OA
HETATM    5  N3  UNL     1      18.244  21.170 -18.468  1.00  0.00    -0.308 N 
ATOM      6  H3  UNL     1      17.433  20.985 -19.060  1.00  0.00     0.170 HD
HETATM    7  C14 UNL     1      19.297  20.342 -18.526  1.00  0.00     0.121 A 
HETATM    8  N4  UNL     1      19.557  19.235 -19.248  1.00  0.00    -0.351 N 
ATOM      9  H4  UNL     1      18.912  18.822 -19.921  1.00  0.00     0.166 HD
HETATM   10  C15 UNL     1      20.757  18.751 -18.972  1.00  0.00     0.105 A 
HETATM   11  C16 UNL     1      21.346  19.567 -18.013  1.00  0.00     0.033 A 
HETATM   12  C18 UNL     1      20.432  20.551 -17.737  1.00  0.00     0.050 A 
ENDROOT
BRANCH   1  13
HETATM   13  N1  UNL     1      21.456  21.962 -16.056  1.00  0.00    -0.352 N 
ATOM     14  H1  UNL     1      21.515  21.471 -15.164  1.00  0.00     0.166 HD
BRANCH  13  15
HETATM   15  C5  UNL     1      22.466  22.908 -16.364  1.00  0.00     0.074 A 
HETATM   16  C4  UNL     1      22.993  23.703 -15.320  1.00  0.00     0.145 A 
HETATM   17  C3  UNL     1      23.936  24.663 -15.570  1.00  0.00     0.084 A 
HETATM   18  F1  UNL     1      22.563  23.504 -14.065  1.00  0.00    -0.204 F 
HETATM   19  C2  UNL     1      24.425  24.909 -16.835  1.00  0.00     0.109 A 
HETATM   20  C20 UNL     1      23.914  24.136 -17.854  1.00  0.00     0.151 A 
HETATM   21  C19 UNL     1      22.973  23.179 -17.606  1.00  0.00     0.077 A 
HETATM   22  F2  UNL     1      24.392  24.364 -19.121  1.00  0.00    -0.203 F 
BRANCH  19  23
HETATM   23  O1  UNL     1      25.385  25.888 -17.076  1.00  0.00    -0.353 OA
HETATM   24  C1  UNL     1      24.950  27.179 -17.421  1.00  0.00     0.210 C 
ENDBRANCH  19  23
ENDBRANCH  13  15
ENDBRANCH   1  13
BRANCH   2  25
HETATM   25  C8  UNL     1      19.267  23.673 -15.891  1.00  0.00     0.114 C 
HETATM   26  C9  UNL     1      19.033  25.008 -16.560  1.00  0.00     0.037 C 
BRANCH  25  27
HETATM   27  N2  UNL     1      18.086  23.473 -15.056  1.00  0.00    -0.409 N 
ATOM     28  H2  UNL     1      17.184  23.256 -15.481  1.00  0.00     0.154 HD
BRANCH  27  29
HETATM   29  C10 UNL     1      18.208  23.584 -13.665  1.00  0.00     0.077 A 
HETATM   30  C11 UNL     1      18.864  24.612 -12.851  1.00  0.00     0.027 A 
HETATM   31  C12 UNL     1      17.391  24.703 -13.045  1.00  0.00     0.027 A 
ENDBRANCH  27  29
ENDBRANCH  25  27
ENDBRANCH   2  25
BRANCH  11  32
HETATM   32  C17 UNL     1      22.678  19.454 -17.486  1.00  0.00     0.272 C 
HETATM   33  O3  UNL     1      22.925  19.268 -16.254  1.00  0.00    -0.301 OA
ENDBRANCH  11  32
TORSDOF 7
ENDMDL
MODEL 4
REMARK VINA RESULT: -6.770154103      2.531      4.797
REMARK  7 active torsions:
REMARK  status: ('A' for Active; 'I' for Inactive)
REMARK    1  A    between atoms: O1_2  and  C2_3 
REMARK    2  A    between atoms: C5_7  and  N1_8 
REMARK    3  A    between atoms: N1_8  and  C6_10 
REMARK    4  A    between atoms: C7_11  and  C8_12 
REMARK    5  A    between atoms: C8_12  and  N2_14 
REMARK    6  A    between atoms: N2_14  and  C10_16 
REMARK    7  A    between atoms: C16_27  and  C17_28 
ROOT
HETATM    1  C6  UNL     1      20.527  21.245 -18.713  1.00  0.00     0.061 A 
HETATM    2  C7  UNL     1      21.780  21.253 -18.082  1.00  0.00     0.059 A 
HETATM    3  C13 UNL     1      22.392  20.054 -17.884  1.00  0.00     0.257 A 
HETATM    4  O2  UNL     1      23.511  19.974 -17.329  1.00  0.00    -0.267 OA
HETATM    5  N3  UNL     1      21.797  18.893 -18.291  1.00  0.00    -0.308 N 
ATOM      6  H3  UNL     1      22.277  18.006 -18.133  1.00  0.00     0.170 HD
HETATM    7  C14 UNL     1      20.599  18.887 -18.894  1.00  0.00     0.121 A 
HETATM    8  N4  UNL     1      19.815  17.902 -19.373  1.00  0.00    -0.351 N 
ATOM      9  H4  UNL     1      20.056  16.911 -19.346  1.00  0.00     0.166 HD
HETATM   10  C15 UNL     1      18.693  18.383 -19.881  1.00  0.00     0.105 A 
HETATM   11  C16 UNL     1      18.710  19.766 -19.745  1.00  0.00     0.033 A 
HETATM   12  C18 UNL     1      19.899  20.074 -19.134  1.00  0.00     0.050 A 
ENDROOT
BRANCH   1  13
HETATM   13  N1  UNL     1      19.933  22.485 -18.911  1.00  0.00    -0.352 N 
ATOM     14  H1  UNL     1      19.901  22.854 -19.861  1.00  0.00     0.166 HD
BRANCH  13  15
HETATM   15  C5  UNL     1      19.367  23.268 -17.874  1.00  0.00     0.074 A 
HETATM   16  C4  UNL     1      19.561  24.668 -17.895  1.00  0.00     0.145 A 
HETATM   17  C3  UNL     1      19.076  25.465 -16.895  1.00  0.00     0.084 A 
HETATM   18  F1  UNL     1      20.226  25.220 -18.922  1.00  0.00    -0.204 F 
HETATM   19  C2  UNL     1      18.377  24.960 -15.819  1.00  0.00     0.109 A 
HETATM   20  C20 UNL     1      18.185  23.597 -15.795  1.00  0.00     0.151 A 
HETATM   21  C19 UNL     1      18.669  22.801 -16.792  1.00  0.00     0.077 A 
HETATM   22  F2  UNL     1      17.487  23.075 -14.734  1.00  0.00    -0.203 F 
BRANCH  19  23
HETATM   23  O1  UNL     1      17.887  25.782 -14.807  1.00  0.00    -0.353 OA
HETATM   24  C1  UNL     1      18.721  26.058 -13.710  1.00  0.00     0.210 C 
ENDBRANCH  19  23
ENDBRANCH  13  15
ENDBRANCH   1  13
BRANCH   2  25
HETATM   25  C8  UNL     1      22.434  22.525 -17.693  1.00  0.00     0.114 C 
HETATM   26  C9  UNL     1      22.715  22.635 -16.211  1.00  0.00     0.037 C 
BRANCH  25  27
HETATM   27  N2  UNL     1      23.756  22.495 -18.311  1.00  0.00    -0.409 N 
ATOM     28  H2  UNL     1      24.572  22.203 -17.772  1.00  0.00     0.154 HD
BRANCH  27  29
HETATM   29  C10 UNL     1      23.889  22.871 -19.654  1.00  0.00     0.077 A 
HETATM   30  C11 UNL     1      24.291  24.152 -20.242  1.00  0.00     0.027 A 
HETATM   31  C12 UNL     1      25.321  23.085 -20.112  1.00  0.00     0.027 A 
ENDBRANCH  27  29
ENDBRANCH  25  27
ENDBRANCH   2  25
BRANCH  11  32
HETATM   32  C17 UNL     1      17.656  20.680 -20.090  1.00  0.00     0.272 C 
HETATM   33  O3  UNL     1      16.908  21.236 -19.228  1.00  0.00    -0.301 OA
ENDBRANCH  11  32
TORSDOF 7
ENDMDL
MODEL 5
REMARK VINA RESULT: -6.727244350      2.339      4.785
REMARK  7 active torsions:
REMARK  status: ('A' for Active; 'I' for Inactive)
REMARK    1  A    between atoms: O1_2  and  C2_3 
REMARK    2  A    between atoms: C5_7  and  N1_8 
REMARK    3  A    between atoms: N1_8  and  C6_10 
REMARK    4  A    between atoms: C7_11  and  C8_12 
REMARK    5  A    between atoms: C8_12  and  N2_14 
REMARK    6  A    between atoms: N2_14  and  C10_16 
REMARK    7  A    between atoms: C16_27  and  C17_28 
ROOT
HETATM    1  C6  UNL     1      20.466  21.217 -18.313  1.00  0.00     0.061 A 
HETATM    2  C7  UNL     1      21.661  21.235 -17.579  1.00  0.00     0.059 A 
HETATM    3  C13 UNL     1      22.347  20.065 -17.463  1.00  0.00     0.257 A 
HETATM    4  O2  UNL     1      23.422  19.997 -16.826  1.00  0.00    -0.267 OA
HETATM    5  N3  UNL     1      21.877  18.922 -18.048  1.00  0.00    -0.308 N 
ATOM      6  H3  UNL     1      22.410  18.058 -17.948  1.00  0.00     0.170 HD
HETATM    7  C14 UNL     1      20.733  18.906 -18.749  1.00  0.00     0.121 A 
HETATM    8  N4  UNL     1      20.068  17.933 -19.400  1.00  0.00    -0.351 N 
ATOM      9  H4  UNL     1      20.382  16.965 -19.464  1.00  0.00     0.166 HD
HETATM   10  C15 UNL     1      18.955  18.394 -19.947  1.00  0.00     0.105 A 
HETATM   11  C16 UNL     1      18.855  19.749 -19.657  1.00  0.00     0.033 A 
HETATM   12  C18 UNL     1      19.965  20.063 -18.915  1.00  0.00     0.050 A 
ENDROOT
BRANCH   1  13
HETATM   13  N1  UNL     1      19.794  22.428 -18.422  1.00  0.00    -0.352 N 
ATOM     14  H1  UNL     1      19.659  22.817 -19.355  1.00  0.00     0.166 HD
BRANCH  13  15
HETATM   15  C5  UNL     1      19.286  23.155 -17.317  1.00  0.00     0.074 A 
HETATM   16  C4  UNL     1      18.593  22.454 -16.303  1.00  0.00     0.145 A 
HETATM   17  C3  UNL     1      18.042  23.112 -15.238  1.00  0.00     0.084 A 
HETATM   18  F1  UNL     1      18.483  21.119 -16.388  1.00  0.00    -0.204 F 
HETATM   19  C2  UNL     1      18.128  24.480 -15.088  1.00  0.00     0.109 A 
HETATM   20  C20 UNL     1      18.803  25.166 -16.072  1.00  0.00     0.151 A 
HETATM   21  C19 UNL     1      19.353  24.510 -17.136  1.00  0.00     0.077 A 
HETATM   22  F2  UNL     1      18.904  26.529 -15.939  1.00  0.00    -0.203 F 
BRANCH  19  23
HETATM   23  O1  UNL     1      17.564  25.139 -13.998  1.00  0.00    -0.353 OA
HETATM   24  C1  UNL     1      17.173  24.374 -12.886  1.00  0.00     0.210 C 
ENDBRANCH  19  23
ENDBRANCH  13  15
ENDBRANCH   1  13
BRANCH   2  25
HETATM   25  C8  UNL     1      22.182  22.494 -16.995  1.00  0.00     0.114 C 
HETATM   26  C9  UNL     1      22.462  22.405 -15.512  1.00  0.00     0.037 C 
BRANCH  25  27
HETATM   27  N2  UNL     1      23.495  22.696 -17.600  1.00  0.00    -0.409 N 
ATOM     28  H2  UNL     1      24.322  22.253 -17.200  1.00  0.00     0.154 HD
BRANCH  27  29
HETATM   29  C10 UNL     1      23.603  23.507 -18.737  1.00  0.00     0.077 A 
HETATM   30  C11 UNL     1      24.681  24.406 -19.159  1.00  0.00     0.027 A 
HETATM   31  C12 UNL     1      24.634  23.040 -19.750  1.00  0.00     0.027 A 
ENDBRANCH  27  29
ENDBRANCH  25  27
ENDBRANCH   2  25
BRANCH  11  32
HETATM   32  C17 UNL     1      17.763  20.624 -19.988  1.00  0.00     0.272 C 
HETATM   33  O3  UNL     1      16.992  21.133 -19.117  1.00  0.00    -0.301 OA
ENDBRANCH  11  32
TORSDOF 7
ENDMDL
