MODEL 1
REMARK VINA RESULT: -7.739923707      0.000      0.000
REMARK  8 active torsions:
REMARK  status: ('A' for Active; 'I' for Inactive)
REMARK    1  A    between atoms: C2_2  and  C3_3 
REMARK    2  A    between atoms: C5_5  and  C6_6 
REMARK    3  A    between atoms: C6_6  and  N1_7 
REMARK    4  A    between atoms: C14_15  and  O1_16 
REMARK    5  A    between atoms: N2_18  and  C15_19 
REMARK    6  A    between atoms: C15_19  and  C16_20 
REMARK    7  A    between atoms: C16_20  and  O2_21 
REMARK    8  A    between atoms: C17_23  and  O3_24 
ROOT
HETATM    1  N1  UNL     1      19.678  23.631 -13.938  1.00  0.00    -0.375 N 
HETATM    2  C7  UNL     1      19.206  22.439 -14.550  1.00  0.00     0.122 C 
HETATM    3  C8  UNL     1      17.878  22.711 -15.236  1.00  0.00     0.030 C 
HETATM    4  C9  UNL     1      17.846  23.927 -16.083  1.00  0.00     0.003 C 
HETATM    5  C10 UNL     1      19.027  24.240 -16.909  1.00  0.00     0.011 C 
HETATM    6  C11 UNL     1      20.373  24.197 -16.198  1.00  0.00     0.046 C 
HETATM    7  C12 UNL     1      20.787  22.768 -16.344  1.00  0.00     0.012 A 
HETATM    8  C13 UNL     1      20.173  21.868 -15.515  1.00  0.00     0.027 A 
HETATM    9  C14 UNL     1      20.585  20.635 -15.883  1.00  0.00     0.153 A 
HETATM   10  N2  UNL     1      21.442  20.760 -16.933  1.00  0.00    -0.305 N 
HETATM   11  C17 UNL     1      21.577  22.057 -17.213  1.00  0.00     0.151 A 
HETATM   12  C18 UNL     1      20.300  24.579 -14.744  1.00  0.00     0.089 C 
HETATM   13  C19 UNL     1      19.719  25.989 -14.618  1.00  0.00     0.033 C 
ENDROOT
BRANCH   1  14
HETATM   14  C6  UNL     1      19.978  23.468 -12.576  1.00  0.00     0.101 C 
BRANCH  14  15
HETATM   15  C5  UNL     1      18.972  23.876 -11.605  1.00  0.00     0.018 A 
HETATM   16  C4  UNL     1      17.796  23.249 -11.367  1.00  0.00     0.026 A 
HETATM   17  C3  UNL     1      16.820  23.816 -10.561  1.00  0.00    -0.019 A 
HETATM   18  C22 UNL     1      17.009  25.048  -9.973  1.00  0.00     0.125 A 
HETATM   19  C21 UNL     1      18.193  25.707 -10.191  1.00  0.00     0.086 A 
HETATM   20  F2  UNL     1      16.015  25.577  -9.220  1.00  0.00    -0.205 F 
HETATM   21  C20 UNL     1      19.127  25.131 -10.979  1.00  0.00     0.131 A 
HETATM   22  F1  UNL     1      20.318  25.736 -11.183  1.00  0.00    -0.205 F 
BRANCH  17  23
HETATM   23  C2  UNL     1      15.573  23.041 -10.267  1.00  0.00     0.037 C 
HETATM   24  C1  UNL     1      15.962  21.958  -9.257  1.00  0.00     0.010 C 
ENDBRANCH  17  23
ENDBRANCH  14  15
ENDBRANCH   1  14
BRANCH   9  25
HETATM   25  O1  UNL     1      20.195  19.469 -15.287  1.00  0.00    -0.345 OA
ATOM     26  H1  UNL     1      20.665  18.646 -15.343  1.00  0.00     0.219 HD
ENDBRANCH   9  25
BRANCH  11  27
HETATM   27  O3  UNL     1      22.371  22.657 -18.199  1.00  0.00    -0.345 OA
ATOM     28  H3  UNL     1      22.035  22.930 -19.045  1.00  0.00     0.219 HD
ENDBRANCH  11  27
BRANCH  10  29
HETATM   29  C15 UNL     1      21.838  19.636 -17.734  1.00  0.00     0.159 C 
BRANCH  29  30
HETATM   30  C16 UNL     1      20.940  19.142 -18.789  1.00  0.00     0.184 C 
BRANCH  30  31
HETATM   31  O2  UNL     1      20.604  17.810 -18.792  1.00  0.00    -0.399 OA
ATOM     32  H2  UNL     1      20.856  17.281 -19.540  1.00  0.00     0.209 HD
ENDBRANCH  30  31
ENDBRANCH  29  30
ENDBRANCH  10  29
TORSDOF 8
ENDMDL
MODEL 2
REMARK VINA RESULT: -7.486642339      1.259      1.482
REMARK  8 active torsions:
REMARK  status: ('A' for Active; 'I' for Inactive)
REMARK    1  A    between atoms: C2_2  and  C3_3 
REMARK    2  A    between atoms: C5_5  and  C6_6 
REMARK    3  A    between atoms: C6_6  and  N1_7 
REMARK    4  A    between atoms: C14_15  and  O1_16 
REMARK    5  A    between atoms: N2_18  and  C15_19 
REMARK    6  A    between atoms: C15_19  and  C16_20 
REMARK    7  A    between atoms: C16_20  and  O2_21 
REMARK    8  A    between atoms: C17_23  and  O3_24 
ROOT
HETATM    1  N1  UNL     1      20.238  23.429 -14.391  1.00  0.00    -0.375 N 
HETATM    2  C7  UNL     1      19.671  22.196 -14.812  1.00  0.00     0.122 C 
HETATM    3  C8  UNL     1      18.216  22.409 -15.195  1.00  0.00     0.030 C 
HETATM    4  C9  UNL     1      17.963  23.571 -16.079  1.00  0.00     0.003 C 
HETATM    5  C10 UNL     1      18.920  23.849 -17.167  1.00  0.00     0.011 C 
HETATM    6  C11 UNL     1      20.391  23.865 -16.777  1.00  0.00     0.046 C 
HETATM    7  C12 UNL     1      20.799  22.436 -16.933  1.00  0.00     0.012 A 
HETATM    8  C13 UNL     1      20.411  21.580 -15.937  1.00  0.00     0.027 A 
HETATM    9  C14 UNL     1      20.761  20.332 -16.319  1.00  0.00     0.153 A 
HETATM   10  N2  UNL     1      21.357  20.404 -17.542  1.00  0.00    -0.305 N 
HETATM   11  C17 UNL     1      21.392  21.684 -17.916  1.00  0.00     0.151 A 
HETATM   12  C18 UNL     1      20.638  24.334 -15.368  1.00  0.00     0.089 C 
HETATM   13  C19 UNL     1      20.064  25.741 -15.193  1.00  0.00     0.033 C 
ENDROOT
BRANCH   1  14
HETATM   14  C6  UNL     1      20.840  23.352 -13.124  1.00  0.00     0.101 C 
BRANCH  14  15
HETATM   15  C5  UNL     1      19.978  23.442 -11.955  1.00  0.00     0.018 A 
HETATM   16  C4  UNL     1      18.756  24.025 -11.911  1.00  0.00     0.026 A 
HETATM   17  C3  UNL     1      18.091  24.229 -10.710  1.00  0.00    -0.019 A 
HETATM   18  C22 UNL     1      18.654  23.850  -9.511  1.00  0.00     0.125 A 
HETATM   19  C21 UNL     1      19.889  23.251  -9.523  1.00  0.00     0.086 A 
HETATM   20  F2  UNL     1      17.983  24.099  -8.361  1.00  0.00    -0.205 F 
HETATM   21  C20 UNL     1      20.514  23.062 -10.706  1.00  0.00     0.131 A 
HETATM   22  F1  UNL     1      21.713  22.443 -10.755  1.00  0.00    -0.205 F 
BRANCH  17  23
HETATM   23  C2  UNL     1      16.710  24.803 -10.729  1.00  0.00     0.037 C 
HETATM   24  C1  UNL     1      15.744  23.615 -10.710  1.00  0.00     0.010 C 
ENDBRANCH  17  23
ENDBRANCH  14  15
ENDBRANCH   1  14
BRANCH   9  25
HETATM   25  O1  UNL     1      20.546  19.199 -15.586  1.00  0.00    -0.345 OA
ATOM     26  H1  UNL     1      21.224  18.596 -15.306  1.00  0.00     0.219 HD
ENDBRANCH   9  25
BRANCH  11  27
HETATM   27  O3  UNL     1      21.928  22.233 -19.089  1.00  0.00    -0.345 OA
ATOM     28  H3  UNL     1      22.777  21.991 -19.438  1.00  0.00     0.219 HD
ENDBRANCH  11  27
BRANCH  10  29
HETATM   29  C15 UNL     1      21.592  19.239 -18.347  1.00  0.00     0.159 C 
BRANCH  29  30
HETATM   30  C16 UNL     1      20.544  18.766 -19.264  1.00  0.00     0.184 C 
BRANCH  30  31
HETATM   31  O2  UNL     1      19.905  17.584 -18.974  1.00  0.00    -0.399 OA
ATOM     32  H2  UNL     1      19.010  17.469 -19.270  1.00  0.00     0.209 HD
ENDBRANCH  30  31
ENDBRANCH  29  30
ENDBRANCH  10  29
TORSDOF 8
ENDMDL
MODEL 3
REMARK VINA RESULT: -7.480918127      1.362      2.484
REMARK  8 active torsions:
REMARK  status: ('A' for Active; 'I' for Inactive)
REMARK    1  A    between atoms: C2_2  and  C3_3 
REMARK    2  A    between atoms: C5_5  and  C6_6 
REMARK    3  A    between atoms: C6_6  and  N1_7 
REMARK    4  A    between atoms: C14_15  and  O1_16 
REMARK    5  A    between atoms: N2_18  and  C15_19 
REMARK    6  A    between atoms: C15_19  and  C16_20 
REMARK    7  A    between atoms: C16_20  and  O2_21 
REMARK    8  A    between atoms: C17_23  and  O3_24 
ROOT
HETATM    1  N1  UNL     1      19.697  23.601 -14.346  1.00  0.00    -0.375 N 
HETATM    2  C7  UNL     1      20.221  23.792 -15.652  1.00  0.00     0.122 C 
HETATM    3  C8  UNL     1      21.604  24.415 -15.559  1.00  0.00     0.030 C 
HETATM    4  C9  UNL     1      22.517  23.773 -14.584  1.00  0.00     0.003 C 
HETATM    5  C10 UNL     1      22.510  22.302 -14.476  1.00  0.00     0.011 C 
HETATM    6  C11 UNL     1      21.143  21.647 -14.341  1.00  0.00     0.046 C 
HETATM    7  C12 UNL     1      20.728  21.434 -15.761  1.00  0.00     0.012 A 
HETATM    8  C13 UNL     1      20.277  22.537 -16.436  1.00  0.00     0.027 A 
HETATM    9  C14 UNL     1      20.075  22.169 -17.720  1.00  0.00     0.153 A 
HETATM   10  N2  UNL     1      20.399  20.852 -17.850  1.00  0.00    -0.305 N 
HETATM   11  C17 UNL     1      20.788  20.397 -16.659  1.00  0.00     0.151 A 
HETATM   12  C18 UNL     1      20.133  22.499 -13.619  1.00  0.00     0.089 C 
HETATM   13  C19 UNL     1      20.660  22.836 -12.222  1.00  0.00     0.033 C 
ENDROOT
BRANCH   1  14
HETATM   14  C6  UNL     1      18.428  24.179 -14.173  1.00  0.00     0.101 C 
BRANCH  14  15
HETATM   15  C5  UNL     1      17.962  24.402 -12.812  1.00  0.00     0.018 A 
HETATM   16  C4  UNL     1      16.936  23.758 -12.207  1.00  0.00     0.026 A 
HETATM   17  C3  UNL     1      16.444  24.170 -10.976  1.00  0.00    -0.019 A 
HETATM   18  C22 UNL     1      16.981  25.257 -10.322  1.00  0.00     0.125 A 
HETATM   19  C21 UNL     1      18.027  25.927 -10.907  1.00  0.00     0.086 A 
HETATM   20  F2  UNL     1      16.448  25.642  -9.138  1.00  0.00    -0.205 F 
HETATM   21  C20 UNL     1      18.487  25.505 -12.105  1.00  0.00     0.131 A 
HETATM   22  F1  UNL     1      19.538  26.120 -12.689  1.00  0.00    -0.205 F 
BRANCH  17  23
HETATM   23  C2  UNL     1      15.363  23.372 -10.318  1.00  0.00     0.037 C 
HETATM   24  C1  UNL     1      16.060  22.251  -9.541  1.00  0.00     0.010 C 
ENDBRANCH  17  23
ENDBRANCH  14  15
ENDBRANCH   1  14
BRANCH   9  25
HETATM   25  O1  UNL     1      19.618  22.994 -18.709  1.00  0.00    -0.345 OA
ATOM     26  H1  UNL     1      19.945  23.007 -19.600  1.00  0.00     0.219 HD
ENDBRANCH   9  25
BRANCH  11  27
HETATM   27  O3  UNL     1      21.194  19.101 -16.312  1.00  0.00    -0.345 OA
ATOM     28  H3  UNL     1      20.668  18.328 -16.479  1.00  0.00     0.219 HD
ENDBRANCH  11  27
BRANCH  10  29
HETATM   29  C15 UNL     1      20.562  20.229 -19.133  1.00  0.00     0.159 C 
BRANCH  29  30
HETATM   30  C16 UNL     1      19.873  18.962 -19.418  1.00  0.00     0.184 C 
BRANCH  30  31
HETATM   31  O2  UNL     1      20.415  17.797 -18.930  1.00  0.00    -0.399 OA
ATOM     32  H2  UNL     1      20.539  17.070 -19.528  1.00  0.00     0.209 HD
ENDBRANCH  30  31
ENDBRANCH  29  30
ENDBRANCH  10  29
TORSDOF 8
ENDMDL
MODEL 4
REMARK VINA RESULT: -7.405737671      2.072      2.932
REMARK  8 active torsions:
REMARK  status: ('A' for Active; 'I' for Inactive)
REMARK    1  A    between atoms: C2_2  and  C3_3 
REMARK    2  A    between atoms: C5_5  and  C6_6 
REMARK    3  A    between atoms: C6_6  and  N1_7 
REMARK    4  A    between atoms: C14_15  and  O1_16 
REMARK    5  A    between atoms: N2_18  and  C15_19 
REMARK    6  A    between atoms: C15_19  and  C16_20 
REMARK    7  A    between atoms: C16_20  and  O2_21 
REMARK    8  A    between atoms: C17_23  and  O3_24 
ROOT
HETATM    1  N1  UNL     1      20.417  22.427 -14.708  1.00  0.00    -0.375 N 
HETATM    2  C7  UNL     1      19.851  22.634 -15.994  1.00  0.00     0.122 C 
HETATM    3  C8  UNL     1      20.377  23.933 -16.580  1.00  0.00     0.030 C 
HETATM    4  C9  UNL     1      21.844  24.116 -16.484  1.00  0.00     0.003 C 
HETATM    5  C10 UNL     1      22.716  22.950 -16.724  1.00  0.00     0.011 C 
HETATM    6  C11 UNL     1      22.350  21.675 -15.976  1.00  0.00     0.046 C 
HETATM    7  C12 UNL     1      21.386  21.005 -16.900  1.00  0.00     0.012 A 
HETATM    8  C13 UNL     1      20.113  21.511 -16.924  1.00  0.00     0.027 A 
HETATM    9  C14 UNL     1      19.439  20.861 -17.898  1.00  0.00     0.153 A 
HETATM   10  N2  UNL     1      20.280  19.962 -18.482  1.00  0.00    -0.305 N 
HETATM   11  C17 UNL     1      21.464  20.038 -17.872  1.00  0.00     0.151 A 
HETATM   12  C18 UNL     1      21.711  21.923 -14.636  1.00  0.00     0.089 C 
HETATM   13  C19 UNL     1      22.660  22.752 -13.767  1.00  0.00     0.033 C 
ENDROOT
BRANCH   1  14
HETATM   14  C6  UNL     1      19.452  22.206 -13.712  1.00  0.00     0.101 C 
BRANCH  14  15
HETATM   15  C5  UNL     1      19.125  23.315 -12.826  1.00  0.00     0.018 A 
HETATM   16  C4  UNL     1      19.757  23.621 -11.669  1.00  0.00     0.026 A 
HETATM   17  C3  UNL     1      19.256  24.579 -10.798  1.00  0.00    -0.019 A 
HETATM   18  C22 UNL     1      18.088  25.253 -11.077  1.00  0.00     0.125 A 
HETATM   19  C21 UNL     1      17.426  24.969 -12.246  1.00  0.00     0.086 A 
HETATM   20  F2  UNL     1      17.619  26.156 -10.183  1.00  0.00    -0.205 F 
HETATM   21  C20 UNL     1      17.936  24.034 -13.077  1.00  0.00     0.131 A 
HETATM   22  F1  UNL     1      17.329  23.757 -14.251  1.00  0.00    -0.205 F 
BRANCH  17  23
HETATM   23  C2  UNL     1      20.040  24.934  -9.574  1.00  0.00     0.037 C 
HETATM   24  C1  UNL     1      20.061  23.681  -8.692  1.00  0.00     0.010 C 
ENDBRANCH  17  23
ENDBRANCH  14  15
ENDBRANCH   1  14
BRANCH   9  25
HETATM   25  O1  UNL     1      18.132  21.082 -18.227  1.00  0.00    -0.345 OA
ATOM     26  H1  UNL     1      17.643  20.589 -18.876  1.00  0.00     0.219 HD
ENDBRANCH   9  25
BRANCH  11  27
HETATM   27  O3  UNL     1      22.622  19.291 -18.124  1.00  0.00    -0.345 OA
ATOM     28  H3  UNL     1      22.621  18.473 -18.606  1.00  0.00     0.219 HD
ENDBRANCH  11  27
BRANCH  10  29
HETATM   29  C15 UNL     1      19.964  19.315 -19.723  1.00  0.00     0.159 C 
BRANCH  29  30
HETATM   30  C16 UNL     1      19.813  17.852 -19.762  1.00  0.00     0.184 C 
BRANCH  30  31
HETATM   31  O2  UNL     1      18.604  17.309 -19.399  1.00  0.00    -0.399 OA
ATOM     32  H2  UNL     1      18.388  16.438 -19.708  1.00  0.00     0.209 HD
ENDBRANCH  30  31
ENDBRANCH  29  30
ENDBRANCH  10  29
TORSDOF 8
ENDMDL
MODEL 5
REMARK VINA RESULT: -7.374968012      2.334      3.232
REMARK  8 active torsions:
REMARK  status: ('A' for Active; 'I' for Inactive)
REMARK    1  A    between atoms: C2_2  and  C3_3 
REMARK    2  A    between atoms: C5_5  and  C6_6 
REMARK    3  A    between atoms: C6_6  and  N1_7 
REMARK    4  A    between atoms: C14_15  and  O1_16 
REMARK    5  A    between atoms: N2_18  and  C15_19 
REMARK    6  A    between atoms: C15_19  and  C16_20 
REMARK    7  A    between atoms: C16_20  and  O2_21 
REMARK    8  A    between atoms: C17_23  and  O3_24 
ROOT
HETATM    1  N1  UNL     1      20.405  22.542 -14.807  1.00  0.00    -0.375 N 
HETATM    2  C7  UNL     1      19.798  22.853 -16.053  1.00  0.00     0.122 C 
HETATM    3  C8  UNL     1      20.494  24.052 -16.674  1.00  0.00     0.030 C 
HETATM    4  C9  UNL     1      21.975  23.987 -16.676  1.00  0.00     0.003 C 
HETATM    5  C10 UNL     1      22.622  22.694 -16.970  1.00  0.00     0.011 C 
HETATM    6  C11 UNL     1      22.098  21.491 -16.198  1.00  0.00     0.046 C 
HETATM    7  C12 UNL     1      20.978  21.000 -17.055  1.00  0.00     0.012 A 
HETATM    8  C13 UNL     1      19.808  21.710 -16.996  1.00  0.00     0.027 A 
HETATM    9  C14 UNL     1      18.974  21.191 -17.923  1.00  0.00     0.153 A 
HETATM   10  N2  UNL     1      19.613  20.170 -18.559  1.00  0.00    -0.305 N 
HETATM   11  C17 UNL     1      20.830  20.043 -18.028  1.00  0.00     0.151 A 
HETATM   12  C18 UNL     1      21.599  21.830 -14.819  1.00  0.00     0.089 C 
HETATM   13  C19 UNL     1      22.727  22.481 -14.016  1.00  0.00     0.033 C 
ENDROOT
BRANCH   1  14
HETATM   14  C6  UNL     1      19.483  22.477 -13.749  1.00  0.00     0.101 C 
BRANCH  14  15
HETATM   15  C5  UNL     1      19.742  23.292 -12.571  1.00  0.00     0.018 A 
HETATM   16  C4  UNL     1      20.067  22.830 -11.340  1.00  0.00     0.026 A 
HETATM   17  C3  UNL     1      20.109  23.671 -10.236  1.00  0.00    -0.019 A 
HETATM   18  C22 UNL     1      19.815  25.012 -10.350  1.00  0.00     0.125 A 
HETATM   19  C21 UNL     1      19.488  25.511 -11.586  1.00  0.00     0.086 A 
HETATM   20  F2  UNL     1      19.837  25.787  -9.240  1.00  0.00    -0.205 F 
HETATM   21  C20 UNL     1      19.456  24.672 -12.645  1.00  0.00     0.131 A 
HETATM   22  F1  UNL     1      19.173  25.139 -13.880  1.00  0.00    -0.205 F 
BRANCH  17  23
HETATM   23  C2  UNL     1      20.553  23.122  -8.917  1.00  0.00     0.037 C 
HETATM   24  C1  UNL     1      21.870  22.383  -9.173  1.00  0.00     0.010 C 
ENDBRANCH  17  23
ENDBRANCH  14  15
ENDBRANCH   1  14
BRANCH   9  25
HETATM   25  O1  UNL     1      17.703  21.630 -18.165  1.00  0.00    -0.345 OA
ATOM     26  H1  UNL     1      17.285  22.359 -17.722  1.00  0.00     0.219 HD
ENDBRANCH   9  25
BRANCH  11  27
HETATM   27  O3  UNL     1      21.829  19.116 -18.354  1.00  0.00    -0.345 OA
ATOM     28  H3  UNL     1      22.645  19.037 -17.874  1.00  0.00     0.219 HD
ENDBRANCH  11  27
BRANCH  10  29
HETATM   29  C15 UNL     1      19.113  19.596 -19.775  1.00  0.00     0.159 C 
BRANCH  29  30
HETATM   30  C16 UNL     1      18.148  18.488 -19.713  1.00  0.00     0.184 C 
BRANCH  30  31
HETATM   31  O2  UNL     1      16.907  18.730 -19.175  1.00  0.00    -0.399 OA
ATOM     32  H2  UNL     1      16.191  18.154 -19.413  1.00  0.00     0.209 HD
ENDBRANCH  30  31
ENDBRANCH  29  30
ENDBRANCH  10  29
TORSDOF 8
ENDMDL
