MODEL 1
REMARK VINA RESULT: -7.537187493      0.000      0.000
REMARK  7 active torsions:
REMARK  status: ('A' for Active; 'I' for Inactive)
REMARK    1  A    between atoms: C2_2  and  C3_3 
REMARK    2  A    between atoms: C3_3  and  C4_4 
REMARK    3  A    between atoms: C4_4  and  N1_5 
REMARK    4  A    between atoms: N1_5  and  C5_7 
REMARK    5  A    between atoms: C7_11  and  C8_12 
REMARK    6  A    between atoms: C11_15  and  C12_16 
REMARK    7  A    between atoms: C16_30  and  C17_31 
ROOT
HETATM    1  C5  UNL     1      18.960  26.583 -12.355  1.00  0.00     0.130 A 
HETATM    2  N2  UNL     1      19.744  26.704 -13.443  1.00  0.00    -0.350 N 
ATOM      3  H2  UNL     1      20.367  27.504 -13.556  1.00  0.00     0.166 HD
HETATM    4  C6  UNL     1      19.677  25.742 -14.371  1.00  0.00     0.104 A 
HETATM    5  C7  UNL     1      18.870  24.633 -14.304  1.00  0.00     0.022 A 
HETATM    6  C15 UNL     1      18.055  24.502 -13.174  1.00  0.00     0.077 A 
HETATM    7  N7  UNL     1      17.170  23.563 -12.793  1.00  0.00    -0.343 N 
ATOM      8  H7  UNL     1      16.923  22.720 -13.311  1.00  0.00     0.167 HD
HETATM    9  C16 UNL     1      16.669  23.945 -11.602  1.00  0.00     0.085 A 
HETATM   10  N8  UNL     1      17.250  25.118 -11.254  1.00  0.00    -0.341 N 
ATOM     11  H8  UNL     1      17.060  25.638 -10.398  1.00  0.00     0.167 HD
HETATM   12  C20 UNL     1      18.116  25.489 -12.212  1.00  0.00     0.105 A 
ENDROOT
BRANCH   5  13
HETATM   13  C8  UNL     1      18.826  23.619 -15.350  1.00  0.00     0.020 A 
HETATM   14  C9  UNL     1      19.410  22.376 -15.203  1.00  0.00     0.017 A 
HETATM   15  C10 UNL     1      19.362  21.413 -16.188  1.00  0.00     0.019 A 
HETATM   16  C11 UNL     1      18.710  21.662 -17.396  1.00  0.00     0.052 A 
HETATM   17  C13 UNL     1      18.130  22.893 -17.547  1.00  0.00     0.169 A 
HETATM   18  F1  UNL     1      17.486  23.192 -18.694  1.00  0.00    -0.202 F 
HETATM   19  C14 UNL     1      18.182  23.865 -16.545  1.00  0.00     0.167 A 
HETATM   20  F2  UNL     1      17.592  25.081 -16.737  1.00  0.00    -0.202 F 
BRANCH  16  21
HETATM   21  C12 UNL     1      18.676  20.629 -18.424  1.00  0.00     0.144 A 
HETATM   22  N3  UNL     1      19.727  20.008 -18.980  1.00  0.00    -0.270 N 
HETATM   23  N4  UNL     1      19.297  19.130 -19.879  1.00  0.00    -0.007 NA
ATOM     24  H3  UNL     1      20.705  20.182 -18.748  1.00  0.00     0.185 HD
HETATM   25  N5  UNL     1      17.972  19.187 -19.901  1.00  0.00    -0.007 NA
HETATM   26  N6  UNL     1      17.589  20.109 -19.006  1.00  0.00    -0.270 N 
ATOM     27  H6  UNL     1      16.625  20.372 -18.802  1.00  0.00     0.185 HD
ENDBRANCH  16  21
ENDBRANCH   5  13
BRANCH   1  28
HETATM   28  N1  UNL     1      18.960  27.446 -11.426  1.00  0.00    -0.374 N 
ATOM     29  H1  UNL     1      18.188  28.113 -11.440  1.00  0.00     0.161 HD
BRANCH  28  30
HETATM   30  C4  UNL     1      19.901  27.606 -10.363  1.00  0.00     0.121 C 
BRANCH  30  31
HETATM   31  C3  UNL     1      19.376  27.107  -9.035  1.00  0.00     0.019 C 
BRANCH  31  32
HETATM   32  C2  UNL     1      18.051  27.777  -8.783  1.00  0.00    -0.003 C 
HETATM   33  C1  UNL     1      17.097  26.871  -8.071  1.00  0.00     0.005 C 
ENDBRANCH  31  32
ENDBRANCH  30  31
ENDBRANCH  28  30
ENDBRANCH   1  28
BRANCH   9  34
HETATM   34  C17 UNL     1      15.665  23.198 -10.827  1.00  0.00     0.045 C 
HETATM   35  C18 UNL     1      16.219  22.474  -9.641  1.00  0.00     0.017 C 
HETATM   36  C19 UNL     1      14.580  24.183 -10.423  1.00  0.00     0.017 C 
ENDBRANCH   9  34
TORSDOF 7
ENDMDL
MODEL 2
REMARK VINA RESULT: -7.527849286      1.284      1.675
REMARK  7 active torsions:
REMARK  status: ('A' for Active; 'I' for Inactive)
REMARK    1  A    between atoms: C2_2  and  C3_3 
REMARK    2  A    between atoms: C3_3  and  C4_4 
REMARK    3  A    between atoms: C4_4  and  N1_5 
REMARK    4  A    between atoms: N1_5  and  C5_7 
REMARK    5  A    between atoms: C7_11  and  C8_12 
REMARK    6  A    between atoms: C11_15  and  C12_16 
REMARK    7  A    between atoms: C16_30  and  C17_31 
ROOT
HETATM    1  C5  UNL     1      18.884  26.585 -12.205  1.00  0.00     0.130 A 
HETATM    2  N2  UNL     1      19.695  26.712 -13.273  1.00  0.00    -0.350 N 
ATOM      3  H2  UNL     1      20.308  27.521 -13.375  1.00  0.00     0.166 HD
HETATM    4  C6  UNL     1      19.669  25.743 -14.195  1.00  0.00     0.104 A 
HETATM    5  C7  UNL     1      18.879  24.622 -14.142  1.00  0.00     0.022 A 
HETATM    6  C15 UNL     1      18.035  24.485 -13.034  1.00  0.00     0.077 A 
HETATM    7  N7  UNL     1      17.155  23.534 -12.671  1.00  0.00    -0.343 N 
ATOM      8  H7  UNL     1      16.937  22.682 -13.188  1.00  0.00     0.167 HD
HETATM    9  C16 UNL     1      16.617  23.915 -11.495  1.00  0.00     0.085 A 
HETATM   10  N8  UNL     1      17.169  25.099 -11.140  1.00  0.00    -0.341 N 
ATOM     11  H8  UNL     1      16.947  25.622 -10.293  1.00  0.00     0.167 HD
HETATM   12  C20 UNL     1      18.055  25.479 -12.077  1.00  0.00     0.105 A 
ENDROOT
BRANCH   5  13
HETATM   13  C8  UNL     1      18.879  23.600 -15.182  1.00  0.00     0.020 A 
HETATM   14  C9  UNL     1      18.222  23.766 -16.385  1.00  0.00     0.017 A 
HETATM   15  C10 UNL     1      18.228  22.805 -17.373  1.00  0.00     0.019 A 
HETATM   16  C11 UNL     1      18.912  21.602 -17.191  1.00  0.00     0.052 A 
HETATM   17  C13 UNL     1      19.565  21.432 -16.000  1.00  0.00     0.169 A 
HETATM   18  F1  UNL     1      20.243  20.290 -15.767  1.00  0.00    -0.202 F 
HETATM   19  C14 UNL     1      19.555  22.410 -15.003  1.00  0.00     0.167 A 
HETATM   20  F2  UNL     1      20.217  22.200 -13.828  1.00  0.00    -0.202 F 
BRANCH  16  21
HETATM   21  C12 UNL     1      18.902  20.599 -18.249  1.00  0.00     0.144 A 
HETATM   22  N3  UNL     1      17.835  20.155 -18.931  1.00  0.00    -0.270 N 
HETATM   23  N4  UNL     1      18.222  19.241 -19.813  1.00  0.00    -0.007 NA
ATOM     24  H3  UNL     1      16.875  20.471 -18.793  1.00  0.00     0.185 HD
HETATM   25  N5  UNL     1      19.536  19.097 -19.698  1.00  0.00    -0.007 NA
HETATM   26  N6  UNL     1      19.955  19.932 -18.736  1.00  0.00    -0.270 N 
ATOM     27  H6  UNL     1      20.920  20.042 -18.426  1.00  0.00     0.185 HD
ENDBRANCH  16  21
ENDBRANCH   5  13
BRANCH   1  28
HETATM   28  N1  UNL     1      18.844  27.455 -11.283  1.00  0.00    -0.374 N 
ATOM     29  H1  UNL     1      18.040  28.082 -11.298  1.00  0.00     0.161 HD
BRANCH  28  30
HETATM   30  C4  UNL     1      19.781  27.669 -10.226  1.00  0.00     0.121 C 
BRANCH  30  31
HETATM   31  C3  UNL     1      19.275  27.182  -8.886  1.00  0.00     0.019 C 
BRANCH  31  32
HETATM   32  C2  UNL     1      17.957  27.860  -8.618  1.00  0.00    -0.003 C 
HETATM   33  C1  UNL     1      16.943  26.905  -8.071  1.00  0.00     0.005 C 
ENDBRANCH  31  32
ENDBRANCH  30  31
ENDBRANCH  28  30
ENDBRANCH   1  28
BRANCH   9  34
HETATM   34  C17 UNL     1      15.605  23.156 -10.742  1.00  0.00     0.045 C 
HETATM   35  C18 UNL     1      16.149  22.402  -9.571  1.00  0.00     0.017 C 
HETATM   36  C19 UNL     1      14.524  24.138 -10.322  1.00  0.00     0.017 C 
ENDBRANCH   9  34
TORSDOF 7
ENDMDL
MODEL 3
REMARK VINA RESULT: -7.391953309      1.829      2.146
REMARK  7 active torsions:
REMARK  status: ('A' for Active; 'I' for Inactive)
REMARK    1  A    between atoms: C2_2  and  C3_3 
REMARK    2  A    between atoms: C3_3  and  C4_4 
REMARK    3  A    between atoms: C4_4  and  N1_5 
REMARK    4  A    between atoms: N1_5  and  C5_7 
REMARK    5  A    between atoms: C7_11  and  C8_12 
REMARK    6  A    between atoms: C11_15  and  C12_16 
REMARK    7  A    between atoms: C16_30  and  C17_31 
ROOT
HETATM    1  C5  UNL     1      18.682  27.061 -12.671  1.00  0.00     0.130 A 
HETATM    2  N2  UNL     1      19.513  27.241 -13.715  1.00  0.00    -0.350 N 
ATOM      3  H2  UNL     1      19.917  28.157 -13.914  1.00  0.00     0.166 HD
HETATM    4  C6  UNL     1      19.790  26.181 -14.483  1.00  0.00     0.104 A 
HETATM    5  C7  UNL     1      19.293  24.915 -14.293  1.00  0.00     0.022 A 
HETATM    6  C15 UNL     1      18.430  24.723 -13.208  1.00  0.00     0.077 A 
HETATM    7  N7  UNL     1      17.783  23.640 -12.740  1.00  0.00    -0.343 N 
ATOM      8  H7  UNL     1      17.816  22.699 -13.132  1.00  0.00     0.167 HD
HETATM    9  C16 UNL     1      17.085  24.030 -11.655  1.00  0.00     0.085 A 
HETATM   10  N8  UNL     1      17.306  25.351 -11.460  1.00  0.00    -0.341 N 
ATOM     11  H8  UNL     1      16.903  25.912 -10.709  1.00  0.00     0.167 HD
HETATM   12  C20 UNL     1      18.139  25.810 -12.410  1.00  0.00     0.105 A 
ENDROOT
BRANCH   5  13
HETATM   13  C8  UNL     1      19.617  23.795 -15.168  1.00  0.00     0.020 A 
HETATM   14  C9  UNL     1      18.818  23.433 -16.235  1.00  0.00     0.017 A 
HETATM   15  C10 UNL     1      19.126  22.380 -17.069  1.00  0.00     0.019 A 
HETATM   16  C11 UNL     1      20.280  21.623 -16.862  1.00  0.00     0.052 A 
HETATM   17  C13 UNL     1      21.075  21.978 -15.806  1.00  0.00     0.169 A 
HETATM   18  F1  UNL     1      22.204  21.283 -15.556  1.00  0.00    -0.202 F 
HETATM   19  C14 UNL     1      20.757  23.046 -14.965  1.00  0.00     0.167 A 
HETATM   20  F2  UNL     1      21.577  23.365 -13.920  1.00  0.00    -0.202 F 
BRANCH  16  21
HETATM   21  C12 UNL     1      20.584  20.512 -17.755  1.00  0.00     0.144 A 
HETATM   22  N3  UNL     1      20.414  20.475 -19.086  1.00  0.00    -0.270 N 
HETATM   23  N4  UNL     1      20.803  19.292 -19.549  1.00  0.00    -0.007 NA
ATOM     24  H3  UNL     1      20.043  21.237 -19.653  1.00  0.00     0.185 HD
HETATM   25  N5  UNL     1      21.223  18.570 -18.518  1.00  0.00    -0.007 NA
HETATM   26  N6  UNL     1      21.089  19.320 -17.414  1.00  0.00    -0.270 N 
ATOM     27  H6  UNL     1      21.332  19.029 -16.467  1.00  0.00     0.185 HD
ENDBRANCH  16  21
ENDBRANCH   5  13
BRANCH   1  28
HETATM   28  N1  UNL     1      18.366  28.009 -11.891  1.00  0.00    -0.374 N 
ATOM     29  H1  UNL     1      17.493  28.490 -12.106  1.00  0.00     0.161 HD
BRANCH  28  30
HETATM   30  C4  UNL     1      19.076  28.492 -10.749  1.00  0.00     0.121 C 
BRANCH  30  31
HETATM   31  C3  UNL     1      18.198  28.627  -9.525  1.00  0.00     0.019 C 
BRANCH  31  32
HETATM   32  C2  UNL     1      18.415  27.409  -8.666  1.00  0.00    -0.003 C 
HETATM   33  C1  UNL     1      17.134  26.914  -8.071  1.00  0.00     0.005 C 
ENDBRANCH  31  32
ENDBRANCH  30  31
ENDBRANCH  28  30
ENDBRANCH   1  28
BRANCH   9  34
HETATM   34  C17 UNL     1      16.235  23.150 -10.835  1.00  0.00     0.045 C 
HETATM   35  C18 UNL     1      16.852  22.738  -9.536  1.00  0.00     0.017 C 
HETATM   36  C19 UNL     1      14.913  23.869 -10.622  1.00  0.00     0.017 C 
ENDBRANCH   9  34
TORSDOF 7
ENDMDL
MODEL 4
REMARK VINA RESULT: -7.390067025      1.423      1.786
REMARK  7 active torsions:
REMARK  status: ('A' for Active; 'I' for Inactive)
REMARK    1  A    between atoms: C2_2  and  C3_3 
REMARK    2  A    between atoms: C3_3  and  C4_4 
REMARK    3  A    between atoms: C4_4  and  N1_5 
REMARK    4  A    between atoms: N1_5  and  C5_7 
REMARK    5  A    between atoms: C7_11  and  C8_12 
REMARK    6  A    between atoms: C11_15  and  C12_16 
REMARK    7  A    between atoms: C16_30  and  C17_31 
ROOT
HETATM    1  C5  UNL     1      18.612  26.972 -12.535  1.00  0.00     0.130 A 
HETATM    2  N2  UNL     1      19.552  27.119 -13.488  1.00  0.00    -0.350 N 
ATOM      3  H2  UNL     1      19.962  28.032 -13.688  1.00  0.00     0.166 HD
HETATM    4  C6  UNL     1      19.931  26.028 -14.165  1.00  0.00     0.104 A 
HETATM    5  C7  UNL     1      19.436  24.763 -13.966  1.00  0.00     0.022 A 
HETATM    6  C15 UNL     1      18.460  24.605 -12.976  1.00  0.00     0.077 A 
HETATM    7  N7  UNL     1      17.782  23.533 -12.528  1.00  0.00    -0.343 N 
ATOM      8  H7  UNL     1      17.873  22.575 -12.866  1.00  0.00     0.167 HD
HETATM    9  C16 UNL     1      16.960  23.961 -11.549  1.00  0.00     0.085 A 
HETATM   10  N8  UNL     1      17.136  25.295 -11.399  1.00  0.00    -0.341 N 
ATOM     11  H8  UNL     1      16.643  25.882 -10.728  1.00  0.00     0.167 HD
HETATM   12  C20 UNL     1      18.063  25.724 -12.273  1.00  0.00     0.105 A 
ENDROOT
BRANCH   5  13
HETATM   13  C8  UNL     1      19.874  23.608 -14.742  1.00  0.00     0.020 A 
HETATM   14  C9  UNL     1      21.003  22.882 -14.416  1.00  0.00     0.017 A 
HETATM   15  C10 UNL     1      21.415  21.785 -15.143  1.00  0.00     0.019 A 
HETATM   16  C11 UNL     1      20.692  21.359 -16.258  1.00  0.00     0.052 A 
HETATM   17  C13 UNL     1      19.572  22.076 -16.585  1.00  0.00     0.169 A 
HETATM   18  F1  UNL     1      18.834  21.711 -17.653  1.00  0.00    -0.202 F 
HETATM   19  C14 UNL     1      19.161  23.186 -15.844  1.00  0.00     0.167 A 
HETATM   20  F2  UNL     1      18.039  23.875 -16.205  1.00  0.00    -0.202 F 
BRANCH  16  21
HETATM   21  C12 UNL     1      21.148  20.198 -17.013  1.00  0.00     0.144 A 
HETATM   22  N3  UNL     1      22.343  19.594 -16.922  1.00  0.00    -0.270 N 
HETATM   23  N4  UNL     1      22.387  18.572 -17.769  1.00  0.00    -0.007 NA
ATOM     24  H3  UNL     1      23.099  19.876 -16.298  1.00  0.00     0.185 HD
HETATM   25  N5  UNL     1      21.223  18.520 -18.404  1.00  0.00    -0.007 NA
HETATM   26  N6  UNL     1      20.461  19.519 -17.939  1.00  0.00    -0.270 N 
ATOM     27  H6  UNL     1      19.510  19.729 -18.242  1.00  0.00     0.185 HD
ENDBRANCH  16  21
ENDBRANCH   5  13
BRANCH   1  28
HETATM   28  N1  UNL     1      18.196  27.950 -11.845  1.00  0.00    -0.374 N 
ATOM     29  H1  UNL     1      17.237  28.248 -12.029  1.00  0.00     0.161 HD
BRANCH  28  30
HETATM   30  C4  UNL     1      18.895  28.690 -10.843  1.00  0.00     0.121 C 
BRANCH  30  31
HETATM   31  C3  UNL     1      18.144  28.758  -9.531  1.00  0.00     0.019 C 
BRANCH  31  32
HETATM   32  C2  UNL     1      18.379  27.461  -8.800  1.00  0.00    -0.003 C 
HETATM   33  C1  UNL     1      17.139  26.979  -8.114  1.00  0.00     0.005 C 
ENDBRANCH  31  32
ENDBRANCH  30  31
ENDBRANCH  28  30
ENDBRANCH   1  28
BRANCH   9  34
HETATM   34  C17 UNL     1      16.037  23.105 -10.785  1.00  0.00     0.045 C 
HETATM   35  C18 UNL     1      16.641  22.489  -9.563  1.00  0.00     0.017 C 
HETATM   36  C19 UNL     1      14.818  23.946 -10.443  1.00  0.00     0.017 C 
ENDBRANCH   9  34
TORSDOF 7
ENDMDL
MODEL 5
REMARK VINA RESULT: -7.319727788      5.561      7.790
REMARK  7 active torsions:
REMARK  status: ('A' for Active; 'I' for Inactive)
REMARK    1  A    between atoms: C2_2  and  C3_3 
REMARK    2  A    between atoms: C3_3  and  C4_4 
REMARK    3  A    between atoms: C4_4  and  N1_5 
REMARK    4  A    between atoms: N1_5  and  C5_7 
REMARK    5  A    between atoms: C7_11  and  C8_12 
REMARK    6  A    between atoms: C11_15  and  C12_16 
REMARK    7  A    between atoms: C16_30  and  C17_31 
ROOT
HETATM    1  C5  UNL     1      23.472  25.947 -16.071  1.00  0.00     0.130 A 
HETATM    2  N2  UNL     1      22.208  25.645 -15.719  1.00  0.00    -0.350 N 
ATOM      3  H2  UNL     1      21.704  26.206 -15.032  1.00  0.00     0.166 HD
HETATM    4  C6  UNL     1      21.635  24.584 -16.300  1.00  0.00     0.104 A 
HETATM    5  C7  UNL     1      22.234  23.773 -17.232  1.00  0.00     0.022 A 
HETATM    6  C15 UNL     1      23.548  24.084 -17.601  1.00  0.00     0.077 A 
HETATM    7  N7  UNL     1      24.409  23.518 -18.465  1.00  0.00    -0.343 N 
ATOM      8  H7  UNL     1      24.234  22.696 -19.044  1.00  0.00     0.167 HD
HETATM    9  C16 UNL     1      25.548  24.238 -18.425  1.00  0.00     0.085 A 
HETATM   10  N8  UNL     1      25.381  25.246 -17.536  1.00  0.00    -0.341 N 
ATOM     11  H8  UNL     1      26.083  25.948 -17.303  1.00  0.00     0.167 HD
HETATM   12  C20 UNL     1      24.147  25.176 -17.007  1.00  0.00     0.105 A 
ENDROOT
BRANCH   5  13
HETATM   13  C8  UNL     1      21.569  22.620 -17.826  1.00  0.00     0.020 A 
HETATM   14  C9  UNL     1      20.661  22.739 -18.860  1.00  0.00     0.017 A 
HETATM   15  C10 UNL     1      20.037  21.650 -19.429  1.00  0.00     0.019 A 
HETATM   16  C11 UNL     1      20.303  20.359 -18.971  1.00  0.00     0.052 A 
HETATM   17  C13 UNL     1      21.202  20.235 -17.946  1.00  0.00     0.169 A 
HETATM   18  F1  UNL     1      21.499  19.012 -17.461  1.00  0.00    -0.202 F 
HETATM   19  C14 UNL     1      21.831  21.343 -17.374  1.00  0.00     0.167 A 
HETATM   20  F2  UNL     1      22.719  21.176 -16.351  1.00  0.00    -0.202 F 
BRANCH  16  21
HETATM   21  C12 UNL     1      19.628  19.222 -19.585  1.00  0.00     0.144 A 
HETATM   22  N3  UNL     1      20.189  18.255 -20.328  1.00  0.00    -0.270 N 
HETATM   23  N4  UNL     1      19.253  17.394 -20.713  1.00  0.00    -0.007 NA
ATOM     24  H3  UNL     1      21.180  18.191 -20.561  1.00  0.00     0.185 HD
HETATM   25  N5  UNL     1      18.093  17.807 -20.218  1.00  0.00    -0.007 NA
HETATM   26  N6  UNL     1      18.323  18.931 -19.524  1.00  0.00    -0.270 N 
ATOM     27  H6  UNL     1      17.618  19.476 -19.030  1.00  0.00     0.185 HD
ENDBRANCH  16  21
ENDBRANCH   5  13
BRANCH   1  28
HETATM   28  N1  UNL     1      24.092  26.934 -15.571  1.00  0.00    -0.374 N 
ATOM     29  H1  UNL     1      24.911  26.707 -15.008  1.00  0.00     0.161 HD
BRANCH  28  30
HETATM   30  C4  UNL     1      23.789  28.325 -15.695  1.00  0.00     0.121 C 
BRANCH  30  31
HETATM   31  C3  UNL     1      24.074  28.867 -17.079  1.00  0.00     0.019 C 
BRANCH  31  32
HETATM   32  C2  UNL     1      25.481  29.407 -17.080  1.00  0.00    -0.003 C 
HETATM   33  C1  UNL     1      26.360  28.662 -18.034  1.00  0.00     0.005 C 
ENDBRANCH  31  32
ENDBRANCH  30  31
ENDBRANCH  28  30
ENDBRANCH   1  28
BRANCH   9  34
HETATM   34  C17 UNL     1      26.753  23.961 -19.223  1.00  0.00     0.045 C 
HETATM   35  C18 UNL     1      27.990  23.739 -18.411  1.00  0.00     0.017 C 
HETATM   36  C19 UNL     1      26.444  22.764 -20.108  1.00  0.00     0.017 C 
ENDBRANCH   9  34
TORSDOF 7
ENDMDL
