MODEL 1
REMARK VINA RESULT: -7.650916887      0.000      0.000
REMARK  10 active torsions:
REMARK  status: ('A' for Active; 'I' for Inactive)
REMARK    1  A    between atoms: C2_2  and  C3_6 
REMARK    2  A    between atoms: C3_6  and  C4_8 
REMARK    3  A    between atoms: C5_9  and  C6_10 
REMARK    4  A    between atoms: C10_14  and  N2_15 
REMARK    5  A    between atoms: N2_15  and  C11_17 
REMARK    6  A    between atoms: C12_18  and  N3_19 
REMARK    7  A    between atoms: N3_19  and  C13_21 
REMARK    8  A    between atoms: C13_21  and  C14_22 
REMARK    9  A    between atoms: C13_21  and  C17_25 
REMARK   10  A    between atoms: C17_25  and  O1_27 
ROOT
HETATM    1  N2  UNL     1      22.208  22.450 -15.930  1.00  0.00    -0.351 N 
ATOM      2  H2  UNL     1      22.997  23.067 -16.127  1.00  0.00     0.166 HD
ENDROOT
BRANCH   1   3
HETATM    3  C10 UNL     1      21.315  22.747 -14.870  1.00  0.00     0.036 A 
HETATM    4  C9  UNL     1      20.864  24.024 -14.700  1.00  0.00     0.038 A 
HETATM    5  C7  UNL     1      19.998  24.293 -13.667  1.00  0.00    -0.038 A 
HETATM    6  C6  UNL     1      19.581  23.311 -12.807  1.00  0.00     0.062 A 
HETATM    7  C8  UNL     1      19.493  25.692 -13.467  1.00  0.00     0.050 C 
HETATM    8  C22 UNL     1      20.041  22.021 -12.985  1.00  0.00     0.137 A 
HETATM    9  C21 UNL     1      20.898  21.761 -14.009  1.00  0.00     0.073 A 
HETATM   10  F2  UNL     1      19.632  21.053 -12.139  1.00  0.00    -0.204 F 
BRANCH   6  11
HETATM   11  C5  UNL     1      18.673  23.607 -11.726  1.00  0.00    -0.060 C 
HETATM   12  C4  UNL     1      17.902  23.850 -10.840  1.00  0.00    -0.058 C 
BRANCH  12  13
HETATM   13  C3  UNL     1      16.934  24.141  -9.768  1.00  0.00     0.293 C 
HETATM   14  F1  UNL     1      16.582  25.480  -9.876  1.00  0.00    -0.230 F 
BRANCH  13  15
HETATM   15  C2  UNL     1      15.757  23.264  -9.854  1.00  0.00     0.022 C 
HETATM   16  C1  UNL     1      14.581  23.699 -10.644  1.00  0.00     0.066 C 
HETATM   17  N1  UNL     1      15.743  22.144  -9.257  1.00  0.00    -0.403 N 
ATOM     18  H12 UNL     1      14.926  21.535  -9.317  1.00  0.00     0.155 HD
ATOM     19  H11 UNL     1      16.552  21.844  -8.713  1.00  0.00     0.155 HD
ENDBRANCH  13  15
ENDBRANCH  12  13
ENDBRANCH   6  11
ENDBRANCH   1   3
BRANCH   1  20
HETATM   20  C11 UNL     1      21.991  21.268 -16.725  1.00  0.00     0.118 A 
HETATM   21  C12 UNL     1      21.212  20.836 -17.766  1.00  0.00     0.114 A 
HETATM   22  C19 UNL     1      21.798  19.601 -17.702  1.00  0.00     0.252 A 
HETATM   23  O2  UNL     1      21.766  18.463 -18.262  1.00  0.00    -0.281 OA
HETATM   24  C20 UNL     1      22.579  20.035 -16.659  1.00  0.00     0.253 A 
HETATM   25  O3  UNL     1      23.486  19.519 -15.920  1.00  0.00    -0.281 OA
BRANCH  21  26
HETATM   26  N3  UNL     1      20.213  21.406 -18.562  1.00  0.00    -0.377 N 
ATOM     27  H3  UNL     1      20.530  21.883 -19.406  1.00  0.00     0.160 HD
BRANCH  26  28
HETATM   28  C13 UNL     1      18.788  21.399 -18.332  1.00  0.00     0.113 C 
BRANCH  28  29
HETATM   29  C14 UNL     1      18.248  22.614 -17.697  1.00  0.00     0.003 C 
HETATM   30  C15 UNL     1      19.186  23.836 -17.809  1.00  0.00     0.011 C 
HETATM   31  C16 UNL     1      17.936  22.501 -16.214  1.00  0.00     0.011 C 
ENDBRANCH  28  29
BRANCH  28  32
HETATM   32  C17 UNL     1      18.195  20.999 -19.663  1.00  0.00     0.137 C 
HETATM   33  C18 UNL     1      17.491  22.048 -20.439  1.00  0.00     0.041 C 
BRANCH  32  34
HETATM   34  O1  UNL     1      17.146  20.095 -19.280  1.00  0.00    -0.394 OA
ATOM     35  H1  UNL     1      17.284  19.358 -19.863  1.00  0.00     0.210 HD
ENDBRANCH  32  34
ENDBRANCH  28  32
ENDBRANCH  26  28
ENDBRANCH  21  26
ENDBRANCH   1  20
TORSDOF 10
ENDMDL
MODEL 2
REMARK VINA RESULT: -7.571708741      4.331      6.163
REMARK  10 active torsions:
REMARK  status: ('A' for Active; 'I' for Inactive)
REMARK    1  A    between atoms: C2_2  and  C3_6 
REMARK    2  A    between atoms: C3_6  and  C4_8 
REMARK    3  A    between atoms: C5_9  and  C6_10 
REMARK    4  A    between atoms: C10_14  and  N2_15 
REMARK    5  A    between atoms: N2_15  and  C11_17 
REMARK    6  A    between atoms: C12_18  and  N3_19 
REMARK    7  A    between atoms: N3_19  and  C13_21 
REMARK    8  A    between atoms: C13_21  and  C14_22 
REMARK    9  A    between atoms: C13_21  and  C17_25 
REMARK   10  A    between atoms: C17_25  and  O1_27 
ROOT
HETATM    1  N2  UNL     1      21.129  18.687 -18.543  1.00  0.00    -0.351 N 
ATOM      2  H2  UNL     1      21.606  17.813 -18.317  1.00  0.00     0.166 HD
ENDROOT
BRANCH   1   3
HETATM    3  C10 UNL     1      21.665  19.927 -18.115  1.00  0.00     0.036 A 
HETATM    4  C9  UNL     1      21.910  20.912 -19.028  1.00  0.00     0.038 A 
HETATM    5  C7  UNL     1      22.431  22.108 -18.595  1.00  0.00    -0.038 A 
HETATM    6  C6  UNL     1      22.709  22.331 -17.272  1.00  0.00     0.062 A 
HETATM    7  C8  UNL     1      22.705  23.201 -19.586  1.00  0.00     0.050 C 
HETATM    8  C22 UNL     1      22.459  21.330 -16.354  1.00  0.00     0.137 A 
HETATM    9  C21 UNL     1      21.944  20.148 -16.789  1.00  0.00     0.073 A 
HETATM   10  F2  UNL     1      22.732  21.547 -15.050  1.00  0.00    -0.204 F 
BRANCH   6  11
HETATM   11  C5  UNL     1      23.256  23.591 -16.830  1.00  0.00    -0.060 C 
HETATM   12  C4  UNL     1      23.724  24.637 -16.477  1.00  0.00    -0.058 C 
BRANCH  12  13
HETATM   13  C3  UNL     1      24.317  25.921 -16.065  1.00  0.00     0.293 C 
HETATM   14  F1  UNL     1      25.394  26.173 -16.905  1.00  0.00    -0.230 F 
BRANCH  13  15
HETATM   15  C2  UNL     1      23.328  27.009 -16.113  1.00  0.00     0.022 C 
HETATM   16  C1  UNL     1      22.222  26.943 -17.096  1.00  0.00     0.066 C 
HETATM   17  N1  UNL     1      23.419  27.998 -15.322  1.00  0.00    -0.403 N 
ATOM     18  H12 UNL     1      22.733  28.752 -15.356  1.00  0.00     0.155 HD
ATOM     19  H11 UNL     1      24.181  28.043 -14.645  1.00  0.00     0.155 HD
ENDBRANCH  13  15
ENDBRANCH  12  13
ENDBRANCH   6  11
ENDBRANCH   1   3
BRANCH   1  20
HETATM   20  C11 UNL     1      19.904  18.672 -19.301  1.00  0.00     0.118 A 
HETATM   21  C12 UNL     1      18.690  19.306 -19.339  1.00  0.00     0.114 A 
HETATM   22  C19 UNL     1      18.309  18.529 -20.400  1.00  0.00     0.252 A 
HETATM   23  O2  UNL     1      17.329  18.341 -21.183  1.00  0.00    -0.281 OA
HETATM   24  C20 UNL     1      19.526  17.895 -20.361  1.00  0.00     0.253 A 
HETATM   25  O3  UNL     1      20.093  16.964 -21.029  1.00  0.00    -0.281 OA
BRANCH  21  26
HETATM   26  N3  UNL     1      18.074  20.317 -18.596  1.00  0.00    -0.377 N 
ATOM     27  H3  UNL     1      17.232  20.050 -18.085  1.00  0.00     0.160 HD
BRANCH  26  28
HETATM   28  C13 UNL     1      18.486  21.695 -18.464  1.00  0.00     0.113 C 
BRANCH  28  29
HETATM   29  C14 UNL     1      17.966  22.608 -19.496  1.00  0.00     0.003 C 
HETATM   30  C15 UNL     1      18.974  23.699 -19.919  1.00  0.00     0.011 C 
HETATM   31  C16 UNL     1      16.704  23.370 -19.128  1.00  0.00     0.011 C 
ENDBRANCH  28  29
BRANCH  28  32
HETATM   32  C17 UNL     1      18.182  22.042 -17.024  1.00  0.00     0.137 C 
HETATM   33  C18 UNL     1      19.159  22.896 -16.308  1.00  0.00     0.041 C 
BRANCH  32  34
HETATM   34  O1  UNL     1      18.291  20.769 -16.366  1.00  0.00    -0.394 OA
ATOM     35  H1  UNL     1      18.382  21.016 -15.453  1.00  0.00     0.210 HD
ENDBRANCH  32  34
ENDBRANCH  28  32
ENDBRANCH  26  28
ENDBRANCH  21  26
ENDBRANCH   1  20
TORSDOF 10
ENDMDL
MODEL 3
REMARK VINA RESULT: -7.492252599      1.078      1.317
REMARK  10 active torsions:
REMARK  status: ('A' for Active; 'I' for Inactive)
REMARK    1  A    between atoms: C2_2  and  C3_6 
REMARK    2  A    between atoms: C3_6  and  C4_8 
REMARK    3  A    between atoms: C5_9  and  C6_10 
REMARK    4  A    between atoms: C10_14  and  N2_15 
REMARK    5  A    between atoms: N2_15  and  C11_17 
REMARK    6  A    between atoms: C12_18  and  N3_19 
REMARK    7  A    between atoms: N3_19  and  C13_21 
REMARK    8  A    between atoms: C13_21  and  C14_22 
REMARK    9  A    between atoms: C13_21  and  C17_25 
REMARK   10  A    between atoms: C17_25  and  O1_27 
ROOT
HETATM    1  N2  UNL     1      22.262  22.416 -16.177  1.00  0.00    -0.351 N 
ATOM      2  H2  UNL     1      22.991  23.077 -16.447  1.00  0.00     0.166 HD
ENDROOT
BRANCH   1   3
HETATM    3  C10 UNL     1      21.405  22.701 -15.085  1.00  0.00     0.036 A 
HETATM    4  C9  UNL     1      20.154  23.197 -15.314  1.00  0.00     0.038 A 
HETATM    5  C7  UNL     1      19.337  23.468 -14.242  1.00  0.00    -0.038 A 
HETATM    6  C6  UNL     1      19.752  23.255 -12.954  1.00  0.00     0.062 A 
HETATM    7  C8  UNL     1      17.959  24.012 -14.478  1.00  0.00     0.050 C 
HETATM    8  C22 UNL     1      21.019  22.754 -12.728  1.00  0.00     0.137 A 
HETATM    9  C21 UNL     1      21.822  22.488 -13.794  1.00  0.00     0.073 A 
HETATM   10  F2  UNL     1      21.429  22.543 -11.461  1.00  0.00    -0.204 F 
BRANCH   6  11
HETATM   11  C5  UNL     1      18.885  23.545 -11.838  1.00  0.00    -0.060 C 
HETATM   12  C4  UNL     1      18.149  23.777 -10.919  1.00  0.00    -0.058 C 
BRANCH  12  13
HETATM   13  C3  UNL     1      17.226  24.048  -9.804  1.00  0.00     0.293 C 
HETATM   14  F1  UNL     1      16.871  25.389  -9.872  1.00  0.00    -0.230 F 
BRANCH  13  15
HETATM   15  C2  UNL     1      16.045  23.172  -9.859  1.00  0.00     0.022 C 
HETATM   16  C1  UNL     1      14.870  23.586 -10.660  1.00  0.00     0.066 C 
HETATM   17  N1  UNL     1      16.029  22.072  -9.227  1.00  0.00    -0.403 N 
ATOM     18  H12 UNL     1      15.210  21.465  -9.265  1.00  0.00     0.155 HD
ATOM     19  H11 UNL     1      16.838  21.787  -8.675  1.00  0.00     0.155 HD
ENDBRANCH  13  15
ENDBRANCH  12  13
ENDBRANCH   6  11
ENDBRANCH   1   3
BRANCH   1  20
HETATM   20  C11 UNL     1      22.092  21.182 -16.901  1.00  0.00     0.118 A 
HETATM   21  C12 UNL     1      21.412  20.689 -17.984  1.00  0.00     0.114 A 
HETATM   22  C19 UNL     1      21.952  19.450 -17.768  1.00  0.00     0.252 A 
HETATM   23  O2  UNL     1      21.943  18.273 -18.244  1.00  0.00    -0.281 OA
HETATM   24  C20 UNL     1      22.633  19.945 -16.684  1.00  0.00     0.253 A 
HETATM   25  O3  UNL     1      23.444  19.467 -15.818  1.00  0.00    -0.281 OA
BRANCH  21  26
HETATM   26  N3  UNL     1      20.518  21.218 -18.920  1.00  0.00    -0.377 N 
ATOM     27  H3  UNL     1      20.830  21.213 -19.891  1.00  0.00     0.160 HD
BRANCH  26  28
HETATM   28  C13 UNL     1      19.207  21.772 -18.676  1.00  0.00     0.113 C 
BRANCH  28  29
HETATM   29  C14 UNL     1      18.877  22.975 -19.459  1.00  0.00     0.003 C 
HETATM   30  C15 UNL     1      19.884  23.267 -20.593  1.00  0.00     0.011 C 
HETATM   31  C16 UNL     1      18.794  24.272 -18.673  1.00  0.00     0.011 C 
ENDBRANCH  28  29
BRANCH  28  32
HETATM   32  C17 UNL     1      18.272  20.591 -18.805  1.00  0.00     0.137 C 
HETATM   33  C18 UNL     1      18.625  19.545 -19.793  1.00  0.00     0.041 C 
BRANCH  32  34
HETATM   34  O1  UNL     1      17.085  21.190 -19.349  1.00  0.00    -0.394 OA
ATOM     35  H1  UNL     1      16.435  20.507 -19.233  1.00  0.00     0.210 HD
ENDBRANCH  32  34
ENDBRANCH  28  32
ENDBRANCH  26  28
ENDBRANCH  21  26
ENDBRANCH   1  20
TORSDOF 10
ENDMDL
MODEL 4
REMARK VINA RESULT: -7.349844686      4.034      6.594
REMARK  10 active torsions:
REMARK  status: ('A' for Active; 'I' for Inactive)
REMARK    1  A    between atoms: C2_2  and  C3_6 
REMARK    2  A    between atoms: C3_6  and  C4_8 
REMARK    3  A    between atoms: C5_9  and  C6_10 
REMARK    4  A    between atoms: C10_14  and  N2_15 
REMARK    5  A    between atoms: N2_15  and  C11_17 
REMARK    6  A    between atoms: C12_18  and  N3_19 
REMARK    7  A    between atoms: N3_19  and  C13_21 
REMARK    8  A    between atoms: C13_21  and  C14_22 
REMARK    9  A    between atoms: C13_21  and  C17_25 
REMARK   10  A    between atoms: C17_25  and  O1_27 
ROOT
HETATM    1  N2  UNL     1      18.474  20.776 -19.913  1.00  0.00    -0.351 N 
ATOM      2  H2  UNL     1      17.975  20.204 -20.595  1.00  0.00     0.166 HD
ENDROOT
BRANCH   1   3
HETATM    3  C10 UNL     1      18.069  22.112 -19.666  1.00  0.00     0.036 A 
HETATM    4  C9  UNL     1      18.992  23.118 -19.699  1.00  0.00     0.038 A 
HETATM    5  C7  UNL     1      18.582  24.407 -19.457  1.00  0.00    -0.038 A 
HETATM    6  C6  UNL     1      17.272  24.703 -19.184  1.00  0.00     0.062 A 
HETATM    7  C8  UNL     1      19.583  25.524 -19.490  1.00  0.00     0.050 C 
HETATM    8  C22 UNL     1      16.344  23.681 -19.152  1.00  0.00     0.137 A 
HETATM    9  C21 UNL     1      16.756  22.406 -19.392  1.00  0.00     0.073 A 
HETATM   10  F2  UNL     1      15.053  23.969 -18.883  1.00  0.00    -0.204 F 
BRANCH   6  11
HETATM   11  C5  UNL     1      16.854  26.060 -18.931  1.00  0.00    -0.060 C 
HETATM   12  C4  UNL     1      16.506  27.185 -18.701  1.00  0.00    -0.058 C 
BRANCH  12  13
HETATM   13  C3  UNL     1      16.080  28.561 -18.392  1.00  0.00     0.293 C 
HETATM   14  F1  UNL     1      17.166  29.217 -17.828  1.00  0.00    -0.230 F 
BRANCH  13  15
HETATM   15  C2  UNL     1      15.594  29.256 -19.595  1.00  0.00     0.022 C 
HETATM   16  C1  UNL     1      16.404  29.218 -20.834  1.00  0.00     0.066 C 
HETATM   17  N1  UNL     1      14.491  29.883 -19.574  1.00  0.00    -0.403 N 
ATOM     18  H12 UNL     1      14.154  30.364 -20.408  1.00  0.00     0.155 HD
ATOM     19  H11 UNL     1      13.932  29.909 -18.721  1.00  0.00     0.155 HD
ENDBRANCH  13  15
ENDBRANCH  12  13
ENDBRANCH   6  11
ENDBRANCH   1   3
BRANCH   1  20
HETATM   20  C11 UNL     1      19.596  20.235 -19.190  1.00  0.00     0.118 A 
HETATM   21  C12 UNL     1      20.362  20.509 -18.088  1.00  0.00     0.114 A 
HETATM   22  C19 UNL     1      21.122  19.397 -18.329  1.00  0.00     0.252 A 
HETATM   23  O2  UNL     1      22.114  18.758 -17.861  1.00  0.00    -0.281 OA
HETATM   24  C20 UNL     1      20.353  19.122 -19.433  1.00  0.00     0.253 A 
HETATM   25  O3  UNL     1      20.335  18.210 -20.329  1.00  0.00    -0.281 OA
BRANCH  21  26
HETATM   26  N3  UNL     1      20.382  21.517 -17.119  1.00  0.00    -0.377 N 
ATOM     27  H3  UNL     1      20.948  22.337 -17.336  1.00  0.00     0.160 HD
BRANCH  26  28
HETATM   28  C13 UNL     1      19.697  21.535 -15.848  1.00  0.00     0.113 C 
BRANCH  28  29
HETATM   29  C14 UNL     1      20.401  22.243 -14.765  1.00  0.00     0.003 C 
HETATM   30  C15 UNL     1      21.940  22.186 -14.890  1.00  0.00     0.011 C 
HETATM   31  C16 UNL     1      20.110  21.752 -13.357  1.00  0.00     0.011 C 
ENDBRANCH  28  29
BRANCH  28  32
HETATM   32  C17 UNL     1      18.300  22.007 -16.181  1.00  0.00     0.137 C 
HETATM   33  C18 UNL     1      17.914  23.367 -15.735  1.00  0.00     0.041 C 
BRANCH  32  34
HETATM   34  O1  UNL     1      17.478  21.139 -15.383  1.00  0.00    -0.394 OA
ATOM     35  H1  UNL     1      17.301  20.418 -15.976  1.00  0.00     0.210 HD
ENDBRANCH  32  34
ENDBRANCH  28  32
ENDBRANCH  26  28
ENDBRANCH  21  26
ENDBRANCH   1  20
TORSDOF 10
ENDMDL
MODEL 5
REMARK VINA RESULT: -7.341837600      0.964      1.300
REMARK  10 active torsions:
REMARK  status: ('A' for Active; 'I' for Inactive)
REMARK    1  A    between atoms: C2_2  and  C3_6 
REMARK    2  A    between atoms: C3_6  and  C4_8 
REMARK    3  A    between atoms: C5_9  and  C6_10 
REMARK    4  A    between atoms: C10_14  and  N2_15 
REMARK    5  A    between atoms: N2_15  and  C11_17 
REMARK    6  A    between atoms: C12_18  and  N3_19 
REMARK    7  A    between atoms: N3_19  and  C13_21 
REMARK    8  A    between atoms: C13_21  and  C14_22 
REMARK    9  A    between atoms: C13_21  and  C17_25 
REMARK   10  A    between atoms: C17_25  and  O1_27 
ROOT
HETATM    1  N2  UNL     1      21.795  22.299 -16.639  1.00  0.00    -0.351 N 
ATOM      2  H2  UNL     1      22.571  22.896 -16.926  1.00  0.00     0.166 HD
ENDROOT
BRANCH   1   3
HETATM    3  C10 UNL     1      21.018  22.632 -15.502  1.00  0.00     0.036 A 
HETATM    4  C9  UNL     1      20.559  23.908 -15.343  1.00  0.00     0.038 A 
HETATM    5  C7  UNL     1      19.807  24.213 -14.234  1.00  0.00    -0.038 A 
HETATM    6  C6  UNL     1      19.510  23.268 -13.287  1.00  0.00     0.062 A 
HETATM    7  C8  UNL     1      19.295  25.611 -14.045  1.00  0.00     0.050 C 
HETATM    8  C22 UNL     1      19.978  21.979 -13.453  1.00  0.00     0.137 A 
HETATM    9  C21 UNL     1      20.722  21.684 -14.554  1.00  0.00     0.073 A 
HETATM   10  F2  UNL     1      19.688  21.047 -12.522  1.00  0.00    -0.204 F 
BRANCH   6  11
HETATM   11  C5  UNL     1      18.721  23.601 -12.127  1.00  0.00    -0.060 C 
HETATM   12  C4  UNL     1      18.060  23.859 -11.159  1.00  0.00    -0.058 C 
BRANCH  12  13
HETATM   13  C3  UNL     1      17.245  24.148  -9.967  1.00  0.00     0.293 C 
HETATM   14  F1  UNL     1      16.903  25.493 -10.011  1.00  0.00    -0.230 F 
BRANCH  13  15
HETATM   15  C2  UNL     1      16.053  23.288  -9.909  1.00  0.00     0.022 C 
HETATM   16  C1  UNL     1      14.847  23.664 -10.683  1.00  0.00     0.066 C 
HETATM   17  N1  UNL     1      16.053  22.233  -9.203  1.00  0.00    -0.403 N 
ATOM     18  H12 UNL     1      15.226  21.638  -9.163  1.00  0.00     0.155 HD
ATOM     19  H11 UNL     1      16.883  21.975  -8.670  1.00  0.00     0.155 HD
ENDBRANCH  13  15
ENDBRANCH  12  13
ENDBRANCH   6  11
ENDBRANCH   1   3
BRANCH   1  20
HETATM   20  C11 UNL     1      21.478  21.108 -17.385  1.00  0.00     0.118 A 
HETATM   21  C12 UNL     1      20.443  20.566 -18.100  1.00  0.00     0.114 A 
HETATM   22  C19 UNL     1      21.189  19.444 -18.344  1.00  0.00     0.252 A 
HETATM   23  O2  UNL     1      21.122  18.324 -18.936  1.00  0.00    -0.281 OA
HETATM   24  C20 UNL     1      22.226  19.989 -17.628  1.00  0.00     0.253 A 
HETATM   25  O3  UNL     1      23.408  19.621 -17.309  1.00  0.00    -0.281 OA
BRANCH  21  26
HETATM   26  N3  UNL     1      19.147  20.971 -18.435  1.00  0.00    -0.377 N 
ATOM     27  H3  UNL     1      18.434  20.242 -18.431  1.00  0.00     0.160 HD
BRANCH  26  28
HETATM   28  C13 UNL     1      18.699  22.298 -18.784  1.00  0.00     0.113 C 
BRANCH  28  29
HETATM   29  C14 UNL     1      19.736  23.188 -19.333  1.00  0.00     0.003 C 
HETATM   30  C15 UNL     1      19.664  24.630 -18.785  1.00  0.00     0.011 C 
HETATM   31  C16 UNL     1      19.737  23.349 -20.844  1.00  0.00     0.011 C 
ENDBRANCH  28  29
BRANCH  28  32
HETATM   32  C17 UNL     1      17.472  22.067 -19.637  1.00  0.00     0.137 C 
HETATM   33  C18 UNL     1      16.261  22.861 -19.321  1.00  0.00     0.041 C 
BRANCH  32  34
HETATM   34  O1  UNL     1      17.100  20.722 -19.293  1.00  0.00    -0.394 OA
ATOM     35  H1  UNL     1      16.169  20.802 -19.124  1.00  0.00     0.210 HD
ENDBRANCH  32  34
ENDBRANCH  28  32
ENDBRANCH  26  28
ENDBRANCH  21  26
ENDBRANCH   1  20
TORSDOF 10
ENDMDL
