MODEL 1
REMARK VINA RESULT: -7.186239328      0.000      0.000
REMARK  9 active torsions:
REMARK  status: ('A' for Active; 'I' for Inactive)
REMARK    1  A    between atoms: C2_2  and  C3_3 
REMARK    2  A    between atoms: C3_3  and  N1_4 
REMARK    3  A    between atoms: N1_4  and  C4_6 
REMARK    4  A    between atoms: C4_6  and  O1_7 
REMARK    5  A    between atoms: C4_6  and  C5_9 
REMARK    6  A    between atoms: C6_12  and  S1_13 
REMARK    7  A    between atoms: S1_13  and  C7_14 
REMARK    8  A    between atoms: C8_17  and  N4_18 
REMARK    9  A    between atoms: N6_29  and  C15_30 
ROOT
HETATM    1  C7  UNL     1      43.395  22.152  22.198  1.00  0.00     0.161 A 
HETATM    2  N3  UNL     1      42.676  21.088  21.821  1.00  0.00    -0.320 N 
ATOM      3  H3  UNL     1      42.629  20.832  20.834  1.00  0.00     0.169 HD
HETATM    4  C8  UNL     1      42.011  20.352  22.738  1.00  0.00     0.150 A 
HETATM    5  C13 UNL     1      42.073  20.694  24.066  1.00  0.00     0.228 A 
HETATM    6  F1  UNL     1      41.447  20.022  25.058  1.00  0.00    -0.196 F 
HETATM    7  C14 UNL     1      42.823  21.794  24.427  1.00  0.00     0.296 A 
HETATM    8  O2  UNL     1      42.906  22.141  25.642  1.00  0.00    -0.264 OA
HETATM    9  N6  UNL     1      43.466  22.506  23.519  1.00  0.00    -0.263 N 
ENDROOT
BRANCH   1  10
HETATM   10  S1  UNL     1      44.240  23.028  20.907  1.00  0.00    -0.035 SA
BRANCH  10  11
HETATM   11  C6  UNL     1      45.907  22.451  20.684  1.00  0.00     0.080 A 
HETATM   12  N2  UNL     1      46.276  21.676  19.651  1.00  0.00    -0.348 N 
HETATM   13  C5  UNL     1      47.578  21.372  19.696  1.00  0.00     0.097 A 
ATOM     14  H2  UNL     1      45.640  21.358  18.920  1.00  0.00     0.166 HD
HETATM   15  C22 UNL     1      48.084  21.980  20.823  1.00  0.00     0.146 A 
HETATM   16  C21 UNL     1      47.037  22.646  21.425  1.00  0.00     0.081 A 
HETATM   17  F2  UNL     1      49.370  21.908  21.214  1.00  0.00    -0.204 F 
BRANCH  13  18
HETATM   18  C4  UNL     1      48.346  20.528  18.704  1.00  0.00     0.268 C 
BRANCH  18  19
HETATM   19  N1  UNL     1      48.143  20.943  17.376  1.00  0.00    -0.392 N 
ATOM     20  H1  UNL     1      48.150  21.929  17.114  1.00  0.00     0.156 HD
BRANCH  19  21
HETATM   21  C3  UNL     1      47.926  19.912  16.412  1.00  0.00     0.116 C 
BRANCH  21  22
HETATM   22  C2  UNL     1      49.133  19.677  15.558  1.00  0.00     0.015 C 
HETATM   23  C1  UNL     1      49.797  18.376  15.960  1.00  0.00     0.006 C 
ENDBRANCH  21  22
ENDBRANCH  19  21
ENDBRANCH  18  19
BRANCH  18  24
HETATM   24  O1  UNL     1      48.184  19.207  19.009  1.00  0.00    -0.371 OA
ATOM     25  H1  UNL     1      48.956  18.686  19.200  1.00  0.00     0.212 HD
ENDBRANCH  18  24
ENDBRANCH  13  18
ENDBRANCH  10  11
ENDBRANCH   1  10
BRANCH   9  26
HETATM   26  C15 UNL     1      44.267  23.676  23.765  1.00  0.00    -0.000 C 
HETATM   27  C16 UNL     1      45.469  23.600  24.575  1.00  0.00     0.053 C 
HETATM   28  C17 UNL     1      45.451  24.045  25.999  1.00  0.00     0.006 C 
HETATM   29  C18 UNL     1      45.070  25.544  25.941  1.00  0.00     0.001 C 
HETATM   30  C19 UNL     1      43.603  25.443  25.495  1.00  0.00     0.006 C 
HETATM   31  C20 UNL     1      43.455  24.878  24.129  1.00  0.00     0.053 C 
ENDBRANCH   9  26
BRANCH   4  32
HETATM   32  N4  UNL     1      41.240  19.223  22.352  1.00  0.00    -0.361 N 
HETATM   33  C9  UNL     1      41.732  17.865  22.363  1.00  0.00     0.143 C 
HETATM   34  C10 UNL     1      41.069  17.010  21.312  1.00  0.00     0.133 C 
HETATM   35  N5  UNL     1      39.650  17.136  21.262  1.00  0.00    -0.418 N 
HETATM   36  C11 UNL     1      39.089  18.177  22.064  1.00  0.00     0.133 C 
ATOM     37  H5  UNL     1      39.071  16.521  20.690  1.00  0.00     0.153 HD
HETATM   38  C12 UNL     1      39.879  19.457  21.920  1.00  0.00     0.143 C 
ENDBRANCH   4  32
TORSDOF 9
ENDMDL
MODEL 2
REMARK VINA RESULT: -7.118740935      5.146      8.058
REMARK  9 active torsions:
REMARK  status: ('A' for Active; 'I' for Inactive)
REMARK    1  A    between atoms: C2_2  and  C3_3 
REMARK    2  A    between atoms: C3_3  and  N1_4 
REMARK    3  A    between atoms: N1_4  and  C4_6 
REMARK    4  A    between atoms: C4_6  and  O1_7 
REMARK    5  A    between atoms: C4_6  and  C5_9 
REMARK    6  A    between atoms: C6_12  and  S1_13 
REMARK    7  A    between atoms: S1_13  and  C7_14 
REMARK    8  A    between atoms: C8_17  and  N4_18 
REMARK    9  A    between atoms: N6_29  and  C15_30 
ROOT
HETATM    1  C7  UNL     1      39.365  23.415  26.585  1.00  0.00     0.161 A 
HETATM    2  N3  UNL     1      39.054  23.284  27.880  1.00  0.00    -0.320 N 
ATOM      3  H3  UNL     1      38.729  22.384  28.235  1.00  0.00     0.169 HD
HETATM    4  C8  UNL     1      39.166  24.336  28.720  1.00  0.00     0.150 A 
HETATM    5  C13 UNL     1      39.603  25.547  28.246  1.00  0.00     0.228 A 
HETATM    6  F1  UNL     1      39.751  26.657  29.004  1.00  0.00    -0.196 F 
HETATM    7  C14 UNL     1      39.918  25.654  26.907  1.00  0.00     0.296 A 
HETATM    8  O2  UNL     1      40.326  26.754  26.431  1.00  0.00    -0.264 OA
HETATM    9  N6  UNL     1      39.801  24.617  26.097  1.00  0.00    -0.263 N 
ENDROOT
BRANCH   1  10
HETATM   10  S1  UNL     1      39.196  21.959  25.585  1.00  0.00    -0.035 SA
BRANCH  10  11
HETATM   11  C6  UNL     1      40.761  21.175  25.272  1.00  0.00     0.080 A 
HETATM   12  N2  UNL     1      40.959  20.329  24.248  1.00  0.00    -0.348 N 
HETATM   13  C5  UNL     1      42.215  19.869  24.215  1.00  0.00     0.097 A 
ATOM     14  H2  UNL     1      40.238  20.069  23.574  1.00  0.00     0.166 HD
HETATM   15  C22 UNL     1      42.871  20.446  25.279  1.00  0.00     0.146 A 
HETATM   16  C21 UNL     1      41.958  21.254  25.925  1.00  0.00     0.081 A 
HETATM   17  F2  UNL     1      44.164  20.229  25.584  1.00  0.00    -0.204 F 
BRANCH  13  18
HETATM   18  C4  UNL     1      42.802  18.908  23.207  1.00  0.00     0.268 C 
BRANCH  18  19
HETATM   19  N1  UNL     1      41.966  18.725  22.090  1.00  0.00    -0.392 N 
ATOM     20  H1  UNL     1      41.799  19.472  21.417  1.00  0.00     0.156 HD
BRANCH  19  21
HETATM   21  C3  UNL     1      41.365  17.438  21.949  1.00  0.00     0.116 C 
BRANCH  21  22
HETATM   22  C2  UNL     1      40.053  17.506  21.231  1.00  0.00     0.015 C 
HETATM   23  C1  UNL     1      38.920  17.497  22.237  1.00  0.00     0.006 C 
ENDBRANCH  21  22
ENDBRANCH  19  21
ENDBRANCH  18  19
BRANCH  18  24
HETATM   24  O1  UNL     1      43.280  17.805  23.855  1.00  0.00    -0.371 OA
ATOM     25  H1  UNL     1      44.194  17.571  23.743  1.00  0.00     0.212 HD
ENDBRANCH  18  24
ENDBRANCH  13  18
ENDBRANCH  10  11
ENDBRANCH   1  10
BRANCH   9  26
HETATM   26  C15 UNL     1      40.085  24.603  24.685  1.00  0.00    -0.000 C 
HETATM   27  C16 UNL     1      41.438  24.792  24.195  1.00  0.00     0.053 C 
HETATM   28  C17 UNL     1      41.871  26.117  23.662  1.00  0.00     0.006 C 
HETATM   29  C18 UNL     1      40.938  26.381  22.455  1.00  0.00     0.001 C 
HETATM   30  C19 UNL     1      39.603  26.615  23.178  1.00  0.00     0.006 C 
HETATM   31  C20 UNL     1      39.111  25.404  23.882  1.00  0.00     0.053 C 
ENDBRANCH   9  26
BRANCH   4  32
HETATM   32  N4  UNL     1      38.836  24.213  30.096  1.00  0.00    -0.361 N 
HETATM   33  C9  UNL     1      39.761  24.461  31.177  1.00  0.00     0.143 C 
HETATM   34  C10 UNL     1      39.451  23.629  32.395  1.00  0.00     0.133 C 
HETATM   35  N5  UNL     1      38.076  23.626  32.770  1.00  0.00    -0.418 N 
HETATM   36  C11 UNL     1      37.176  24.238  31.843  1.00  0.00     0.133 C 
ATOM     37  H5  UNL     1      37.754  23.212  33.645  1.00  0.00     0.153 HD
HETATM   38  C12 UNL     1      37.485  23.812  30.428  1.00  0.00     0.143 C 
ENDBRANCH   4  32
TORSDOF 9
ENDMDL
MODEL 3
REMARK VINA RESULT: -7.098944900      2.464      7.018
REMARK  9 active torsions:
REMARK  status: ('A' for Active; 'I' for Inactive)
REMARK    1  A    between atoms: C2_2  and  C3_3 
REMARK    2  A    between atoms: C3_3  and  N1_4 
REMARK    3  A    between atoms: N1_4  and  C4_6 
REMARK    4  A    between atoms: C4_6  and  O1_7 
REMARK    5  A    between atoms: C4_6  and  C5_9 
REMARK    6  A    between atoms: C6_12  and  S1_13 
REMARK    7  A    between atoms: S1_13  and  C7_14 
REMARK    8  A    between atoms: C8_17  and  N4_18 
REMARK    9  A    between atoms: N6_29  and  C15_30 
ROOT
HETATM    1  C7  UNL     1      45.403  22.759  20.300  1.00  0.00     0.161 A 
HETATM    2  N3  UNL     1      45.897  22.071  19.263  1.00  0.00    -0.320 N 
ATOM      3  H3  UNL     1      45.265  21.706  18.550  1.00  0.00     0.169 HD
HETATM    4  C8  UNL     1      47.226  21.857  19.155  1.00  0.00     0.150 A 
HETATM    5  C13 UNL     1      48.078  22.347  20.112  1.00  0.00     0.228 A 
HETATM    6  F1  UNL     1      49.421  22.189  20.094  1.00  0.00    -0.196 F 
HETATM    7  C14 UNL     1      47.543  23.053  21.170  1.00  0.00     0.296 A 
HETATM    8  O2  UNL     1      48.297  23.524  22.072  1.00  0.00    -0.264 OA
HETATM    9  N6  UNL     1      46.240  23.254  21.263  1.00  0.00    -0.263 N 
ENDROOT
BRANCH   1  10
HETATM   10  S1  UNL     1      43.644  22.992  20.322  1.00  0.00    -0.035 SA
BRANCH  10  11
HETATM   11  C6  UNL     1      42.829  21.840  21.403  1.00  0.00     0.080 A 
HETATM   12  N2  UNL     1      43.483  20.862  22.051  1.00  0.00    -0.348 N 
HETATM   13  C5  UNL     1      42.660  20.124  22.805  1.00  0.00     0.097 A 
ATOM     14  H2  UNL     1      44.488  20.700  21.976  1.00  0.00     0.166 HD
HETATM   15  C22 UNL     1      41.399  20.650  22.637  1.00  0.00     0.146 A 
HETATM   16  C21 UNL     1      41.519  21.713  21.766  1.00  0.00     0.081 A 
HETATM   17  F2  UNL     1      40.292  20.177  23.239  1.00  0.00    -0.204 F 
BRANCH  13  18
HETATM   18  C4  UNL     1      43.039  18.947  23.674  1.00  0.00     0.268 C 
BRANCH  18  19
HETATM   19  N1  UNL     1      44.389  18.982  24.066  1.00  0.00    -0.392 N 
ATOM     20  H1  UNL     1      45.083  19.529  23.557  1.00  0.00     0.156 HD
BRANCH  19  21
HETATM   21  C3  UNL     1      44.738  18.210  25.216  1.00  0.00     0.116 C 
BRANCH  21  22
HETATM   22  C2  UNL     1      45.698  17.110  24.886  1.00  0.00     0.015 C 
HETATM   23  C1  UNL     1      46.126  16.407  26.158  1.00  0.00     0.006 C 
ENDBRANCH  21  22
ENDBRANCH  19  21
ENDBRANCH  18  19
BRANCH  18  24
HETATM   24  O1  UNL     1      42.546  17.798  23.124  1.00  0.00    -0.371 OA
ATOM     25  H1  UNL     1      42.071  17.193  23.683  1.00  0.00     0.212 HD
ENDBRANCH  18  24
ENDBRANCH  13  18
ENDBRANCH  10  11
ENDBRANCH   1  10
BRANCH   9  26
HETATM   26  C15 UNL     1      45.561  23.959  22.318  1.00  0.00    -0.000 C 
HETATM   27  C16 UNL     1      45.697  25.397  22.461  1.00  0.00     0.053 C 
HETATM   28  C17 UNL     1      46.620  25.972  23.483  1.00  0.00     0.006 C 
HETATM   29  C18 UNL     1      46.078  25.457  24.839  1.00  0.00     0.001 C 
HETATM   30  C19 UNL     1      46.420  23.963  24.729  1.00  0.00     0.006 C 
HETATM   31  C20 UNL     1      45.670  23.280  23.645  1.00  0.00     0.053 C 
ENDBRANCH   9  26
BRANCH   4  32
HETATM   32  N4  UNL     1      47.764  21.125  18.062  1.00  0.00    -0.361 N 
HETATM   33  C9  UNL     1      48.471  21.725  16.956  1.00  0.00     0.143 C 
HETATM   34  C10 UNL     1      48.308  20.938  15.681  1.00  0.00     0.133 C 
HETATM   35  N5  UNL     1      48.502  19.534  15.828  1.00  0.00    -0.418 N 
HETATM   36  C11 UNL     1      48.627  19.060  17.170  1.00  0.00     0.133 C 
ATOM     37  H5  UNL     1      48.549  18.906  15.026  1.00  0.00     0.153 HD
HETATM   38  C12 UNL     1      47.586  19.689  18.065  1.00  0.00     0.143 C 
ENDBRANCH   4  32
TORSDOF 9
ENDMDL
MODEL 4
REMARK VINA RESULT: -7.046059820      4.468      8.759
REMARK  9 active torsions:
REMARK  status: ('A' for Active; 'I' for Inactive)
REMARK    1  A    between atoms: C2_2  and  C3_3 
REMARK    2  A    between atoms: C3_3  and  N1_4 
REMARK    3  A    between atoms: N1_4  and  C4_6 
REMARK    4  A    between atoms: C4_6  and  O1_7 
REMARK    5  A    between atoms: C4_6  and  C5_9 
REMARK    6  A    between atoms: C6_12  and  S1_13 
REMARK    7  A    between atoms: S1_13  and  C7_14 
REMARK    8  A    between atoms: C8_17  and  N4_18 
REMARK    9  A    between atoms: N6_29  and  C15_30 
ROOT
HETATM    1  C7  UNL     1      41.429  22.492  23.635  1.00  0.00     0.161 A 
HETATM    2  N3  UNL     1      40.836  21.401  23.136  1.00  0.00    -0.320 N 
ATOM      3  H3  UNL     1      39.842  21.422  22.910  1.00  0.00     0.169 HD
HETATM    4  C8  UNL     1      41.547  20.271  22.929  1.00  0.00     0.150 A 
HETATM    5  C13 UNL     1      42.885  20.239  23.231  1.00  0.00     0.228 A 
HETATM    6  F1  UNL     1      43.682  19.160  23.060  1.00  0.00    -0.196 F 
HETATM    7  C14 UNL     1      43.471  21.377  23.744  1.00  0.00     0.296 A 
HETATM    8  O2  UNL     1      44.703  21.388  24.034  1.00  0.00    -0.264 OA
HETATM    9  N6  UNL     1      42.763  22.475  23.943  1.00  0.00    -0.263 N 
ENDROOT
BRANCH   1  10
HETATM   10  S1  UNL     1      40.398  23.921  23.844  1.00  0.00    -0.035 SA
BRANCH  10  11
HETATM   11  C6  UNL     1      40.076  24.271  25.557  1.00  0.00     0.080 A 
HETATM   12  N2  UNL     1      40.174  23.341  26.521  1.00  0.00    -0.348 N 
HETATM   13  C5  UNL     1      39.887  23.840  27.728  1.00  0.00     0.097 A 
ATOM     14  H2  UNL     1      40.436  22.369  26.352  1.00  0.00     0.166 HD
HETATM   15  C22 UNL     1      39.583  25.170  27.540  1.00  0.00     0.146 A 
HETATM   16  C21 UNL     1      39.705  25.423  26.189  1.00  0.00     0.081 A 
HETATM   17  F2  UNL     1      39.240  26.019  28.527  1.00  0.00    -0.204 F 
BRANCH  13  18
HETATM   18  C4  UNL     1      39.897  23.094  29.042  1.00  0.00     0.268 C 
BRANCH  18  19
HETATM   19  N1  UNL     1      38.642  23.110  29.679  1.00  0.00    -0.392 N 
ATOM     20  H1  UNL     1      37.786  22.862  29.183  1.00  0.00     0.156 HD
BRANCH  19  21
HETATM   21  C3  UNL     1      38.631  23.491  31.055  1.00  0.00     0.116 C 
BRANCH  21  22
HETATM   22  C2  UNL     1      37.369  24.202  31.432  1.00  0.00     0.015 C 
HETATM   23  C1  UNL     1      36.262  23.191  31.656  1.00  0.00     0.006 C 
ENDBRANCH  21  22
ENDBRANCH  19  21
ENDBRANCH  18  19
BRANCH  18  24
HETATM   24  O1  UNL     1      41.000  23.454  29.762  1.00  0.00    -0.371 OA
ATOM     25  H1  UNL     1      41.246  24.371  29.791  1.00  0.00     0.212 HD
ENDBRANCH  18  24
ENDBRANCH  13  18
ENDBRANCH  10  11
ENDBRANCH   1  10
BRANCH   9  26
HETATM   26  C15 UNL     1      43.252  23.717  24.481  1.00  0.00    -0.000 C 
HETATM   27  C16 UNL     1      44.183  24.540  23.730  1.00  0.00     0.053 C 
HETATM   28  C17 UNL     1      45.640  24.517  24.052  1.00  0.00     0.006 C 
HETATM   29  C18 UNL     1      45.729  25.001  25.520  1.00  0.00     0.001 C 
HETATM   30  C19 UNL     1      45.101  23.804  26.249  1.00  0.00     0.006 C 
HETATM   31  C20 UNL     1      43.666  23.615  25.914  1.00  0.00     0.053 C 
ENDBRANCH   9  26
BRANCH   4  32
HETATM   32  N4  UNL     1      40.930  19.104  22.403  1.00  0.00    -0.361 N 
HETATM   33  C9  UNL     1      41.562  17.806  22.355  1.00  0.00     0.143 C 
HETATM   34  C10 UNL     1      41.069  16.975  21.197  1.00  0.00     0.133 C 
HETATM   35  N5  UNL     1      39.652  16.961  21.045  1.00  0.00    -0.418 N 
HETATM   36  C11 UNL     1      38.928  17.873  21.873  1.00  0.00     0.133 C 
ATOM     37  H5  UNL     1      39.184  16.338  20.387  1.00  0.00     0.153 HD
HETATM   38  C12 UNL     1      39.586  19.233  21.884  1.00  0.00     0.143 C 
ENDBRANCH   4  32
TORSDOF 9
ENDMDL
MODEL 5
REMARK VINA RESULT: -7.036984705      5.066      9.328
REMARK  9 active torsions:
REMARK  status: ('A' for Active; 'I' for Inactive)
REMARK    1  A    between atoms: C2_2  and  C3_3 
REMARK    2  A    between atoms: C3_3  and  N1_4 
REMARK    3  A    between atoms: N1_4  and  C4_6 
REMARK    4  A    between atoms: C4_6  and  O1_7 
REMARK    5  A    between atoms: C4_6  and  C5_9 
REMARK    6  A    between atoms: C6_12  and  S1_13 
REMARK    7  A    between atoms: S1_13  and  C7_14 
REMARK    8  A    between atoms: C8_17  and  N4_18 
REMARK    9  A    between atoms: N6_29  and  C15_30 
ROOT
HETATM    1  C7  UNL     1      42.072  21.920  24.807  1.00  0.00     0.161 A 
HETATM    2  N3  UNL     1      41.663  20.743  24.318  1.00  0.00    -0.320 N 
ATOM      3  H3  UNL     1      41.658  19.919  24.920  1.00  0.00     0.169 HD
HETATM    4  C8  UNL     1      41.258  20.640  23.034  1.00  0.00     0.150 A 
HETATM    5  C13 UNL     1      41.263  21.746  22.223  1.00  0.00     0.228 A 
HETATM    6  F1  UNL     1      40.876  21.746  20.927  1.00  0.00    -0.196 F 
HETATM    7  C14 UNL     1      41.688  22.947  22.752  1.00  0.00     0.296 A 
HETATM    8  O2  UNL     1      41.706  23.992  22.037  1.00  0.00    -0.264 OA
HETATM    9  N6  UNL     1      42.083  23.033  24.010  1.00  0.00    -0.263 N 
ENDROOT
BRANCH   1  10
HETATM   10  S1  UNL     1      42.561  21.937  26.512  1.00  0.00    -0.035 SA
BRANCH  10  11
HETATM   11  C6  UNL     1      41.265  22.529  27.576  1.00  0.00     0.080 A 
HETATM   12  N2  UNL     1      41.424  22.680  28.901  1.00  0.00    -0.348 N 
HETATM   13  C5  UNL     1      40.313  23.139  29.488  1.00  0.00     0.097 A 
ATOM     14  H2  UNL     1      42.289  22.470  29.401  1.00  0.00     0.166 HD
HETATM   15  C22 UNL     1      39.378  23.293  28.490  1.00  0.00     0.146 A 
HETATM   16  C21 UNL     1      39.982  22.911  27.310  1.00  0.00     0.081 A 
HETATM   17  F2  UNL     1      38.123  23.740  28.686  1.00  0.00    -0.204 F 
BRANCH  13  18
HETATM   18  C4  UNL     1      40.121  23.435  30.958  1.00  0.00     0.268 C 
BRANCH  18  19
HETATM   19  N1  UNL     1      39.507  24.681  31.179  1.00  0.00    -0.392 N 
ATOM     20  H1  UNL     1      39.915  25.550  30.835  1.00  0.00     0.156 HD
BRANCH  19  21
HETATM   21  C3  UNL     1      38.281  24.665  31.912  1.00  0.00     0.116 C 
BRANCH  21  22
HETATM   22  C2  UNL     1      37.677  23.297  31.968  1.00  0.00     0.015 C 
HETATM   23  C1  UNL     1      36.244  23.352  31.478  1.00  0.00     0.006 C 
ENDBRANCH  21  22
ENDBRANCH  19  21
ENDBRANCH  18  19
BRANCH  18  24
HETATM   24  O1  UNL     1      41.270  23.142  31.635  1.00  0.00    -0.371 OA
ATOM     25  H1  UNL     1      42.014  23.728  31.545  1.00  0.00     0.212 HD
ENDBRANCH  18  24
ENDBRANCH  13  18
ENDBRANCH  10  11
ENDBRANCH   1  10
BRANCH   9  26
HETATM   26  C15 UNL     1      42.558  24.219  24.674  1.00  0.00    -0.000 C 
HETATM   27  C16 UNL     1      41.671  25.341  24.922  1.00  0.00     0.053 C 
HETATM   28  C17 UNL     1      41.707  26.543  24.039  1.00  0.00     0.006 C 
HETATM   29  C18 UNL     1      43.146  27.097  24.183  1.00  0.00     0.001 C 
HETATM   30  C19 UNL     1      43.942  25.999  23.461  1.00  0.00     0.006 C 
HETATM   31  C20 UNL     1      43.881  24.691  24.160  1.00  0.00     0.053 C 
ENDBRANCH   9  26
BRANCH   4  32
HETATM   32  N4  UNL     1      40.826  19.395  22.501  1.00  0.00    -0.361 N 
HETATM   33  C9  UNL     1      39.533  19.180  21.895  1.00  0.00     0.143 C 
HETATM   34  C10 UNL     1      39.054  17.760  22.065  1.00  0.00     0.133 C 
HETATM   35  N5  UNL     1      40.032  16.770  21.763  1.00  0.00    -0.418 N 
HETATM   36  C11 UNL     1      41.358  17.253  21.536  1.00  0.00     0.133 C 
ATOM     37  H5  UNL     1      39.801  15.778  21.711  1.00  0.00     0.153 HD
HETATM   38  C12 UNL     1      41.744  18.280  22.573  1.00  0.00     0.143 C 
ENDBRANCH   4  32
TORSDOF 9
ENDMDL
