MODEL 1
REMARK VINA RESULT: -7.945420062      0.000      0.000
REMARK  10 active torsions:
REMARK  status: ('A' for Active; 'I' for Inactive)
REMARK    1  A    between atoms: N1_4  and  C4_5 
REMARK    2  A    between atoms: C6_7  and  S1_8 
REMARK    3  A    between atoms: S1_8  and  S2_9 
REMARK    4  A    between atoms: S2_9  and  C7_10 
REMARK    5  A    between atoms: C7_10  and  N3_14 
REMARK    6  A    between atoms: N3_14  and  C8_16 
REMARK    7  A    between atoms: C11_20  and  C12_21 
REMARK    8  A    between atoms: C15_26  and  C16_27 
REMARK    9  A    between atoms: C16_27  and  C17_28 
REMARK   10  A    between atoms: C17_28  and  O2_29 
ROOT
HETATM    1  C4  UNL     1      43.702  20.212  24.186  1.00  0.00     0.233 C 
HETATM    2  C5  UNL     1      43.355  21.210  25.260  1.00  0.00     0.073 C 
HETATM    3  C6  UNL     1      44.351  22.330  24.931  1.00  0.00     0.092 C 
HETATM    4  C15 UNL     1      44.454  22.177  23.448  1.00  0.00     0.141 C 
HETATM    5  O3  UNL     1      44.614  20.802  23.324  1.00  0.00    -0.360 OA
ENDROOT
BRANCH   3   6
HETATM    6  S1  UNL     1      43.785  23.940  25.454  1.00  0.00    -0.082 SA
BRANCH   6   7
HETATM    7  S2  UNL     1      41.710  24.165  25.209  1.00  0.00    -0.021 SA
BRANCH   7   8
HETATM    8  C7  UNL     1      40.829  23.924  26.762  1.00  0.00     0.146 C 
HETATM    9  N2  UNL     1      41.384  23.157  27.632  1.00  0.00    -0.379 N 
ATOM     10  H22 UNL     1      42.282  22.712  27.438  1.00  0.00     0.158 HD
ATOM     11  H21 UNL     1      40.886  23.020  28.511  1.00  0.00     0.158 HD
BRANCH   8  12
HETATM   12  N3  UNL     1      39.598  24.533  27.027  1.00  0.00    -0.344 N 
ATOM     13  H3  UNL     1      38.784  24.318  26.450  1.00  0.00     0.164 HD
BRANCH  12  14
HETATM   14  C8  UNL     1      39.485  25.466  28.121  1.00  0.00     0.229 C 
HETATM   15  O1  UNL     1      40.522  25.441  29.054  1.00  0.00    -0.360 OA
HETATM   16  C9  UNL     1      39.603  25.585  30.101  1.00  0.00     0.133 C 
HETATM   17  C10 UNL     1      39.780  24.507  31.120  1.00  0.00     0.042 C 
HETATM   18  C14 UNL     1      38.476  25.159  29.178  1.00  0.00     0.064 C 
HETATM   19  C11 UNL     1      38.561  23.650  30.955  1.00  0.00     0.054 C 
HETATM   20  C13 UNL     1      38.188  23.727  29.486  1.00  0.00     0.021 C 
BRANCH  19  21
HETATM   21  C12 UNL     1      37.404  24.230  31.746  1.00  0.00     0.357 C 
HETATM   22  F1  UNL     1      36.532  23.265  32.166  1.00  0.00    -0.214 F 
HETATM   23  F2  UNL     1      37.852  24.915  32.862  1.00  0.00    -0.214 F 
ENDBRANCH  19  21
ENDBRANCH  12  14
ENDBRANCH   8  12
ENDBRANCH   7   8
ENDBRANCH   6   7
ENDBRANCH   3   6
BRANCH   4  24
HETATM   24  C16 UNL     1      45.593  22.953  22.878  1.00  0.00     0.059 C 
BRANCH  24  25
HETATM   25  C17 UNL     1      46.185  22.314  21.661  1.00  0.00     0.166 C 
BRANCH  25  26
HETATM   26  O2  UNL     1      47.265  21.527  22.067  1.00  0.00    -0.401 OA
ATOM     27  H2  UNL     1      47.989  21.692  21.475  1.00  0.00     0.209 HD
ENDBRANCH  25  26
ENDBRANCH  24  25
ENDBRANCH   4  24
BRANCH   1  28
HETATM   28  N1  UNL     1      42.536  19.775  23.445  1.00  0.00    -0.282 N 
HETATM   29  C3  UNL     1      41.661  20.685  22.982  1.00  0.00     0.110 A 
HETATM   30  C2  UNL     1      40.548  20.243  22.273  1.00  0.00     0.022 A 
HETATM   31  C1  UNL     1      39.617  21.286  21.788  1.00  0.00     0.056 C 
HETATM   32  C19 UNL     1      40.358  18.900  22.057  1.00  0.00     0.256 A 
HETATM   33  N4  UNL     1      41.260  18.019  22.539  1.00  0.00    -0.275 N 
HETATM   34  O5  UNL     1      39.338  18.545  21.412  1.00  0.00    -0.267 OA
HETATM   35  C18 UNL     1      42.330  18.460  23.222  1.00  0.00     0.331 A 
ATOM     36  H4  UNL     1      41.129  17.019  22.385  1.00  0.00     0.173 HD
HETATM   37  O4  UNL     1      43.176  17.645  23.673  1.00  0.00    -0.246 OA
ENDBRANCH   1  28
TORSDOF 10
ENDMDL
MODEL 2
REMARK VINA RESULT: -7.677818749      1.793      2.191
REMARK  10 active torsions:
REMARK  status: ('A' for Active; 'I' for Inactive)
REMARK    1  A    between atoms: N1_4  and  C4_5 
REMARK    2  A    between atoms: C6_7  and  S1_8 
REMARK    3  A    between atoms: S1_8  and  S2_9 
REMARK    4  A    between atoms: S2_9  and  C7_10 
REMARK    5  A    between atoms: C7_10  and  N3_14 
REMARK    6  A    between atoms: N3_14  and  C8_16 
REMARK    7  A    between atoms: C11_20  and  C12_21 
REMARK    8  A    between atoms: C15_26  and  C16_27 
REMARK    9  A    between atoms: C16_27  and  C17_28 
REMARK   10  A    between atoms: C17_28  and  O2_29 
ROOT
HETATM    1  C4  UNL     1      43.493  19.969  24.316  1.00  0.00     0.233 C 
HETATM    2  C5  UNL     1      43.091  20.805  25.505  1.00  0.00     0.073 C 
HETATM    3  C6  UNL     1      44.035  22.003  25.333  1.00  0.00     0.092 C 
HETATM    4  C15 UNL     1      44.155  22.046  23.844  1.00  0.00     0.141 C 
HETATM    5  O3  UNL     1      44.382  20.706  23.549  1.00  0.00    -0.360 OA
ENDROOT
BRANCH   3   6
HETATM    6  S1  UNL     1      43.389  23.505  26.051  1.00  0.00    -0.082 SA
BRANCH   6   7
HETATM    7  S2  UNL     1      41.367  23.315  26.590  1.00  0.00    -0.021 SA
BRANCH   7   8
HETATM    8  C7  UNL     1      41.184  22.788  28.303  1.00  0.00     0.146 C 
HETATM    9  N2  UNL     1      42.035  21.929  28.740  1.00  0.00    -0.379 N 
ATOM     10  H22 UNL     1      42.773  21.570  28.134  1.00  0.00     0.158 HD
ATOM     11  H21 UNL     1      41.932  21.630  29.710  1.00  0.00     0.158 HD
BRANCH   8  12
HETATM   12  N3  UNL     1      40.171  23.279  29.134  1.00  0.00    -0.344 N 
ATOM     13  H3  UNL     1      39.336  23.702  28.730  1.00  0.00     0.164 HD
BRANCH  12  14
HETATM   14  C8  UNL     1      40.315  23.183  30.566  1.00  0.00     0.229 C 
HETATM   15  O1  UNL     1      39.130  23.070  31.292  1.00  0.00    -0.360 OA
HETATM   16  C9  UNL     1      39.627  23.945  32.267  1.00  0.00     0.133 C 
HETATM   17  C10 UNL     1      38.684  25.079  32.500  1.00  0.00     0.042 C 
HETATM   18  C14 UNL     1      40.691  24.428  31.299  1.00  0.00     0.064 C 
HETATM   19  C11 UNL     1      39.393  26.266  31.920  1.00  0.00     0.054 C 
HETATM   20  C13 UNL     1      40.215  25.736  30.759  1.00  0.00     0.021 C 
BRANCH  19  21
HETATM   21  C12 UNL     1      40.362  26.842  32.934  1.00  0.00     0.357 C 
HETATM   22  F1  UNL     1      41.332  27.603  32.344  1.00  0.00    -0.214 F 
HETATM   23  F2  UNL     1      39.707  27.630  33.863  1.00  0.00    -0.214 F 
ENDBRANCH  19  21
ENDBRANCH  12  14
ENDBRANCH   8  12
ENDBRANCH   7   8
ENDBRANCH   6   7
ENDBRANCH   3   6
BRANCH   4  24
HETATM   24  C16 UNL     1      45.260  22.941  23.393  1.00  0.00     0.059 C 
BRANCH  24  25
HETATM   25  C17 UNL     1      45.767  22.599  22.026  1.00  0.00     0.166 C 
BRANCH  25  26
HETATM   26  O2  UNL     1      46.692  21.561  22.155  1.00  0.00    -0.401 OA
ATOM     27  H2  UNL     1      46.215  20.767  22.366  1.00  0.00     0.209 HD
ENDBRANCH  25  26
ENDBRANCH  24  25
ENDBRANCH   4  24
BRANCH   1  28
HETATM   28  N1  UNL     1      42.354  19.578  23.511  1.00  0.00    -0.282 N 
HETATM   29  C3  UNL     1      41.485  20.511  23.085  1.00  0.00     0.110 A 
HETATM   30  C2  UNL     1      40.399  20.112  22.314  1.00  0.00     0.022 A 
HETATM   31  C1  UNL     1      39.473  21.180  21.873  1.00  0.00     0.056 C 
HETATM   32  C19 UNL     1      40.227  18.786  21.999  1.00  0.00     0.256 A 
HETATM   33  N4  UNL     1      41.123  17.880  22.446  1.00  0.00    -0.275 N 
HETATM   34  O5  UNL     1      39.231  18.470  21.300  1.00  0.00    -0.267 OA
HETATM   35  C18 UNL     1      42.167  18.279  23.191  1.00  0.00     0.331 A 
ATOM     36  H4  UNL     1      41.006  16.892  22.219  1.00  0.00     0.173 HD
HETATM   37  O4  UNL     1      43.006  17.441  23.610  1.00  0.00    -0.246 OA
ENDBRANCH   1  28
TORSDOF 10
ENDMDL
MODEL 3
REMARK VINA RESULT: -7.666591190      5.003      8.503
REMARK  10 active torsions:
REMARK  status: ('A' for Active; 'I' for Inactive)
REMARK    1  A    between atoms: N1_4  and  C4_5 
REMARK    2  A    between atoms: C6_7  and  S1_8 
REMARK    3  A    between atoms: S1_8  and  S2_9 
REMARK    4  A    between atoms: S2_9  and  C7_10 
REMARK    5  A    between atoms: C7_10  and  N3_14 
REMARK    6  A    between atoms: N3_14  and  C8_16 
REMARK    7  A    between atoms: C11_20  and  C12_21 
REMARK    8  A    between atoms: C15_26  and  C16_27 
REMARK    9  A    between atoms: C16_27  and  C17_28 
REMARK   10  A    between atoms: C17_28  and  O2_29 
ROOT
HETATM    1  C4  UNL     1      39.518  21.979  24.272  1.00  0.00     0.233 C 
HETATM    2  C5  UNL     1      40.342  23.241  24.244  1.00  0.00     0.073 C 
HETATM    3  C6  UNL     1      40.325  23.617  25.732  1.00  0.00     0.092 C 
HETATM    4  C15 UNL     1      40.259  22.261  26.356  1.00  0.00     0.141 C 
HETATM    5  O3  UNL     1      39.265  21.656  25.596  1.00  0.00    -0.360 OA
ENDROOT
BRANCH   3   6
HETATM    6  S1  UNL     1      41.749  24.573  26.225  1.00  0.00    -0.082 SA
BRANCH   6   7
HETATM    7  S2  UNL     1      43.527  23.459  26.101  1.00  0.00    -0.021 SA
BRANCH   7   8
HETATM    8  C7  UNL     1      44.296  23.616  24.479  1.00  0.00     0.146 C 
HETATM    9  N2  UNL     1      43.734  24.416  23.644  1.00  0.00    -0.379 N 
ATOM     10  H22 UNL     1      42.892  24.932  23.902  1.00  0.00     0.158 HD
ATOM     11  H21 UNL     1      44.169  24.506  22.726  1.00  0.00     0.158 HD
BRANCH   8  12
HETATM   12  N3  UNL     1      45.451  22.909  24.125  1.00  0.00    -0.344 N 
ATOM     13  H3  UNL     1      45.912  22.307  24.807  1.00  0.00     0.164 HD
BRANCH  12  14
HETATM   14  C8  UNL     1      45.984  23.037  22.792  1.00  0.00     0.229 C 
HETATM   15  O1  UNL     1      46.466  21.863  22.212  1.00  0.00    -0.360 OA
HETATM   16  C9  UNL     1      47.559  22.559  21.678  1.00  0.00     0.133 C 
HETATM   17  C10 UNL     1      48.847  21.908  22.065  1.00  0.00     0.042 C 
HETATM   18  C14 UNL     1      47.315  23.699  22.650  1.00  0.00     0.064 C 
HETATM   19  C11 UNL     1      49.462  22.871  23.035  1.00  0.00     0.054 C 
HETATM   20  C13 UNL     1      48.305  23.539  23.755  1.00  0.00     0.021 C 
BRANCH  19  21
HETATM   21  C12 UNL     1      50.215  23.956  22.287  1.00  0.00     0.357 C 
HETATM   22  F1  UNL     1      51.259  24.452  23.015  1.00  0.00    -0.214 F 
HETATM   23  F2  UNL     1      50.718  23.483  21.088  1.00  0.00    -0.214 F 
ENDBRANCH  19  21
ENDBRANCH  12  14
ENDBRANCH   8  12
ENDBRANCH   7   8
ENDBRANCH   6   7
ENDBRANCH   3   6
BRANCH   4  24
HETATM   24  C16 UNL     1      39.930  22.324  27.810  1.00  0.00     0.059 C 
BRANCH  24  25
HETATM   25  C17 UNL     1      41.045  21.838  28.683  1.00  0.00     0.166 C 
BRANCH  25  26
HETATM   26  O2  UNL     1      40.689  20.583  29.181  1.00  0.00    -0.401 OA
ATOM     27  H2  UNL     1      40.589  19.992  28.445  1.00  0.00     0.209 HD
ENDBRANCH  25  26
ENDBRANCH  24  25
ENDBRANCH   4  24
BRANCH   1  28
HETATM   28  N1  UNL     1      40.184  20.874  23.614  1.00  0.00    -0.282 N 
HETATM   29  C3  UNL     1      41.473  20.610  23.894  1.00  0.00     0.110 A 
HETATM   30  C2  UNL     1      42.093  19.544  23.251  1.00  0.00     0.022 A 
HETATM   31  C1  UNL     1      43.511  19.298  23.596  1.00  0.00     0.056 C 
HETATM   32  C19 UNL     1      41.392  18.783  22.347  1.00  0.00     0.256 A 
HETATM   33  N4  UNL     1      40.099  19.081  22.093  1.00  0.00    -0.275 N 
HETATM   34  O5  UNL     1      41.991  17.829  21.788  1.00  0.00    -0.267 OA
HETATM   35  C18 UNL     1      39.514  20.114  22.722  1.00  0.00     0.331 A 
ATOM     36  H4  UNL     1      39.569  18.524  21.424  1.00  0.00     0.173 HD
HETATM   37  O4  UNL     1      38.310  20.398  22.492  1.00  0.00    -0.246 OA
ENDBRANCH   1  28
TORSDOF 10
ENDMDL
MODEL 4
REMARK VINA RESULT: -7.660166111      2.481      3.900
REMARK  10 active torsions:
REMARK  status: ('A' for Active; 'I' for Inactive)
REMARK    1  A    between atoms: N1_4  and  C4_5 
REMARK    2  A    between atoms: C6_7  and  S1_8 
REMARK    3  A    between atoms: S1_8  and  S2_9 
REMARK    4  A    between atoms: S2_9  and  C7_10 
REMARK    5  A    between atoms: C7_10  and  N3_14 
REMARK    6  A    between atoms: N3_14  and  C8_16 
REMARK    7  A    between atoms: C11_20  and  C12_21 
REMARK    8  A    between atoms: C15_26  and  C16_27 
REMARK    9  A    between atoms: C16_27  and  C17_28 
REMARK   10  A    between atoms: C17_28  and  O2_29 
ROOT
HETATM    1  C4  UNL     1      39.689  22.072  24.268  1.00  0.00     0.233 C 
HETATM    2  C5  UNL     1      40.567  23.293  24.163  1.00  0.00     0.073 C 
HETATM    3  C6  UNL     1      40.638  23.711  25.638  1.00  0.00     0.092 C 
HETATM    4  C15 UNL     1      40.542  22.378  26.305  1.00  0.00     0.141 C 
HETATM    5  O3  UNL     1      39.485  21.799  25.612  1.00  0.00    -0.360 OA
ENDROOT
BRANCH   3   6
HETATM    6  S1  UNL     1      42.127  24.613  26.033  1.00  0.00    -0.082 SA
BRANCH   6   7
HETATM    7  S2  UNL     1      41.769  26.673  26.243  1.00  0.00    -0.021 SA
BRANCH   7   8
HETATM    8  C7  UNL     1      40.631  27.014  27.598  1.00  0.00     0.146 C 
HETATM    9  N2  UNL     1      40.432  28.249  27.894  1.00  0.00    -0.379 N 
ATOM     10  H22 UNL     1      40.904  28.992  27.377  1.00  0.00     0.158 HD
ATOM     11  H21 UNL     1      39.788  28.442  28.661  1.00  0.00     0.158 HD
BRANCH   8  12
HETATM   12  N3  UNL     1      39.985  25.995  28.307  1.00  0.00    -0.344 N 
ATOM     13  H3  UNL     1      39.535  25.228  27.808  1.00  0.00     0.164 HD
BRANCH  12  14
HETATM   14  C8  UNL     1      39.959  26.036  29.749  1.00  0.00     0.229 C 
HETATM   15  O1  UNL     1      40.769  25.106  30.400  1.00  0.00    -0.360 OA
HETATM   16  C9  UNL     1      39.765  24.875  31.349  1.00  0.00     0.133 C 
HETATM   17  C10 UNL     1      39.447  23.419  31.446  1.00  0.00     0.042 C 
HETATM   18  C14 UNL     1      38.739  25.505  30.425  1.00  0.00     0.064 C 
HETATM   19  C11 UNL     1      38.080  23.305  30.841  1.00  0.00     0.054 C 
HETATM   20  C13 UNL     1      38.003  24.381  29.774  1.00  0.00     0.021 C 
BRANCH  19  21
HETATM   21  C12 UNL     1      37.021  23.624  31.880  1.00  0.00     0.357 C 
HETATM   22  F1  UNL     1      35.970  24.316  31.347  1.00  0.00    -0.214 F 
HETATM   23  F2  UNL     1      36.522  22.470  32.458  1.00  0.00    -0.214 F 
ENDBRANCH  19  21
ENDBRANCH  12  14
ENDBRANCH   8  12
ENDBRANCH   7   8
ENDBRANCH   6   7
ENDBRANCH   3   6
BRANCH   4  24
HETATM   24  C16 UNL     1      40.286  22.497  27.770  1.00  0.00     0.059 C 
BRANCH  24  25
HETATM   25  C17 UNL     1      41.322  21.807  28.602  1.00  0.00     0.166 C 
BRANCH  25  26
HETATM   26  O2  UNL     1      40.732  20.682  29.183  1.00  0.00    -0.401 OA
ATOM     27  H2  UNL     1      40.989  19.921  28.676  1.00  0.00     0.209 HD
ENDBRANCH  25  26
ENDBRANCH  24  25
ENDBRANCH   4  24
BRANCH   1  28
HETATM   28  N1  UNL     1      40.272  20.919  23.614  1.00  0.00    -0.282 N 
HETATM   29  C3  UNL     1      41.537  20.561  23.895  1.00  0.00     0.110 A 
HETATM   30  C2  UNL     1      42.077  19.450  23.255  1.00  0.00     0.022 A 
HETATM   31  C1  UNL     1      43.473  19.101  23.601  1.00  0.00     0.056 C 
HETATM   32  C19 UNL     1      41.321  18.740  22.354  1.00  0.00     0.256 A 
HETATM   33  N4  UNL     1      40.055  19.132  22.099  1.00  0.00    -0.275 N 
HETATM   34  O5  UNL     1      41.849  17.743  21.798  1.00  0.00    -0.267 OA
HETATM   35  C18 UNL     1      39.547  20.207  22.724  1.00  0.00     0.331 A 
ATOM     36  H4  UNL     1      39.484  18.613  21.431  1.00  0.00     0.173 HD
HETATM   37  O4  UNL     1      38.367  20.578  22.493  1.00  0.00    -0.246 OA
ENDBRANCH   1  28
TORSDOF 10
ENDMDL
MODEL 5
REMARK VINA RESULT: -7.479972538      4.007      4.733
REMARK  10 active torsions:
REMARK  status: ('A' for Active; 'I' for Inactive)
REMARK    1  A    between atoms: N1_4  and  C4_5 
REMARK    2  A    between atoms: C6_7  and  S1_8 
REMARK    3  A    between atoms: S1_8  and  S2_9 
REMARK    4  A    between atoms: S2_9  and  C7_10 
REMARK    5  A    between atoms: C7_10  and  N3_14 
REMARK    6  A    between atoms: N3_14  and  C8_16 
REMARK    7  A    between atoms: C11_20  and  C12_21 
REMARK    8  A    between atoms: C15_26  and  C16_27 
REMARK    9  A    between atoms: C16_27  and  C17_28 
REMARK   10  A    between atoms: C17_28  and  O2_29 
ROOT
HETATM    1  C4  UNL     1      43.711  20.069  23.812  1.00  0.00     0.233 C 
HETATM    2  C5  UNL     1      43.467  20.511  25.232  1.00  0.00     0.073 C 
HETATM    3  C6  UNL     1      44.051  21.930  25.187  1.00  0.00     0.092 C 
HETATM    4  C15 UNL     1      43.764  22.298  23.767  1.00  0.00     0.141 C 
HETATM    5  O3  UNL     1      44.187  21.157  23.096  1.00  0.00    -0.360 OA
ENDROOT
BRANCH   3   6
HETATM    6  S1  UNL     1      43.309  23.026  26.384  1.00  0.00    -0.082 SA
BRANCH   6   7
HETATM    7  S2  UNL     1      42.007  22.009  27.684  1.00  0.00    -0.021 SA
BRANCH   7   8
HETATM    8  C7  UNL     1      40.576  21.353  26.809  1.00  0.00     0.146 C 
HETATM    9  N2  UNL     1      39.851  20.498  27.439  1.00  0.00    -0.379 N 
ATOM     10  H22 UNL     1      40.088  20.213  28.390  1.00  0.00     0.158 HD
ATOM     11  H21 UNL     1      39.040  20.127  26.944  1.00  0.00     0.158 HD
BRANCH   8  12
HETATM   12  N3  UNL     1      40.251  21.744  25.505  1.00  0.00    -0.344 N 
ATOM     13  H3  UNL     1      40.753  21.346  24.711  1.00  0.00     0.164 HD
BRANCH  12  14
HETATM   14  C8  UNL     1      39.203  22.711  25.291  1.00  0.00     0.229 C 
HETATM   15  O1  UNL     1      38.314  22.427  24.254  1.00  0.00    -0.360 OA
HETATM   16  C9  UNL     1      38.315  23.774  23.865  1.00  0.00     0.133 C 
HETATM   17  C10 UNL     1      38.655  23.912  22.418  1.00  0.00     0.042 C 
HETATM   18  C14 UNL     1      39.589  24.006  24.657  1.00  0.00     0.064 C 
HETATM   19  C11 UNL     1      40.023  24.525  22.424  1.00  0.00     0.054 C 
HETATM   20  C13 UNL     1      40.711  24.004  23.672  1.00  0.00     0.021 C 
BRANCH  19  21
HETATM   21  C12 UNL     1      39.919  26.032  22.561  1.00  0.00     0.357 C 
HETATM   22  F1  UNL     1      41.081  26.662  22.211  1.00  0.00    -0.214 F 
HETATM   23  F2  UNL     1      38.904  26.540  21.770  1.00  0.00    -0.214 F 
ENDBRANCH  19  21
ENDBRANCH  12  14
ENDBRANCH   8  12
ENDBRANCH   7   8
ENDBRANCH   6   7
ENDBRANCH   3   6
BRANCH   4  24
HETATM   24  C16 UNL     1      44.491  23.531  23.346  1.00  0.00     0.059 C 
BRANCH  24  25
HETATM   25  C17 UNL     1      45.957  23.474  23.643  1.00  0.00     0.166 C 
BRANCH  25  26
HETATM   26  O2  UNL     1      46.539  22.551  22.771  1.00  0.00    -0.401 OA
ATOM     27  H2  UNL     1      46.521  21.698  23.190  1.00  0.00     0.209 HD
ENDBRANCH  25  26
ENDBRANCH  24  25
ENDBRANCH   4  24
BRANCH   1  28
HETATM   28  N1  UNL     1      42.513  19.552  23.183  1.00  0.00    -0.282 N 
HETATM   29  C3  UNL     1      41.618  20.403  22.652  1.00  0.00     0.110 A 
HETATM   30  C2  UNL     1      40.474  19.884  22.054  1.00  0.00     0.022 A 
HETATM   31  C1  UNL     1      39.522  20.865  21.487  1.00  0.00     0.056 C 
HETATM   32  C19 UNL     1      40.274  18.526  22.014  1.00  0.00     0.256 A 
HETATM   33  N4  UNL     1      41.197  17.705  22.559  1.00  0.00    -0.275 N 
HETATM   34  O5  UNL     1      39.226  18.100  21.464  1.00  0.00    -0.267 OA
HETATM   35  C18 UNL     1      42.297  18.220  23.133  1.00  0.00     0.331 A 
ATOM     36  H4  UNL     1      41.060  16.694  22.535  1.00  0.00     0.173 HD
HETATM   37  O4  UNL     1      43.163  17.462  23.643  1.00  0.00    -0.246 OA
ENDBRANCH   1  28
TORSDOF 10
ENDMDL
