MODEL 1
REMARK VINA RESULT: -7.797898494      0.000      0.000
REMARK  10 active torsions:
REMARK  status: ('A' for Active; 'I' for Inactive)
REMARK    1  A    between atoms: C2_2  and  C4_4 
REMARK    2  A    between atoms: C4_4  and  N1_5 
REMARK    3  A    between atoms: N1_5  and  C5_7 
REMARK    4  A    between atoms: C6_10  and  O1_11 
REMARK    5  A    between atoms: O1_11  and  C7_12 
REMARK    6  A    between atoms: C7_12  and  C8_13 
REMARK    7  A    between atoms: C8_13  and  O2_16 
REMARK    8  A    between atoms: C12_22  and  C13_23 
REMARK    9  A    between atoms: C14_24  and  N4_25 
REMARK   10  A    between atoms: N4_25  and  C15_27 
ROOT
HETATM    1  C5  UNL     1      43.792  19.905  23.778  1.00  0.00     0.138 A 
HETATM    2  N2  UNL     1      42.498  19.517  23.607  1.00  0.00    -0.306 N 
ATOM      3  H2  UNL     1      42.161  18.772  24.217  1.00  0.00     0.171 HD
HETATM    4  C6  UNL     1      41.632  20.003  22.737  1.00  0.00     0.226 A 
HETATM    5  N3  UNL     1      42.076  20.985  21.930  1.00  0.00    -0.314 N 
ATOM      6  H3  UNL     1      41.449  21.396  21.239  1.00  0.00     0.170 HD
HETATM    7  C11 UNL     1      43.361  21.433  22.033  1.00  0.00     0.110 A 
HETATM    8  S1  UNL     1      44.297  22.601  21.231  1.00  0.00    -0.051 SA
HETATM    9  C12 UNL     1      45.778  22.414  22.057  1.00  0.00     0.092 A 
HETATM   10  N6  UNL     1      45.457  21.448  22.918  1.00  0.00    -0.344 N 
ATOM     11  H6  UNL     1      46.161  21.108  23.573  1.00  0.00     0.167 HD
HETATM   12  C23 UNL     1      44.267  20.931  22.940  1.00  0.00     0.112 A 
ENDROOT
BRANCH   9  13
HETATM   13  C13 UNL     1      47.078  23.074  21.873  1.00  0.00     0.066 A 
HETATM   14  C14 UNL     1      48.028  22.615  21.018  1.00  0.00     0.044 A 
HETATM   15  C19 UNL     1      49.162  23.426  20.886  1.00  0.00     0.033 A 
HETATM   16  C20 UNL     1      49.335  24.611  21.562  1.00  0.00     0.048 A 
HETATM   17  C21 UNL     1      48.371  25.039  22.408  1.00  0.00     0.155 A 
HETATM   18  F1  UNL     1      48.495  26.197  23.097  1.00  0.00    -0.203 F 
HETATM   19  C22 UNL     1      47.251  24.283  22.565  1.00  0.00     0.170 A 
HETATM   20  F2  UNL     1      46.300  24.724  23.402  1.00  0.00    -0.202 F 
BRANCH  14  21
HETATM   21  N4  UNL     1      47.963  21.391  20.353  1.00  0.00    -0.383 N 
ATOM     22  H4  UNL     1      47.690  20.590  20.923  1.00  0.00     0.160 HD
BRANCH  21  23
HETATM   23  C15 UNL     1      48.229  21.110  18.966  1.00  0.00     0.109 C 
HETATM   24  C16 UNL     1      47.553  21.986  17.976  1.00  0.00     0.054 C 
HETATM   25  C17 UNL     1      47.342  21.093  16.775  1.00  0.00     0.234 C 
HETATM   26  N5  UNL     1      47.497  19.744  17.202  1.00  0.00    -0.073 N 
HETATM   27  C18 UNL     1      47.930  19.689  18.559  1.00  0.00     0.257 C 
ATOM     28  H52 UNL     1      46.646  19.202  17.056  1.00  0.00     0.277 HD
ATOM     29  H51 UNL     1      48.120  19.222  16.586  1.00  0.00     0.277 HD
ENDBRANCH  21  23
ENDBRANCH  14  21
ENDBRANCH   9  13
BRANCH   1  30
HETATM   30  N1  UNL     1      44.408  19.285  24.664  1.00  0.00    -0.354 N 
ATOM     31  H1  UNL     1      44.872  19.891  25.340  1.00  0.00     0.166 HD
BRANCH  30  32
HETATM   32  C4  UNL     1      44.587  17.930  24.916  1.00  0.00     0.066 C 
BRANCH  32  33
HETATM   33  C2  UNL     1      45.953  17.480  25.357  1.00  0.00     0.016 C 
HETATM   34  C1  UNL     1      46.443  16.505  24.275  1.00  0.00     0.015 C 
HETATM   35  C3  UNL     1      45.748  16.610  26.603  1.00  0.00     0.015 C 
ENDBRANCH  32  33
ENDBRANCH  30  32
ENDBRANCH   1  30
BRANCH   4  36
HETATM   36  O1  UNL     1      40.334  19.540  22.642  1.00  0.00    -0.319 OA
BRANCH  36  37
HETATM   37  C7  UNL     1      39.702  19.191  21.451  1.00  0.00     0.215 C 
BRANCH  37  38
HETATM   38  C8  UNL     1      39.635  17.683  21.338  1.00  0.00     0.072 C 
HETATM   39  C9  UNL     1      41.020  17.079  21.187  1.00  0.00     0.047 C 
HETATM   40  C10 UNL     1      38.980  17.046  22.518  1.00  0.00     0.047 C 
BRANCH  38  41
HETATM   41  O2  UNL     1      38.915  17.335  20.189  1.00  0.00    -0.388 OA
ATOM     42  H2  UNL     1      39.055  16.415  19.996  1.00  0.00     0.210 HD
ENDBRANCH  38  41
ENDBRANCH  37  38
ENDBRANCH  36  37
ENDBRANCH   4  36
TORSDOF 10
ENDMDL
MODEL 2
REMARK VINA RESULT: -7.657228472      6.313      9.330
REMARK  10 active torsions:
REMARK  status: ('A' for Active; 'I' for Inactive)
REMARK    1  A    between atoms: C2_2  and  C4_4 
REMARK    2  A    between atoms: C4_4  and  N1_5 
REMARK    3  A    between atoms: N1_5  and  C5_7 
REMARK    4  A    between atoms: C6_10  and  O1_11 
REMARK    5  A    between atoms: O1_11  and  C7_12 
REMARK    6  A    between atoms: C7_12  and  C8_13 
REMARK    7  A    between atoms: C8_13  and  O2_16 
REMARK    8  A    between atoms: C12_22  and  C13_23 
REMARK    9  A    between atoms: C14_24  and  N4_25 
REMARK   10  A    between atoms: N4_25  and  C15_27 
ROOT
HETATM    1  C5  UNL     1      43.163  21.877  25.475  1.00  0.00     0.138 A 
HETATM    2  N2  UNL     1      43.146  20.676  24.833  1.00  0.00    -0.306 N 
ATOM      3  H2  UNL     1      44.042  20.332  24.488  1.00  0.00     0.171 HD
HETATM    4  C6  UNL     1      42.093  19.911  24.608  1.00  0.00     0.226 A 
HETATM    5  N3  UNL     1      40.911  20.367  25.062  1.00  0.00    -0.314 N 
ATOM      6  H3  UNL     1      40.065  19.816  24.915  1.00  0.00     0.170 HD
HETATM    7  C11 UNL     1      40.838  21.562  25.716  1.00  0.00     0.110 A 
HETATM    8  S1  UNL     1      39.589  22.479  26.413  1.00  0.00    -0.051 SA
HETATM    9  C12 UNL     1      40.483  23.822  26.969  1.00  0.00     0.092 A 
HETATM   10  N6  UNL     1      41.710  23.478  26.580  1.00  0.00    -0.344 N 
ATOM     11  H6  UNL     1      42.491  24.102  26.779  1.00  0.00     0.167 HD
HETATM   12  C23 UNL     1      41.932  22.363  25.953  1.00  0.00     0.112 A 
ENDROOT
BRANCH   9  13
HETATM   13  C13 UNL     1      40.055  25.055  27.646  1.00  0.00     0.066 A 
HETATM   14  C14 UNL     1      39.954  25.163  28.995  1.00  0.00     0.044 A 
HETATM   15  C19 UNL     1      39.638  26.441  29.475  1.00  0.00     0.033 A 
HETATM   16  C20 UNL     1      39.436  27.532  28.663  1.00  0.00     0.048 A 
HETATM   17  C21 UNL     1      39.541  27.390  27.323  1.00  0.00     0.155 A 
HETATM   18  F1  UNL     1      39.349  28.433  26.482  1.00  0.00    -0.203 F 
HETATM   19  C22 UNL     1      39.848  26.167  26.813  1.00  0.00     0.170 A 
HETATM   20  F2  UNL     1      39.957  26.043  25.482  1.00  0.00    -0.202 F 
BRANCH  14  21
HETATM   21  N4  UNL     1      40.071  24.093  29.881  1.00  0.00    -0.383 N 
ATOM     22  H4  UNL     1      41.010  23.710  29.994  1.00  0.00     0.160 HD
BRANCH  21  23
HETATM   23  C15 UNL     1      39.040  23.456  30.659  1.00  0.00     0.109 C 
HETATM   24  C16 UNL     1      37.644  23.668  30.200  1.00  0.00     0.054 C 
HETATM   25  C17 UNL     1      36.825  23.624  31.470  1.00  0.00     0.234 C 
HETATM   26  N5  UNL     1      37.715  23.795  32.568  1.00  0.00    -0.073 N 
HETATM   27  C18 UNL     1      39.069  23.810  32.124  1.00  0.00     0.257 C 
ATOM     28  H52 UNL     1      37.487  24.627  33.111  1.00  0.00     0.277 HD
ATOM     29  H51 UNL     1      37.562  23.092  33.291  1.00  0.00     0.277 HD
ENDBRANCH  21  23
ENDBRANCH  14  21
ENDBRANCH   9  13
BRANCH   1  30
HETATM   30  N1  UNL     1      44.286  22.409  25.553  1.00  0.00    -0.354 N 
ATOM     31  H1  UNL     1      44.802  22.153  26.394  1.00  0.00     0.166 HD
BRANCH  30  32
HETATM   32  C4  UNL     1      44.975  23.281  24.720  1.00  0.00     0.066 C 
BRANCH  32  33
HETATM   33  C2  UNL     1      46.010  24.173  25.351  1.00  0.00     0.016 C 
HETATM   34  C1  UNL     1      45.226  25.226  26.149  1.00  0.00     0.015 C 
HETATM   35  C3  UNL     1      46.668  24.957  24.209  1.00  0.00     0.015 C 
ENDBRANCH  32  33
ENDBRANCH  30  32
ENDBRANCH   1  30
BRANCH   4  36
HETATM   36  O1  UNL     1      42.180  18.703  23.944  1.00  0.00    -0.319 OA
BRANCH  36  37
HETATM   37  C7  UNL     1      42.172  18.558  22.559  1.00  0.00     0.215 C 
BRANCH  37  38
HETATM   38  C8  UNL     1      40.957  17.759  22.142  1.00  0.00     0.072 C 
HETATM   39  C9  UNL     1      39.768  18.665  21.870  1.00  0.00     0.047 C 
HETATM   40  C10 UNL     1      41.199  16.937  20.920  1.00  0.00     0.047 C 
BRANCH  38  41
HETATM   41  O2  UNL     1      40.582  16.905  23.185  1.00  0.00    -0.388 OA
ATOM     42  H2  UNL     1      39.730  17.165  23.516  1.00  0.00     0.210 HD
ENDBRANCH  38  41
ENDBRANCH  37  38
ENDBRANCH  36  37
ENDBRANCH   4  36
TORSDOF 10
ENDMDL
MODEL 3
REMARK VINA RESULT: -7.630456400      2.174      3.837
REMARK  10 active torsions:
REMARK  status: ('A' for Active; 'I' for Inactive)
REMARK    1  A    between atoms: C2_2  and  C4_4 
REMARK    2  A    between atoms: C4_4  and  N1_5 
REMARK    3  A    between atoms: N1_5  and  C5_7 
REMARK    4  A    between atoms: C6_10  and  O1_11 
REMARK    5  A    between atoms: O1_11  and  C7_12 
REMARK    6  A    between atoms: C7_12  and  C8_13 
REMARK    7  A    between atoms: C8_13  and  O2_16 
REMARK    8  A    between atoms: C12_22  and  C13_23 
REMARK    9  A    between atoms: C14_24  and  N4_25 
REMARK   10  A    between atoms: N4_25  and  C15_27 
ROOT
HETATM    1  C5  UNL     1      43.811  19.923  23.805  1.00  0.00     0.138 A 
HETATM    2  N2  UNL     1      42.533  19.491  23.618  1.00  0.00    -0.306 N 
ATOM      3  H2  UNL     1      42.233  18.699  24.187  1.00  0.00     0.171 HD
HETATM    4  C6  UNL     1      41.642  19.988  22.780  1.00  0.00     0.226 A 
HETATM    5  N3  UNL     1      42.039  21.032  22.029  1.00  0.00    -0.314 N 
ATOM      6  H3  UNL     1      41.391  21.454  21.365  1.00  0.00     0.170 HD
HETATM    7  C11 UNL     1      43.305  21.527  22.152  1.00  0.00     0.110 A 
HETATM    8  S1  UNL     1      44.186  22.778  21.413  1.00  0.00    -0.051 SA
HETATM    9  C12 UNL     1      45.678  22.607  22.221  1.00  0.00     0.092 A 
HETATM   10  N6  UNL     1      45.405  21.581  23.028  1.00  0.00    -0.344 N 
ATOM     11  H6  UNL     1      46.127  21.235  23.659  1.00  0.00     0.167 HD
HETATM   12  C23 UNL     1      44.237  21.014  23.025  1.00  0.00     0.112 A 
ENDROOT
BRANCH   9  13
HETATM   13  C13 UNL     1      46.949  23.331  22.069  1.00  0.00     0.066 A 
HETATM   14  C14 UNL     1      47.169  24.561  22.599  1.00  0.00     0.044 A 
HETATM   15  C19 UNL     1      48.471  25.056  22.451  1.00  0.00     0.033 A 
HETATM   16  C20 UNL     1      49.480  24.371  21.817  1.00  0.00     0.048 A 
HETATM   17  C21 UNL     1      49.227  23.149  21.297  1.00  0.00     0.155 A 
HETATM   18  F1  UNL     1      50.185  22.436  20.661  1.00  0.00    -0.203 F 
HETATM   19  C22 UNL     1      47.976  22.629  21.419  1.00  0.00     0.170 A 
HETATM   20  F2  UNL     1      47.742  21.412  20.905  1.00  0.00    -0.202 F 
BRANCH  14  21
HETATM   21  N4  UNL     1      46.184  25.350  23.193  1.00  0.00    -0.383 N 
ATOM     22  H4  UNL     1      45.778  26.074  22.599  1.00  0.00     0.160 HD
BRANCH  21  23
HETATM   23  C15 UNL     1      45.664  25.277  24.534  1.00  0.00     0.109 C 
HETATM   24  C16 UNL     1      46.260  24.242  25.414  1.00  0.00     0.054 C 
HETATM   25  C17 UNL     1      45.134  23.853  26.344  1.00  0.00     0.234 C 
HETATM   26  N5  UNL     1      43.916  24.313  25.768  1.00  0.00    -0.073 N 
HETATM   27  C18 UNL     1      44.170  25.094  24.604  1.00  0.00     0.257 C 
ATOM     28  H52 UNL     1      43.276  23.543  25.574  1.00  0.00     0.277 HD
ATOM     29  H51 UNL     1      43.346  24.819  26.446  1.00  0.00     0.277 HD
ENDBRANCH  21  23
ENDBRANCH  14  21
ENDBRANCH   9  13
BRANCH   1  30
HETATM   30  N1  UNL     1      44.458  19.280  24.653  1.00  0.00    -0.354 N 
ATOM     31  H1  UNL     1      44.963  19.870  25.315  1.00  0.00     0.166 HD
BRANCH  30  32
HETATM   32  C4  UNL     1      44.628  17.920  24.876  1.00  0.00     0.066 C 
BRANCH  32  33
HETATM   33  C2  UNL     1      45.986  17.454  25.326  1.00  0.00     0.016 C 
HETATM   34  C1  UNL     1      46.460  16.452  24.262  1.00  0.00     0.015 C 
HETATM   35  C3  UNL     1      45.764  16.610  26.587  1.00  0.00     0.015 C 
ENDBRANCH  32  33
ENDBRANCH  30  32
ENDBRANCH   1  30
BRANCH   4  36
HETATM   36  O1  UNL     1      40.364  19.477  22.665  1.00  0.00    -0.319 OA
BRANCH  36  37
HETATM   37  C7  UNL     1      39.744  19.159  21.459  1.00  0.00     0.215 C 
BRANCH  37  38
HETATM   38  C8  UNL     1      39.653  17.655  21.319  1.00  0.00     0.072 C 
HETATM   39  C9  UNL     1      41.026  17.035  21.130  1.00  0.00     0.047 C 
HETATM   40  C10 UNL     1      39.012  17.004  22.499  1.00  0.00     0.047 C 
BRANCH  38  41
HETATM   41  O2  UNL     1      38.907  17.339  20.178  1.00  0.00    -0.388 OA
ATOM     42  H2  UNL     1      38.313  16.624  20.377  1.00  0.00     0.210 HD
ENDBRANCH  38  41
ENDBRANCH  37  38
ENDBRANCH  36  37
ENDBRANCH   4  36
TORSDOF 10
ENDMDL
MODEL 4
REMARK VINA RESULT: -7.623243142      5.390      7.587
REMARK  10 active torsions:
REMARK  status: ('A' for Active; 'I' for Inactive)
REMARK    1  A    between atoms: C2_2  and  C4_4 
REMARK    2  A    between atoms: C4_4  and  N1_5 
REMARK    3  A    between atoms: N1_5  and  C5_7 
REMARK    4  A    between atoms: C6_10  and  O1_11 
REMARK    5  A    between atoms: O1_11  and  C7_12 
REMARK    6  A    between atoms: C7_12  and  C8_13 
REMARK    7  A    between atoms: C8_13  and  O2_16 
REMARK    8  A    between atoms: C12_22  and  C13_23 
REMARK    9  A    between atoms: C14_24  and  N4_25 
REMARK   10  A    between atoms: N4_25  and  C15_27 
ROOT
HETATM    1  C5  UNL     1      40.283  22.992  26.730  1.00  0.00     0.138 A 
HETATM    2  N2  UNL     1      39.813  22.884  28.004  1.00  0.00    -0.306 N 
ATOM      3  H2  UNL     1      38.822  23.080  28.141  1.00  0.00     0.171 HD
HETATM    4  C6  UNL     1      40.504  22.554  29.080  1.00  0.00     0.226 A 
HETATM    5  N3  UNL     1      41.813  22.298  28.899  1.00  0.00    -0.314 N 
ATOM      6  H3  UNL     1      42.394  22.039  29.696  1.00  0.00     0.170 HD
HETATM    7  C11 UNL     1      42.366  22.383  27.654  1.00  0.00     0.110 A 
HETATM    8  S1  UNL     1      43.923  22.164  27.011  1.00  0.00    -0.051 SA
HETATM    9  C12 UNL     1      43.617  22.509  25.368  1.00  0.00     0.092 A 
HETATM   10  N6  UNL     1      42.311  22.775  25.413  1.00  0.00    -0.344 N 
ATOM     11  H6  UNL     1      41.822  23.024  24.554  1.00  0.00     0.167 HD
HETATM   12  C23 UNL     1      41.650  22.726  26.529  1.00  0.00     0.112 A 
ENDROOT
BRANCH   9  13
HETATM   13  C13 UNL     1      44.516  22.560  24.207  1.00  0.00     0.066 A 
HETATM   14  C14 UNL     1      44.527  21.610  23.236  1.00  0.00     0.044 A 
HETATM   15  C19 UNL     1      45.369  21.872  22.147  1.00  0.00     0.033 A 
HETATM   16  C20 UNL     1      46.146  23.001  22.038  1.00  0.00     0.048 A 
HETATM   17  C21 UNL     1      46.114  23.926  23.024  1.00  0.00     0.155 A 
HETATM   18  F1  UNL     1      46.860  25.053  22.964  1.00  0.00    -0.203 F 
HETATM   19  C22 UNL     1      45.308  23.713  24.099  1.00  0.00     0.170 A 
HETATM   20  F2  UNL     1      45.281  24.644  25.065  1.00  0.00    -0.202 F 
BRANCH  14  21
HETATM   21  N4  UNL     1      43.828  20.406  23.305  1.00  0.00    -0.383 N 
ATOM     22  H4  UNL     1      44.149  19.746  24.014  1.00  0.00     0.160 HD
BRANCH  21  23
HETATM   23  C15 UNL     1      42.710  19.971  22.507  1.00  0.00     0.109 C 
HETATM   24  C16 UNL     1      41.547  20.892  22.449  1.00  0.00     0.054 C 
HETATM   25  C17 UNL     1      40.357  19.975  22.282  1.00  0.00     0.234 C 
HETATM   26  N5  UNL     1      40.768  18.659  22.639  1.00  0.00    -0.073 N 
HETATM   27  C18 UNL     1      42.170  18.618  22.892  1.00  0.00     0.257 C 
ATOM     28  H52 UNL     1      40.232  18.297  23.426  1.00  0.00     0.277 HD
ATOM     29  H51 UNL     1      40.491  17.974  21.936  1.00  0.00     0.277 HD
ENDBRANCH  21  23
ENDBRANCH  14  21
ENDBRANCH   9  13
BRANCH   1  30
HETATM   30  N1  UNL     1      39.430  23.326  25.888  1.00  0.00    -0.354 N 
ATOM     31  H1  UNL     1      39.035  24.252  26.052  1.00  0.00     0.166 HD
BRANCH  30  32
HETATM   32  C4  UNL     1      38.909  22.688  24.769  1.00  0.00     0.066 C 
BRANCH  32  33
HETATM   33  C2  UNL     1      39.071  23.375  23.440  1.00  0.00     0.016 C 
HETATM   34  C1  UNL     1      39.098  24.880  23.746  1.00  0.00     0.015 C 
HETATM   35  C3  UNL     1      37.762  23.155  22.671  1.00  0.00     0.015 C 
ENDBRANCH  32  33
ENDBRANCH  30  32
ENDBRANCH   1  30
BRANCH   4  36
HETATM   36  O1  UNL     1      39.932  22.472  30.334  1.00  0.00    -0.319 OA
BRANCH  36  37
HETATM   37  C7  UNL     1      39.786  23.544  31.211  1.00  0.00     0.215 C 
BRANCH  37  38
HETATM   38  C8  UNL     1      38.369  23.575  31.740  1.00  0.00     0.072 C 
HETATM   39  C9  UNL     1      38.140  24.781  32.634  1.00  0.00     0.047 C 
HETATM   40  C10 UNL     1      37.348  23.606  30.652  1.00  0.00     0.047 C 
BRANCH  38  41
HETATM   41  O2  UNL     1      38.143  22.440  32.528  1.00  0.00    -0.388 OA
ATOM     42  H2  UNL     1      37.720  21.771  32.003  1.00  0.00     0.210 HD
ENDBRANCH  38  41
ENDBRANCH  37  38
ENDBRANCH  36  37
ENDBRANCH   4  36
TORSDOF 10
ENDMDL
MODEL 5
REMARK VINA RESULT: -7.578478397      3.543      5.500
REMARK  10 active torsions:
REMARK  status: ('A' for Active; 'I' for Inactive)
REMARK    1  A    between atoms: C2_2  and  C4_4 
REMARK    2  A    between atoms: C4_4  and  N1_5 
REMARK    3  A    between atoms: N1_5  and  C5_7 
REMARK    4  A    between atoms: C6_10  and  O1_11 
REMARK    5  A    between atoms: O1_11  and  C7_12 
REMARK    6  A    between atoms: C7_12  and  C8_13 
REMARK    7  A    between atoms: C8_13  and  O2_16 
REMARK    8  A    between atoms: C12_22  and  C13_23 
REMARK    9  A    between atoms: C14_24  and  N4_25 
REMARK   10  A    between atoms: N4_25  and  C15_27 
ROOT
HETATM    1  C5  UNL     1      41.964  20.053  23.579  1.00  0.00     0.138 A 
HETATM    2  N2  UNL     1      41.913  20.131  24.938  1.00  0.00    -0.306 N 
ATOM      3  H2  UNL     1      41.342  19.431  25.413  1.00  0.00     0.171 HD
HETATM    4  C6  UNL     1      42.522  21.016  25.706  1.00  0.00     0.226 A 
HETATM    5  N3  UNL     1      43.273  21.940  25.079  1.00  0.00    -0.314 N 
ATOM      6  H3  UNL     1      43.766  22.648  25.624  1.00  0.00     0.170 HD
HETATM    7  C11 UNL     1      43.379  21.935  23.719  1.00  0.00     0.110 A 
HETATM    8  S1  UNL     1      44.182  22.895  22.570  1.00  0.00    -0.051 SA
HETATM    9  C12 UNL     1      43.695  22.110  21.136  1.00  0.00     0.092 A 
HETATM   10  N6  UNL     1      42.932  21.138  21.635  1.00  0.00    -0.344 N 
ATOM     11  H6  UNL     1      42.485  20.477  21.000  1.00  0.00     0.167 HD
HETATM   12  C23 UNL     1      42.747  21.015  22.914  1.00  0.00     0.112 A 
ENDROOT
BRANCH   9  13
HETATM   13  C13 UNL     1      43.974  22.414  19.725  1.00  0.00     0.066 A 
HETATM   14  C14 UNL     1      45.162  22.140  19.128  1.00  0.00     0.044 A 
HETATM   15  C19 UNL     1      45.217  22.395  17.751  1.00  0.00     0.033 A 
HETATM   16  C20 UNL     1      44.161  22.892  17.024  1.00  0.00     0.048 A 
HETATM   17  C21 UNL     1      42.992  23.158  17.650  1.00  0.00     0.155 A 
HETATM   18  F1  UNL     1      41.924  23.648  16.980  1.00  0.00    -0.203 F 
HETATM   19  C22 UNL     1      42.893  22.923  18.986  1.00  0.00     0.170 A 
HETATM   20  F2  UNL     1      41.725  23.184  19.591  1.00  0.00    -0.202 F 
BRANCH  14  21
HETATM   21  N4  UNL     1      46.301  21.705  19.804  1.00  0.00    -0.383 N 
ATOM     22  H4  UNL     1      46.369  20.698  19.957  1.00  0.00     0.160 HD
BRANCH  21  23
HETATM   23  C15 UNL     1      47.394  22.491  20.316  1.00  0.00     0.109 C 
HETATM   24  C16 UNL     1      48.608  22.561  19.465  1.00  0.00     0.054 C 
HETATM   25  C17 UNL     1      49.744  22.707  20.451  1.00  0.00     0.234 C 
HETATM   26  N5  UNL     1      49.258  22.329  21.734  1.00  0.00    -0.073 N 
HETATM   27  C18 UNL     1      47.855  22.080  21.691  1.00  0.00     0.257 C 
ATOM     28  H52 UNL     1      49.770  21.533  22.113  1.00  0.00     0.277 HD
ATOM     29  H51 UNL     1      49.497  23.018  22.446  1.00  0.00     0.277 HD
ENDBRANCH  21  23
ENDBRANCH  14  21
ENDBRANCH   9  13
BRANCH   1  30
HETATM   30  N1  UNL     1      41.293  19.128  23.086  1.00  0.00    -0.354 N 
ATOM     31  H1  UNL     1      40.288  19.302  23.097  1.00  0.00     0.166 HD
BRANCH  30  32
HETATM   32  C4  UNL     1      41.641  17.907  22.523  1.00  0.00     0.066 C 
BRANCH  32  33
HETATM   33  C2  UNL     1      40.554  17.118  21.846  1.00  0.00     0.016 C 
HETATM   34  C1  UNL     1      41.155  16.629  20.519  1.00  0.00     0.015 C 
HETATM   35  C3  UNL     1      39.471  18.124  21.437  1.00  0.00     0.015 C 
ENDBRANCH  32  33
ENDBRANCH  30  32
ENDBRANCH   1  30
BRANCH   4  36
HETATM   36  O1  UNL     1      42.406  21.010  27.082  1.00  0.00    -0.319 OA
BRANCH  36  37
HETATM   37  C7  UNL     1      42.108  22.129  27.857  1.00  0.00     0.215 C 
BRANCH  37  38
HETATM   38  C8  UNL     1      40.772  21.929  28.539  1.00  0.00     0.072 C 
HETATM   39  C9  UNL     1      40.626  22.843  29.743  1.00  0.00     0.047 C 
HETATM   40  C10 UNL     1      39.617  22.178  27.628  1.00  0.00     0.047 C 
BRANCH  38  41
HETATM   41  O2  UNL     1      40.686  20.616  29.017  1.00  0.00    -0.388 OA
ATOM     42  H2  UNL     1      39.780  20.332  28.997  1.00  0.00     0.210 HD
ENDBRANCH  38  41
ENDBRANCH  37  38
ENDBRANCH  36  37
ENDBRANCH   4  36
TORSDOF 10
ENDMDL
