MODEL 1
REMARK VINA RESULT: -4.803816632      0.000      0.000
REMARK  0 active torsions:
REMARK  status: ('A' for Active; 'I' for Inactive)
ROOT
HETATM    1  N1  UNL     1      23.741  11.255 -17.721  1.00  0.00    -0.380 N 
ATOM      2  H11 UNL     1      24.398  11.674 -18.380  1.00  0.00     0.157 HD
ATOM      3  H12 UNL     1      24.167  10.819 -16.903  1.00  0.00     0.157 HD
HETATM    4  C1  UNL     1      22.449  11.304 -17.963  1.00  0.00     0.179 C 
HETATM    5  N2  UNL     1      21.542  10.724 -17.052  1.00  0.00    -0.248 N 
ATOM      6  H2  UNL     1      21.750  10.324 -16.138  1.00  0.00     0.182 HD
HETATM    7  S1  UNL     1      19.998  10.840 -17.826  1.00  0.00     0.327 S 
HETATM    8  O1  UNL     1      19.557   9.497 -18.336  1.00  0.00    -0.182 OA
HETATM    9  O2  UNL     1      18.980  11.496 -16.961  1.00  0.00    -0.182 OA
HETATM   10  N3  UNL     1      20.462  11.845 -19.153  1.00  0.00    -0.230 N 
ATOM     11  H3  UNL     1      19.845  12.295 -19.829  1.00  0.00     0.183 HD
HETATM   12  C2  UNL     1      21.854  11.914 -19.108  1.00  0.00     0.300 C 
HETATM   13  O3  UNL     1      22.529  12.487 -20.034  1.00  0.00    -0.263 OA
ENDROOT
TORSDOF 0
ENDMDL
MODEL 2
REMARK VINA RESULT: -4.783525453      1.986      2.822
REMARK  0 active torsions:
REMARK  status: ('A' for Active; 'I' for Inactive)
ROOT
HETATM    1  N1  UNL     1      23.921  11.304 -17.672  1.00  0.00    -0.380 N 
ATOM      2  H11 UNL     1      24.089  10.805 -16.798  1.00  0.00     0.157 HD
ATOM      3  H12 UNL     1      24.737  11.768 -18.071  1.00  0.00     0.157 HD
HETATM    4  C1  UNL     1      22.715  11.312 -18.199  1.00  0.00     0.179 C 
HETATM    5  N2  UNL     1      22.482  12.002 -19.408  1.00  0.00    -0.248 N 
ATOM      6  H2  UNL     1      23.172  12.449 -20.011  1.00  0.00     0.182 HD
HETATM    7  S1  UNL     1      20.770  11.923 -19.643  1.00  0.00     0.327 S 
HETATM    8  O1  UNL     1      20.132  13.253 -19.352  1.00  0.00    -0.182 OA
HETATM    9  O2  UNL     1      20.406  11.385 -20.981  1.00  0.00    -0.182 OA
HETATM   10  N3  UNL     1      20.398  10.808 -18.376  1.00  0.00    -0.230 N 
ATOM     11  H3  UNL     1      19.503  10.351 -18.202  1.00  0.00     0.183 HD
HETATM   12  C2  UNL     1      21.574  10.663 -17.641  1.00  0.00     0.300 C 
HETATM   13  O3  UNL     1      21.606   9.993 -16.549  1.00  0.00    -0.263 OA
ENDROOT
TORSDOF 0
ENDMDL
MODEL 3
REMARK VINA RESULT: -4.313704138      1.528      2.539
REMARK  0 active torsions:
REMARK  status: ('A' for Active; 'I' for Inactive)
ROOT
HETATM    1  N1  UNL     1      21.454  11.728 -21.271  1.00  0.00    -0.380 N 
ATOM      2  H11 UNL     1      22.132  12.236 -21.840  1.00  0.00     0.157 HD
ATOM      3  H12 UNL     1      20.641  11.374 -21.777  1.00  0.00     0.157 HD
HETATM    4  C1  UNL     1      21.666  11.572 -19.982  1.00  0.00     0.179 C 
HETATM    5  N2  UNL     1      20.729  10.870 -19.196  1.00  0.00    -0.248 N 
ATOM      6  H2  UNL     1      19.904  10.363 -19.517  1.00  0.00     0.182 HD
HETATM    7  S1  UNL     1      21.284  11.058 -17.567  1.00  0.00     0.327 S 
HETATM    8  O1  UNL     1      20.418  12.033 -16.820  1.00  0.00    -0.182 OA
HETATM    9  O2  UNL     1      21.429   9.754 -16.865  1.00  0.00    -0.182 OA
HETATM   10  N3  UNL     1      22.815  11.781 -17.910  1.00  0.00    -0.230 N 
ATOM     11  H3  UNL     1      23.572  11.960 -17.250  1.00  0.00     0.183 HD
HETATM   12  C2  UNL     1      22.803  12.067 -19.275  1.00  0.00     0.300 C 
HETATM   13  O3  UNL     1      23.750  12.726 -19.832  1.00  0.00    -0.263 OA
ENDROOT
TORSDOF 0
ENDMDL
MODEL 4
REMARK VINA RESULT: -4.114656521      1.330      2.293
REMARK  0 active torsions:
REMARK  status: ('A' for Active; 'I' for Inactive)
ROOT
HETATM    1  N1  UNL     1      22.648  12.165 -20.083  1.00  0.00    -0.380 N 
ATOM      2  H11 UNL     1      23.649  12.321 -19.963  1.00  0.00     0.157 HD
ATOM      3  H12 UNL     1      22.253  12.528 -20.951  1.00  0.00     0.157 HD
HETATM    4  C1  UNL     1      21.966  11.535 -19.151  1.00  0.00     0.179 C 
HETATM    5  N2  UNL     1      20.582  11.320 -19.317  1.00  0.00    -0.248 N 
ATOM      6  H2  UNL     1      20.017  11.519 -20.142  1.00  0.00     0.182 HD
HETATM    7  S1  UNL     1      20.052  10.645 -17.814  1.00  0.00     0.327 S 
HETATM    8  O1  UNL     1      19.283  11.661 -17.017  1.00  0.00    -0.182 OA
HETATM    9  O2  UNL     1      19.311   9.368 -17.997  1.00  0.00    -0.182 OA
HETATM   10  N3  UNL     1      21.604  10.394 -17.096  1.00  0.00    -0.230 N 
ATOM     11  H3  UNL     1      21.808   9.886 -16.235  1.00  0.00     0.183 HD
HETATM   12  C2  UNL     1      22.518  11.027 -17.937  1.00  0.00     0.300 C 
HETATM   13  O3  UNL     1      23.756  11.135 -17.624  1.00  0.00    -0.263 OA
ENDROOT
TORSDOF 0
ENDMDL
MODEL 5
REMARK VINA RESULT: -4.010943596      2.294      2.469
REMARK  0 active torsions:
REMARK  status: ('A' for Active; 'I' for Inactive)
ROOT
HETATM    1  N1  UNL     1      21.581  10.236 -16.699  1.00  0.00    -0.380 N 
ATOM      2  H11 UNL     1      22.478  10.045 -16.252  1.00  0.00     0.157 HD
ATOM      3  H12 UNL     1      20.766   9.851 -16.220  1.00  0.00     0.157 HD
HETATM    4  C1  UNL     1      21.541  10.933 -17.814  1.00  0.00     0.179 C 
HETATM    5  N2  UNL     1      20.301  11.196 -18.433  1.00  0.00    -0.248 N 
ATOM      6  H2  UNL     1      19.370  10.984 -18.075  1.00  0.00     0.182 HD
HETATM    7  S1  UNL     1      20.705  11.957 -19.934  1.00  0.00     0.327 S 
HETATM    8  O1  UNL     1      20.501  11.009 -21.082  1.00  0.00    -0.182 OA
HETATM    9  O2  UNL     1      19.998  13.254 -20.119  1.00  0.00    -0.182 OA
HETATM   10  N3  UNL     1      22.395  12.177 -19.652  1.00  0.00    -0.230 N 
ATOM     11  H3  UNL     1      23.049  12.713 -20.222  1.00  0.00     0.183 HD
HETATM   12  C2  UNL     1      22.680  11.471 -18.484  1.00  0.00     0.300 C 
HETATM   13  O3  UNL     1      23.881  11.328 -18.062  1.00  0.00    -0.263 OA
ENDROOT
TORSDOF 0
ENDMDL
