MODEL 1
REMARK VINA RESULT: -5.379412367      0.000      0.000
REMARK  0 active torsions:
REMARK  status: ('A' for Active; 'I' for Inactive)
ROOT
HETATM    1  N1  UNL     1      20.671  12.828 -20.942  1.00  0.00    -0.080 NA
HETATM    2  C1  UNL     1      20.929  12.193 -19.695  1.00  0.00     0.150 A 
HETATM    3  N2  UNL     1      19.962  11.811 -18.844  1.00  0.00    -0.295 N 
ATOM      4  H2  UNL     1      18.991  11.986 -19.106  1.00  0.00     0.172 HD
HETATM    5  C2  UNL     1      20.207  11.210 -17.665  1.00  0.00     0.328 A 
HETATM    6  O1  UNL     1      19.261  10.871 -16.901  1.00  0.00    -0.247 OA
HETATM    7  N3  UNL     1      21.458  10.945 -17.251  1.00  0.00    -0.274 N 
ATOM      8  H3  UNL     1      21.629  10.490 -16.355  1.00  0.00     0.173 HD
HETATM    9  C3  UNL     1      22.470  11.298 -18.050  1.00  0.00     0.277 A 
HETATM   10  O2  UNL     1      23.668  11.059 -17.682  1.00  0.00    -0.266 OA
HETATM   11  C4  UNL     1      22.234  11.917 -19.264  1.00  0.00     0.155 A 
HETATM   12  N4  UNL     1      23.270  12.306 -20.135  1.00  0.00    -0.093 NA
ENDROOT
TORSDOF 0
ENDMDL
MODEL 2
REMARK VINA RESULT: -5.355209703      1.533      2.675
REMARK  0 active torsions:
REMARK  status: ('A' for Active; 'I' for Inactive)
ROOT
HETATM    1  N1  UNL     1      23.768  12.488 -19.834  1.00  0.00    -0.080 NA
HETATM    2  C1  UNL     1      22.666  11.833 -19.214  1.00  0.00     0.150 A 
HETATM    3  N2  UNL     1      22.758  11.176 -18.045  1.00  0.00    -0.295 N 
ATOM      4  H2  UNL     1      23.664  11.145 -17.577  1.00  0.00     0.172 HD
HETATM    5  C2  UNL     1      21.716  10.558 -17.459  1.00  0.00     0.328 A 
HETATM    6  O1  UNL     1      21.854   9.954 -16.360  1.00  0.00    -0.247 OA
HETATM    7  N3  UNL     1      20.491  10.555 -18.013  1.00  0.00    -0.274 N 
ATOM      8  H3  UNL     1      19.710  10.082 -17.559  1.00  0.00     0.173 HD
HETATM    9  C3  UNL     1      20.328  11.191 -19.178  1.00  0.00     0.277 A 
HETATM   10  O2  UNL     1      19.177  11.205 -19.727  1.00  0.00    -0.266 OA
HETATM   11  C4  UNL     1      21.390  11.831 -19.792  1.00  0.00     0.155 A 
HETATM   12  N4  UNL     1      21.263  12.512 -21.018  1.00  0.00    -0.093 NA
ENDROOT
TORSDOF 0
ENDMDL
MODEL 3
REMARK VINA RESULT: -5.243149406      1.685      1.946
REMARK  0 active torsions:
REMARK  status: ('A' for Active; 'I' for Inactive)
ROOT
HETATM    1  N1  UNL     1      18.965  11.131 -19.937  1.00  0.00    -0.080 NA
HETATM    2  C1  UNL     1      20.225  11.170 -19.276  1.00  0.00     0.150 A 
HETATM    3  N2  UNL     1      20.470  10.546 -18.110  1.00  0.00    -0.295 N 
ATOM      4  H2  UNL     1      19.712  10.018 -17.677  1.00  0.00     0.172 HD
HETATM    5  C2  UNL     1      21.661  10.583 -17.486  1.00  0.00     0.328 A 
HETATM    6  O1  UNL     1      21.839   9.980 -16.392  1.00  0.00    -0.247 OA
HETATM    7  N3  UNL     1      22.707  11.257 -17.995  1.00  0.00    -0.274 N 
ATOM      8  H3  UNL     1      23.605  11.277 -17.511  1.00  0.00     0.173 HD
HETATM    9  C3  UNL     1      22.534  11.901 -19.154  1.00  0.00     0.277 A 
HETATM   10  O2  UNL     1      23.509  12.548 -19.661  1.00  0.00    -0.266 OA
HETATM   11  C4  UNL     1      21.315  11.873 -19.807  1.00  0.00     0.155 A 
HETATM   12  N4  UNL     1      21.089  12.536 -21.028  1.00  0.00    -0.093 NA
ENDROOT
TORSDOF 0
ENDMDL
MODEL 4
REMARK VINA RESULT: -5.170260002      1.720      2.635
REMARK  0 active torsions:
REMARK  status: ('A' for Active; 'I' for Inactive)
ROOT
HETATM    1  N1  UNL     1      23.501  10.858 -17.484  1.00  0.00    -0.080 NA
HETATM    2  C1  UNL     1      22.189  11.224 -17.901  1.00  0.00     0.150 A 
HETATM    3  N2  UNL     1      21.081  10.933 -17.199  1.00  0.00    -0.295 N 
ATOM      4  H2  UNL     1      21.185  10.423 -16.321  1.00  0.00     0.172 HD
HETATM    5  C2  UNL     1      19.842  11.279 -17.593  1.00  0.00     0.328 A 
HETATM    6  O1  UNL     1      18.832  10.981 -16.896  1.00  0.00    -0.247 OA
HETATM    7  N3  UNL     1      19.624  11.952 -18.736  1.00  0.00    -0.274 N 
ATOM      8  H3  UNL     1      18.679  12.207 -19.024  1.00  0.00     0.173 HD
HETATM    9  C3  UNL     1      20.684  12.275 -19.485  1.00  0.00     0.277 A 
HETATM   10  O2  UNL     1      20.507  12.913 -20.575  1.00  0.00    -0.266 OA
HETATM   11  C4  UNL     1      21.964  11.925 -19.093  1.00  0.00     0.155 A 
HETATM   12  N4  UNL     1      23.107  12.245 -19.851  1.00  0.00    -0.093 NA
ENDROOT
TORSDOF 0
ENDMDL
MODEL 5
REMARK VINA RESULT: -5.120678679      1.667      3.031
REMARK  0 active torsions:
REMARK  status: ('A' for Active; 'I' for Inactive)
ROOT
HETATM    1  N1  UNL     1      18.830  12.448 -19.218  1.00  0.00    -0.080 NA
HETATM    2  C1  UNL     1      20.133  11.999 -18.860  1.00  0.00     0.150 A 
HETATM    3  N2  UNL     1      21.249  12.373 -19.508  1.00  0.00    -0.295 N 
ATOM      4  H2  UNL     1      21.158  13.013 -20.298  1.00  0.00     0.172 HD
HETATM    5  C2  UNL     1      22.480  11.948 -19.168  1.00  0.00     0.328 A 
HETATM    6  O1  UNL     1      23.498  12.330 -19.811  1.00  0.00    -0.247 OA
HETATM    7  N3  UNL     1      22.681  11.106 -18.140  1.00  0.00    -0.274 N 
ATOM      8  H3  UNL     1      23.619  10.792 -17.894  1.00  0.00     0.173 HD
HETATM    9  C3  UNL     1      21.612  10.694 -17.450  1.00  0.00     0.277 A 
HETATM   10  O2  UNL     1      21.773   9.894 -16.469  1.00  0.00    -0.266 OA
HETATM   11  C4  UNL     1      20.341  11.121 -17.788  1.00  0.00     0.155 A 
HETATM   12  N4  UNL     1      19.189  10.711 -17.089  1.00  0.00    -0.093 NA
ENDROOT
TORSDOF 0
ENDMDL
