MODEL 1
REMARK VINA RESULT: -4.593045419      0.000      0.000
REMARK  1 active torsions:
REMARK  status: ('A' for Active; 'I' for Inactive)
REMARK    1  A    between atoms: N1_1  and  C1_4 
ROOT
HETATM    1  C1  UNL     1      19.883  10.912 -19.080  1.00  0.00     0.151 A 
HETATM    2  N2  UNL     1      20.371  10.378 -17.951  1.00  0.00    -0.289 N 
ATOM      3  H2  UNL     1      19.731   9.807 -17.399  1.00  0.00     0.172 HD
HETATM    4  C2  UNL     1      21.601  10.518 -17.481  1.00  0.00     0.329 A 
HETATM    5  O1  UNL     1      21.862   9.919 -16.376  1.00  0.00    -0.247 OA
HETATM    6  N3  UNL     1      22.606  11.212 -18.023  1.00  0.00    -0.269 N 
ATOM      7  H3  UNL     1      23.495  11.214 -17.524  1.00  0.00     0.174 HD
HETATM    8  C3  UNL     1      22.542  11.911 -19.176  1.00  0.00     0.295 A 
HETATM    9  O2  UNL     1      23.527  12.546 -19.636  1.00  0.00    -0.259 OA
HETATM   10  S1  UNL     1      21.020  11.849 -19.936  1.00  0.00     0.007 SA
ENDROOT
BRANCH   1  11
HETATM   11  N1  UNL     1      18.653  10.725 -19.474  1.00  0.00    -0.379 N 
ATOM     12  H12 UNL     1      18.164   9.832 -19.402  1.00  0.00     0.158 HD
ATOM     13  H11 UNL     1      18.087  11.466 -19.887  1.00  0.00     0.158 HD
ENDBRANCH   1  11
TORSDOF 1
ENDMDL
MODEL 2
REMARK VINA RESULT: -4.498733062      1.249      2.742
REMARK  1 active torsions:
REMARK  status: ('A' for Active; 'I' for Inactive)
REMARK    1  A    between atoms: N1_1  and  C1_4 
ROOT
HETATM    1  C1  UNL     1      20.136  11.515 -19.640  1.00  0.00     0.151 A 
HETATM    2  N2  UNL     1      21.335  12.047 -19.921  1.00  0.00    -0.289 N 
ATOM      3  H2  UNL     1      21.399  12.613 -20.767  1.00  0.00     0.172 HD
HETATM    4  C2  UNL     1      22.443  11.910 -19.209  1.00  0.00     0.329 A 
HETATM    5  O1  UNL     1      23.487  12.506 -19.658  1.00  0.00    -0.247 OA
HETATM    6  N3  UNL     1      22.602  11.224 -18.074  1.00  0.00    -0.269 N 
ATOM      7  H3  UNL     1      23.531  11.224 -17.654  1.00  0.00     0.174 HD
HETATM    8  C3  UNL     1      21.636  10.530 -17.437  1.00  0.00     0.295 A 
HETATM    9  O2  UNL     1      21.849   9.901 -16.367  1.00  0.00    -0.259 OA
HETATM   10  S1  UNL     1      20.121  10.588 -18.212  1.00  0.00     0.007 SA
ENDROOT
BRANCH   1  11
HETATM   11  N1  UNL     1      19.088  11.699 -20.398  1.00  0.00    -0.379 N 
ATOM     12  H12 UNL     1      18.973  11.274 -21.318  1.00  0.00     0.158 HD
ATOM     13  H11 UNL     1      18.303  12.288 -20.119  1.00  0.00     0.158 HD
ENDBRANCH   1  11
TORSDOF 1
ENDMDL
MODEL 3
REMARK VINA RESULT: -4.148040725      2.031      2.996
REMARK  1 active torsions:
REMARK  status: ('A' for Active; 'I' for Inactive)
REMARK    1  A    between atoms: N1_1  and  C1_4 
ROOT
HETATM    1  C1  UNL     1      22.222  11.284 -17.870  1.00  0.00     0.151 A 
HETATM    2  N2  UNL     1      21.063  11.082 -17.228  1.00  0.00    -0.289 N 
ATOM      3  H2  UNL     1      21.117  10.652 -16.305  1.00  0.00     0.172 HD
HETATM    4  C2  UNL     1      19.853  11.385 -17.674  1.00  0.00     0.329 A 
HETATM    5  O1  UNL     1      18.871  11.106 -16.896  1.00  0.00    -0.247 OA
HETATM    6  N3  UNL     1      19.534  11.950 -18.842  1.00  0.00    -0.269 N 
ATOM      7  H3  UNL     1      18.544  12.115 -19.026  1.00  0.00     0.174 HD
HETATM    8  C3  UNL     1      20.410  12.320 -19.798  1.00  0.00     0.295 A 
HETATM    9  O2  UNL     1      20.045  12.849 -20.881  1.00  0.00    -0.259 OA
HETATM   10  S1  UNL     1      22.036  12.006 -19.402  1.00  0.00     0.007 SA
ENDROOT
BRANCH   1  11
HETATM   11  N1  UNL     1      23.378  10.955 -17.358  1.00  0.00    -0.379 N 
ATOM     12  H12 UNL     1      23.521  10.743 -16.370  1.00  0.00     0.158 HD
ATOM     13  H11 UNL     1      24.228  10.885 -17.917  1.00  0.00     0.158 HD
ENDBRANCH   1  11
TORSDOF 1
ENDMDL
MODEL 4
REMARK VINA RESULT: -4.123652308      2.197      4.001
REMARK  1 active torsions:
REMARK  status: ('A' for Active; 'I' for Inactive)
REMARK    1  A    between atoms: N1_1  and  C1_4 
ROOT
HETATM    1  C1  UNL     1      22.431  11.406 -18.101  1.00  0.00     0.151 A 
HETATM    2  N2  UNL     1      21.911  12.146 -19.090  1.00  0.00    -0.289 N 
ATOM      3  H2  UNL     1      22.572  12.654 -19.679  1.00  0.00     0.172 HD
HETATM    4  C2  UNL     1      20.626  12.284 -19.379  1.00  0.00     0.329 A 
HETATM    5  O1  UNL     1      20.343  13.045 -20.374  1.00  0.00    -0.247 OA
HETATM    6  N3  UNL     1      19.587  11.722 -18.756  1.00  0.00    -0.269 N 
ATOM      7  H3  UNL     1      18.656  11.938 -19.113  1.00  0.00     0.174 HD
HETATM    8  C3  UNL     1      19.666  10.894 -17.693  1.00  0.00     0.295 A 
HETATM    9  O2  UNL     1      18.646  10.396 -17.149  1.00  0.00    -0.259 OA
HETATM   10  S1  UNL     1      21.258  10.594 -17.170  1.00  0.00     0.007 SA
ENDROOT
BRANCH   1  11
HETATM   11  N1  UNL     1      23.716  11.322 -17.882  1.00  0.00    -0.379 N 
ATOM     12  H12 UNL     1      24.195  10.454 -17.642  1.00  0.00     0.158 HD
ATOM     13  H11 UNL     1      24.337  12.129 -17.938  1.00  0.00     0.158 HD
ENDBRANCH   1  11
TORSDOF 1
ENDMDL
MODEL 5
REMARK VINA RESULT: -4.112612318      2.315      3.358
REMARK  1 active torsions:
REMARK  status: ('A' for Active; 'I' for Inactive)
REMARK    1  A    between atoms: N1_1  and  C1_4 
ROOT
HETATM    1  C1  UNL     1      21.702  10.977 -17.912  1.00  0.00     0.151 A 
HETATM    2  N2  UNL     1      22.712  11.565 -18.568  1.00  0.00    -0.289 N 
ATOM      3  H2  UNL     1      23.591  11.670 -18.061  1.00  0.00     0.172 HD
HETATM    4  C2  UNL     1      22.684  12.024 -19.811  1.00  0.00     0.329 A 
HETATM    5  O1  UNL     1      23.768  12.554 -20.249  1.00  0.00    -0.247 OA
HETATM    6  N3  UNL     1      21.656  11.999 -20.664  1.00  0.00    -0.269 N 
ATOM      7  H3  UNL     1      21.808  12.399 -21.589  1.00  0.00     0.174 HD
HETATM    8  C3  UNL     1      20.434  11.489 -20.403  1.00  0.00     0.295 A 
HETATM    9  O2  UNL     1      19.505  11.495 -21.252  1.00  0.00    -0.259 OA
HETATM   10  S1  UNL     1      20.277  10.844 -18.835  1.00  0.00     0.007 SA
ENDROOT
BRANCH   1  11
HETATM   11  N1  UNL     1      21.813  10.551 -16.683  1.00  0.00    -0.379 N 
ATOM     12  H12 UNL     1      21.725  11.153 -15.864  1.00  0.00     0.158 HD
ATOM     13  H11 UNL     1      21.997   9.575 -16.453  1.00  0.00     0.158 HD
ENDBRANCH   1  11
TORSDOF 1
ENDMDL
