MODEL 1
REMARK VINA RESULT: -4.832594803      0.000      0.000
REMARK  1 active torsions:
REMARK  status: ('A' for Active; 'I' for Inactive)
REMARK    1  A    between atoms: N1_1  and  C1_4 
ROOT
HETATM    1  C1  UNL     1      22.844  12.173 -20.618  1.00  0.00     0.131 A 
HETATM    2  N2  UNL     1      21.844  12.149 -21.492  1.00  0.00    -0.337 N 
ATOM      3  H2  UNL     1      21.997  12.441 -22.458  1.00  0.00     0.168 HD
HETATM    4  C2  UNL     1      20.625  11.736 -21.092  1.00  0.00     0.182 A 
HETATM    5  N3  UNL     1      20.373  11.338 -19.816  1.00  0.00    -0.346 N 
ATOM      6  H3  UNL     1      19.435  11.033 -19.555  1.00  0.00     0.167 HD
HETATM    7  C3  UNL     1      21.353  11.344 -18.899  1.00  0.00     0.135 A 
HETATM    8  C4  UNL     1      21.442  11.017 -17.567  1.00  0.00     0.289 A 
HETATM    9  O1  UNL     1      20.500  10.585 -16.828  1.00  0.00    -0.264 OA
HETATM   10  N4  UNL     1      22.711  11.244 -17.209  1.00  0.00    -0.264 N 
ATOM     11  H4  UNL     1      23.087  11.094 -16.272  1.00  0.00     0.190 HD
HETATM   12  N5  UNL     1      23.412  11.692 -18.243  1.00  0.00    -0.292 N 
ATOM     13  H5  UNL     1      24.402  11.937 -18.225  1.00  0.00     0.187 HD
HETATM   14  C5  UNL     1      22.607  11.772 -19.321  1.00  0.00     0.124 A 
ENDROOT
BRANCH   1  15
HETATM   15  N1  UNL     1      24.028  12.559 -20.950  1.00  0.00    -0.383 N 
ATOM     16  H12 UNL     1      24.763  11.863 -21.072  1.00  0.00     0.157 HD
ATOM     17  H11 UNL     1      24.251  13.544 -21.096  1.00  0.00     0.157 HD
ENDBRANCH   1  15
TORSDOF 1
ENDMDL
MODEL 2
REMARK VINA RESULT: -4.798768785      1.983      3.134
REMARK  1 active torsions:
REMARK  status: ('A' for Active; 'I' for Inactive)
REMARK    1  A    between atoms: N1_1  and  C1_4 
ROOT
HETATM    1  C1  UNL     1      20.005  10.623 -18.606  1.00  0.00     0.131 A 
HETATM    2  N2  UNL     1      19.305  10.757 -19.727  1.00  0.00    -0.337 N 
ATOM      3  H2  UNL     1      18.352  10.396 -19.785  1.00  0.00     0.168 HD
HETATM    4  C2  UNL     1      19.864  11.373 -20.787  1.00  0.00     0.182 A 
HETATM    5  N3  UNL     1      21.130  11.869 -20.757  1.00  0.00    -0.346 N 
ATOM      6  H3  UNL     1      21.515  12.328 -21.583  1.00  0.00     0.167 HD
HETATM    7  C3  UNL     1      21.874  11.758 -19.647  1.00  0.00     0.135 A 
HETATM    8  C4  UNL     1      23.146  12.135 -19.284  1.00  0.00     0.289 A 
HETATM    9  O1  UNL     1      23.992  12.744 -20.014  1.00  0.00    -0.264 OA
HETATM   10  N4  UNL     1      23.311  11.733 -18.019  1.00  0.00    -0.264 N 
ATOM     11  H4  UNL     1      24.160  11.871 -17.471  1.00  0.00     0.190 HD
HETATM   12  N5  UNL     1      22.214  11.130 -17.577  1.00  0.00    -0.292 N 
ATOM     13  H5  UNL     1      22.090  10.737 -16.644  1.00  0.00     0.187 HD
HETATM   14  C5  UNL     1      21.289  11.121 -18.558  1.00  0.00     0.124 A 
ENDROOT
BRANCH   1  15
HETATM   15  N1  UNL     1      19.517  10.043 -17.564  1.00  0.00    -0.383 N 
ATOM     16  H12 UNL     1      19.096  10.611 -16.829  1.00  0.00     0.157 HD
ATOM     17  H11 UNL     1      19.538   9.029 -17.454  1.00  0.00     0.157 HD
ENDBRANCH   1  15
TORSDOF 1
ENDMDL
MODEL 3
REMARK VINA RESULT: -4.667584232      1.967      3.846
REMARK  1 active torsions:
REMARK  status: ('A' for Active; 'I' for Inactive)
REMARK    1  A    between atoms: N1_1  and  C1_4 
ROOT
HETATM    1  C1  UNL     1      21.980  10.796 -17.627  1.00  0.00     0.131 A 
HETATM    2  N2  UNL     1      23.256  11.156 -17.547  1.00  0.00    -0.337 N 
ATOM      3  H2  UNL     1      23.810  10.910 -16.726  1.00  0.00     0.168 HD
HETATM    4  C2  UNL     1      23.813  11.850 -18.560  1.00  0.00     0.182 A 
HETATM    5  N3  UNL     1      23.115  12.200 -19.673  1.00  0.00    -0.346 N 
ATOM      6  H3  UNL     1      23.575  12.726 -20.417  1.00  0.00     0.167 HD
HETATM    7  C3  UNL     1      21.824  11.857 -19.798  1.00  0.00     0.135 A 
HETATM    8  C4  UNL     1      20.855  12.042 -20.757  1.00  0.00     0.289 A 
HETATM    9  O1  UNL     1      20.993  12.653 -21.865  1.00  0.00    -0.264 OA
HETATM   10  N4  UNL     1      19.748  11.455 -20.289  1.00  0.00    -0.264 N 
ATOM     11  H4  UNL     1      18.854  11.425 -20.780  1.00  0.00     0.190 HD
HETATM   12  N5  UNL     1      19.975  10.916 -19.097  1.00  0.00    -0.292 N 
ATOM     13  H5  UNL     1      19.289  10.412 -18.536  1.00  0.00     0.187 HD
HETATM   14  C5  UNL     1      21.258  11.142 -18.749  1.00  0.00     0.124 A 
ENDROOT
BRANCH   1  15
HETATM   15  N1  UNL     1      21.401  10.132 -16.687  1.00  0.00    -0.383 N 
ATOM     16  H12 UNL     1      21.955   9.800 -15.898  1.00  0.00     0.157 HD
ATOM     17  H11 UNL     1      20.401   9.929 -16.709  1.00  0.00     0.157 HD
ENDBRANCH   1  15
TORSDOF 1
ENDMDL
MODEL 4
REMARK VINA RESULT: -4.483818058      2.309      3.574
REMARK  1 active torsions:
REMARK  status: ('A' for Active; 'I' for Inactive)
REMARK    1  A    between atoms: N1_1  and  C1_4 
ROOT
HETATM    1  C1  UNL     1      18.794  11.650 -17.927  1.00  0.00     0.131 A 
HETATM    2  N2  UNL     1      18.148  12.174 -18.963  1.00  0.00    -0.337 N 
ATOM      3  H2  UNL     1      17.128  12.176 -18.987  1.00  0.00     0.168 HD
HETATM    4  C2  UNL     1      18.853  12.704 -19.983  1.00  0.00     0.182 A 
HETATM    5  N3  UNL     1      20.213  12.724 -19.996  1.00  0.00    -0.346 N 
ATOM      6  H3  UNL     1      20.707  13.135 -20.788  1.00  0.00     0.167 HD
HETATM    7  C3  UNL     1      20.907  12.207 -18.971  1.00  0.00     0.135 A 
HETATM    8  C4  UNL     1      22.242  12.067 -18.670  1.00  0.00     0.289 A 
HETATM    9  O1  UNL     1      23.223  12.445 -19.387  1.00  0.00    -0.264 OA
HETATM   10  N4  UNL     1      22.296  11.458 -17.480  1.00  0.00    -0.264 N 
ATOM     11  H4  UNL     1      23.157  11.216 -16.990  1.00  0.00     0.190 HD
HETATM   12  N5  UNL     1      21.072  11.214 -17.026  1.00  0.00    -0.292 N 
ATOM     13  H5  UNL     1      20.850  10.759 -16.141  1.00  0.00     0.187 HD
HETATM   14  C5  UNL     1      20.172  11.663 -17.923  1.00  0.00     0.124 A 
ENDROOT
BRANCH   1  15
HETATM   15  N1  UNL     1      18.167  11.132 -16.927  1.00  0.00    -0.383 N 
ATOM     16  H12 UNL     1      17.150  11.070 -16.956  1.00  0.00     0.157 HD
ATOM     17  H11 UNL     1      18.661  10.781 -16.106  1.00  0.00     0.157 HD
ENDBRANCH   1  15
TORSDOF 1
ENDMDL
MODEL 5
REMARK VINA RESULT: -4.481840247      2.059      3.317
REMARK  1 active torsions:
REMARK  status: ('A' for Active; 'I' for Inactive)
REMARK    1  A    between atoms: N1_1  and  C1_4 
ROOT
HETATM    1  C1  UNL     1      21.220  10.739 -17.639  1.00  0.00     0.131 A 
HETATM    2  N2  UNL     1      20.000  10.493 -18.105  1.00  0.00    -0.337 N 
ATOM      3  H2  UNL     1      19.303  10.043 -17.511  1.00  0.00     0.168 HD
HETATM    4  C2  UNL     1      19.691  10.843 -19.369  1.00  0.00     0.182 A 
HETATM    5  N3  UNL     1      20.586  11.445 -20.198  1.00  0.00    -0.346 N 
ATOM      6  H3  UNL     1      20.311  11.693 -21.148  1.00  0.00     0.167 HD
HETATM    7  C3  UNL     1      21.829  11.713 -19.771  1.00  0.00     0.135 A 
HETATM    8  C4  UNL     1      22.946  12.292 -20.326  1.00  0.00     0.289 A 
HETATM    9  O1  UNL     1      23.052  12.753 -21.507  1.00  0.00    -0.264 OA
HETATM   10  N4  UNL     1      23.890  12.271 -19.378  1.00  0.00    -0.264 N 
ATOM     11  H4  UNL     1      24.837  12.633 -19.493  1.00  0.00     0.190 HD
HETATM   12  N5  UNL     1      23.422  11.713 -18.268  1.00  0.00    -0.292 N 
ATOM     13  H5  UNL     1      23.948  11.582 -17.405  1.00  0.00     0.187 HD
HETATM   14  C5  UNL     1      22.139  11.348 -18.465  1.00  0.00     0.124 A 
ENDROOT
BRANCH   1  15
HETATM   15  N1  UNL     1      21.565  10.424 -16.438  1.00  0.00    -0.383 N 
ATOM     16  H12 UNL     1      21.979  11.135 -15.837  1.00  0.00     0.157 HD
ATOM     17  H11 UNL     1      21.436   9.480 -16.071  1.00  0.00     0.157 HD
ENDBRANCH   1  15
TORSDOF 1
ENDMDL
