MODEL 1
REMARK VINA RESULT: -4.390888887      0.000      0.000
REMARK  2 active torsions:
REMARK  status: ('A' for Active; 'I' for Inactive)
REMARK    1  A    between atoms: N1_1  and  N2_4 
REMARK    2  A    between atoms: N2_4  and  C1_6 
ROOT
HETATM    1  C1  UNL     1      21.503  10.867 -17.835  1.00  0.00     0.182 A 
HETATM    2  N3  UNL     1      22.754  10.950 -17.389  1.00  0.00    -0.275 N 
ATOM      3  H3  UNL     1      23.012  10.521 -16.501  1.00  0.00     0.189 HD
HETATM    4  N4  UNL     1      23.627  11.572 -18.080  1.00  0.00    -0.258 N 
ATOM      5  H4  UNL     1      24.591  11.646 -17.755  1.00  0.00     0.191 HD
HETATM    6  C2  UNL     1      23.253  12.124 -19.241  1.00  0.00     0.305 A 
HETATM    7  O1  UNL     1      23.966  12.784 -20.078  1.00  0.00    -0.258 OA
HETATM    8  S1  UNL     1      21.593  11.720 -19.312  1.00  0.00     0.011 SA
ENDROOT
BRANCH   1   9
HETATM    9  N2  UNL     1      20.477  10.270 -17.261  1.00  0.00    -0.285 N 
ATOM     10  H2  UNL     1      20.588   9.446 -16.671  1.00  0.00     0.188 HD
BRANCH   9  11
HETATM   11  N1  UNL     1      19.232  10.838 -17.511  1.00  0.00    -0.343 N 
ATOM     12  H12 UNL     1      19.093  11.488 -18.283  1.00  0.00     0.176 HD
ATOM     13  H11 UNL     1      18.484  10.560 -16.875  1.00  0.00     0.176 HD
ENDBRANCH   9  11
ENDBRANCH   1   9
TORSDOF 2
ENDMDL
MODEL 2
REMARK VINA RESULT: -4.254957181      2.380      3.614
REMARK  2 active torsions:
REMARK  status: ('A' for Active; 'I' for Inactive)
REMARK    1  A    between atoms: N1_1  and  N2_4 
REMARK    2  A    between atoms: N2_4  and  C1_6 
ROOT
HETATM    1  C1  UNL     1      23.167  11.994 -19.264  1.00  0.00     0.182 A 
HETATM    2  N3  UNL     1      23.581  11.495 -18.102  1.00  0.00    -0.275 N 
ATOM      3  H3  UNL     1      24.575  11.472 -17.877  1.00  0.00     0.189 HD
HETATM    4  N4  UNL     1      22.724  11.045 -17.272  1.00  0.00    -0.258 N 
ATOM      5  H4  UNL     1      23.020  10.659 -16.376  1.00  0.00     0.191 HD
HETATM    6  C2  UNL     1      21.427  11.090 -17.599  1.00  0.00     0.305 A 
HETATM    7  O1  UNL     1      20.415  10.695 -16.916  1.00  0.00    -0.258 OA
HETATM    8  S1  UNL     1      21.474  11.805 -19.151  1.00  0.00     0.011 SA
ENDROOT
BRANCH   1   9
HETATM    9  N2  UNL     1      23.903  12.499 -20.236  1.00  0.00    -0.285 N 
ATOM     10  H2  UNL     1      24.814  12.922 -20.062  1.00  0.00     0.188 HD
BRANCH   9  11
HETATM   11  N1  UNL     1      23.356  12.417 -21.511  1.00  0.00    -0.343 N 
ATOM     12  H12 UNL     1      23.834  11.917 -22.260  1.00  0.00     0.176 HD
ATOM     13  H11 UNL     1      22.458  12.884 -21.639  1.00  0.00     0.176 HD
ENDBRANCH   9  11
ENDBRANCH   1   9
TORSDOF 2
ENDMDL
MODEL 3
REMARK VINA RESULT: -4.076089285      0.895      1.004
REMARK  2 active torsions:
REMARK  status: ('A' for Active; 'I' for Inactive)
REMARK    1  A    between atoms: N1_1  and  N2_4 
REMARK    2  A    between atoms: N2_4  and  C1_6 
ROOT
HETATM    1  C1  UNL     1      20.627  10.638 -17.785  1.00  0.00     0.182 A 
HETATM    2  N3  UNL     1      21.716  10.464 -17.041  1.00  0.00    -0.275 N 
ATOM      3  H3  UNL     1      21.676   9.891 -16.198  1.00  0.00     0.189 HD
HETATM    4  N4  UNL     1      22.810  11.018 -17.390  1.00  0.00    -0.258 N 
ATOM      5  H4  UNL     1      23.656  10.897 -16.833  1.00  0.00     0.191 HD
HETATM    6  C2  UNL     1      22.826  11.763 -18.502  1.00  0.00     0.305 A 
HETATM    7  O1  UNL     1      23.810  12.400 -19.024  1.00  0.00    -0.258 OA
HETATM    8  S1  UNL     1      21.207  11.643 -19.038  1.00  0.00     0.011 SA
ENDROOT
BRANCH   1   9
HETATM    9  N2  UNL     1      19.420  10.147 -17.581  1.00  0.00    -0.285 N 
ATOM     10  H2  UNL     1      19.225   9.147 -17.633  1.00  0.00     0.188 HD
BRANCH   9  11
HETATM   11  N1  UNL     1      18.430  11.079 -17.290  1.00  0.00    -0.343 N 
ATOM     12  H12 UNL     1      17.629  11.210 -17.906  1.00  0.00     0.176 HD
ATOM     13  H11 UNL     1      18.564  11.612 -16.430  1.00  0.00     0.176 HD
ENDBRANCH   9  11
ENDBRANCH   1   9
TORSDOF 2
ENDMDL
MODEL 4
REMARK VINA RESULT: -3.732656899      2.505      3.032
REMARK  2 active torsions:
REMARK  status: ('A' for Active; 'I' for Inactive)
REMARK    1  A    between atoms: N1_1  and  N2_4 
REMARK    2  A    between atoms: N2_4  and  C1_6 
ROOT
HETATM    1  C1  UNL     1      20.220  12.447 -19.091  1.00  0.00     0.182 A 
HETATM    2  N3  UNL     1      19.966  12.073 -17.839  1.00  0.00    -0.275 N 
ATOM      3  H3  UNL     1      19.063  12.283 -17.413  1.00  0.00     0.189 HD
HETATM    4  N4  UNL     1      20.860  11.451 -17.176  1.00  0.00    -0.258 N 
ATOM      5  H4  UNL     1      20.685  11.156 -16.216  1.00  0.00     0.191 HD
HETATM    6  C2  UNL     1      22.033  11.192 -17.766  1.00  0.00     0.305 A 
HETATM    7  O1  UNL     1      23.055  10.586 -17.282  1.00  0.00    -0.258 OA
HETATM    8  S1  UNL     1      21.813  11.876 -19.317  1.00  0.00     0.011 SA
ENDROOT
BRANCH   1   9
HETATM    9  N2  UNL     1      19.423  13.092 -19.921  1.00  0.00    -0.285 N 
ATOM     10  H2  UNL     1      19.190  12.727 -20.844  1.00  0.00     0.188 HD
BRANCH   9  11
HETATM   11  N1  UNL     1      18.920  14.301 -19.455  1.00  0.00    -0.343 N 
ATOM     12  H12 UNL     1      19.492  15.145 -19.452  1.00  0.00     0.176 HD
ATOM     13  H11 UNL     1      17.955  14.282 -19.124  1.00  0.00     0.176 HD
ENDBRANCH   9  11
ENDBRANCH   1   9
TORSDOF 2
ENDMDL
MODEL 5
REMARK VINA RESULT: -3.638961873      1.721      2.211
REMARK  2 active torsions:
REMARK  status: ('A' for Active; 'I' for Inactive)
REMARK    1  A    between atoms: N1_1  and  N2_4 
REMARK    2  A    between atoms: N2_4  and  C1_6 
ROOT
HETATM    1  C1  UNL     1      22.671  11.500 -18.484  1.00  0.00     0.182 A 
HETATM    2  N3  UNL     1      23.658  11.989 -19.231  1.00  0.00    -0.275 N 
ATOM      3  H3  UNL     1      24.601  12.066 -18.850  1.00  0.00     0.189 HD
HETATM    4  N4  UNL     1      23.415  12.359 -20.426  1.00  0.00    -0.258 N 
ATOM      5  H4  UNL     1      24.157  12.737 -21.015  1.00  0.00     0.191 HD
HETATM    6  C2  UNL     1      22.166  12.244 -20.894  1.00  0.00     0.305 A 
HETATM    7  O1  UNL     1      21.714  12.554 -22.053  1.00  0.00    -0.258 OA
HETATM    8  S1  UNL     1      21.341  11.579 -19.552  1.00  0.00     0.011 SA
ENDROOT
BRANCH   1   9
HETATM    9  N2  UNL     1      22.736  11.070 -17.238  1.00  0.00    -0.285 N 
ATOM     10  H2  UNL     1      23.530  11.279 -16.632  1.00  0.00     0.188 HD
BRANCH   9  11
HETATM   11  N1  UNL     1      21.652  10.315 -16.804  1.00  0.00    -0.343 N 
ATOM     12  H12 UNL     1      21.683   9.297 -16.806  1.00  0.00     0.176 HD
ATOM     13  H11 UNL     1      20.841  10.847 -16.488  1.00  0.00     0.176 HD
ENDBRANCH   9  11
ENDBRANCH   1   9
TORSDOF 2
ENDMDL
