MODEL 1
REMARK VINA RESULT: -7.510102612      0.000      0.000
REMARK  7 active torsions:
REMARK  status: ('A' for Active; 'I' for Inactive)
REMARK    1  A    between atoms: C2_2  and  C4_4 
REMARK    2  A    between atoms: C4_4  and  N1_5 
REMARK    3  A    between atoms: C4_4  and  C5_9 
REMARK       I    between atoms: C5_9  and  N2_11 
REMARK    4  A    between atoms: N2_11  and  C6_13 
REMARK    5  A    between atoms: C6_13  and  N3_14 
REMARK    6  A    between atoms: C6_13  and  C7_18 
REMARK       I    between atoms: C7_18  and  N4_20 
REMARK    7  A    between atoms: N4_20  and  C8_22 
ROOT
HETATM    1  C6  UNL     1      19.753  20.097  37.869  1.00  0.00     0.377 C 
ENDROOT
BRANCH   1   2
HETATM    2  N2  UNL     1      19.796  19.685  36.487  1.00  0.00    -0.324 N 
HETATM    3  C5  UNL     1      18.619  19.856  35.704  1.00  0.00     0.250 C 
HETATM    4  O1  UNL     1      17.569  20.347  36.180  1.00  0.00    -0.271 OA
ATOM      5  H2  UNL     1      20.643  19.284  36.084  1.00  0.00     0.165 HD
BRANCH   3   6
HETATM    6  C4  UNL     1      18.651  19.436  34.285  1.00  0.00     0.278 C 
BRANCH   6   7
HETATM    7  C2  UNL     1      17.386  19.966  33.613  1.00  0.00     0.017 C 
HETATM    8  C1  UNL     1      17.720  21.196  32.801  1.00  0.00     0.012 C 
HETATM    9  C3  UNL     1      16.854  18.848  32.741  1.00  0.00     0.012 C 
ENDBRANCH   6   7
BRANCH   6  10
HETATM   10  N1  UNL     1      18.753  18.013  34.184  1.00  0.00    -0.066 N 
ATOM     11  H13 UNL     1      18.182  17.550  34.891  1.00  0.00     0.275 HD
ATOM     12  H12 UNL     1      18.284  17.666  33.347  1.00  0.00     0.275 HD
ATOM     13  H11 UNL     1      19.722  17.697  34.225  1.00  0.00     0.275 HD
ENDBRANCH   6  10
ENDBRANCH   3   6
ENDBRANCH   1   2
BRANCH   1  14
HETATM   14  N3  UNL     1      18.826  19.250  38.602  1.00  0.00    -0.049 N 
ATOM     15  H33 UNL     1      17.973  19.067  38.074  1.00  0.00     0.277 HD
ATOM     16  H32 UNL     1      19.161  18.289  38.677  1.00  0.00     0.277 HD
ATOM     17  H31 UNL     1      18.634  19.663  39.515  1.00  0.00     0.277 HD
ENDBRANCH   1  14
BRANCH   1  18
HETATM   18  C7  UNL     1      21.106  20.075  38.427  1.00  0.00     0.286 C 
HETATM   19  O2  UNL     1      22.088  19.822  37.695  1.00  0.00    -0.268 OA
HETATM   20  N4  UNL     1      21.286  20.350  39.827  1.00  0.00    -0.156 N 
ATOM     21  H4  UNL     1      21.325  19.601  40.518  1.00  0.00     0.187 HD
BRANCH  20  22
HETATM   22  C8  UNL     1      21.395  21.587  40.165  1.00  0.00     0.684 A 
HETATM   23  N5  UNL     1      22.387  22.413  39.738  1.00  0.00    -0.200 N 
HETATM   24  C9  UNL     1      22.178  23.617  40.290  1.00  0.00     0.123 A 
ATOM     25  H5  UNL     1      23.152  22.161  39.111  1.00  0.00     0.183 HD
HETATM   26  C10 UNL     1      21.059  23.538  41.059  1.00  0.00     0.123 A 
HETATM   27  N6  UNL     1      20.593  22.301  40.974  1.00  0.00    -0.200 N 
ATOM     28  H6  UNL     1      19.761  21.948  41.446  1.00  0.00     0.183 HD
ENDBRANCH  20  22
ENDBRANCH   1  18
TORSDOF 7
ENDMDL
MODEL 2
REMARK VINA RESULT: -7.207285530      2.612      3.298
REMARK  7 active torsions:
REMARK  status: ('A' for Active; 'I' for Inactive)
REMARK    1  A    between atoms: C2_2  and  C4_4 
REMARK    2  A    between atoms: C4_4  and  N1_5 
REMARK    3  A    between atoms: C4_4  and  C5_9 
REMARK       I    between atoms: C5_9  and  N2_11 
REMARK    4  A    between atoms: N2_11  and  C6_13 
REMARK    5  A    between atoms: C6_13  and  N3_14 
REMARK    6  A    between atoms: C6_13  and  C7_18 
REMARK       I    between atoms: C7_18  and  N4_20 
REMARK    7  A    between atoms: N4_20  and  C8_22 
ROOT
HETATM    1  C6  UNL     1      19.249  20.101  38.073  1.00  0.00     0.377 C 
ENDROOT
BRANCH   1   2
HETATM    2  N2  UNL     1      19.466  19.794  36.680  1.00  0.00    -0.324 N 
HETATM    3  C5  UNL     1      18.323  19.638  35.846  1.00  0.00     0.250 C 
HETATM    4  O1  UNL     1      17.156  19.761  36.287  1.00  0.00    -0.271 OA
ATOM      5  H2  UNL     1      20.409  19.691  36.305  1.00  0.00     0.165 HD
BRANCH   3   6
HETATM    6  C4  UNL     1      18.533  19.323  34.416  1.00  0.00     0.278 C 
BRANCH   6   7
HETATM    7  C2  UNL     1      17.341  19.875  33.636  1.00  0.00     0.017 C 
HETATM    8  C1  UNL     1      17.763  21.109  32.872  1.00  0.00     0.012 C 
HETATM    9  C3  UNL     1      16.879  18.773  32.705  1.00  0.00     0.012 C 
ENDBRANCH   6   7
BRANCH   6  10
HETATM   10  N1  UNL     1      18.684  17.913  34.230  1.00  0.00    -0.066 N 
ATOM     11  H13 UNL     1      17.988  17.547  33.580  1.00  0.00     0.275 HD
ATOM     12  H12 UNL     1      19.528  17.697  33.698  1.00  0.00     0.275 HD
ATOM     13  H11 UNL     1      18.665  17.408  35.116  1.00  0.00     0.275 HD
ENDBRANCH   6  10
ENDBRANCH   3   6
ENDBRANCH   1   2
BRANCH   1  14
HETATM   14  N3  UNL     1      20.187  19.350  38.890  1.00  0.00    -0.049 N 
ATOM     15  H33 UNL     1      20.578  18.552  38.391  1.00  0.00     0.277 HD
ATOM     16  H32 UNL     1      21.055  19.863  39.049  1.00  0.00     0.277 HD
ATOM     17  H31 UNL     1      19.738  19.076  39.763  1.00  0.00     0.277 HD
ENDBRANCH   1  14
BRANCH   1  18
HETATM   18  C7  UNL     1      19.350  21.547  38.274  1.00  0.00     0.286 C 
HETATM   19  O2  UNL     1      20.101  22.236  37.549  1.00  0.00    -0.268 OA
HETATM   20  N4  UNL     1      18.573  22.160  39.318  1.00  0.00    -0.156 N 
ATOM     21  H4  UNL     1      18.959  22.318  40.249  1.00  0.00     0.187 HD
BRANCH  20  22
HETATM   22  C8  UNL     1      17.369  22.501  39.019  1.00  0.00     0.684 A 
HETATM   23  N5  UNL     1      16.539  23.187  39.848  1.00  0.00    -0.200 N 
HETATM   24  C9  UNL     1      15.375  23.362  39.204  1.00  0.00     0.123 A 
ATOM     25  H5  UNL     1      16.761  23.510  40.790  1.00  0.00     0.183 HD
HETATM   26  C10 UNL     1      15.484  22.784  37.977  1.00  0.00     0.123 A 
HETATM   27  N6  UNL     1      16.699  22.266  37.877  1.00  0.00    -0.200 N 
ATOM     28  H6  UNL     1      17.066  21.768  37.066  1.00  0.00     0.183 HD
ENDBRANCH  20  22
ENDBRANCH   1  18
TORSDOF 7
ENDMDL
MODEL 3
REMARK VINA RESULT: -7.078614396      2.214      3.303
REMARK  7 active torsions:
REMARK  status: ('A' for Active; 'I' for Inactive)
REMARK    1  A    between atoms: C2_2  and  C4_4 
REMARK    2  A    between atoms: C4_4  and  N1_5 
REMARK    3  A    between atoms: C4_4  and  C5_9 
REMARK       I    between atoms: C5_9  and  N2_11 
REMARK    4  A    between atoms: N2_11  and  C6_13 
REMARK    5  A    between atoms: C6_13  and  N3_14 
REMARK    6  A    between atoms: C6_13  and  C7_18 
REMARK       I    between atoms: C7_18  and  N4_20 
REMARK    7  A    between atoms: N4_20  and  C8_22 
ROOT
HETATM    1  C6  UNL     1      16.466  21.686  37.144  1.00  0.00     0.377 C 
ENDROOT
BRANCH   1   2
HETATM    2  N2  UNL     1      16.872  20.905  36.002  1.00  0.00    -0.324 N 
HETATM    3  C5  UNL     1      18.239  20.961  35.607  1.00  0.00     0.250 C 
HETATM    4  O1  UNL     1      19.079  21.661  36.220  1.00  0.00    -0.271 OA
ATOM      5  H2  UNL     1      16.201  20.329  35.493  1.00  0.00     0.165 HD
BRANCH   3   6
HETATM    6  C4  UNL     1      18.667  20.164  34.436  1.00  0.00     0.278 C 
BRANCH   6   7
HETATM    7  C2  UNL     1      17.491  20.092  33.465  1.00  0.00     0.017 C 
HETATM    8  C1  UNL     1      17.557  21.255  32.502  1.00  0.00     0.012 C 
HETATM    9  C3  UNL     1      17.600  18.764  32.744  1.00  0.00     0.012 C 
ENDBRANCH   6   7
BRANCH   6  10
HETATM   10  N1  UNL     1      19.101  18.864  34.846  1.00  0.00    -0.066 N 
ATOM     11  H13 UNL     1      18.529  18.506  35.611  1.00  0.00     0.275 HD
ATOM     12  H12 UNL     1      18.883  18.161  34.140  1.00  0.00     0.275 HD
ATOM     13  H11 UNL     1      20.092  18.852  35.087  1.00  0.00     0.275 HD
ENDBRANCH   6  10
ENDBRANCH   3   6
ENDBRANCH   1   2
BRANCH   1  14
HETATM   14  N3  UNL     1      15.117  22.185  36.939  1.00  0.00    -0.049 N 
ATOM     15  H33 UNL     1      14.607  21.640  36.245  1.00  0.00     0.277 HD
ATOM     16  H32 UNL     1      14.513  22.002  37.742  1.00  0.00     0.277 HD
ATOM     17  H31 UNL     1      15.150  23.176  36.702  1.00  0.00     0.277 HD
ENDBRANCH   1  14
BRANCH   1  18
HETATM   18  C7  UNL     1      16.596  20.878  38.358  1.00  0.00     0.286 C 
HETATM   19  O2  UNL     1      15.898  19.851  38.512  1.00  0.00    -0.268 OA
HETATM   20  N4  UNL     1      17.536  21.284  39.367  1.00  0.00    -0.156 N 
ATOM     21  H4  UNL     1      17.255  21.864  40.158  1.00  0.00     0.187 HD
BRANCH  20  22
HETATM   22  C8  UNL     1      18.750  20.880  39.224  1.00  0.00     0.684 A 
HETATM   23  N5  UNL     1      19.099  19.627  38.832  1.00  0.00    -0.200 N 
HETATM   24  C9  UNL     1      20.438  19.571  38.794  1.00  0.00     0.123 A 
ATOM     25  H5  UNL     1      18.457  18.866  38.607  1.00  0.00     0.183 HD
HETATM   26  C10 UNL     1      20.919  20.789  39.163  1.00  0.00     0.123 A 
HETATM   27  N6  UNL     1      19.884  21.574  39.421  1.00  0.00    -0.200 N 
ATOM     28  H6  UNL     1      19.940  22.548  39.721  1.00  0.00     0.183 HD
ENDBRANCH  20  22
ENDBRANCH   1  18
TORSDOF 7
ENDMDL
MODEL 4
REMARK VINA RESULT: -7.067439606      1.676      2.026
REMARK  7 active torsions:
REMARK  status: ('A' for Active; 'I' for Inactive)
REMARK    1  A    between atoms: C2_2  and  C4_4 
REMARK    2  A    between atoms: C4_4  and  N1_5 
REMARK    3  A    between atoms: C4_4  and  C5_9 
REMARK       I    between atoms: C5_9  and  N2_11 
REMARK    4  A    between atoms: N2_11  and  C6_13 
REMARK    5  A    between atoms: C6_13  and  N3_14 
REMARK    6  A    between atoms: C6_13  and  C7_18 
REMARK       I    between atoms: C7_18  and  N4_20 
REMARK    7  A    between atoms: N4_20  and  C8_22 
ROOT
HETATM    1  C6  UNL     1      18.742  19.805  38.445  1.00  0.00     0.377 C 
ENDROOT
BRANCH   1   2
HETATM    2  N2  UNL     1      19.141  19.815  37.058  1.00  0.00    -0.324 N 
HETATM    3  C5  UNL     1      18.156  19.499  36.080  1.00  0.00     0.250 C 
HETATM    4  O1  UNL     1      16.975  19.218  36.391  1.00  0.00    -0.271 OA
ATOM      5  H2  UNL     1      20.097  20.043  36.788  1.00  0.00     0.165 HD
BRANCH   3   6
HETATM    6  C4  UNL     1      18.553  19.506  34.654  1.00  0.00     0.278 C 
BRANCH   6   7
HETATM    7  C2  UNL     1      17.385  20.071  33.847  1.00  0.00     0.017 C 
HETATM    8  C1  UNL     1      17.833  21.308  33.105  1.00  0.00     0.012 C 
HETATM    9  C3  UNL     1      16.942  18.978  32.896  1.00  0.00     0.012 C 
ENDBRANCH   6   7
BRANCH   6  10
HETATM   10  N1  UNL     1      18.909  18.189  34.226  1.00  0.00    -0.066 N 
ATOM     11  H13 UNL     1      19.921  18.081  34.160  1.00  0.00     0.275 HD
ATOM     12  H12 UNL     1      18.721  17.498  34.953  1.00  0.00     0.275 HD
ATOM     13  H11 UNL     1      18.453  17.937  33.349  1.00  0.00     0.275 HD
ENDBRANCH   6  10
ENDBRANCH   3   6
ENDBRANCH   1   2
BRANCH   1  14
HETATM   14  N3  UNL     1      19.790  19.198  39.249  1.00  0.00    -0.049 N 
ATOM     15  H33 UNL     1      20.714  19.556  39.009  1.00  0.00     0.277 HD
ATOM     16  H32 UNL     1      19.758  19.509  40.220  1.00  0.00     0.277 HD
ATOM     17  H31 UNL     1      19.738  18.183  39.169  1.00  0.00     0.277 HD
ENDBRANCH   1  14
BRANCH   1  18
HETATM   18  C7  UNL     1      18.418  21.168  38.869  1.00  0.00     0.286 C 
HETATM   19  O2  UNL     1      17.499  21.373  39.691  1.00  0.00    -0.268 OA
HETATM   20  N4  UNL     1      19.173  22.264  38.324  1.00  0.00    -0.156 N 
ATOM     21  H4  UNL     1      18.854  22.777  37.502  1.00  0.00     0.187 HD
BRANCH  20  22
HETATM   22  C8  UNL     1      20.271  22.567  38.924  1.00  0.00     0.684 A 
HETATM   23  N5  UNL     1      20.408  22.649  40.274  1.00  0.00    -0.200 N 
HETATM   24  C9  UNL     1      21.681  22.983  40.533  1.00  0.00     0.123 A 
ATOM     25  H5  UNL     1      19.675  22.485  40.965  1.00  0.00     0.183 HD
HETATM   26  C10 UNL     1      22.331  23.108  39.345  1.00  0.00     0.123 A 
HETATM   27  N6  UNL     1      21.465  22.853  38.377  1.00  0.00    -0.200 N 
ATOM     28  H6  UNL     1      21.670  22.871  37.378  1.00  0.00     0.183 HD
ENDBRANCH  20  22
ENDBRANCH   1  18
TORSDOF 7
ENDMDL
MODEL 5
REMARK VINA RESULT: -7.049643081      2.278      6.634
REMARK  7 active torsions:
REMARK  status: ('A' for Active; 'I' for Inactive)
REMARK    1  A    between atoms: C2_2  and  C4_4 
REMARK    2  A    between atoms: C4_4  and  N1_5 
REMARK    3  A    between atoms: C4_4  and  C5_9 
REMARK       I    between atoms: C5_9  and  N2_11 
REMARK    4  A    between atoms: N2_11  and  C6_13 
REMARK    5  A    between atoms: C6_13  and  N3_14 
REMARK    6  A    between atoms: C6_13  and  C7_18 
REMARK       I    between atoms: C7_18  and  N4_20 
REMARK    7  A    between atoms: N4_20  and  C8_22 
ROOT
HETATM    1  C6  UNL     1      16.963  21.265  36.054  1.00  0.00     0.377 C 
ENDROOT
BRANCH   1   2
HETATM    2  N2  UNL     1      18.037  21.425  37.004  1.00  0.00    -0.324 N 
HETATM    3  C5  UNL     1      18.490  20.269  37.700  1.00  0.00     0.250 C 
HETATM    4  O1  UNL     1      17.986  19.138  37.508  1.00  0.00    -0.271 OA
ATOM      5  H2  UNL     1      18.459  22.339  37.172  1.00  0.00     0.165 HD
BRANCH   3   6
HETATM    6  C4  UNL     1      19.590  20.421  38.677  1.00  0.00     0.278 C 
BRANCH   6   7
HETATM    7  C2  UNL     1      20.779  21.046  37.949  1.00  0.00     0.017 C 
HETATM    8  C1  UNL     1      21.123  22.372  38.585  1.00  0.00     0.012 C 
HETATM    9  C3  UNL     1      21.924  20.060  38.056  1.00  0.00     0.012 C 
ENDBRANCH   6   7
BRANCH   6  10
HETATM   10  N1  UNL     1      19.925  19.157  39.257  1.00  0.00    -0.066 N 
ATOM     11  H13 UNL     1      19.273  18.906  40.001  1.00  0.00     0.275 HD
ATOM     12  H12 UNL     1      19.735  18.391  38.612  1.00  0.00     0.275 HD
ATOM     13  H11 UNL     1      20.890  19.133  39.587  1.00  0.00     0.275 HD
ENDBRANCH   6  10
ENDBRANCH   3   6
ENDBRANCH   1   2
BRANCH   1  14
HETATM   14  N3  UNL     1      15.960  22.293  36.274  1.00  0.00    -0.049 N 
ATOM     15  H33 UNL     1      15.716  22.782  35.413  1.00  0.00     0.277 HD
ATOM     16  H32 UNL     1      15.043  21.896  36.482  1.00  0.00     0.277 HD
ATOM     17  H31 UNL     1      16.277  22.931  37.003  1.00  0.00     0.277 HD
ENDBRANCH   1  14
BRANCH   1  18
HETATM   18  C7  UNL     1      17.508  21.283  34.695  1.00  0.00     0.286 C 
HETATM   19  O2  UNL     1      18.544  21.934  34.438  1.00  0.00    -0.268 OA
HETATM   20  N4  UNL     1      16.833  20.541  33.665  1.00  0.00    -0.156 N 
ATOM     21  H4  UNL     1      16.139  20.978  33.058  1.00  0.00     0.187 HD
BRANCH  20  22
HETATM   22  C8  UNL     1      17.147  19.298  33.546  1.00  0.00     0.684 A 
HETATM   23  N5  UNL     1      18.017  18.646  34.361  1.00  0.00    -0.200 N 
HETATM   24  C9  UNL     1      18.095  17.376  33.938  1.00  0.00     0.123 A 
ATOM     25  H5  UNL     1      18.520  19.051  35.151  1.00  0.00     0.183 HD
HETATM   26  C10 UNL     1      17.274  17.241  32.862  1.00  0.00     0.123 A 
HETATM   27  N6  UNL     1      16.704  18.415  32.634  1.00  0.00    -0.200 N 
ATOM     28  H6  UNL     1      16.038  18.615  31.888  1.00  0.00     0.183 HD
ENDBRANCH  20  22
ENDBRANCH   1  18
TORSDOF 7
ENDMDL
