MODEL 1
REMARK VINA RESULT: -8.000347941      0.000      0.000
REMARK  5 active torsions:
REMARK  status: ('A' for Active; 'I' for Inactive)
REMARK    1  A    between atoms: C3_3  and  C4_4 
REMARK       I    between atoms: C4_4  and  N1_6 
REMARK    2  A    between atoms: N1_6  and  C5_8 
REMARK    3  A    between atoms: C5_8  and  C7_10 
REMARK       I    between atoms: C7_10  and  N2_12 
REMARK    4  A    between atoms: N2_12  and  C8_14 
REMARK    5  A    between atoms: C9_18  and  N4_19 
ROOT
HETATM    1  C1  UNL     1      17.518  22.047  34.776  1.00  0.00     0.056 C 
HETATM    2  C2  UNL     1      17.770  20.635  34.479  1.00  0.00     0.039 A 
HETATM    3  C3  UNL     1      17.742  19.683  35.462  1.00  0.00     0.128 A 
HETATM    4  N3  UNL     1      17.990  18.394  35.087  1.00  0.00    -0.186 N 
ATOM      5  H3  UNL     1      17.976  17.664  35.798  1.00  0.00     0.184 HD
HETATM    6  C9  UNL     1      18.254  18.052  33.805  1.00  0.00     0.679 A 
HETATM    7  N5  UNL     1      18.284  18.978  32.833  1.00  0.00    -0.156 N 
ATOM      8  H5  UNL     1      18.483  18.718  31.867  1.00  0.00     0.187 HD
HETATM    9  C10 UNL     1      18.046  20.253  33.166  1.00  0.00     0.268 A 
HETATM   10  O4  UNL     1      18.075  21.114  32.255  1.00  0.00    -0.267 OA
ENDROOT
BRANCH   3  11
HETATM   11  C4  UNL     1      17.463  20.011  36.844  1.00  0.00     0.270 C 
HETATM   12  O1  UNL     1      16.283  19.858  37.327  1.00  0.00    -0.266 OA
HETATM   13  N1  UNL     1      18.476  20.505  37.693  1.00  0.00    -0.343 N 
ATOM     14  H1  UNL     1      19.416  20.627  37.314  1.00  0.00     0.163 HD
BRANCH  13  15
HETATM   15  C5  UNL     1      18.235  20.846  39.086  1.00  0.00     0.173 C 
HETATM   16  C6  UNL     1      17.944  22.327  39.242  1.00  0.00     0.042 C 
BRANCH  15  17
HETATM   17  C7  UNL     1      19.505  20.577  39.838  1.00  0.00     0.246 C 
HETATM   18  O2  UNL     1      20.084  19.444  39.762  1.00  0.00    -0.271 OA
HETATM   19  N2  UNL     1      20.078  21.582  40.646  1.00  0.00    -0.303 N 
ATOM     20  H2  UNL     1      19.622  22.492  40.713  1.00  0.00     0.171 HD
BRANCH  19  21
HETATM   21  C8  UNL     1      21.268  21.351  41.360  1.00  0.00     0.355 C 
HETATM   22  O3  UNL     1      22.369  21.687  40.869  1.00  0.00    -0.283 OA
ENDBRANCH  19  21
ENDBRANCH  15  17
ENDBRANCH  13  15
ENDBRANCH   3  11
BRANCH   6  23
HETATM   23  N4  UNL     1      18.483  16.797  33.515  1.00  0.00    -0.234 N 
ATOM     24  H42 UNL     1      17.718  16.125  33.534  1.00  0.00     0.174 HD
ATOM     25  H41 UNL     1      19.431  16.508  33.271  1.00  0.00     0.174 HD
ENDBRANCH   6  23
TORSDOF 5
ENDMDL
MODEL 2
REMARK VINA RESULT: -7.865450322      1.379      1.387
REMARK  5 active torsions:
REMARK  status: ('A' for Active; 'I' for Inactive)
REMARK    1  A    between atoms: C3_3  and  C4_4 
REMARK       I    between atoms: C4_4  and  N1_6 
REMARK    2  A    between atoms: N1_6  and  C5_8 
REMARK    3  A    between atoms: C5_8  and  C7_10 
REMARK       I    between atoms: C7_10  and  N2_12 
REMARK    4  A    between atoms: N2_12  and  C8_14 
REMARK    5  A    between atoms: C9_18  and  N4_19 
ROOT
HETATM    1  C1  UNL     1      17.860  22.032  34.768  1.00  0.00     0.056 C 
HETATM    2  C2  UNL     1      18.042  20.602  34.507  1.00  0.00     0.039 A 
HETATM    3  C3  UNL     1      18.210  19.706  35.529  1.00  0.00     0.128 A 
HETATM    4  N3  UNL     1      18.372  18.395  35.186  1.00  0.00    -0.186 N 
ATOM      5  H3  UNL     1      18.499  17.705  35.926  1.00  0.00     0.184 HD
HETATM    6  C9  UNL     1      18.369  17.978  33.899  1.00  0.00     0.679 A 
HETATM    7  N5  UNL     1      18.205  18.849  32.890  1.00  0.00    -0.156 N 
ATOM      8  H5  UNL     1      18.204  18.532  31.920  1.00  0.00     0.187 HD
HETATM    9  C10 UNL     1      18.044  20.144  33.191  1.00  0.00     0.268 A 
HETATM   10  O4  UNL     1      17.891  20.952  32.244  1.00  0.00    -0.267 OA
ENDROOT
BRANCH   3  11
HETATM   11  C4  UNL     1      18.217  20.115  36.917  1.00  0.00     0.270 C 
HETATM   12  O1  UNL     1      17.224  19.844  37.685  1.00  0.00    -0.266 OA
HETATM   13  N1  UNL     1      19.313  20.818  37.462  1.00  0.00    -0.343 N 
ATOM     14  H1  UNL     1      20.105  21.035  36.857  1.00  0.00     0.163 HD
BRANCH  13  15
HETATM   15  C5  UNL     1      19.357  21.246  38.852  1.00  0.00     0.173 C 
HETATM   16  C6  UNL     1      18.565  22.524  39.055  1.00  0.00     0.042 C 
BRANCH  15  17
HETATM   17  C7  UNL     1      20.787  21.572  39.173  1.00  0.00     0.246 C 
HETATM   18  O2  UNL     1      21.611  20.656  39.495  1.00  0.00    -0.271 OA
HETATM   19  N2  UNL     1      21.238  22.908  39.122  1.00  0.00    -0.303 N 
ATOM     20  H2  UNL     1      20.585  23.648  38.865  1.00  0.00     0.171 HD
BRANCH  19  21
HETATM   21  C8  UNL     1      22.574  23.236  39.419  1.00  0.00     0.355 C 
HETATM   22  O3  UNL     1      23.366  23.533  38.498  1.00  0.00    -0.283 OA
ENDBRANCH  19  21
ENDBRANCH  15  17
ENDBRANCH  13  15
ENDBRANCH   3  11
BRANCH   6  23
HETATM   23  N4  UNL     1      18.530  16.706  33.641  1.00  0.00    -0.234 N 
ATOM     24  H42 UNL     1      18.154  16.008  34.281  1.00  0.00     0.174 HD
ATOM     25  H41 UNL     1      19.032  16.429  32.798  1.00  0.00     0.174 HD
ENDBRANCH   6  23
TORSDOF 5
ENDMDL
MODEL 3
REMARK VINA RESULT: -7.761777134      2.115      3.486
REMARK  5 active torsions:
REMARK  status: ('A' for Active; 'I' for Inactive)
REMARK    1  A    between atoms: C3_3  and  C4_4 
REMARK       I    between atoms: C4_4  and  N1_6 
REMARK    2  A    between atoms: N1_6  and  C5_8 
REMARK    3  A    between atoms: C5_8  and  C7_10 
REMARK       I    between atoms: C7_10  and  N2_12 
REMARK    4  A    between atoms: N2_12  and  C8_14 
REMARK    5  A    between atoms: C9_18  and  N4_19 
ROOT
HETATM    1  C1  UNL     1      17.751  22.207  34.450  1.00  0.00     0.056 C 
HETATM    2  C2  UNL     1      18.025  20.771  34.356  1.00  0.00     0.039 A 
HETATM    3  C3  UNL     1      18.494  20.062  35.429  1.00  0.00     0.128 A 
HETATM    4  N3  UNL     1      18.720  18.730  35.244  1.00  0.00    -0.186 N 
ATOM      5  H3  UNL     1      19.070  18.177  36.026  1.00  0.00     0.184 HD
HETATM    6  C9  UNL     1      18.497  18.116  34.060  1.00  0.00     0.679 A 
HETATM    7  N5  UNL     1      18.037  18.802  33.000  1.00  0.00    -0.156 N 
ATOM      8  H5  UNL     1      17.869  18.337  32.108  1.00  0.00     0.187 HD
HETATM    9  C10 UNL     1      17.805  20.112  33.147  1.00  0.00     0.268 A 
HETATM   10  O4  UNL     1      17.376  20.747  32.155  1.00  0.00    -0.267 OA
ENDROOT
BRANCH   3  11
HETATM   11  C4  UNL     1      18.745  20.685  36.712  1.00  0.00     0.270 C 
HETATM   12  O1  UNL     1      19.928  21.065  37.036  1.00  0.00    -0.266 OA
HETATM   13  N1  UNL     1      17.698  20.891  37.636  1.00  0.00    -0.343 N 
ATOM     14  H1  UNL     1      16.756  20.592  37.384  1.00  0.00     0.163 HD
BRANCH  13  15
HETATM   15  C5  UNL     1      17.910  21.513  38.934  1.00  0.00     0.173 C 
HETATM   16  C6  UNL     1      17.888  20.478  40.045  1.00  0.00     0.042 C 
BRANCH  15  17
HETATM   17  C7  UNL     1      16.750  22.433  39.183  1.00  0.00     0.246 C 
HETATM   18  O2  UNL     1      16.927  23.586  39.693  1.00  0.00    -0.271 OA
HETATM   19  N2  UNL     1      15.440  22.027  38.852  1.00  0.00    -0.303 N 
ATOM     20  H2  UNL     1      15.288  21.104  38.443  1.00  0.00     0.171 HD
BRANCH  19  21
HETATM   21  C8  UNL     1      14.338  22.873  39.077  1.00  0.00     0.355 C 
HETATM   22  O3  UNL     1      13.215  22.385  39.334  1.00  0.00    -0.283 OA
ENDBRANCH  19  21
ENDBRANCH  15  17
ENDBRANCH  13  15
ENDBRANCH   3  11
BRANCH   6  23
HETATM   23  N4  UNL     1      18.736  16.834  33.951  1.00  0.00    -0.234 N 
ATOM     24  H42 UNL     1      18.269  16.177  34.575  1.00  0.00     0.174 HD
ATOM     25  H41 UNL     1      19.388  16.509  33.238  1.00  0.00     0.174 HD
ENDBRANCH   6  23
TORSDOF 5
ENDMDL
MODEL 4
REMARK VINA RESULT: -7.760371594      1.666      2.089
REMARK  5 active torsions:
REMARK  status: ('A' for Active; 'I' for Inactive)
REMARK    1  A    between atoms: C3_3  and  C4_4 
REMARK       I    between atoms: C4_4  and  N1_6 
REMARK    2  A    between atoms: N1_6  and  C5_8 
REMARK    3  A    between atoms: C5_8  and  C7_10 
REMARK       I    between atoms: C7_10  and  N2_12 
REMARK    4  A    between atoms: N2_12  and  C8_14 
REMARK    5  A    between atoms: C9_18  and  N4_19 
ROOT
HETATM    1  C1  UNL     1      18.031  22.176  34.339  1.00  0.00     0.056 C 
HETATM    2  C2  UNL     1      18.178  20.724  34.208  1.00  0.00     0.039 A 
HETATM    3  C3  UNL     1      18.718  19.969  35.213  1.00  0.00     0.128 A 
HETATM    4  N3  UNL     1      18.814  18.625  34.998  1.00  0.00    -0.186 N 
ATOM      5  H3  UNL     1      19.213  18.036  35.729  1.00  0.00     0.184 HD
HETATM    6  C9  UNL     1      18.398  18.044  33.849  1.00  0.00     0.679 A 
HETATM    7  N5  UNL     1      17.866  18.777  32.856  1.00  0.00    -0.156 N 
ATOM      8  H5  UNL     1      17.553  18.337  31.991  1.00  0.00     0.187 HD
HETATM    9  C10 UNL     1      17.758  20.100  33.034  1.00  0.00     0.268 A 
HETATM   10  O4  UNL     1      17.261  20.778  32.105  1.00  0.00    -0.267 OA
ENDROOT
BRANCH   3  11
HETATM   11  C4  UNL     1      19.173  20.554  36.456  1.00  0.00     0.270 C 
HETATM   12  O1  UNL     1      18.448  21.410  37.081  1.00  0.00    -0.266 OA
HETATM   13  N1  UNL     1      20.421  20.200  37.012  1.00  0.00    -0.343 N 
ATOM     14  H1  UNL     1      21.001  19.520  36.521  1.00  0.00     0.163 HD
BRANCH  13  15
HETATM   15  C5  UNL     1      20.913  20.766  38.259  1.00  0.00     0.173 C 
HETATM   16  C6  UNL     1      22.241  20.146  38.654  1.00  0.00     0.042 C 
BRANCH  15  17
HETATM   17  C7  UNL     1      19.932  20.398  39.333  1.00  0.00     0.246 C 
HETATM   18  O2  UNL     1      19.779  19.186  39.695  1.00  0.00    -0.271 OA
HETATM   19  N2  UNL     1      19.159  21.399  39.961  1.00  0.00    -0.303 N 
ATOM     20  H2  UNL     1      19.274  22.372  39.678  1.00  0.00     0.171 HD
BRANCH  19  21
HETATM   21  C8  UNL     1      18.233  21.077  40.971  1.00  0.00     0.355 C 
HETATM   22  O3  UNL     1      17.833  21.961  41.760  1.00  0.00    -0.283 OA
ENDBRANCH  19  21
ENDBRANCH  15  17
ENDBRANCH  13  15
ENDBRANCH   3  11
BRANCH   6  23
HETATM   23  N4  UNL     1      18.520  16.750  33.709  1.00  0.00    -0.234 N 
ATOM     24  H42 UNL     1      17.711  16.192  33.436  1.00  0.00     0.174 HD
ATOM     25  H41 UNL     1      19.427  16.314  33.873  1.00  0.00     0.174 HD
ENDBRANCH   6  23
TORSDOF 5
ENDMDL
MODEL 5
REMARK VINA RESULT: -7.580904582      1.794      2.197
REMARK  5 active torsions:
REMARK  status: ('A' for Active; 'I' for Inactive)
REMARK    1  A    between atoms: C3_3  and  C4_4 
REMARK       I    between atoms: C4_4  and  N1_6 
REMARK    2  A    between atoms: N1_6  and  C5_8 
REMARK    3  A    between atoms: C5_8  and  C7_10 
REMARK       I    between atoms: C7_10  and  N2_12 
REMARK    4  A    between atoms: N2_12  and  C8_14 
REMARK    5  A    between atoms: C9_18  and  N4_19 
ROOT
HETATM    1  C1  UNL     1      18.362  22.090  34.812  1.00  0.00     0.056 C 
HETATM    2  C2  UNL     1      18.353  20.671  34.445  1.00  0.00     0.039 A 
HETATM    3  C3  UNL     1      18.714  19.700  35.340  1.00  0.00     0.128 A 
HETATM    4  N3  UNL     1      18.673  18.408  34.904  1.00  0.00    -0.186 N 
ATOM      5  H3  UNL     1      18.937  17.663  35.549  1.00  0.00     0.184 HD
HETATM    6  C9  UNL     1      18.295  18.079  33.648  1.00  0.00     0.679 A 
HETATM    7  N5  UNL     1      17.939  19.024  32.762  1.00  0.00    -0.156 N 
ATOM      8  H5  UNL     1      17.654  18.774  31.815  1.00  0.00     0.187 HD
HETATM    9  C10 UNL     1      17.968  20.303  33.156  1.00  0.00     0.268 A 
HETATM   10  O4  UNL     1      17.634  21.181  32.326  1.00  0.00    -0.267 OA
ENDROOT
BRANCH   3  11
HETATM   11  C4  UNL     1      19.123  20.014  36.692  1.00  0.00     0.270 C 
HETATM   12  O1  UNL     1      18.248  20.227  37.608  1.00  0.00    -0.266 OA
HETATM   13  N1  UNL     1      20.489  20.091  37.039  1.00  0.00    -0.343 N 
ATOM     14  H1  UNL     1      21.188  19.922  36.316  1.00  0.00     0.163 HD
BRANCH  13  15
HETATM   15  C5  UNL     1      20.939  20.404  38.386  1.00  0.00     0.173 C 
HETATM   16  C6  UNL     1      20.317  19.462  39.401  1.00  0.00     0.042 C 
BRANCH  15  17
HETATM   17  C7  UNL     1      20.440  21.780  38.716  1.00  0.00     0.246 C 
HETATM   18  O2  UNL     1      20.882  22.803  38.098  1.00  0.00    -0.271 OA
HETATM   19  N2  UNL     1      19.467  21.959  39.723  1.00  0.00    -0.303 N 
ATOM     20  H2  UNL     1      19.107  21.146  40.223  1.00  0.00     0.171 HD
BRANCH  19  21
HETATM   21  C8  UNL     1      18.984  23.240  40.048  1.00  0.00     0.355 C 
HETATM   22  O3  UNL     1      17.756  23.475  40.015  1.00  0.00    -0.283 OA
ENDBRANCH  19  21
ENDBRANCH  15  17
ENDBRANCH  13  15
ENDBRANCH   3  11
BRANCH   6  23
HETATM   23  N4  UNL     1      18.280  16.819  33.296  1.00  0.00    -0.234 N 
ATOM     24  H42 UNL     1      17.604  16.184  33.719  1.00  0.00     0.174 HD
ATOM     25  H41 UNL     1      18.947  16.489  32.598  1.00  0.00     0.174 HD
ENDBRANCH   6  23
TORSDOF 5
ENDMDL
