MODEL 1
REMARK VINA RESULT: -7.985068839      0.000      0.000
REMARK  7 active torsions:
REMARK  status: ('A' for Active; 'I' for Inactive)
REMARK    1  A    between atoms: N1_2  and  C2_4 
REMARK    2  A    between atoms: C2_4  and  C3_5 
REMARK    3  A    between atoms: C4_8  and  C5_9 
REMARK    4  A    between atoms: C5_9  and  N3_10 
REMARK    5  A    between atoms: N3_10  and  N4_12 
REMARK    6  A    between atoms: N4_12  and  N5_13 
REMARK    7  A    between atoms: N4_12  and  C6_16 
ROOT
HETATM    1  C5  UNL     1      19.220  19.742  37.899  1.00  0.00     0.157 C 
ENDROOT
BRANCH   1   2
HETATM    2  C4  UNL     1      18.927  20.113  36.665  1.00  0.00     0.126 A 
HETATM    3  N2  UNL     1      18.627  19.286  35.620  1.00  0.00    -0.336 N 
HETATM    4  C3  UNL     1      18.394  20.062  34.550  1.00  0.00     0.117 A 
ATOM      5  H2  UNL     1      18.587  18.268  35.648  1.00  0.00     0.168 HD
HETATM    6  C12 UNL     1      18.556  21.366  34.959  1.00  0.00     0.275 A 
HETATM    7  N6  UNL     1      18.885  21.400  36.258  1.00  0.00    -0.306 N 
HETATM    8  O1  UNL     1      18.414  22.386  34.204  1.00  0.00    -0.266 OA
ATOM      9  H6  UNL     1      19.067  22.228  36.825  1.00  0.00     0.170 HD
BRANCH   4  10
HETATM   10  C2  UNL     1      18.067  19.628  33.332  1.00  0.00     0.118 C 
BRANCH  10  11
HETATM   11  N1  UNL     1      18.365  18.300  32.943  1.00  0.00    -0.401 N 
HETATM   12  C1  UNL     1      17.302  17.317  32.844  1.00  0.00     0.145 C 
ATOM     13  H1  UNL     1      19.327  18.033  32.731  1.00  0.00     0.158 HD
ENDBRANCH  10  11
ENDBRANCH   4  10
ENDBRANCH   1   2
BRANCH   1  14
HETATM   14  N3  UNL     1      20.482  19.205  38.190  1.00  0.00    -0.287 N 
ATOM     15  H3  UNL     1      20.546  18.207  38.389  1.00  0.00     0.188 HD
BRANCH  14  16
HETATM   16  N4  UNL     1      21.662  19.962  38.226  1.00  0.00    -0.204 N 
BRANCH  16  17
HETATM   17  N5  UNL     1      22.756  19.552  37.501  1.00  0.00    -0.324 N 
ATOM     18  H52 UNL     1      23.008  18.568  37.415  1.00  0.00     0.179 HD
ATOM     19  H51 UNL     1      23.339  20.244  37.031  1.00  0.00     0.179 HD
ENDBRANCH  16  17
BRANCH  16  20
HETATM   20  C6  UNL     1      21.686  21.136  39.018  1.00  0.00     0.074 A 
HETATM   21  C7  UNL     1      21.744  21.052  40.399  1.00  0.00     0.033 A 
HETATM   22  C8  UNL     1      21.768  22.145  41.206  1.00  0.00     0.002 A 
HETATM   23  C9  UNL     1      21.734  23.413  40.618  1.00  0.00     0.000 A 
HETATM   24  C10 UNL     1      21.676  23.545  39.248  1.00  0.00     0.002 A 
HETATM   25  C11 UNL     1      21.653  22.405  38.474  1.00  0.00     0.033 A 
ENDBRANCH  16  20
ENDBRANCH  14  16
ENDBRANCH   1  14
TORSDOF 7
ENDMDL
MODEL 2
REMARK VINA RESULT: -7.945310751      1.556      2.108
REMARK  7 active torsions:
REMARK  status: ('A' for Active; 'I' for Inactive)
REMARK    1  A    between atoms: N1_2  and  C2_4 
REMARK    2  A    between atoms: C2_4  and  C3_5 
REMARK    3  A    between atoms: C4_8  and  C5_9 
REMARK    4  A    between atoms: C5_9  and  N3_10 
REMARK    5  A    between atoms: N3_10  and  N4_12 
REMARK    6  A    between atoms: N4_12  and  N5_13 
REMARK    7  A    between atoms: N4_12  and  C6_16 
ROOT
HETATM    1  C5  UNL     1      19.490  19.909  38.032  1.00  0.00     0.157 C 
ENDROOT
BRANCH   1   2
HETATM    2  C4  UNL     1      18.539  19.720  37.134  1.00  0.00     0.126 A 
HETATM    3  N2  UNL     1      18.718  19.378  35.824  1.00  0.00    -0.336 N 
HETATM    4  C3  UNL     1      17.502  19.287  35.264  1.00  0.00     0.117 A 
ATOM      5  H2  UNL     1      19.611  19.222  35.357  1.00  0.00     0.168 HD
HETATM    6  C12 UNL     1      16.586  19.577  36.249  1.00  0.00     0.275 A 
HETATM    7  N6  UNL     1      17.221  19.844  37.400  1.00  0.00    -0.306 N 
HETATM    8  O1  UNL     1      15.319  19.589  36.083  1.00  0.00    -0.266 OA
ATOM      9  H6  UNL     1      16.796  20.092  38.293  1.00  0.00     0.170 HD
BRANCH   4  10
HETATM   10  C2  UNL     1      17.253  18.973  33.992  1.00  0.00     0.118 C 
BRANCH  10  11
HETATM   11  N1  UNL     1      16.794  19.962  33.088  1.00  0.00    -0.401 N 
HETATM   12  C1  UNL     1      17.576  21.165  32.872  1.00  0.00     0.145 C 
ATOM     13  H1  UNL     1      15.915  19.828  32.588  1.00  0.00     0.158 HD
ENDBRANCH  10  11
ENDBRANCH   4  10
ENDBRANCH   1   2
BRANCH   1  14
HETATM   14  N3  UNL     1      20.809  19.528  37.748  1.00  0.00    -0.287 N 
ATOM     15  H3  UNL     1      20.958  18.670  37.217  1.00  0.00     0.188 HD
BRANCH  14  16
HETATM   16  N4  UNL     1      21.936  20.257  38.153  1.00  0.00    -0.204 N 
BRANCH  16  17
HETATM   17  N5  UNL     1      23.174  19.930  37.655  1.00  0.00    -0.324 N 
ATOM     18  H52 UNL     1      23.733  19.175  38.051  1.00  0.00     0.179 HD
ATOM     19  H51 UNL     1      23.556  20.452  36.865  1.00  0.00     0.179 HD
ENDBRANCH  16  17
BRANCH  16  20
HETATM   20  C6  UNL     1      21.756  21.319  39.073  1.00  0.00     0.074 A 
HETATM   21  C7  UNL     1      21.492  22.603  38.624  1.00  0.00     0.033 A 
HETATM   22  C8  UNL     1      21.311  23.657  39.461  1.00  0.00     0.002 A 
HETATM   23  C9  UNL     1      21.394  23.440  40.840  1.00  0.00     0.000 A 
HETATM   24  C10 UNL     1      21.654  22.180  41.333  1.00  0.00     0.002 A 
HETATM   25  C11 UNL     1      21.830  21.144  40.441  1.00  0.00     0.033 A 
ENDBRANCH  16  20
ENDBRANCH  14  16
ENDBRANCH   1  14
TORSDOF 7
ENDMDL
MODEL 3
REMARK VINA RESULT: -7.657569976      2.683      6.836
REMARK  7 active torsions:
REMARK  status: ('A' for Active; 'I' for Inactive)
REMARK    1  A    between atoms: N1_2  and  C2_4 
REMARK    2  A    between atoms: C2_4  and  C3_5 
REMARK    3  A    between atoms: C4_8  and  C5_9 
REMARK    4  A    between atoms: C5_9  and  N3_10 
REMARK    5  A    between atoms: N3_10  and  N4_12 
REMARK    6  A    between atoms: N4_12  and  N5_13 
REMARK    7  A    between atoms: N4_12  and  C6_16 
ROOT
HETATM    1  C5  UNL     1      20.731  19.837  38.348  1.00  0.00     0.157 C 
ENDROOT
BRANCH   1   2
HETATM    2  C4  UNL     1      20.838  20.987  38.991  1.00  0.00     0.126 A 
HETATM    3  N2  UNL     1      19.819  21.683  39.578  1.00  0.00    -0.336 N 
HETATM    4  C3  UNL     1      20.351  22.791  40.117  1.00  0.00     0.117 A 
ATOM      5  H2  UNL     1      18.837  21.412  39.601  1.00  0.00     0.168 HD
HETATM    6  C12 UNL     1      21.701  22.757  39.851  1.00  0.00     0.275 A 
HETATM    7  N6  UNL     1      22.002  21.649  39.158  1.00  0.00    -0.306 N 
HETATM    8  O1  UNL     1      22.535  23.654  40.213  1.00  0.00    -0.266 OA
ATOM      9  H6  UNL     1      22.922  21.365  38.824  1.00  0.00     0.170 HD
BRANCH   4  10
HETATM   10  C2  UNL     1      19.678  23.732  40.782  1.00  0.00     0.118 C 
BRANCH  10  11
HETATM   11  N1  UNL     1      20.333  24.527  41.753  1.00  0.00    -0.401 N 
HETATM   12  C1  UNL     1      20.134  25.965  41.766  1.00  0.00     0.145 C 
ATOM     13  H1  UNL     1      20.943  24.090  42.444  1.00  0.00     0.158 HD
ENDBRANCH  10  11
ENDBRANCH   4  10
ENDBRANCH   1   2
BRANCH   1  14
HETATM   14  N3  UNL     1      20.286  19.812  37.020  1.00  0.00    -0.287 N 
ATOM     15  H3  UNL     1      20.985  19.838  36.278  1.00  0.00     0.188 HD
BRANCH  14  16
HETATM   16  N4  UNL     1      18.934  19.756  36.651  1.00  0.00    -0.204 N 
BRANCH  16  17
HETATM   17  N5  UNL     1      18.013  19.219  37.519  1.00  0.00    -0.324 N 
ATOM     18  H52 UNL     1      17.890  18.212  37.620  1.00  0.00     0.179 HD
ATOM     19  H51 UNL     1      17.430  19.837  38.084  1.00  0.00     0.179 HD
ENDBRANCH  16  17
BRANCH  16  20
HETATM   20  C6  UNL     1      18.561  20.261  35.381  1.00  0.00     0.074 A 
HETATM   21  C7  UNL     1      18.480  21.626  35.163  1.00  0.00     0.033 A 
HETATM   22  C8  UNL     1      18.128  22.164  33.966  1.00  0.00     0.002 A 
HETATM   23  C9  UNL     1      17.833  21.303  32.905  1.00  0.00     0.000 A 
HETATM   24  C10 UNL     1      17.901  19.937  33.076  1.00  0.00     0.002 A 
HETATM   25  C11 UNL     1      18.263  19.442  34.309  1.00  0.00     0.033 A 
ENDBRANCH  16  20
ENDBRANCH  14  16
ENDBRANCH   1  14
TORSDOF 7
ENDMDL
MODEL 4
REMARK VINA RESULT: -7.641203271      2.685      6.815
REMARK  7 active torsions:
REMARK  status: ('A' for Active; 'I' for Inactive)
REMARK    1  A    between atoms: N1_2  and  C2_4 
REMARK    2  A    between atoms: C2_4  and  C3_5 
REMARK    3  A    between atoms: C4_8  and  C5_9 
REMARK    4  A    between atoms: C5_9  and  N3_10 
REMARK    5  A    between atoms: N3_10  and  N4_12 
REMARK    6  A    between atoms: N4_12  and  N5_13 
REMARK    7  A    between atoms: N4_12  and  C6_16 
ROOT
HETATM    1  C5  UNL     1      20.743  19.835  38.350  1.00  0.00     0.157 C 
ENDROOT
BRANCH   1   2
HETATM    2  C4  UNL     1      20.843  20.983  38.997  1.00  0.00     0.126 A 
HETATM    3  N2  UNL     1      19.820  21.671  39.586  1.00  0.00    -0.336 N 
HETATM    4  C3  UNL     1      20.345  22.779  40.130  1.00  0.00     0.117 A 
ATOM      5  H2  UNL     1      18.839  21.394  39.608  1.00  0.00     0.168 HD
HETATM    6  C12 UNL     1      21.695  22.754  39.865  1.00  0.00     0.275 A 
HETATM    7  N6  UNL     1      22.003  21.651  39.168  1.00  0.00    -0.306 N 
HETATM    8  O1  UNL     1      22.525  23.654  40.232  1.00  0.00    -0.266 OA
ATOM      9  H6  UNL     1      22.926  21.373  38.833  1.00  0.00     0.170 HD
BRANCH   4  10
HETATM   10  C2  UNL     1      19.667  23.714  40.798  1.00  0.00     0.118 C 
BRANCH  10  11
HETATM   11  N1  UNL     1      20.317  24.511  41.771  1.00  0.00    -0.401 N 
HETATM   12  C1  UNL     1      20.120  25.949  41.779  1.00  0.00     0.145 C 
ATOM     13  H1  UNL     1      20.924  24.075  42.466  1.00  0.00     0.158 HD
ENDBRANCH  10  11
ENDBRANCH   4  10
ENDBRANCH   1   2
BRANCH   1  14
HETATM   14  N3  UNL     1      20.300  19.813  37.021  1.00  0.00    -0.287 N 
ATOM     15  H3  UNL     1      21.001  19.839  36.280  1.00  0.00     0.188 HD
BRANCH  14  16
HETATM   16  N4  UNL     1      18.950  19.760  36.649  1.00  0.00    -0.204 N 
BRANCH  16  17
HETATM   17  N5  UNL     1      18.030  19.197  37.501  1.00  0.00    -0.324 N 
ATOM     18  H52 UNL     1      17.824  18.198  37.489  1.00  0.00     0.179 HD
ATOM     19  H51 UNL     1      17.533  19.785  38.170  1.00  0.00     0.179 HD
ENDBRANCH  16  17
BRANCH  16  20
HETATM   20  C6  UNL     1      18.575  20.295  35.391  1.00  0.00     0.074 A 
HETATM   21  C7  UNL     1      18.297  19.456  34.325  1.00  0.00     0.033 A 
HETATM   22  C8  UNL     1      17.934  19.914  33.099  1.00  0.00     0.002 A 
HETATM   23  C9  UNL     1      17.837  21.295  32.901  1.00  0.00     0.000 A 
HETATM   24  C10 UNL     1      18.104  22.168  33.934  1.00  0.00     0.002 A 
HETATM   25  C11 UNL     1      18.468  21.651  35.158  1.00  0.00     0.033 A 
ENDBRANCH  16  20
ENDBRANCH  14  16
ENDBRANCH   1  14
TORSDOF 7
ENDMDL
MODEL 5
REMARK VINA RESULT: -7.640025756      2.225      6.942
REMARK  7 active torsions:
REMARK  status: ('A' for Active; 'I' for Inactive)
REMARK    1  A    between atoms: N1_2  and  C2_4 
REMARK    2  A    between atoms: C2_4  and  C3_5 
REMARK    3  A    between atoms: C4_8  and  C5_9 
REMARK    4  A    between atoms: C5_9  and  N3_10 
REMARK    5  A    between atoms: N3_10  and  N4_12 
REMARK    6  A    between atoms: N4_12  and  N5_13 
REMARK    7  A    between atoms: N4_12  and  C6_16 
ROOT
HETATM    1  C5  UNL     1      17.900  19.974  38.198  1.00  0.00     0.157 C 
ENDROOT
BRANCH   1   2
HETATM    2  C4  UNL     1      19.160  20.371  38.199  1.00  0.00     0.126 A 
HETATM    3  N2  UNL     1      19.610  21.636  38.451  1.00  0.00    -0.336 N 
HETATM    4  C3  UNL     1      20.948  21.612  38.352  1.00  0.00     0.117 A 
ATOM      5  H2  UNL     1      19.036  22.449  38.673  1.00  0.00     0.168 HD
HETATM    6  C12 UNL     1      21.302  20.320  38.037  1.00  0.00     0.275 A 
HETATM    7  N6  UNL     1      20.204  19.556  37.942  1.00  0.00    -0.306 N 
HETATM    8  O1  UNL     1      22.502  19.917  37.863  1.00  0.00    -0.266 OA
ATOM      9  H6  UNL     1      20.166  18.561  37.720  1.00  0.00     0.170 HD
BRANCH   4  10
HETATM   10  C2  UNL     1      21.760  22.655  38.530  1.00  0.00     0.118 C 
BRANCH  10  11
HETATM   11  N1  UNL     1      22.612  22.714  39.659  1.00  0.00    -0.401 N 
HETATM   12  C1  UNL     1      22.130  22.271  40.954  1.00  0.00     0.145 C 
ATOM     13  H1  UNL     1      23.564  23.067  39.562  1.00  0.00     0.158 HD
ENDBRANCH  10  11
ENDBRANCH   4  10
ENDBRANCH   1   2
BRANCH   1  14
HETATM   14  N3  UNL     1      17.448  19.070  37.226  1.00  0.00    -0.287 N 
ATOM     15  H3  UNL     1      17.666  18.082  37.352  1.00  0.00     0.188 HD
BRANCH  14  16
HETATM   16  N4  UNL     1      16.715  19.445  36.092  1.00  0.00    -0.204 N 
BRANCH  16  17
HETATM   17  N5  UNL     1      15.764  20.433  36.191  1.00  0.00    -0.324 N 
ATOM     18  H52 UNL     1      15.962  21.330  36.635  1.00  0.00     0.179 HD
ATOM     19  H51 UNL     1      14.830  20.276  35.813  1.00  0.00     0.179 HD
ENDBRANCH  16  17
BRANCH  16  20
HETATM   20  C6  UNL     1      16.983  18.785  34.868  1.00  0.00     0.074 A 
HETATM   21  C7  UNL     1      17.818  17.680  34.833  1.00  0.00     0.033 A 
HETATM   22  C8  UNL     1      18.109  17.009  33.688  1.00  0.00     0.002 A 
HETATM   23  C9  UNL     1      17.542  17.452  32.489  1.00  0.00     0.000 A 
HETATM   24  C10 UNL     1      16.705  18.546  32.476  1.00  0.00     0.002 A 
HETATM   25  C11 UNL     1      16.442  19.191  33.664  1.00  0.00     0.033 A 
ENDBRANCH  16  20
ENDBRANCH  14  16
ENDBRANCH   1  14
TORSDOF 7
ENDMDL
