MODEL 1
REMARK VINA RESULT: -7.806181846      0.000      0.000
REMARK  3 active torsions:
REMARK  status: ('A' for Active; 'I' for Inactive)
REMARK    1  A    between atoms: C3_3  and  C4_4 
REMARK       I    between atoms: C4_4  and  N1_6 
REMARK       I    between atoms: N1_6  and  C5_8 
REMARK       I    between atoms: C5_8  and  N2_9 
REMARK       I    between atoms: C5_8  and  N3_13 
REMARK    2  A    between atoms: C9_20  and  S1_21 
REMARK    3  A    between atoms: S1_21  and  N4_22 
ROOT
HETATM    1  C1  UNL     1      16.960  18.603  35.981  1.00  0.00     0.051 C 
HETATM    2  C2  UNL     1      17.310  19.519  34.896  1.00  0.00    -0.023 A 
HETATM    3  C3  UNL     1      17.239  20.890  35.064  1.00  0.00     0.039 A 
HETATM    4  C6  UNL     1      17.568  21.741  33.998  1.00  0.00     0.017 A 
HETATM    5  C7  UNL     1      17.958  21.190  32.806  1.00  0.00     0.003 A 
HETATM    6  C8  UNL     1      18.023  19.837  32.664  1.00  0.00     0.026 A 
HETATM    7  C9  UNL     1      17.709  18.941  33.682  1.00  0.00     0.086 A 
ENDROOT
BRANCH   3   8
HETATM    8  C4  UNL     1      16.933  21.560  36.318  1.00  0.00     0.255 C 
HETATM    9  O1  UNL     1      17.905  21.879  37.060  1.00  0.00    -0.268 OA
HETATM   10  N1  UNL     1      15.652  21.882  36.787  1.00  0.00    -0.307 N 
HETATM   11  C5  UNL     1      15.382  22.554  38.028  1.00  0.00     0.483 C 
ATOM     12  H1  UNL     1      14.855  21.621  36.206  1.00  0.00     0.166 HD
HETATM   13  N2  UNL     1      15.053  21.587  39.080  1.00  0.00    -0.033 N 
HETATM   14  N3  UNL     1      14.331  23.522  37.984  1.00  0.00    -0.033 N 
ATOM     15  H23 UNL     1      14.283  20.977  38.806  1.00  0.00     0.278 HD
ATOM     16  H22 UNL     1      15.780  20.879  39.183  1.00  0.00     0.278 HD
ATOM     17  H21 UNL     1      14.862  22.064  39.962  1.00  0.00     0.278 HD
ATOM     18  H33 UNL     1      14.513  24.204  37.249  1.00  0.00     0.278 HD
ATOM     19  H32 UNL     1      13.477  23.094  37.625  1.00  0.00     0.278 HD
ATOM     20  H31 UNL     1      14.139  23.999  38.866  1.00  0.00     0.278 HD
ENDBRANCH   3   8
BRANCH   7  21
HETATM   21  S1  UNL     1      17.737  17.231  33.428  1.00  0.00     0.257 S 
HETATM   22  O2  UNL     1      17.936  16.934  31.940  1.00  0.00    -0.201 OA
HETATM   23  O3  UNL     1      16.434  16.624  33.860  1.00  0.00    -0.201 OA
BRANCH  21  24
HETATM   24  N4  UNL     1      19.016  16.495  34.251  1.00  0.00    -0.324 N 
ATOM     25  H42 UNL     1      18.894  15.961  35.111  1.00  0.00     0.169 HD
ATOM     26  H41 UNL     1      19.908  16.653  33.782  1.00  0.00     0.169 HD
ENDBRANCH  21  24
ENDBRANCH   7  21
TORSDOF 3
ENDMDL
MODEL 2
REMARK VINA RESULT: -7.651458613      4.296      6.471
REMARK  3 active torsions:
REMARK  status: ('A' for Active; 'I' for Inactive)
REMARK    1  A    between atoms: C3_3  and  C4_4 
REMARK       I    between atoms: C4_4  and  N1_6 
REMARK       I    between atoms: N1_6  and  C5_8 
REMARK       I    between atoms: C5_8  and  N2_9 
REMARK       I    between atoms: C5_8  and  N3_13 
REMARK    2  A    between atoms: C9_20  and  S1_21 
REMARK    3  A    between atoms: S1_21  and  N4_22 
ROOT
HETATM    1  C1  UNL     1      20.672  20.493  37.403  1.00  0.00     0.051 C 
HETATM    2  C2  UNL     1      19.623  21.304  38.021  1.00  0.00    -0.023 A 
HETATM    3  C3  UNL     1      18.365  21.399  37.456  1.00  0.00     0.039 A 
HETATM    4  C6  UNL     1      17.384  22.197  38.067  1.00  0.00     0.017 A 
HETATM    5  C7  UNL     1      17.699  22.868  39.219  1.00  0.00     0.003 A 
HETATM    6  C8  UNL     1      18.945  22.757  39.759  1.00  0.00     0.026 A 
HETATM    7  C9  UNL     1      19.959  21.983  39.202  1.00  0.00     0.086 A 
ENDROOT
BRANCH   3   8
HETATM    8  C4  UNL     1      17.914  20.649  36.295  1.00  0.00     0.255 C 
HETATM    9  O1  UNL     1      17.305  19.562  36.506  1.00  0.00    -0.268 OA
HETATM   10  N1  UNL     1      18.100  21.016  34.955  1.00  0.00    -0.307 N 
HETATM   11  C5  UNL     1      17.634  20.255  33.828  1.00  0.00     0.483 C 
ATOM     12  H1  UNL     1      18.601  21.884  34.766  1.00  0.00     0.166 HD
HETATM   13  N2  UNL     1      18.707  19.409  33.295  1.00  0.00    -0.033 N 
HETATM   14  N3  UNL     1      17.110  21.026  32.744  1.00  0.00    -0.033 N 
ATOM     15  H23 UNL     1      19.539  19.954  33.065  1.00  0.00     0.278 HD
ATOM     16  H22 UNL     1      19.110  18.810  34.015  1.00  0.00     0.278 HD
ATOM     17  H21 UNL     1      18.376  18.869  32.494  1.00  0.00     0.278 HD
ATOM     18  H33 UNL     1      16.371  21.644  33.079  1.00  0.00     0.278 HD
ATOM     19  H32 UNL     1      17.798  21.716  32.441  1.00  0.00     0.278 HD
ATOM     20  H31 UNL     1      16.779  20.486  31.944  1.00  0.00     0.278 HD
ENDBRANCH   3   8
BRANCH   7  21
HETATM   21  S1  UNL     1      21.546  21.935  39.885  1.00  0.00     0.257 S 
HETATM   22  O2  UNL     1      21.965  20.480  40.112  1.00  0.00    -0.201 OA
HETATM   23  O3  UNL     1      21.560  22.641  41.210  1.00  0.00    -0.201 OA
BRANCH  21  24
HETATM   24  N4  UNL     1      22.694  22.621  38.854  1.00  0.00    -0.324 N 
ATOM     25  H42 UNL     1      22.493  23.409  38.238  1.00  0.00     0.169 HD
ATOM     26  H41 UNL     1      23.598  22.153  38.927  1.00  0.00     0.169 HD
ENDBRANCH  21  24
ENDBRANCH   7  21
TORSDOF 3
ENDMDL
MODEL 3
REMARK VINA RESULT: -7.638804891      3.767      6.301
REMARK  3 active torsions:
REMARK  status: ('A' for Active; 'I' for Inactive)
REMARK    1  A    between atoms: C3_3  and  C4_4 
REMARK       I    between atoms: C4_4  and  N1_6 
REMARK       I    between atoms: N1_6  and  C5_8 
REMARK       I    between atoms: C5_8  and  N2_9 
REMARK       I    between atoms: C5_8  and  N3_13 
REMARK    2  A    between atoms: C9_20  and  S1_21 
REMARK    3  A    between atoms: S1_21  and  N4_22 
ROOT
HETATM    1  C1  UNL     1      20.317  20.334  37.057  1.00  0.00     0.051 C 
HETATM    2  C2  UNL     1      18.971  20.902  37.134  1.00  0.00    -0.023 A 
HETATM    3  C3  UNL     1      18.042  20.679  36.134  1.00  0.00     0.039 A 
HETATM    4  C6  UNL     1      16.763  21.251  36.231  1.00  0.00     0.017 A 
HETATM    5  C7  UNL     1      16.462  22.020  37.324  1.00  0.00     0.003 A 
HETATM    6  C8  UNL     1      17.393  22.223  38.297  1.00  0.00     0.026 A 
HETATM    7  C9  UNL     1      18.676  21.686  38.259  1.00  0.00     0.086 A 
ENDROOT
BRANCH   3   8
HETATM    8  C4  UNL     1      18.240  19.800  34.993  1.00  0.00     0.255 C 
HETATM    9  O1  UNL     1      18.592  20.332  33.903  1.00  0.00    -0.268 OA
HETATM   10  N1  UNL     1      18.069  18.408  34.987  1.00  0.00    -0.307 N 
HETATM   11  C5  UNL     1      18.281  17.565  33.843  1.00  0.00     0.483 C 
ATOM     12  H1  UNL     1      17.773  17.964  35.855  1.00  0.00     0.166 HD
HETATM   13  N2  UNL     1      17.013  17.291  33.159  1.00  0.00    -0.033 N 
HETATM   14  N3  UNL     1      18.907  16.310  34.117  1.00  0.00    -0.033 N 
ATOM     15  H23 UNL     1      16.319  16.897  33.794  1.00  0.00     0.278 HD
ATOM     16  H22 UNL     1      16.524  18.150  32.910  1.00  0.00     0.278 HD
ATOM     17  H21 UNL     1      17.164  16.692  32.347  1.00  0.00     0.278 HD
ATOM     18  H33 UNL     1      19.787  16.457  34.610  1.00  0.00     0.278 HD
ATOM     19  H32 UNL     1      18.382  15.805  34.831  1.00  0.00     0.278 HD
ATOM     20  H31 UNL     1      19.058  15.711  33.304  1.00  0.00     0.278 HD
ENDBRANCH   3   8
BRANCH   7  21
HETATM   21  S1  UNL     1      19.846  22.035  39.483  1.00  0.00     0.257 S 
HETATM   22  O2  UNL     1      19.198  22.872  40.590  1.00  0.00    -0.201 OA
HETATM   23  O3  UNL     1      20.984  22.822  38.902  1.00  0.00    -0.201 OA
BRANCH  21  24
HETATM   24  N4  UNL     1      20.431  20.627  40.212  1.00  0.00    -0.324 N 
ATOM     25  H42 UNL     1      20.127  19.691  39.944  1.00  0.00     0.169 HD
ATOM     26  H41 UNL     1      21.115  20.833  40.940  1.00  0.00     0.169 HD
ENDBRANCH  21  24
ENDBRANCH   7  21
TORSDOF 3
ENDMDL
MODEL 4
REMARK VINA RESULT: -7.615177299      4.118      6.514
REMARK  3 active torsions:
REMARK  status: ('A' for Active; 'I' for Inactive)
REMARK    1  A    between atoms: C3_3  and  C4_4 
REMARK       I    between atoms: C4_4  and  N1_6 
REMARK       I    between atoms: N1_6  and  C5_8 
REMARK       I    between atoms: C5_8  and  N2_9 
REMARK       I    between atoms: C5_8  and  N3_13 
REMARK    2  A    between atoms: C9_20  and  S1_21 
REMARK    3  A    between atoms: S1_21  and  N4_22 
ROOT
HETATM    1  C1  UNL     1      20.497  20.854  37.411  1.00  0.00     0.051 C 
HETATM    2  C2  UNL     1      19.390  21.578  38.036  1.00  0.00    -0.023 A 
HETATM    3  C3  UNL     1      18.127  21.582  37.471  1.00  0.00     0.039 A 
HETATM    4  C6  UNL     1      17.089  22.298  38.089  1.00  0.00     0.017 A 
HETATM    5  C7  UNL     1      17.353  22.981  39.246  1.00  0.00     0.003 A 
HETATM    6  C8  UNL     1      18.604  22.960  39.785  1.00  0.00     0.026 A 
HETATM    7  C9  UNL     1      19.673  22.270  39.222  1.00  0.00     0.086 A 
ENDROOT
BRANCH   3   8
HETATM    8  C4  UNL     1      17.734  20.809  36.304  1.00  0.00     0.255 C 
HETATM    9  O1  UNL     1      17.094  19.738  36.504  1.00  0.00    -0.268 OA
HETATM   10  N1  UNL     1      18.007  21.138  34.969  1.00  0.00    -0.307 N 
HETATM   11  C5  UNL     1      17.597  20.356  33.836  1.00  0.00     0.483 C 
ATOM     12  H1  UNL     1      18.534  21.993  34.790  1.00  0.00     0.166 HD
HETATM   13  N2  UNL     1      18.684  19.479  33.389  1.00  0.00    -0.033 N 
HETATM   14  N3  UNL     1      17.153  21.107  32.703  1.00  0.00    -0.033 N 
ATOM     15  H23 UNL     1      19.538  20.004  33.197  1.00  0.00     0.278 HD
ATOM     16  H22 UNL     1      19.032  18.893  34.147  1.00  0.00     0.278 HD
ATOM     17  H21 UNL     1      18.393  18.924  32.584  1.00  0.00     0.278 HD
ATOM     18  H33 UNL     1      16.406  21.745  32.977  1.00  0.00     0.278 HD
ATOM     19  H32 UNL     1      17.870  21.778  32.425  1.00  0.00     0.278 HD
ATOM     20  H31 UNL     1      16.861  20.552  31.898  1.00  0.00     0.278 HD
ENDBRANCH   3   8
BRANCH   7  21
HETATM   21  S1  UNL     1      21.260  22.337  39.905  1.00  0.00     0.257 S 
HETATM   22  O2  UNL     1      22.230  22.956  38.895  1.00  0.00    -0.201 OA
HETATM   23  O3  UNL     1      21.741  20.953  40.233  1.00  0.00    -0.201 OA
BRANCH  21  24
HETATM   24  N4  UNL     1      21.307  23.306  41.289  1.00  0.00    -0.324 N 
ATOM     25  H42 UNL     1      21.639  24.270  41.285  1.00  0.00     0.169 HD
ATOM     26  H41 UNL     1      20.967  22.808  42.112  1.00  0.00     0.169 HD
ENDBRANCH  21  24
ENDBRANCH   7  21
TORSDOF 3
ENDMDL
MODEL 5
REMARK VINA RESULT: -7.591234587      4.262      6.556
REMARK  3 active torsions:
REMARK  status: ('A' for Active; 'I' for Inactive)
REMARK    1  A    between atoms: C3_3  and  C4_4 
REMARK       I    between atoms: C4_4  and  N1_6 
REMARK       I    between atoms: N1_6  and  C5_8 
REMARK       I    between atoms: C5_8  and  N2_9 
REMARK       I    between atoms: C5_8  and  N3_13 
REMARK    2  A    between atoms: C9_20  and  S1_21 
REMARK    3  A    between atoms: S1_21  and  N4_22 
ROOT
HETATM    1  C1  UNL     1      20.666  20.749  37.380  1.00  0.00     0.051 C 
HETATM    2  C2  UNL     1      19.589  21.491  38.037  1.00  0.00    -0.023 A 
HETATM    3  C3  UNL     1      18.310  21.511  37.512  1.00  0.00     0.039 A 
HETATM    4  C6  UNL     1      17.302  22.244  38.159  1.00  0.00     0.017 A 
HETATM    5  C7  UNL     1      17.612  22.927  39.305  1.00  0.00     0.003 A 
HETATM    6  C8  UNL     1      18.879  22.890  39.805  1.00  0.00     0.026 A 
HETATM    7  C9  UNL     1      19.920  22.183  39.211  1.00  0.00     0.086 A 
ENDROOT
BRANCH   3   8
HETATM    8  C4  UNL     1      17.869  20.740  36.361  1.00  0.00     0.255 C 
HETATM    9  O1  UNL     1      17.241  19.666  36.586  1.00  0.00    -0.268 OA
HETATM   10  N1  UNL     1      18.083  21.073  35.016  1.00  0.00    -0.307 N 
HETATM   11  C5  UNL     1      17.627  20.293  33.899  1.00  0.00     0.483 C 
ATOM     12  H1  UNL     1      18.599  21.930  34.817  1.00  0.00     0.166 HD
HETATM   13  N2  UNL     1      18.697  19.421  33.404  1.00  0.00    -0.033 N 
HETATM   14  N3  UNL     1      17.132  21.045  32.789  1.00  0.00    -0.033 N 
ATOM     15  H23 UNL     1      19.540  19.948  33.177  1.00  0.00     0.278 HD
ATOM     16  H22 UNL     1      19.079  18.833  34.145  1.00  0.00     0.278 HD
ATOM     17  H21 UNL     1      18.372  18.867  32.611  1.00  0.00     0.278 HD
ATOM     18  H33 UNL     1      16.396  21.680  33.096  1.00  0.00     0.278 HD
ATOM     19  H32 UNL     1      17.834  21.719  32.482  1.00  0.00     0.278 HD
ATOM     20  H31 UNL     1      16.808  20.491  31.996  1.00  0.00     0.278 HD
ENDBRANCH   3   8
BRANCH   7  21
HETATM   21  S1  UNL     1      21.529  22.230  39.843  1.00  0.00     0.257 S 
HETATM   22  O2  UNL     1      21.527  22.932  41.203  1.00  0.00    -0.201 OA
HETATM   23  O3  UNL     1      22.426  22.997  38.917  1.00  0.00    -0.201 OA
BRANCH  21  24
HETATM   24  N4  UNL     1      22.149  20.678  40.093  1.00  0.00    -0.324 N 
ATOM     25  H42 UNL     1      21.692  19.981  40.680  1.00  0.00     0.169 HD
ATOM     26  H41 UNL     1      23.025  20.535  39.588  1.00  0.00     0.169 HD
ENDBRANCH  21  24
ENDBRANCH   7  21
TORSDOF 3
ENDMDL
