MODEL 1
REMARK VINA RESULT: -8.157210216      0.000      0.000
REMARK  4 active torsions:
REMARK  status: ('A' for Active; 'I' for Inactive)
REMARK       I    between atoms: C2_2  and  N1_4 
REMARK    1  A    between atoms: N1_4  and  C3_6 
REMARK    2  A    between atoms: C5_13  and  C6_14 
REMARK       I    between atoms: C6_14  and  N4_16 
REMARK    3  A    between atoms: N4_16  and  C7_18 
REMARK    4  A    between atoms: C7_18  and  C10_21 
ROOT
HETATM    1  C3  UNL     1      19.572  20.948  38.247  1.00  0.00     0.144 A 
HETATM    2  N2  UNL     1      20.746  20.832  38.927  1.00  0.00    -0.292 N 
ATOM      3  H2  UNL     1      20.955  21.216  39.849  1.00  0.00     0.172 HD
HETATM    4  C4  UNL     1      21.571  20.122  38.155  1.00  0.00     0.326 A 
HETATM    5  O2  UNL     1      22.758  19.816  38.467  1.00  0.00    -0.247 OA
HETATM    6  N3  UNL     1      20.947  19.792  37.019  1.00  0.00    -0.301 N 
ATOM      7  H3  UNL     1      21.360  19.249  36.262  1.00  0.00     0.171 HD
HETATM    8  C5  UNL     1      19.695  20.283  37.023  1.00  0.00     0.149 A 
ENDROOT
BRANCH   8   9
HETATM    9  C6  UNL     1      18.748  20.106  35.937  1.00  0.00     0.273 C 
HETATM   10  O3  UNL     1      17.988  21.010  35.569  1.00  0.00    -0.266 OA
HETATM   11  N4  UNL     1      18.654  18.846  35.235  1.00  0.00    -0.339 N 
ATOM     12  H4  UNL     1      19.263  18.076  35.513  1.00  0.00     0.164 HD
BRANCH  11  13
HETATM   13  C7  UNL     1      17.729  18.650  34.157  1.00  0.00     0.104 C 
HETATM   14  C8  UNL     1      16.334  19.013  34.665  1.00  0.00     0.048 C 
HETATM   15  C9  UNL     1      18.003  19.531  32.964  1.00  0.00     0.048 C 
BRANCH  13  16
HETATM   16  C10 UNL     1      17.682  17.217  33.801  1.00  0.00     0.258 C 
HETATM   17  N5  UNL     1      16.516  16.652  33.230  1.00  0.00    -0.060 NA
HETATM   18  O4  UNL     1      18.678  16.500  34.006  1.00  0.00    -0.274 OA
ENDBRANCH  13  16
ENDBRANCH  11  13
ENDBRANCH   8   9
BRANCH   1  19
HETATM   19  N1  UNL     1      18.409  21.610  38.659  1.00  0.00    -0.311 N 
HETATM   20  C2  UNL     1      18.384  22.746  39.485  1.00  0.00     0.219 C 
HETATM   21  C1  UNL     1      17.066  23.383  39.870  1.00  0.00     0.117 C 
HETATM   22  O1  UNL     1      19.388  23.307  39.954  1.00  0.00    -0.274 OA
ATOM     23  H1  UNL     1      17.514  21.241  38.335  1.00  0.00     0.170 HD
ENDBRANCH   1  19
TORSDOF 4
ENDMDL
MODEL 2
REMARK VINA RESULT: -7.911765477      2.096      5.378
REMARK  4 active torsions:
REMARK  status: ('A' for Active; 'I' for Inactive)
REMARK       I    between atoms: C2_2  and  N1_4 
REMARK    1  A    between atoms: N1_4  and  C3_6 
REMARK    2  A    between atoms: C5_13  and  C6_14 
REMARK       I    between atoms: C6_14  and  N4_16 
REMARK    3  A    between atoms: N4_16  and  C7_18 
REMARK    4  A    between atoms: C7_18  and  C10_21 
ROOT
HETATM    1  C3  UNL     1      17.271  20.223  35.087  1.00  0.00     0.144 A 
HETATM    2  N2  UNL     1      16.879  19.311  34.155  1.00  0.00    -0.292 N 
ATOM      3  H2  UNL     1      15.976  19.274  33.683  1.00  0.00     0.172 HD
HETATM    4  C4  UNL     1      17.904  18.475  33.979  1.00  0.00     0.326 A 
HETATM    5  O2  UNL     1      17.899  17.493  33.180  1.00  0.00    -0.247 OA
HETATM    6  N3  UNL     1      18.919  18.839  34.771  1.00  0.00    -0.301 N 
ATOM      7  H3  UNL     1      19.818  18.362  34.825  1.00  0.00     0.171 HD
HETATM    8  C5  UNL     1      18.577  19.926  35.485  1.00  0.00     0.149 A 
ENDROOT
BRANCH   8   9
HETATM    9  C6  UNL     1      19.451  20.577  36.443  1.00  0.00     0.273 C 
HETATM   10  O3  UNL     1      19.435  21.801  36.627  1.00  0.00    -0.266 OA
HETATM   11  N4  UNL     1      20.390  19.810  37.230  1.00  0.00    -0.339 N 
ATOM     12  H4  UNL     1      20.435  18.799  37.102  1.00  0.00     0.164 HD
BRANCH  11  13
HETATM   13  C7  UNL     1      21.261  20.433  38.185  1.00  0.00     0.104 C 
HETATM   14  C8  UNL     1      22.682  19.943  37.911  1.00  0.00     0.048 C 
HETATM   15  C9  UNL     1      21.289  21.936  38.080  1.00  0.00     0.048 C 
BRANCH  13  16
HETATM   16  C10 UNL     1      20.915  19.968  39.544  1.00  0.00     0.258 C 
HETATM   17  N5  UNL     1      21.694  20.358  40.660  1.00  0.00    -0.060 NA
HETATM   18  O4  UNL     1      19.930  19.227  39.708  1.00  0.00    -0.274 OA
ENDBRANCH  13  16
ENDBRANCH  11  13
ENDBRANCH   8   9
BRANCH   1  19
HETATM   19  N1  UNL     1      16.528  21.297  35.595  1.00  0.00    -0.311 N 
HETATM   20  C2  UNL     1      15.985  21.353  36.890  1.00  0.00     0.219 C 
HETATM   21  C1  UNL     1      15.196  22.566  37.335  1.00  0.00     0.117 C 
HETATM   22  O1  UNL     1      16.094  20.461  37.747  1.00  0.00    -0.274 OA
ATOM     23  H1  UNL     1      16.370  22.096  34.981  1.00  0.00     0.170 HD
ENDBRANCH   1  19
TORSDOF 4
ENDMDL
MODEL 3
REMARK VINA RESULT: -7.714047921      2.610      4.047
REMARK  4 active torsions:
REMARK  status: ('A' for Active; 'I' for Inactive)
REMARK       I    between atoms: C2_2  and  N1_4 
REMARK    1  A    between atoms: N1_4  and  C3_6 
REMARK    2  A    between atoms: C5_13  and  C6_14 
REMARK       I    between atoms: C6_14  and  N4_16 
REMARK    3  A    between atoms: N4_16  and  C7_18 
REMARK    4  A    between atoms: C7_18  and  C10_21 
ROOT
HETATM    1  C3  UNL     1      16.752  22.289  38.250  1.00  0.00     0.144 A 
HETATM    2  N2  UNL     1      15.627  22.760  38.857  1.00  0.00    -0.292 N 
ATOM      3  H2  UNL     1      15.557  23.126  39.806  1.00  0.00     0.172 HD
HETATM    4  C4  UNL     1      14.636  22.649  37.971  1.00  0.00     0.326 A 
HETATM    5  O2  UNL     1      13.437  22.993  38.190  1.00  0.00    -0.247 OA
HETATM    6  N3  UNL     1      15.108  22.126  36.834  1.00  0.00    -0.301 N 
ATOM      7  H3  UNL     1      14.551  21.941  36.000  1.00  0.00     0.171 HD
HETATM    8  C5  UNL     1      16.425  21.882  36.953  1.00  0.00     0.149 A 
ENDROOT
BRANCH   8   9
HETATM    9  C6  UNL     1      17.245  21.312  35.900  1.00  0.00     0.273 C 
HETATM   10  O3  UNL     1      18.418  21.659  35.715  1.00  0.00    -0.266 OA
HETATM   11  N4  UNL     1      16.714  20.303  35.012  1.00  0.00    -0.339 N 
ATOM     12  H4  UNL     1      15.749  19.994  35.132  1.00  0.00     0.164 HD
BRANCH  11  13
HETATM   13  C7  UNL     1      17.508  19.723  33.967  1.00  0.00     0.104 C 
HETATM   14  C8  UNL     1      17.708  20.785  32.888  1.00  0.00     0.048 C 
HETATM   15  C9  UNL     1      18.880  19.297  34.423  1.00  0.00     0.048 C 
BRANCH  13  16
HETATM   16  C10 UNL     1      16.757  18.620  33.332  1.00  0.00     0.258 C 
HETATM   17  N5  UNL     1      16.909  17.288  33.785  1.00  0.00    -0.060 NA
HETATM   18  O4  UNL     1      15.985  18.867  32.388  1.00  0.00    -0.274 OA
ENDBRANCH  13  16
ENDBRANCH  11  13
ENDBRANCH   8   9
BRANCH   1  19
HETATM   19  N1  UNL     1      18.042  22.205  38.790  1.00  0.00    -0.311 N 
HETATM   20  C2  UNL     1      18.406  21.382  39.869  1.00  0.00     0.219 C 
HETATM   21  C1  UNL     1      19.833  21.371  40.374  1.00  0.00     0.117 C 
HETATM   22  O1  UNL     1      17.633  20.627  40.480  1.00  0.00    -0.274 OA
ATOM     23  H1  UNL     1      18.769  22.783  38.369  1.00  0.00     0.170 HD
ENDBRANCH   1  19
TORSDOF 4
ENDMDL
MODEL 4
REMARK VINA RESULT: -7.705686679      1.361      1.768
REMARK  4 active torsions:
REMARK  status: ('A' for Active; 'I' for Inactive)
REMARK       I    between atoms: C2_2  and  N1_4 
REMARK    1  A    between atoms: N1_4  and  C3_6 
REMARK    2  A    between atoms: C5_13  and  C6_14 
REMARK       I    between atoms: C6_14  and  N4_16 
REMARK    3  A    between atoms: N4_16  and  C7_18 
REMARK    4  A    between atoms: C7_18  and  C10_21 
ROOT
HETATM    1  C3  UNL     1      19.985  21.029  38.648  1.00  0.00     0.144 A 
HETATM    2  N2  UNL     1      21.260  20.897  39.112  1.00  0.00    -0.292 N 
ATOM      3  H2  UNL     1      21.636  21.290  39.974  1.00  0.00     0.172 HD
HETATM    4  C4  UNL     1      21.920  20.156  38.220  1.00  0.00     0.326 A 
HETATM    5  O2  UNL     1      23.137  19.827  38.322  1.00  0.00    -0.247 OA
HETATM    6  N3  UNL     1      21.097  19.823  37.219  1.00  0.00    -0.301 N 
ATOM      7  H3  UNL     1      21.357  19.258  36.411  1.00  0.00     0.171 HD
HETATM    8  C5  UNL     1      19.876  20.342  37.436  1.00  0.00     0.149 A 
ENDROOT
BRANCH   8   9
HETATM    9  C6  UNL     1      18.747  20.170  36.539  1.00  0.00     0.273 C 
HETATM   10  O3  UNL     1      17.709  20.834  36.649  1.00  0.00    -0.266 OA
HETATM   11  N4  UNL     1      18.794  19.201  35.469  1.00  0.00    -0.339 N 
ATOM     12  H4  UNL     1      19.632  18.632  35.350  1.00  0.00     0.164 HD
BRANCH  11  13
HETATM   13  C7  UNL     1      17.692  19.017  34.568  1.00  0.00     0.104 C 
HETATM   14  C8  UNL     1      17.737  17.576  34.063  1.00  0.00     0.048 C 
HETATM   15  C9  UNL     1      16.347  19.210  35.220  1.00  0.00     0.048 C 
BRANCH  13  16
HETATM   16  C10 UNL     1      17.874  19.879  33.382  1.00  0.00     0.258 C 
HETATM   17  N5  UNL     1      17.506  21.245  33.421  1.00  0.00    -0.060 NA
HETATM   18  O4  UNL     1      18.354  19.398  32.341  1.00  0.00    -0.274 OA
ENDBRANCH  13  16
ENDBRANCH  11  13
ENDBRANCH   8   9
BRANCH   1  19
HETATM   19  N1  UNL     1      18.927  21.725  39.247  1.00  0.00    -0.311 N 
HETATM   20  C2  UNL     1      19.052  22.959  39.906  1.00  0.00     0.219 C 
HETATM   21  C1  UNL     1      17.839  23.624  40.521  1.00  0.00     0.117 C 
HETATM   22  O1  UNL     1      20.114  23.590  40.040  1.00  0.00    -0.274 OA
ATOM     23  H1  UNL     1      17.999  21.304  39.202  1.00  0.00     0.170 HD
ENDBRANCH   1  19
TORSDOF 4
ENDMDL
MODEL 5
REMARK VINA RESULT: -7.582844935      2.322      6.595
REMARK  4 active torsions:
REMARK  status: ('A' for Active; 'I' for Inactive)
REMARK       I    between atoms: C2_2  and  N1_4 
REMARK    1  A    between atoms: N1_4  and  C3_6 
REMARK    2  A    between atoms: C5_13  and  C6_14 
REMARK       I    between atoms: C6_14  and  N4_16 
REMARK    3  A    between atoms: N4_16  and  C7_18 
REMARK    4  A    between atoms: C7_18  and  C10_21 
ROOT
HETATM    1  C3  UNL     1      17.212  19.925  36.500  1.00  0.00     0.144 A 
HETATM    2  N2  UNL     1      16.020  20.538  36.259  1.00  0.00    -0.292 N 
ATOM      3  H2  UNL     1      15.320  20.258  35.572  1.00  0.00     0.172 HD
HETATM    4  C4  UNL     1      15.944  21.575  37.094  1.00  0.00     0.326 A 
HETATM    5  O2  UNL     1      14.968  22.378  37.154  1.00  0.00    -0.247 OA
HETATM    6  N3  UNL     1      17.050  21.626  37.846  1.00  0.00    -0.301 N 
ATOM      7  H3  UNL     1      17.238  22.325  38.563  1.00  0.00     0.171 HD
HETATM    8  C5  UNL     1      17.876  20.617  37.516  1.00  0.00     0.149 A 
ENDROOT
BRANCH   8   9
HETATM    9  C6  UNL     1      19.165  20.384  38.141  1.00  0.00     0.273 C 
HETATM   10  O3  UNL     1      19.499  19.273  38.572  1.00  0.00    -0.266 OA
HETATM   11  N4  UNL     1      20.121  21.457  38.288  1.00  0.00    -0.339 N 
ATOM     12  H4  UNL     1      19.879  22.388  37.949  1.00  0.00     0.164 HD
BRANCH  11  13
HETATM   13  C7  UNL     1      21.403  21.248  38.900  1.00  0.00     0.104 C 
HETATM   14  C8  UNL     1      21.168  20.636  40.280  1.00  0.00     0.048 C 
HETATM   15  C9  UNL     1      22.280  20.288  38.139  1.00  0.00     0.048 C 
BRANCH  13  16
HETATM   16  C10 UNL     1      22.059  22.552  39.128  1.00  0.00     0.258 C 
HETATM   17  N5  UNL     1      21.808  23.289  40.311  1.00  0.00    -0.060 NA
HETATM   18  O4  UNL     1      22.838  23.006  38.271  1.00  0.00    -0.274 OA
ENDBRANCH  13  16
ENDBRANCH  11  13
ENDBRANCH   8   9
BRANCH   1  19
HETATM   19  N1  UNL     1      17.731  18.790  35.864  1.00  0.00    -0.311 N 
HETATM   20  C2  UNL     1      17.323  18.321  34.604  1.00  0.00     0.219 C 
HETATM   21  C1  UNL     1      17.953  17.079  34.010  1.00  0.00     0.117 C 
HETATM   22  O1  UNL     1      16.453  18.851  33.895  1.00  0.00    -0.274 OA
ATOM     23  H1  UNL     1      18.459  18.266  36.351  1.00  0.00     0.170 HD
ENDBRANCH   1  19
TORSDOF 4
ENDMDL
