MODEL 1
REMARK VINA RESULT: -8.403721250      0.000      0.000
REMARK  14 active torsions:
REMARK  status: ('A' for Active; 'I' for Inactive)
REMARK    1  A    between atoms: C2_2  and  O1_3 
REMARK    2  A    between atoms: O1_3  and  C3_4 
REMARK    3  A    between atoms: C3_4  and  C4_6 
REMARK    4  A    between atoms: C4_6  and  C5_7 
REMARK    5  A    between atoms: C4_6  and  C16_20 
REMARK    6  A    between atoms: C5_7  and  S1_8 
REMARK    7  A    between atoms: S1_8  and  S2_9 
REMARK    8  A    between atoms: S2_9  and  C6_10 
REMARK    9  A    between atoms: C6_10  and  C7_11 
REMARK   10  A    between atoms: C8_12  and  C9_13 
REMARK   11  A    between atoms: C16_20  and  O3_21 
REMARK   12  A    between atoms: C16_20  and  C17_23 
REMARK   13  A    between atoms: C17_23  and  S3_24 
REMARK   14  A    between atoms: S3_24  and  C18_25 
ROOT
HETATM    1  C18 UNL     1      17.590  45.266  -2.442  1.00  0.00     0.002 C 
HETATM    2  C19 UNL     1      17.789  44.127  -3.005  1.00  0.00     0.044 C 
HETATM    3  C20 UNL     1      17.603  42.877  -2.290  1.00  0.00     0.097 C 
HETATM    4  N1  UNL     1      17.462  41.837  -1.742  1.00  0.00    -0.192 NA
HETATM    5  C21 UNL     1      18.224  43.911  -4.424  1.00  0.00     0.002 C 
HETATM    6  C22 UNL     1      19.593  43.390  -4.364  1.00  0.00     0.015 C 
HETATM    7  C23 UNL     1      20.572  44.452  -4.064  1.00  0.00     0.001 C 
HETATM    8  C24 UNL     1      20.233  45.505  -3.085  1.00  0.00     0.001 C 
HETATM    9  C25 UNL     1      19.323  46.601  -3.475  1.00  0.00     0.012 C 
HETATM   10  C26 UNL     1      17.861  46.405  -3.439  1.00  0.00     0.060 C 
HETATM   11  C27 UNL     1      17.184  46.006  -4.714  1.00  0.00     0.232 C 
HETATM   12  C28 UNL     1      18.202  45.068  -5.345  1.00  0.00     0.051 C 
HETATM   13  N2  UNL     1      16.004  45.204  -4.579  1.00  0.00     0.089 N 
HETATM   14  C29 UNL     1      14.864  45.965  -5.035  1.00  0.00     0.310 C 
HETATM   15  C30 UNL     1      16.001  43.967  -5.312  1.00  0.00     0.273 C 
HETATM   16  C31 UNL     1      17.138  43.007  -4.956  1.00  0.00     0.045 C 
ENDROOT
BRANCH   1  17
HETATM   17  S3  UNL     1      17.089  45.702  -0.823  1.00  0.00    -0.130 SA
BRANCH  17  18
HETATM   18  C17 UNL     1      18.041  46.955   0.003  1.00  0.00     0.112 C 
BRANCH  18  19
HETATM   19  C16 UNL     1      18.870  46.272   1.097  1.00  0.00     0.142 C 
BRANCH  19  20
HETATM   20  C4  UNL     1      20.173  47.003   1.286  1.00  0.00     0.125 C 
BRANCH  20  21
HETATM   21  C3  UNL     1      20.078  48.090   2.270  1.00  0.00     0.266 C 
HETATM   22  O2  UNL     1      19.229  49.026   2.081  1.00  0.00    -0.265 OA
BRANCH  21  23
HETATM   23  O1  UNL     1      20.889  48.117   3.390  1.00  0.00    -0.321 OA
BRANCH  23  24
HETATM   24  C2  UNL     1      20.784  49.232   4.241  1.00  0.00     0.174 C 
HETATM   25  C1  UNL     1      21.601  49.116   5.489  1.00  0.00     0.034 C 
ENDBRANCH  23  24
ENDBRANCH  21  23
ENDBRANCH  20  21
BRANCH  20  26
HETATM   26  C5  UNL     1      20.716  47.477  -0.024  1.00  0.00     0.103 C 
BRANCH  26  27
HETATM   27  S1  UNL     1      22.480  47.140  -0.204  1.00  0.00    -0.096 SA
BRANCH  27  28
HETATM   28  S2  UNL     1      23.602  48.576   0.833  1.00  0.00    -0.094 SA
BRANCH  28  29
HETATM   29  C6  UNL     1      24.859  49.328  -0.231  1.00  0.00     0.112 C 
BRANCH  29  30
HETATM   30  C7  UNL     1      25.783  50.165   0.548  1.00  0.00    -0.019 C 
HETATM   31  C8  UNL     1      26.954  50.580   0.153  1.00  0.00    -0.025 C 
BRANCH  31  32
HETATM   32  C9  UNL     1      27.588  50.299  -1.141  1.00  0.00     0.011 C 
HETATM   33  C10 UNL     1      28.843  51.161  -1.331  1.00  0.00     0.009 C 
HETATM   34  C11 UNL     1      29.253  50.993  -2.780  1.00  0.00     0.001 C 
HETATM   35  C12 UNL     1      29.584  49.562  -3.095  1.00  0.00     0.000 C 
HETATM   36  C13 UNL     1      28.529  48.604  -2.614  1.00  0.00     0.005 C 
HETATM   37  C14 UNL     1      28.107  48.855  -1.188  1.00  0.00    -0.011 C 
HETATM   38  C15 UNL     1      29.222  48.611  -0.226  1.00  0.00     0.010 C 
ENDBRANCH  31  32
ENDBRANCH  29  30
ENDBRANCH  28  29
ENDBRANCH  27  28
ENDBRANCH  26  27
ENDBRANCH  20  26
ENDBRANCH  19  20
BRANCH  19  39
HETATM   39  O3  UNL     1      18.130  46.284   2.291  1.00  0.00    -0.394 OA
ATOM     40  H3  UNL     1      18.052  45.403   2.637  1.00  0.00     0.210 HD
ENDBRANCH  19  39
ENDBRANCH  18  19
ENDBRANCH  17  18
ENDBRANCH   1  17
TORSDOF 14
ENDMDL
MODEL 2
REMARK VINA RESULT: -8.238650151      5.090     10.863
REMARK  14 active torsions:
REMARK  status: ('A' for Active; 'I' for Inactive)
REMARK    1  A    between atoms: C2_2  and  O1_3 
REMARK    2  A    between atoms: O1_3  and  C3_4 
REMARK    3  A    between atoms: C3_4  and  C4_6 
REMARK    4  A    between atoms: C4_6  and  C5_7 
REMARK    5  A    between atoms: C4_6  and  C16_20 
REMARK    6  A    between atoms: C5_7  and  S1_8 
REMARK    7  A    between atoms: S1_8  and  S2_9 
REMARK    8  A    between atoms: S2_9  and  C6_10 
REMARK    9  A    between atoms: C6_10  and  C7_11 
REMARK   10  A    between atoms: C8_12  and  C9_13 
REMARK   11  A    between atoms: C16_20  and  O3_21 
REMARK   12  A    between atoms: C16_20  and  C17_23 
REMARK   13  A    between atoms: C17_23  and  S3_24 
REMARK   14  A    between atoms: S3_24  and  C18_25 
ROOT
HETATM    1  C18 UNL     1      22.955  51.043   4.966  1.00  0.00     0.002 C 
HETATM    2  C19 UNL     1      22.626  50.851   6.194  1.00  0.00     0.044 C 
HETATM    3  C20 UNL     1      22.678  49.533   6.803  1.00  0.00     0.097 C 
HETATM    4  N1  UNL     1      22.708  48.477   7.336  1.00  0.00    -0.192 NA
HETATM    5  C21 UNL     1      22.158  51.903   7.155  1.00  0.00     0.002 C 
HETATM    6  C22 UNL     1      20.740  51.631   7.411  1.00  0.00     0.015 C 
HETATM    7  C23 UNL     1      19.888  52.061   6.287  1.00  0.00     0.001 C 
HETATM    8  C24 UNL     1      20.349  51.858   4.899  1.00  0.00     0.001 C 
HETATM    9  C25 UNL     1      21.372  52.758   4.328  1.00  0.00     0.012 C 
HETATM   10  C26 UNL     1      22.803  52.530   4.604  1.00  0.00     0.060 C 
HETATM   11  C27 UNL     1      23.421  53.295   5.733  1.00  0.00     0.232 C 
HETATM   12  C28 UNL     1      22.300  53.322   6.761  1.00  0.00     0.051 C 
HETATM   13  N2  UNL     1      24.507  52.651   6.413  1.00  0.00     0.089 N 
HETATM   14  C29 UNL     1      25.720  53.397   6.173  1.00  0.00     0.310 C 
HETATM   15  C30 UNL     1      24.367  52.528   7.839  1.00  0.00     0.273 C 
HETATM   16  C31 UNL     1      23.133  51.747   8.297  1.00  0.00     0.045 C 
ENDROOT
BRANCH   1  17
HETATM   17  S3  UNL     1      23.514  49.952   3.717  1.00  0.00    -0.130 SA
BRANCH  17  18
HETATM   18  C17 UNL     1      22.567  48.470   3.463  1.00  0.00     0.112 C 
BRANCH  18  19
HETATM   19  C16 UNL     1      21.120  48.880   3.162  1.00  0.00     0.142 C 
BRANCH  19  20
HETATM   20  C4  UNL     1      20.622  48.152   1.942  1.00  0.00     0.125 C 
BRANCH  20  21
HETATM   21  C3  UNL     1      19.281  47.581   2.129  1.00  0.00     0.266 C 
HETATM   22  O2  UNL     1      19.166  46.330   2.357  1.00  0.00    -0.265 OA
BRANCH  21  23
HETATM   23  O1  UNL     1      18.149  48.372   2.062  1.00  0.00    -0.321 OA
BRANCH  23  24
HETATM   24  C2  UNL     1      18.158  49.444   1.151  1.00  0.00     0.174 C 
HETATM   25  C1  UNL     1      17.318  49.207  -0.064  1.00  0.00     0.034 C 
ENDBRANCH  23  24
ENDBRANCH  21  23
ENDBRANCH  20  21
BRANCH  20  26
HETATM   26  C5  UNL     1      21.611  47.126   1.490  1.00  0.00     0.103 C 
BRANCH  26  27
HETATM   27  S1  UNL     1      22.036  47.300  -0.256  1.00  0.00    -0.096 SA
BRANCH  27  28
HETATM   28  S2  UNL     1      20.301  47.264  -1.432  1.00  0.00    -0.094 SA
BRANCH  28  29
HETATM   29  C6  UNL     1      20.298  45.852  -2.565  1.00  0.00     0.112 C 
BRANCH  29  30
HETATM   30  C7  UNL     1      19.563  46.162  -3.800  1.00  0.00    -0.019 C 
HETATM   31  C8  UNL     1      19.397  45.357  -4.811  1.00  0.00    -0.025 C 
BRANCH  31  32
HETATM   32  C9  UNL     1      19.905  43.985  -4.927  1.00  0.00     0.011 C 
HETATM   33  C10 UNL     1      18.833  42.969  -4.512  1.00  0.00     0.009 C 
HETATM   34  C11 UNL     1      19.537  41.631  -4.410  1.00  0.00     0.001 C 
HETATM   35  C12 UNL     1      20.126  41.219  -5.728  1.00  0.00     0.000 C 
HETATM   36  C13 UNL     1      20.927  42.314  -6.375  1.00  0.00     0.005 C 
HETATM   37  C14 UNL     1      20.209  43.641  -6.391  1.00  0.00    -0.011 C 
HETATM   38  C15 UNL     1      18.984  43.600  -7.241  1.00  0.00     0.010 C 
ENDBRANCH  31  32
ENDBRANCH  29  30
ENDBRANCH  28  29
ENDBRANCH  27  28
ENDBRANCH  26  27
ENDBRANCH  20  26
ENDBRANCH  19  20
BRANCH  19  39
HETATM   39  O3  UNL     1      20.326  48.562   4.276  1.00  0.00    -0.394 OA
ATOM     40  H3  UNL     1      20.665  48.990   5.053  1.00  0.00     0.210 HD
ENDBRANCH  19  39
ENDBRANCH  18  19
ENDBRANCH  17  18
ENDBRANCH   1  17
TORSDOF 14
ENDMDL
MODEL 3
REMARK VINA RESULT: -8.189574570      3.805      5.449
REMARK  14 active torsions:
REMARK  status: ('A' for Active; 'I' for Inactive)
REMARK    1  A    between atoms: C2_2  and  O1_3 
REMARK    2  A    between atoms: O1_3  and  C3_4 
REMARK    3  A    between atoms: C3_4  and  C4_6 
REMARK    4  A    between atoms: C4_6  and  C5_7 
REMARK    5  A    between atoms: C4_6  and  C16_20 
REMARK    6  A    between atoms: C5_7  and  S1_8 
REMARK    7  A    between atoms: S1_8  and  S2_9 
REMARK    8  A    between atoms: S2_9  and  C6_10 
REMARK    9  A    between atoms: C6_10  and  C7_11 
REMARK   10  A    between atoms: C8_12  and  C9_13 
REMARK   11  A    between atoms: C16_20  and  O3_21 
REMARK   12  A    between atoms: C16_20  and  C17_23 
REMARK   13  A    between atoms: C17_23  and  S3_24 
REMARK   14  A    between atoms: S3_24  and  C18_25 
ROOT
HETATM    1  C18 UNL     1      17.884  43.052  -4.274  1.00  0.00     0.002 C 
HETATM    2  C19 UNL     1      18.971  42.520  -4.709  1.00  0.00     0.044 C 
HETATM    3  C20 UNL     1      19.559  41.352  -4.077  1.00  0.00     0.097 C 
HETATM    4  N1  UNL     1      20.069  40.402  -3.591  1.00  0.00    -0.192 NA
HETATM    5  C21 UNL     1      19.773  42.995  -5.885  1.00  0.00     0.002 C 
HETATM    6  C22 UNL     1      21.022  43.539  -5.342  1.00  0.00     0.015 C 
HETATM    7  C23 UNL     1      20.825  44.873  -4.744  1.00  0.00     0.001 C 
HETATM    8  C24 UNL     1      19.601  45.152  -3.966  1.00  0.00     0.001 C 
HETATM    9  C25 UNL     1      18.326  45.397  -4.671  1.00  0.00     0.012 C 
HETATM   10  C26 UNL     1      17.504  44.265  -5.140  1.00  0.00     0.060 C 
HETATM   11  C27 UNL     1      17.675  43.827  -6.561  1.00  0.00     0.232 C 
HETATM   12  C28 UNL     1      19.170  44.005  -6.780  1.00  0.00     0.051 C 
HETATM   13  N2  UNL     1      17.444  42.438  -6.827  1.00  0.00     0.089 N 
HETATM   14  C29 UNL     1      16.275  42.308  -7.667  1.00  0.00     0.310 C 
HETATM   15  C30 UNL     1      18.513  41.741  -7.489  1.00  0.00     0.273 C 
HETATM   16  C31 UNL     1      19.848  41.753  -6.741  1.00  0.00     0.045 C 
ENDROOT
BRANCH   1  17
HETATM   17  S3  UNL     1      16.831  42.640  -2.939  1.00  0.00    -0.130 SA
BRANCH  17  18
HETATM   18  C17 UNL     1      16.545  43.903  -1.722  1.00  0.00     0.112 C 
BRANCH  18  19
HETATM   19  C16 UNL     1      17.860  44.138  -0.969  1.00  0.00     0.142 C 
BRANCH  19  20
HETATM   20  C4  UNL     1      18.006  45.598  -0.632  1.00  0.00     0.125 C 
BRANCH  20  21
HETATM   21  C3  UNL     1      19.331  45.927  -0.089  1.00  0.00     0.266 C 
HETATM   22  O2  UNL     1      19.769  45.274   0.918  1.00  0.00    -0.265 OA
BRANCH  21  23
HETATM   23  O1  UNL     1      20.108  46.926  -0.647  1.00  0.00    -0.321 OA
BRANCH  23  24
HETATM   24  C2  UNL     1      21.439  46.609  -0.974  1.00  0.00     0.174 C 
HETATM   25  C1  UNL     1      22.451  47.348  -0.158  1.00  0.00     0.034 C 
ENDBRANCH  23  24
ENDBRANCH  21  23
ENDBRANCH  20  21
BRANCH  20  26
HETATM   26  C5  UNL     1      16.902  46.053   0.267  1.00  0.00     0.103 C 
BRANCH  26  27
HETATM   27  S1  UNL     1      17.051  47.796   0.717  1.00  0.00    -0.096 SA
BRANCH  27  28
HETATM   28  S2  UNL     1      17.533  47.981   2.749  1.00  0.00    -0.094 SA
BRANCH  28  29
HETATM   29  C6  UNL     1      18.916  49.122   2.999  1.00  0.00     0.112 C 
BRANCH  29  30
HETATM   30  C7  UNL     1      20.191  48.509   2.595  1.00  0.00    -0.019 C 
HETATM   31  C8  UNL     1      21.357  48.758   3.121  1.00  0.00    -0.025 C 
BRANCH  31  32
HETATM   32  C9  UNL     1      21.639  49.693   4.216  1.00  0.00     0.011 C 
HETATM   33  C10 UNL     1      22.208  48.952   5.433  1.00  0.00     0.009 C 
HETATM   34  C11 UNL     1      22.206  49.950   6.573  1.00  0.00     0.001 C 
HETATM   35  C12 UNL     1      23.073  51.137   6.266  1.00  0.00     0.000 C 
HETATM   36  C13 UNL     1      22.801  51.719   4.907  1.00  0.00     0.005 C 
HETATM   37  C14 UNL     1      22.747  50.677   3.817  1.00  0.00    -0.011 C 
HETATM   38  C15 UNL     1      24.067  50.011   3.619  1.00  0.00     0.010 C 
ENDBRANCH  31  32
ENDBRANCH  29  30
ENDBRANCH  28  29
ENDBRANCH  27  28
ENDBRANCH  26  27
ENDBRANCH  20  26
ENDBRANCH  19  20
BRANCH  19  39
HETATM   39  O3  UNL     1      17.846  43.368   0.205  1.00  0.00    -0.394 OA
ATOM     40  H3  UNL     1      17.043  43.522   0.689  1.00  0.00     0.210 HD
ENDBRANCH  19  39
ENDBRANCH  18  19
ENDBRANCH  17  18
ENDBRANCH   1  17
TORSDOF 14
ENDMDL
MODEL 4
REMARK VINA RESULT: -7.966021803      4.387      6.696
REMARK  14 active torsions:
REMARK  status: ('A' for Active; 'I' for Inactive)
REMARK    1  A    between atoms: C2_2  and  O1_3 
REMARK    2  A    between atoms: O1_3  and  C3_4 
REMARK    3  A    between atoms: C3_4  and  C4_6 
REMARK    4  A    between atoms: C4_6  and  C5_7 
REMARK    5  A    between atoms: C4_6  and  C16_20 
REMARK    6  A    between atoms: C5_7  and  S1_8 
REMARK    7  A    between atoms: S1_8  and  S2_9 
REMARK    8  A    between atoms: S2_9  and  C6_10 
REMARK    9  A    between atoms: C6_10  and  C7_11 
REMARK   10  A    between atoms: C8_12  and  C9_13 
REMARK   11  A    between atoms: C16_20  and  O3_21 
REMARK   12  A    between atoms: C16_20  and  C17_23 
REMARK   13  A    between atoms: C17_23  and  S3_24 
REMARK   14  A    between atoms: S3_24  and  C18_25 
ROOT
HETATM    1  C18 UNL     1      17.768  42.992  -4.692  1.00  0.00     0.002 C 
HETATM    2  C19 UNL     1      18.943  42.515  -4.903  1.00  0.00     0.044 C 
HETATM    3  C20 UNL     1      19.466  41.400  -4.134  1.00  0.00     0.097 C 
HETATM    4  N1  UNL     1      19.927  40.493  -3.529  1.00  0.00    -0.192 NA
HETATM    5  C21 UNL     1      19.921  43.006  -5.929  1.00  0.00     0.002 C 
HETATM    6  C22 UNL     1      21.019  43.636  -5.188  1.00  0.00     0.015 C 
HETATM    7  C23 UNL     1      20.644  44.971  -4.683  1.00  0.00     0.001 C 
HETATM    8  C24 UNL     1      19.285  45.197  -4.151  1.00  0.00     0.001 C 
HETATM    9  C25 UNL     1      18.150  45.349  -5.084  1.00  0.00     0.012 C 
HETATM   10  C26 UNL     1      17.490  44.159  -5.654  1.00  0.00     0.060 C 
HETATM   11  C27 UNL     1      17.942  43.697  -7.005  1.00  0.00     0.232 C 
HETATM   12  C28 UNL     1      19.440  43.957  -6.954  1.00  0.00     0.051 C 
HETATM   13  N2  UNL     1      17.838  42.290  -7.259  1.00  0.00     0.089 N 
HETATM   14  C29 UNL     1      16.851  42.071  -8.292  1.00  0.00     0.310 C 
HETATM   15  C30 UNL     1      19.046  41.641  -7.691  1.00  0.00     0.273 C 
HETATM   16  C31 UNL     1      20.218  41.750  -6.713  1.00  0.00     0.045 C 
ENDROOT
BRANCH   1  17
HETATM   17  S3  UNL     1      16.511  42.553  -3.557  1.00  0.00    -0.130 SA
BRANCH  17  18
HETATM   18  C17 UNL     1      16.199  43.687  -2.225  1.00  0.00     0.112 C 
BRANCH  18  19
HETATM   19  C16 UNL     1      17.498  43.843  -1.424  1.00  0.00     0.142 C 
BRANCH  19  20
HETATM   20  C4  UNL     1      17.559  45.213  -0.804  1.00  0.00     0.125 C 
BRANCH  20  21
HETATM   21  C3  UNL     1      18.808  45.448  -0.067  1.00  0.00     0.266 C 
HETATM   22  O2  UNL     1      18.859  45.159   1.176  1.00  0.00    -0.265 OA
BRANCH  21  23
HETATM   23  O1  UNL     1      19.923  45.974  -0.694  1.00  0.00    -0.321 OA
BRANCH  23  24
HETATM   24  C2  UNL     1      20.742  46.839   0.055  1.00  0.00     0.174 C 
HETATM   25  C1  UNL     1      22.137  46.953  -0.472  1.00  0.00     0.034 C 
ENDBRANCH  23  24
ENDBRANCH  21  23
ENDBRANCH  20  21
BRANCH  20  26
HETATM   26  C5  UNL     1      16.352  45.474   0.039  1.00  0.00     0.103 C 
BRANCH  26  27
HETATM   27  S1  UNL     1      15.677  47.129  -0.215  1.00  0.00    -0.096 SA
BRANCH  27  28
HETATM   28  S2  UNL     1      15.217  47.422  -2.239  1.00  0.00    -0.094 SA
BRANCH  28  29
HETATM   29  C6  UNL     1      16.702  47.788  -3.209  1.00  0.00     0.112 C 
BRANCH  29  30
HETATM   30  C7  UNL     1      17.722  48.456  -2.387  1.00  0.00    -0.019 C 
HETATM   31  C8  UNL     1      18.166  49.669  -2.560  1.00  0.00    -0.025 C 
BRANCH  31  32
HETATM   32  C9  UNL     1      17.745  50.613  -3.603  1.00  0.00     0.011 C 
HETATM   33  C10 UNL     1      16.329  51.134  -3.327  1.00  0.00     0.009 C 
HETATM   34  C11 UNL     1      15.899  51.870  -4.579  1.00  0.00     0.001 C 
HETATM   35  C12 UNL     1      16.806  53.031  -4.872  1.00  0.00     0.000 C 
HETATM   36  C13 UNL     1      18.262  52.659  -4.817  1.00  0.00     0.005 C 
HETATM   37  C14 UNL     1      18.625  51.870  -3.583  1.00  0.00    -0.011 C 
HETATM   38  C15 UNL     1      18.454  52.675  -2.338  1.00  0.00     0.010 C 
ENDBRANCH  31  32
ENDBRANCH  29  30
ENDBRANCH  28  29
ENDBRANCH  27  28
ENDBRANCH  26  27
ENDBRANCH  20  26
ENDBRANCH  19  20
BRANCH  19  39
HETATM   39  O3  UNL     1      17.526  42.856  -0.426  1.00  0.00    -0.394 OA
ATOM     40  H3  UNL     1      16.780  42.276  -0.515  1.00  0.00     0.210 HD
ENDBRANCH  19  39
ENDBRANCH  18  19
ENDBRANCH  17  18
ENDBRANCH   1  17
TORSDOF 14
ENDMDL
MODEL 5
REMARK VINA RESULT: -7.907787661      4.433     10.259
REMARK  14 active torsions:
REMARK  status: ('A' for Active; 'I' for Inactive)
REMARK    1  A    between atoms: C2_2  and  O1_3 
REMARK    2  A    between atoms: O1_3  and  C3_4 
REMARK    3  A    between atoms: C3_4  and  C4_6 
REMARK    4  A    between atoms: C4_6  and  C5_7 
REMARK    5  A    between atoms: C4_6  and  C16_20 
REMARK    6  A    between atoms: C5_7  and  S1_8 
REMARK    7  A    between atoms: S1_8  and  S2_9 
REMARK    8  A    between atoms: S2_9  and  C6_10 
REMARK    9  A    between atoms: C6_10  and  C7_11 
REMARK   10  A    between atoms: C8_12  and  C9_13 
REMARK   11  A    between atoms: C16_20  and  O3_21 
REMARK   12  A    between atoms: C16_20  and  C17_23 
REMARK   13  A    between atoms: C17_23  and  S3_24 
REMARK   14  A    between atoms: S3_24  and  C18_25 
ROOT
HETATM    1  C18 UNL     1      20.453  50.372   4.722  1.00  0.00     0.002 C 
HETATM    2  C19 UNL     1      21.174  51.431   4.601  1.00  0.00     0.044 C 
HETATM    3  C20 UNL     1      20.686  52.615   3.915  1.00  0.00     0.097 C 
HETATM    4  N1  UNL     1      20.326  53.598   3.365  1.00  0.00    -0.192 NA
HETATM    5  C21 UNL     1      22.568  51.610   5.123  1.00  0.00     0.002 C 
HETATM    6  C22 UNL     1      23.447  51.665   3.949  1.00  0.00     0.015 C 
HETATM    7  C23 UNL     1      23.671  50.326   3.370  1.00  0.00     0.001 C 
HETATM    8  C24 UNL     1      22.556  49.361   3.303  1.00  0.00     0.001 C 
HETATM    9  C25 UNL     1      22.134  48.644   4.524  1.00  0.00     0.012 C 
HETATM   10  C26 UNL     1      21.227  49.290   5.492  1.00  0.00     0.060 C 
HETATM   11  C27 UNL     1      21.846  49.982   6.666  1.00  0.00     0.232 C 
HETATM   12  C28 UNL     1      23.100  50.597   6.060  1.00  0.00     0.051 C 
HETATM   13  N2  UNL     1      21.124  51.104   7.192  1.00  0.00     0.089 N 
HETATM   14  C29 UNL     1      20.659  50.782   8.521  1.00  0.00     0.310 C 
HETATM   15  C30 UNL     1      21.864  52.332   7.294  1.00  0.00     0.273 C 
HETATM   16  C31 UNL     1      22.434  52.851   5.972  1.00  0.00     0.045 C 
ENDROOT
BRANCH   1  17
HETATM   17  S3  UNL     1      18.832  49.991   4.185  1.00  0.00    -0.130 SA
BRANCH  17  18
HETATM   18  C17 UNL     1      18.620  49.635   2.457  1.00  0.00     0.112 C 
BRANCH  18  19
HETATM   19  C16 UNL     1      18.280  48.146   2.320  1.00  0.00     0.142 C 
BRANCH  19  20
HETATM   20  C4  UNL     1      18.461  47.706   0.892  1.00  0.00     0.125 C 
BRANCH  20  21
HETATM   21  C3  UNL     1      19.691  46.929   0.688  1.00  0.00     0.266 C 
HETATM   22  O2  UNL     1      19.602  45.679   0.442  1.00  0.00    -0.265 OA
BRANCH  21  23
HETATM   23  O1  UNL     1      20.937  47.526   0.758  1.00  0.00    -0.321 OA
BRANCH  23  24
HETATM   24  C2  UNL     1      21.935  47.051  -0.113  1.00  0.00     0.174 C 
HETATM   25  C1  UNL     1      23.230  47.790  -0.003  1.00  0.00     0.034 C 
ENDBRANCH  23  24
ENDBRANCH  21  23
ENDBRANCH  20  21
BRANCH  20  26
HETATM   26  C5  UNL     1      18.371  48.870  -0.042  1.00  0.00     0.103 C 
BRANCH  26  27
HETATM   27  S1  UNL     1      17.840  48.386  -1.699  1.00  0.00    -0.096 SA
BRANCH  27  28
HETATM   28  S2  UNL     1      19.507  48.097  -2.938  1.00  0.00    -0.094 SA
BRANCH  28  29
HETATM   29  C6  UNL     1      19.568  46.406  -3.581  1.00  0.00     0.112 C 
BRANCH  29  30
HETATM   30  C7  UNL     1      18.349  46.079  -4.335  1.00  0.00    -0.019 C 
HETATM   31  C8  UNL     1      18.170  45.022  -5.075  1.00  0.00    -0.025 C 
BRANCH  31  32
HETATM   32  C9  UNL     1      19.141  43.947  -5.310  1.00  0.00     0.011 C 
HETATM   33  C10 UNL     1      18.682  42.642  -4.647  1.00  0.00     0.009 C 
HETATM   34  C11 UNL     1      19.862  41.695  -4.718  1.00  0.00     0.001 C 
HETATM   35  C12 UNL     1      20.257  41.415  -6.139  1.00  0.00     0.000 C 
HETATM   36  C13 UNL     1      20.392  42.666  -6.962  1.00  0.00     0.005 C 
HETATM   37  C14 UNL     1      19.223  43.606  -6.805  1.00  0.00    -0.011 C 
HETATM   38  C15 UNL     1      17.959  43.014  -7.332  1.00  0.00     0.010 C 
ENDBRANCH  31  32
ENDBRANCH  29  30
ENDBRANCH  28  29
ENDBRANCH  27  28
ENDBRANCH  26  27
ENDBRANCH  20  26
ENDBRANCH  19  20
BRANCH  19  39
HETATM   39  O3  UNL     1      19.132  47.415   3.165  1.00  0.00    -0.394 OA
ATOM     40  H3  UNL     1      19.024  47.699   4.065  1.00  0.00     0.210 HD
ENDBRANCH  19  39
ENDBRANCH  18  19
ENDBRANCH  17  18
ENDBRANCH   1  17
TORSDOF 14
ENDMDL
