MODEL 1
REMARK VINA RESULT: -5.489055085      0.000      0.000
REMARK  2 active torsions:
REMARK  status: ('A' for Active; 'I' for Inactive)
REMARK    1  A    between atoms: C3_7  and  N3_8 
REMARK    2  A    between atoms: C5_11  and  C6_12 
ROOT
HETATM    1  C1  UNL     1      38.775   5.597  11.535  1.00  0.00     0.149 C 
HETATM    2  N1  UNL     1      37.489   5.176  11.047  1.00  0.00    -0.366 N 
ATOM      3  H1  UNL     1      36.750   5.872  10.960  1.00  0.00     0.162 HD
HETATM    4  C2  UNL     1      37.225   3.931  10.706  1.00  0.00     0.176 C 
HETATM    5  N2  UNL     1      38.106   2.843  10.767  1.00  0.00    -0.336 N 
ATOM      6  H2  UNL     1      39.055   2.885  11.139  1.00  0.00     0.165 HD
HETATM    7  C3  UNL     1      37.489   1.665  10.233  1.00  0.00     0.229 C 
HETATM    8  C5  UNL     1      36.070   2.075  10.061  1.00  0.00     0.063 C 
HETATM    9  N4  UNL     1      35.970   3.446  10.169  1.00  0.00    -0.330 N 
ATOM     10  H4  UNL     1      35.161   4.014   9.917  1.00  0.00     0.168 HD
ENDROOT
BRANCH   8  11
HETATM   11  C6  UNL     1      35.337   1.265   9.060  1.00  0.00     0.207 C 
HETATM   12  O1  UNL     1      34.871   0.119   9.675  1.00  0.00    -0.353 OA
HETATM   13  C7  UNL     1      33.789   0.488  10.426  1.00  0.00     0.340 C 
HETATM   14  O2  UNL     1      33.261   1.624   9.853  1.00  0.00    -0.354 OA
HETATM   15  C8  UNL     1      33.993   1.849   8.674  1.00  0.00     0.087 C 
HETATM   16  C9  UNL     1      33.935   3.246   8.230  1.00  0.00     0.049 C 
HETATM   17  C10 UNL     1      33.400   0.876   7.643  1.00  0.00     0.049 C 
ENDBRANCH   8  11
BRANCH   7  18
HETATM   18  N3  UNL     1      37.521   0.507  11.047  1.00  0.00    -0.401 N 
HETATM   19  C4  UNL     1      37.908   0.513  12.373  1.00  0.00     0.142 C 
ATOM     20  H3  UNL     1      37.243  -0.382  10.631  1.00  0.00     0.155 HD
ENDBRANCH   7  18
TORSDOF 2
ENDMDL
MODEL 2
REMARK VINA RESULT: -5.391182676      2.990      4.133
REMARK  2 active torsions:
REMARK  status: ('A' for Active; 'I' for Inactive)
REMARK    1  A    between atoms: C3_7  and  N3_8 
REMARK    2  A    between atoms: C5_11  and  C6_12 
ROOT
HETATM    1  C1  UNL     1      36.596   2.339   3.488  1.00  0.00     0.149 C 
HETATM    2  N1  UNL     1      35.823   2.508   4.689  1.00  0.00    -0.366 N 
ATOM      3  H1  UNL     1      35.103   3.230   4.708  1.00  0.00     0.162 HD
HETATM    4  C2  UNL     1      36.003   1.771   5.767  1.00  0.00     0.176 C 
HETATM    5  N2  UNL     1      36.945   0.745   5.929  1.00  0.00    -0.336 N 
ATOM      6  H2  UNL     1      37.645   0.485   5.236  1.00  0.00     0.165 HD
HETATM    7  C3  UNL     1      36.785   0.114   7.206  1.00  0.00     0.229 C 
HETATM    8  C5  UNL     1      35.818   1.001   7.904  1.00  0.00     0.063 C 
HETATM    9  N4  UNL     1      35.236   1.857   6.993  1.00  0.00    -0.330 N 
ATOM     10  H4  UNL     1      34.416   2.442   7.152  1.00  0.00     0.168 HD
ENDROOT
BRANCH   8  11
HETATM   11  C6  UNL     1      35.081   0.330   9.000  1.00  0.00     0.207 C 
HETATM   12  O1  UNL     1      35.874   0.334  10.132  1.00  0.00    -0.353 OA
HETATM   13  C7  UNL     1      35.824   1.602  10.642  1.00  0.00     0.340 C 
HETATM   14  O2  UNL     1      34.638   2.164  10.226  1.00  0.00    -0.354 OA
HETATM   15  C8  UNL     1      33.934   1.151   9.552  1.00  0.00     0.087 C 
HETATM   16  C9  UNL     1      32.935   1.680   8.618  1.00  0.00     0.049 C 
HETATM   17  C10 UNL     1      33.308   0.293  10.663  1.00  0.00     0.049 C 
ENDBRANCH   8  11
BRANCH   7  18
HETATM   18  N3  UNL     1      37.946   0.003   8.009  1.00  0.00    -0.401 N 
HETATM   19  C4  UNL     1      38.811   1.051   8.253  1.00  0.00     0.142 C 
ATOM     20  H3  UNL     1      38.154  -0.902   8.431  1.00  0.00     0.155 HD
ENDBRANCH   7  18
TORSDOF 2
ENDMDL
MODEL 3
REMARK VINA RESULT: -5.353050503      2.513      5.156
REMARK  2 active torsions:
REMARK  status: ('A' for Active; 'I' for Inactive)
REMARK    1  A    between atoms: C3_7  and  N3_8 
REMARK    2  A    between atoms: C5_11  and  C6_12 
ROOT
HETATM    1  C1  UNL     1      31.324  -0.184  11.325  1.00  0.00     0.149 C 
HETATM    2  N1  UNL     1      32.642   0.294  11.648  1.00  0.00    -0.366 N 
ATOM      3  H1  UNL     1      32.899   0.386  12.630  1.00  0.00     0.162 HD
HETATM    4  C2  UNL     1      33.530   0.620  10.731  1.00  0.00     0.176 C 
HETATM    5  N2  UNL     1      33.354   0.569   9.342  1.00  0.00    -0.336 N 
ATOM      6  H2  UNL     1      32.482   0.320   8.876  1.00  0.00     0.165 HD
HETATM    7  C3  UNL     1      34.569   0.917   8.667  1.00  0.00     0.229 C 
HETATM    8  C5  UNL     1      35.437   1.414   9.767  1.00  0.00     0.063 C 
HETATM    9  N4  UNL     1      34.885   1.067  10.983  1.00  0.00    -0.330 N 
ATOM     10  H4  UNL     1      35.346   1.116  11.891  1.00  0.00     0.168 HD
ENDROOT
BRANCH   8  11
HETATM   11  C6  UNL     1      36.884   1.340   9.462  1.00  0.00     0.207 C 
HETATM   12  O1  UNL     1      37.236   2.450   8.717  1.00  0.00    -0.353 OA
HETATM   13  C7  UNL     1      37.297   3.504   9.587  1.00  0.00     0.340 C 
HETATM   14  O2  UNL     1      37.562   2.988  10.836  1.00  0.00    -0.354 OA
HETATM   15  C8  UNL     1      37.772   1.609  10.659  1.00  0.00     0.087 C 
HETATM   16  C9  UNL     1      37.548   0.840  11.887  1.00  0.00     0.049 C 
HETATM   17  C10 UNL     1      39.214   1.488  10.141  1.00  0.00     0.049 C 
ENDBRANCH   8  11
BRANCH   7  18
HETATM   18  N3  UNL     1      34.481   1.927   7.680  1.00  0.00    -0.401 N 
HETATM   19  C4  UNL     1      33.923   3.170   7.903  1.00  0.00     0.142 C 
ATOM     20  H3  UNL     1      34.851   1.725   6.750  1.00  0.00     0.155 HD
ENDBRANCH   7  18
TORSDOF 2
ENDMDL
MODEL 4
REMARK VINA RESULT: -5.314174084      3.538      5.221
REMARK  2 active torsions:
REMARK  status: ('A' for Active; 'I' for Inactive)
REMARK    1  A    between atoms: C3_7  and  N3_8 
REMARK    2  A    between atoms: C5_11  and  C6_12 
ROOT
HETATM    1  C1  UNL     1      32.026   0.380  11.120  1.00  0.00     0.149 C 
HETATM    2  N1  UNL     1      33.323   0.193  10.527  1.00  0.00    -0.366 N 
ATOM      3  H1  UNL     1      33.950  -0.499  10.938  1.00  0.00     0.162 HD
HETATM    4  C2  UNL     1      33.736   0.874   9.478  1.00  0.00     0.176 C 
HETATM    5  N2  UNL     1      33.022   1.865   8.791  1.00  0.00    -0.336 N 
ATOM      6  H2  UNL     1      32.103   2.213   9.065  1.00  0.00     0.165 HD
HETATM    7  C3  UNL     1      33.762   2.319   7.652  1.00  0.00     0.229 C 
HETATM    8  C5  UNL     1      35.094   1.688   7.839  1.00  0.00     0.063 C 
HETATM    9  N4  UNL     1      35.009   0.708   8.806  1.00  0.00    -0.330 N 
ATOM     10  H4  UNL     1      35.712  -0.002   9.010  1.00  0.00     0.168 HD
ENDROOT
BRANCH   8  11
HETATM   11  C6  UNL     1      35.867   1.549   6.583  1.00  0.00     0.207 C 
HETATM   12  O1  UNL     1      36.411   2.778   6.260  1.00  0.00    -0.353 OA
HETATM   13  C7  UNL     1      37.475   2.968   7.098  1.00  0.00     0.340 C 
HETATM   14  O2  UNL     1      37.924   1.723   7.479  1.00  0.00    -0.354 OA
HETATM   15  C8  UNL     1      37.167   0.789   6.751  1.00  0.00     0.087 C 
HETATM   16  C9  UNL     1      37.132  -0.531   7.388  1.00  0.00     0.049 C 
HETATM   17  C10 UNL     1      37.810   0.755   5.355  1.00  0.00     0.049 C 
ENDBRANCH   8  11
BRANCH   7  18
HETATM   18  N3  UNL     1      33.946   3.718   7.531  1.00  0.00    -0.401 N 
HETATM   19  C4  UNL     1      34.297   4.538   8.585  1.00  0.00     0.142 C 
ATOM     20  H3  UNL     1      33.811   4.143   6.613  1.00  0.00     0.155 HD
ENDBRANCH   7  18
TORSDOF 2
ENDMDL
MODEL 5
REMARK VINA RESULT: -5.270899880      2.829      4.339
REMARK  2 active torsions:
REMARK  status: ('A' for Active; 'I' for Inactive)
REMARK    1  A    between atoms: C3_7  and  N3_8 
REMARK    2  A    between atoms: C5_11  and  C6_12 
ROOT
HETATM    1  C1  UNL     1      31.820   0.397  10.994  1.00  0.00     0.149 C 
HETATM    2  N1  UNL     1      32.579   0.324   9.775  1.00  0.00    -0.366 N 
ATOM      3  H1  UNL     1      32.097   0.063   8.916  1.00  0.00     0.162 HD
HETATM    4  C2  UNL     1      33.871   0.580   9.720  1.00  0.00     0.176 C 
HETATM    5  N2  UNL     1      34.698   0.942  10.791  1.00  0.00    -0.336 N 
ATOM      6  H2  UNL     1      34.396   0.998  11.763  1.00  0.00     0.165 HD
HETATM    7  C3  UNL     1      36.025   1.223  10.330  1.00  0.00     0.229 C 
HETATM    8  C5  UNL     1      35.995   0.769   8.915  1.00  0.00     0.063 C 
HETATM    9  N4  UNL     1      34.688   0.566   8.523  1.00  0.00    -0.330 N 
ATOM     10  H4  UNL     1      34.358   0.432   7.567  1.00  0.00     0.168 HD
ENDROOT
BRANCH   8  11
HETATM   11  C6  UNL     1      37.026   1.409   8.065  1.00  0.00     0.207 C 
HETATM   12  O1  UNL     1      38.140   0.592   8.032  1.00  0.00    -0.353 OA
HETATM   13  C7  UNL     1      37.842  -0.445   7.192  1.00  0.00     0.340 C 
HETATM   14  O2  UNL     1      36.880   0.003   6.314  1.00  0.00    -0.354 OA
HETATM   15  C8  UNL     1      36.702   1.370   6.585  1.00  0.00     0.087 C 
HETATM   16  C9  UNL     1      35.399   1.871   6.138  1.00  0.00     0.049 C 
HETATM   17  C10 UNL     1      37.877   2.073   5.886  1.00  0.00     0.049 C 
ENDBRANCH   8  11
BRANCH   7  18
HETATM   18  N3  UNL     1      37.082   0.550  10.989  1.00  0.00    -0.401 N 
HETATM   19  C4  UNL     1      38.053   1.192  11.731  1.00  0.00     0.142 C 
ATOM     20  H3  UNL     1      37.129  -0.466  10.911  1.00  0.00     0.155 HD
ENDBRANCH   7  18
TORSDOF 2
ENDMDL
