MODEL 1
REMARK VINA RESULT: -8.851752608      0.000      0.000
REMARK  5 active torsions:
REMARK  status: ('A' for Active; 'I' for Inactive)
REMARK    1  A    between atoms: C2_2  and  O1_3 
REMARK    2  A    between atoms: O1_3  and  C3_4 
REMARK    3  A    between atoms: C11_13  and  O3_14 
REMARK    4  A    between atoms: C12_16  and  O4_17 
REMARK    5  A    between atoms: C16_21  and  O5_22 
ROOT
HETATM    1  C3  UNL     1     -19.958 -13.630  13.034  1.00  0.00     0.304 C 
HETATM    2  O2  UNL     1     -20.994 -13.788  14.013  1.00  0.00    -0.315 OA
HETATM    3  C4  UNL     1     -21.700 -14.964  14.096  1.00  0.00     0.084 A 
HETATM    4  C5  UNL     1     -22.374 -15.264  15.251  1.00  0.00     0.052 A 
HETATM    5  C6  UNL     1     -23.088 -16.436  15.359  1.00  0.00    -0.001 A 
HETATM    6  C7  UNL     1     -23.115 -17.304  14.292  1.00  0.00     0.040 A 
HETATM    7  C8  UNL     1     -22.431 -17.012  13.106  1.00  0.00     0.045 A 
HETATM    8  C9  UNL     1     -21.730 -15.849  13.010  1.00  0.00     0.013 A 
HETATM    9  C10 UNL     1     -20.996 -15.494  11.818  1.00  0.00     0.027 A 
HETATM   10  C11 UNL     1     -21.139 -16.231  10.670  1.00  0.00     0.111 A 
HETATM   11  C12 UNL     1     -20.561 -15.782   9.497  1.00  0.00     0.110 A 
HETATM   12  C14 UNL     1     -19.844 -14.616   9.433  1.00  0.00     0.008 A 
HETATM   13  C15 UNL     1     -19.235 -14.142   8.168  1.00  0.00     0.054 C 
HETATM   14  C16 UNL     1     -19.694 -13.862  10.604  1.00  0.00     0.089 A 
HETATM   15  C18 UNL     1     -20.244 -14.282  11.761  1.00  0.00     0.045 A 
HETATM   16  N1  UNL     1     -23.843 -18.494  14.413  1.00  0.00    -0.377 N 
ATOM     17  H1  UNL     1     -23.858 -19.133  13.618  1.00  0.00     0.160 HD
HETATM   18  C19 UNL     1     -24.562 -18.860  15.582  1.00  0.00     0.041 A 
HETATM   19  C20 UNL     1     -26.066 -19.037  15.272  1.00  0.00     0.042 C 
HETATM   20  C21 UNL     1     -24.142 -20.230  16.113  1.00  0.00     0.042 C 
HETATM   21  C22 UNL     1     -24.472 -17.875  16.658  1.00  0.00     0.011 A 
HETATM   22  C23 UNL     1     -23.803 -16.749  16.588  1.00  0.00    -0.051 A 
HETATM   23  C24 UNL     1     -23.751 -15.789  17.718  1.00  0.00     0.049 C 
ENDROOT
BRANCH   1  24
HETATM   24  O1  UNL     1     -19.602 -12.313  12.979  1.00  0.00    -0.357 OA
BRANCH  24  25
HETATM   25  C2  UNL     1     -18.444 -12.126  13.752  1.00  0.00     0.167 C 
HETATM   26  C1  UNL     1     -18.035 -10.692  13.857  1.00  0.00     0.033 C 
ENDBRANCH  24  25
ENDBRANCH   1  24
BRANCH  14  27
HETATM   27  O5  UNL     1     -18.974 -12.704  10.480  1.00  0.00    -0.355 OA
HETATM   28  C17 UNL     1     -17.539 -12.748  10.373  1.00  0.00     0.210 C 
ENDBRANCH  14  27
BRANCH  10  29
HETATM   29  O3  UNL     1     -21.824 -17.399  10.595  1.00  0.00    -0.357 OA
ATOM     30  H3  UNL     1     -22.707 -17.479  10.252  1.00  0.00     0.217 HD
ENDBRANCH  10  29
BRANCH  11  31
HETATM   31  O4  UNL     1     -20.731 -16.562   8.364  1.00  0.00    -0.352 OA
HETATM   32  C13 UNL     1     -19.723 -17.518   8.087  1.00  0.00     0.210 C 
ENDBRANCH  11  31
TORSDOF 5
ENDMDL
MODEL 2
REMARK VINA RESULT: -8.786635796      2.919      8.564
REMARK  5 active torsions:
REMARK  status: ('A' for Active; 'I' for Inactive)
REMARK    1  A    between atoms: C2_2  and  O1_3 
REMARK    2  A    between atoms: O1_3  and  C3_4 
REMARK    3  A    between atoms: C11_13  and  O3_14 
REMARK    4  A    between atoms: C12_16  and  O4_17 
REMARK    5  A    between atoms: C16_21  and  O5_22 
ROOT
HETATM    1  C3  UNL     1     -23.645 -19.504  14.867  1.00  0.00     0.304 C 
HETATM    2  O2  UNL     1     -23.301 -18.927  13.600  1.00  0.00    -0.315 OA
HETATM    3  C4  UNL     1     -22.765 -17.664  13.533  1.00  0.00     0.084 A 
HETATM    4  C5  UNL     1     -22.072 -17.284  12.413  1.00  0.00     0.052 A 
HETATM    5  C6  UNL     1     -21.525 -16.024  12.323  1.00  0.00    -0.001 A 
HETATM    6  C7  UNL     1     -21.682 -15.149  13.373  1.00  0.00     0.040 A 
HETATM    7  C8  UNL     1     -22.386 -15.522  14.524  1.00  0.00     0.045 A 
HETATM    8  C9  UNL     1     -22.924 -16.770  14.602  1.00  0.00     0.013 A 
HETATM    9  C10 UNL     1     -23.653 -17.219  15.764  1.00  0.00     0.027 A 
HETATM   10  C11 UNL     1     -23.993 -16.332  16.755  1.00  0.00     0.111 A 
HETATM   11  C12 UNL     1     -24.831 -16.741  17.776  1.00  0.00     0.110 A 
HETATM   12  C14 UNL     1     -25.343 -18.011  17.839  1.00  0.00     0.008 A 
HETATM   13  C15 UNL     1     -26.246 -18.434  18.935  1.00  0.00     0.054 C 
HETATM   14  C16 UNL     1     -24.998 -18.919  16.831  1.00  0.00     0.089 A 
HETATM   15  C18 UNL     1     -24.178 -18.545  15.828  1.00  0.00     0.045 A 
HETATM   16  N1  UNL     1     -21.121 -13.871  13.271  1.00  0.00    -0.377 N 
ATOM     17  H1  UNL     1     -21.241 -13.228  14.055  1.00  0.00     0.160 HD
HETATM   18  C19 UNL     1     -20.394 -13.419  12.138  1.00  0.00     0.041 A 
HETATM   19  C20 UNL     1     -21.070 -12.181  11.506  1.00  0.00     0.042 C 
HETATM   20  C21 UNL     1     -19.000 -12.916  12.509  1.00  0.00     0.042 C 
HETATM   21  C22 UNL     1     -20.283 -14.419  11.077  1.00  0.00     0.011 A 
HETATM   22  C23 UNL     1     -20.792 -15.627  11.130  1.00  0.00    -0.051 A 
HETATM   23  C24 UNL     1     -20.642 -16.596  10.017  1.00  0.00     0.049 C 
ENDROOT
BRANCH   1  24
HETATM   24  O1  UNL     1     -24.389 -20.629  14.650  1.00  0.00    -0.357 OA
BRANCH  24  25
HETATM   25  C2  UNL     1     -25.033 -20.511  13.407  1.00  0.00     0.167 C 
HETATM   26  C1  UNL     1     -26.514 -20.351  13.527  1.00  0.00     0.033 C 
ENDBRANCH  24  25
ENDBRANCH   1  24
BRANCH  14  27
HETATM   27  O5  UNL     1     -25.542 -20.170  16.941  1.00  0.00    -0.355 OA
HETATM   28  C17 UNL     1     -24.934 -21.156  17.796  1.00  0.00     0.210 C 
ENDBRANCH  14  27
BRANCH  10  29
HETATM   29  O3  UNL     1     -23.558 -15.049  16.810  1.00  0.00    -0.357 OA
ATOM     30  H3  UNL     1     -23.866 -14.407  17.439  1.00  0.00     0.217 HD
ENDBRANCH  10  29
BRANCH  11  31
HETATM   31  O4  UNL     1     -25.144 -15.810  18.754  1.00  0.00    -0.352 OA
HETATM   32  C13 UNL     1     -24.246 -15.701  19.845  1.00  0.00     0.210 C 
ENDBRANCH  11  31
TORSDOF 5
ENDMDL
MODEL 3
REMARK VINA RESULT: -8.740473106      2.316      7.528
REMARK  5 active torsions:
REMARK  status: ('A' for Active; 'I' for Inactive)
REMARK    1  A    between atoms: C2_2  and  O1_3 
REMARK    2  A    between atoms: O1_3  and  C3_4 
REMARK    3  A    between atoms: C11_13  and  O3_14 
REMARK    4  A    between atoms: C12_16  and  O4_17 
REMARK    5  A    between atoms: C16_21  and  O5_22 
ROOT
HETATM    1  C3  UNL     1     -20.537 -16.243  10.463  1.00  0.00     0.304 C 
HETATM    2  O2  UNL     1     -19.859 -15.024  10.132  1.00  0.00    -0.315 OA
HETATM    3  C4  UNL     1     -19.467 -14.154  11.122  1.00  0.00     0.084 A 
HETATM    4  C5  UNL     1     -18.489 -13.231  10.859  1.00  0.00     0.052 A 
HETATM    5  C6  UNL     1     -18.081 -12.350  11.834  1.00  0.00    -0.001 A 
HETATM    6  C7  UNL     1     -18.666 -12.407  13.078  1.00  0.00     0.040 A 
HETATM    7  C8  UNL     1     -19.666 -13.344  13.361  1.00  0.00     0.045 A 
HETATM    8  C9  UNL     1     -20.064 -14.211  12.389  1.00  0.00     0.013 A 
HETATM    9  C10 UNL     1     -21.083 -15.207  12.620  1.00  0.00     0.027 A 
HETATM   10  C11 UNL     1     -21.823 -15.187  13.777  1.00  0.00     0.111 A 
HETATM   11  C12 UNL     1     -22.902 -16.041  13.908  1.00  0.00     0.110 A 
HETATM   12  C14 UNL     1     -23.268 -16.917  12.920  1.00  0.00     0.008 A 
HETATM   13  C15 UNL     1     -24.431 -17.822  13.071  1.00  0.00     0.054 C 
HETATM   14  C16 UNL     1     -22.515 -16.941  11.739  1.00  0.00     0.089 A 
HETATM   15  C18 UNL     1     -21.455 -16.121  11.589  1.00  0.00     0.045 A 
HETATM   16  N1  UNL     1     -18.242 -11.507  14.062  1.00  0.00    -0.377 N 
ATOM     17  H1  UNL     1     -18.681 -11.557  14.982  1.00  0.00     0.160 HD
HETATM   18  C19 UNL     1     -17.235 -10.528  13.851  1.00  0.00     0.041 A 
HETATM   19  C20 UNL     1     -17.793  -9.104  14.076  1.00  0.00     0.042 C 
HETATM   20  C21 UNL     1     -16.103 -10.635  14.871  1.00  0.00     0.042 C 
HETATM   21  C22 UNL     1     -16.675 -10.546  12.501  1.00  0.00     0.011 A 
HETATM   22  C23 UNL     1     -17.042 -11.371  11.549  1.00  0.00    -0.051 A 
HETATM   23  C24 UNL     1     -16.432 -11.337  10.197  1.00  0.00     0.049 C 
ENDROOT
BRANCH   1  24
HETATM   24  O1  UNL     1     -21.044 -16.788   9.318  1.00  0.00    -0.357 OA
BRANCH  24  25
HETATM   25  C2  UNL     1     -19.993 -17.375   8.593  1.00  0.00     0.167 C 
HETATM   26  C1  UNL     1     -19.202 -18.354   9.399  1.00  0.00     0.033 C 
ENDBRANCH  24  25
ENDBRANCH   1  24
BRANCH  14  27
HETATM   27  O5  UNL     1     -22.930 -17.830  10.785  1.00  0.00    -0.355 OA
HETATM   28  C17 UNL     1     -22.573 -19.222  10.882  1.00  0.00     0.210 C 
ENDBRANCH  14  27
BRANCH  10  29
HETATM   29  O3  UNL     1     -21.569 -14.369  14.828  1.00  0.00    -0.357 OA
ATOM     30  H3  UNL     1     -21.605 -14.642  15.738  1.00  0.00     0.217 HD
ENDBRANCH  10  29
BRANCH  11  31
HETATM   31  O4  UNL     1     -23.616 -15.986  15.095  1.00  0.00    -0.352 OA
HETATM   32  C13 UNL     1     -23.260 -16.917  16.101  1.00  0.00     0.210 C 
ENDBRANCH  11  31
TORSDOF 5
ENDMDL
MODEL 4
REMARK VINA RESULT: -8.339512147      2.269      5.356
REMARK  5 active torsions:
REMARK  status: ('A' for Active; 'I' for Inactive)
REMARK    1  A    between atoms: C2_2  and  O1_3 
REMARK    2  A    between atoms: O1_3  and  C3_4 
REMARK    3  A    between atoms: C11_13  and  O3_14 
REMARK    4  A    between atoms: C12_16  and  O4_17 
REMARK    5  A    between atoms: C16_21  and  O5_22 
ROOT
HETATM    1  C3  UNL     1     -23.674 -18.385  12.654  1.00  0.00     0.304 C 
HETATM    2  O2  UNL     1     -23.972 -18.857  13.974  1.00  0.00    -0.315 OA
HETATM    3  C4  UNL     1     -24.036 -17.979  15.030  1.00  0.00     0.084 A 
HETATM    4  C5  UNL     1     -24.705 -18.343  16.169  1.00  0.00     0.052 A 
HETATM    5  C6  UNL     1     -24.783 -17.481  17.239  1.00  0.00    -0.001 A 
HETATM    6  C7  UNL     1     -24.181 -16.247  17.151  1.00  0.00     0.040 A 
HETATM    7  C8  UNL     1     -23.495 -15.861  15.994  1.00  0.00     0.045 A 
HETATM    8  C9  UNL     1     -23.422 -16.722  14.942  1.00  0.00     0.013 A 
HETATM    9  C10 UNL     1     -22.738 -16.380  13.718  1.00  0.00     0.027 A 
HETATM   10  C11 UNL     1     -21.970 -15.244  13.646  1.00  0.00     0.111 A 
HETATM   11  C12 UNL     1     -21.192 -15.020  12.526  1.00  0.00     0.110 A 
HETATM   12  C14 UNL     1     -21.153 -15.895  11.473  1.00  0.00     0.008 A 
HETATM   13  C15 UNL     1     -20.308 -15.646  10.281  1.00  0.00     0.054 C 
HETATM   14  C16 UNL     1     -21.935 -17.055  11.542  1.00  0.00     0.089 A 
HETATM   15  C18 UNL     1     -22.707 -17.293  12.621  1.00  0.00     0.045 A 
HETATM   16  N1  UNL     1     -24.268 -15.378  18.245  1.00  0.00    -0.377 N 
ATOM     17  H1  UNL     1     -23.819 -14.465  18.171  1.00  0.00     0.160 HD
HETATM   18  C19 UNL     1     -24.945 -15.698  19.451  1.00  0.00     0.041 A 
HETATM   19  C20 UNL     1     -23.977 -15.658  20.655  1.00  0.00     0.042 C 
HETATM   20  C21 UNL     1     -26.006 -14.659  19.811  1.00  0.00     0.042 C 
HETATM   21  C22 UNL     1     -25.550 -17.028  19.448  1.00  0.00     0.011 A 
HETATM   22  C23 UNL     1     -25.494 -17.874  18.447  1.00  0.00    -0.051 A 
HETATM   23  C24 UNL     1     -26.131 -19.212  18.508  1.00  0.00     0.049 C 
ENDROOT
BRANCH   1  24
HETATM   24  O1  UNL     1     -23.410 -19.459  11.852  1.00  0.00    -0.357 OA
BRANCH  24  25
HETATM   25  C2  UNL     1     -23.362 -20.615  12.649  1.00  0.00     0.167 C 
HETATM   26  C1  UNL     1     -22.164 -21.465  12.375  1.00  0.00     0.033 C 
ENDBRANCH  24  25
ENDBRANCH   1  24
BRANCH  14  27
HETATM   27  O5  UNL     1     -21.853 -17.895  10.465  1.00  0.00    -0.355 OA
HETATM   28  C17 UNL     1     -20.722 -18.772  10.310  1.00  0.00     0.210 C 
ENDBRANCH  14  27
BRANCH  10  29
HETATM   29  O3  UNL     1     -21.916 -14.300  14.618  1.00  0.00    -0.357 OA
ATOM     30  H3  UNL     1     -22.354 -13.458  14.569  1.00  0.00     0.217 HD
ENDBRANCH  10  29
BRANCH  11  31
HETATM   31  O4  UNL     1     -20.436 -13.858  12.499  1.00  0.00    -0.352 OA
HETATM   32  C13 UNL     1     -20.946 -12.779  11.736  1.00  0.00     0.210 C 
ENDBRANCH  11  31
TORSDOF 5
ENDMDL
MODEL 5
REMARK VINA RESULT: -8.330926257      1.860      4.755
REMARK  5 active torsions:
REMARK  status: ('A' for Active; 'I' for Inactive)
REMARK    1  A    between atoms: C2_2  and  O1_3 
REMARK    2  A    between atoms: O1_3  and  C3_4 
REMARK    3  A    between atoms: C11_13  and  O3_14 
REMARK    4  A    between atoms: C12_16  and  O4_17 
REMARK    5  A    between atoms: C16_21  and  O5_22 
ROOT
HETATM    1  C3  UNL     1     -22.706 -17.890  11.953  1.00  0.00     0.304 C 
HETATM    2  O2  UNL     1     -23.017 -18.470  13.226  1.00  0.00    -0.315 OA
HETATM    3  C4  UNL     1     -23.278 -17.668  14.312  1.00  0.00     0.084 A 
HETATM    4  C5  UNL     1     -23.959 -18.184  15.383  1.00  0.00     0.052 A 
HETATM    5  C6  UNL     1     -24.232 -17.400  16.481  1.00  0.00    -0.001 A 
HETATM    6  C7  UNL     1     -23.812 -16.090  16.490  1.00  0.00     0.040 A 
HETATM    7  C8  UNL     1     -23.115 -15.549  15.404  1.00  0.00     0.045 A 
HETATM    8  C9  UNL     1     -22.849 -16.333  14.323  1.00  0.00     0.013 A 
HETATM    9  C10 UNL     1     -22.144 -15.832  13.168  1.00  0.00     0.027 A 
HETATM   10  C11 UNL     1     -21.547 -14.596  13.202  1.00  0.00     0.111 A 
HETATM   11  C12 UNL     1     -20.739 -14.203  12.152  1.00  0.00     0.110 A 
HETATM   12  C14 UNL     1     -20.504 -15.006  11.067  1.00  0.00     0.008 A 
HETATM   13  C15 UNL     1     -19.628 -14.575   9.952  1.00  0.00     0.054 C 
HETATM   14  C16 UNL     1     -21.111 -16.267  11.029  1.00  0.00     0.089 A 
HETATM   15  C18 UNL     1     -21.909 -16.671  12.038  1.00  0.00     0.045 A 
HETATM   16  N1  UNL     1     -24.096 -15.303  17.612  1.00  0.00    -0.377 N 
ATOM     17  H1  UNL     1     -23.781 -14.332  17.611  1.00  0.00     0.160 HD
HETATM   18  C19 UNL     1     -24.796 -15.780  18.752  1.00  0.00     0.041 A 
HETATM   19  C20 UNL     1     -23.924 -15.667  20.023  1.00  0.00     0.042 C 
HETATM   20  C21 UNL     1     -26.019 -14.924  19.078  1.00  0.00     0.042 C 
HETATM   21  C22 UNL     1     -25.199 -17.181  18.647  1.00  0.00     0.011 A 
HETATM   22  C23 UNL     1     -24.955 -17.955  17.616  1.00  0.00    -0.051 A 
HETATM   23  C24 UNL     1     -25.393 -19.372  17.572  1.00  0.00     0.049 C 
ENDROOT
BRANCH   1  24
HETATM   24  O1  UNL     1     -22.236 -18.870  11.126  1.00  0.00    -0.357 OA
BRANCH  24  25
HETATM   25  C2  UNL     1     -22.044 -20.040  11.879  1.00  0.00     0.167 C 
HETATM   26  C1  UNL     1     -20.635 -20.537  11.839  1.00  0.00     0.033 C 
ENDBRANCH  24  25
ENDBRANCH   1  24
BRANCH  14  27
HETATM   27  O5  UNL     1     -20.837 -17.029   9.924  1.00  0.00    -0.355 OA
HETATM   28  C17 UNL     1     -19.576 -17.712   9.805  1.00  0.00     0.210 C 
ENDBRANCH  14  27
BRANCH  10  29
HETATM   29  O3  UNL     1     -21.695 -13.707  14.215  1.00  0.00    -0.357 OA
ATOM     30  H3  UNL     1     -20.979 -13.383  14.750  1.00  0.00     0.217 HD
ENDBRANCH  10  29
BRANCH  11  31
HETATM   31  O4  UNL     1     -20.161 -12.945  12.230  1.00  0.00    -0.352 OA
HETATM   32  C13 UNL     1     -18.989 -12.827  13.017  1.00  0.00     0.210 C 
ENDBRANCH  11  31
TORSDOF 5
ENDMDL
