MODEL 1
REMARK VINA RESULT: -6.475997427      0.000      0.000
REMARK  9 active torsions:
REMARK  status: ('A' for Active; 'I' for Inactive)
REMARK    1  A    between atoms: C2_2  and  C3_3 
REMARK    2  A    between atoms: C3_3  and  C4_4 
REMARK    3  A    between atoms: C4_4  and  O2_6 
REMARK    4  A    between atoms: O2_6  and  C5_7 
REMARK    5  A    between atoms: C6_8  and  C7_9 
REMARK    6  A    between atoms: C15_19  and  O5_20 
REMARK    7  A    between atoms: C17_23  and  O6_24 
REMARK    8  A    between atoms: O6_24  and  C18_25 
REMARK    9  A    between atoms: C18_25  and  C19_29 
ROOT
HETATM    1  C5  UNL     1     -21.494 -17.304  11.949  1.00  0.00     0.108 A 
HETATM    2  C6  UNL     1     -21.887 -16.736  13.195  1.00  0.00     0.060 A 
HETATM    3  C11 UNL     1     -21.661 -15.388  13.357  1.00  0.00     0.298 A 
HETATM    4  O3  UNL     1     -21.951 -14.726  14.423  1.00  0.00    -0.259 OA
HETATM    5  O4  UNL     1     -21.117 -14.649  12.424  1.00  0.00    -0.273 OA
HETATM    6  C12 UNL     1     -20.747 -15.123  11.263  1.00  0.00     0.104 A 
HETATM    7  C13 UNL     1     -20.194 -14.246  10.345  1.00  0.00     0.006 A 
HETATM    8  C14 UNL     1     -20.012 -12.810  10.680  1.00  0.00     0.054 C 
HETATM    9  C15 UNL     1     -19.833 -14.772   9.141  1.00  0.00     0.077 A 
HETATM   10  C16 UNL     1     -20.009 -16.098   8.851  1.00  0.00     0.075 A 
HETATM   11  C17 UNL     1     -20.556 -16.994   9.743  1.00  0.00     0.096 A 
HETATM   12  C23 UNL     1     -20.933 -16.488  10.997  1.00  0.00     0.067 A 
ENDROOT
BRANCH  11  13
HETATM   13  O6  UNL     1     -20.734 -18.336   9.422  1.00  0.00    -0.296 OA
BRANCH  13  14
HETATM   14  C18 UNL     1     -19.743 -19.130   8.915  1.00  0.00     0.125 C 
HETATM   15  N1  UNL     1     -19.797 -19.255   7.603  1.00  0.00    -0.383 N 
ATOM     16  H12 UNL     1     -20.546 -18.758   7.121  1.00  0.00     0.158 HD
ATOM     17  H11 UNL     1     -19.058 -19.848   7.225  1.00  0.00     0.158 HD
BRANCH  14  18
HETATM   18  C19 UNL     1     -18.660 -19.850   9.612  1.00  0.00     0.014 C 
HETATM   19  C20 UNL     1     -18.579 -21.255   9.129  1.00  0.00     0.023 C 
HETATM   20  C21 UNL     1     -17.349 -19.135   9.330  1.00  0.00     0.023 C 
HETATM   21  C22 UNL     1     -18.798 -19.833  11.133  1.00  0.00     0.023 C 
ENDBRANCH  14  18
ENDBRANCH  13  14
ENDBRANCH  11  13
BRANCH   9  22
HETATM   22  O5  UNL     1     -19.275 -13.945   8.188  1.00  0.00    -0.360 OA
ATOM     23  H5  UNL     1     -18.998 -14.317   7.359  1.00  0.00     0.217 HD
ENDBRANCH   9  22
BRANCH   1  24
HETATM   24  O2  UNL     1     -21.687 -18.646  11.760  1.00  0.00    -0.277 OA
BRANCH  24  25
HETATM   25  C4  UNL     1     -22.877 -19.212  11.236  1.00  0.00     0.264 C 
HETATM   26  O1  UNL     1     -23.695 -18.464  10.646  1.00  0.00    -0.265 OA
BRANCH  25  27
HETATM   27  C3  UNL     1     -23.106 -20.661  11.399  1.00  0.00     0.111 C 
BRANCH  27  28
HETATM   28  C2  UNL     1     -22.129 -21.485  10.626  1.00  0.00     0.005 C 
HETATM   29  C1  UNL     1     -22.527 -21.523   9.163  1.00  0.00     0.005 C 
ENDBRANCH  27  28
ENDBRANCH  25  27
ENDBRANCH  24  25
ENDBRANCH   1  24
BRANCH   2  30
HETATM   30  C7  UNL     1     -22.549 -17.502  14.233  1.00  0.00    -0.015 C 
HETATM   31  C8  UNL     1     -23.993 -17.797  14.170  1.00  0.00     0.020 C 
HETATM   32  C9  UNL     1     -21.842 -18.815  14.488  1.00  0.00     0.020 C 
HETATM   33  C10 UNL     1     -22.364 -16.750  15.599  1.00  0.00     0.020 C 
ENDBRANCH   2  30
TORSDOF 9
ENDMDL
MODEL 2
REMARK VINA RESULT: -6.426778605      0.491      1.030
REMARK  9 active torsions:
REMARK  status: ('A' for Active; 'I' for Inactive)
REMARK    1  A    between atoms: C2_2  and  C3_3 
REMARK    2  A    between atoms: C3_3  and  C4_4 
REMARK    3  A    between atoms: C4_4  and  O2_6 
REMARK    4  A    between atoms: O2_6  and  C5_7 
REMARK    5  A    between atoms: C6_8  and  C7_9 
REMARK    6  A    between atoms: C15_19  and  O5_20 
REMARK    7  A    between atoms: C17_23  and  O6_24 
REMARK    8  A    between atoms: O6_24  and  C18_25 
REMARK    9  A    between atoms: C18_25  and  C19_29 
ROOT
HETATM    1  C5  UNL     1     -21.493 -17.291  11.927  1.00  0.00     0.108 A 
HETATM    2  C6  UNL     1     -21.878 -16.730  13.178  1.00  0.00     0.060 A 
HETATM    3  C11 UNL     1     -21.645 -15.384  13.349  1.00  0.00     0.298 A 
HETATM    4  O3  UNL     1     -21.929 -14.728  14.420  1.00  0.00    -0.259 OA
HETATM    5  O4  UNL     1     -21.102 -14.642  12.418  1.00  0.00    -0.273 OA
HETATM    6  C12 UNL     1     -20.739 -15.110  11.253  1.00  0.00     0.104 A 
HETATM    7  C13 UNL     1     -20.185 -14.229  10.338  1.00  0.00     0.006 A 
HETATM    8  C14 UNL     1     -19.995 -12.796  10.682  1.00  0.00     0.054 C 
HETATM    9  C15 UNL     1     -19.831 -14.749   9.130  1.00  0.00     0.077 A 
HETATM   10  C16 UNL     1     -20.014 -16.072   8.831  1.00  0.00     0.075 A 
HETATM   11  C17 UNL     1     -20.561 -16.972   9.719  1.00  0.00     0.096 A 
HETATM   12  C23 UNL     1     -20.932 -16.472  10.979  1.00  0.00     0.067 A 
ENDROOT
BRANCH  11  13
HETATM   13  O6  UNL     1     -20.747 -18.310   9.390  1.00  0.00    -0.296 OA
BRANCH  13  14
HETATM   14  C18 UNL     1     -19.765 -19.102   8.863  1.00  0.00     0.125 C 
HETATM   15  N1  UNL     1     -19.862 -19.248   7.555  1.00  0.00    -0.383 N 
ATOM     16  H12 UNL     1     -20.632 -18.766   7.091  1.00  0.00     0.158 HD
ATOM     17  H11 UNL     1     -19.130 -19.839   7.161  1.00  0.00     0.158 HD
BRANCH  14  18
HETATM   18  C19 UNL     1     -18.652 -19.800   9.533  1.00  0.00     0.014 C 
HETATM   19  C20 UNL     1     -19.124 -20.432  10.795  1.00  0.00     0.023 C 
HETATM   20  C21 UNL     1     -18.119 -20.868   8.593  1.00  0.00     0.023 C 
HETATM   21  C22 UNL     1     -17.455 -18.898   9.824  1.00  0.00     0.023 C 
ENDBRANCH  14  18
ENDBRANCH  13  14
ENDBRANCH  11  13
BRANCH   9  22
HETATM   22  O5  UNL     1     -19.273 -13.918   8.180  1.00  0.00    -0.360 OA
ATOM     23  H5  UNL     1     -18.538 -14.232   7.666  1.00  0.00     0.217 HD
ENDBRANCH   9  22
BRANCH   1  24
HETATM   24  O2  UNL     1     -21.692 -18.631  11.730  1.00  0.00    -0.277 OA
BRANCH  24  25
HETATM   25  C4  UNL     1     -22.828 -19.179  11.080  1.00  0.00     0.264 C 
HETATM   26  O1  UNL     1     -23.730 -18.403  10.680  1.00  0.00    -0.265 OA
BRANCH  25  27
HETATM   27  C3  UNL     1     -22.903 -20.641  10.892  1.00  0.00     0.111 C 
BRANCH  27  28
HETATM   28  C2  UNL     1     -22.643 -21.394  12.157  1.00  0.00     0.005 C 
HETATM   29  C1  UNL     1     -23.908 -21.454  12.992  1.00  0.00     0.005 C 
ENDBRANCH  27  28
ENDBRANCH  25  27
ENDBRANCH  24  25
ENDBRANCH   1  24
BRANCH   2  30
HETATM   30  C7  UNL     1     -22.540 -17.499  14.214  1.00  0.00    -0.015 C 
HETATM   31  C8  UNL     1     -23.965 -17.864  14.111  1.00  0.00     0.020 C 
HETATM   32  C9  UNL     1     -21.782 -18.771  14.528  1.00  0.00     0.020 C 
HETATM   33  C10 UNL     1     -22.437 -16.705  15.565  1.00  0.00     0.020 C 
ENDBRANCH   2  30
TORSDOF 9
ENDMDL
MODEL 3
REMARK VINA RESULT: -6.298164161      0.918      1.128
REMARK  9 active torsions:
REMARK  status: ('A' for Active; 'I' for Inactive)
REMARK    1  A    between atoms: C2_2  and  C3_3 
REMARK    2  A    between atoms: C3_3  and  C4_4 
REMARK    3  A    between atoms: C4_4  and  O2_6 
REMARK    4  A    between atoms: O2_6  and  C5_7 
REMARK    5  A    between atoms: C6_8  and  C7_9 
REMARK    6  A    between atoms: C15_19  and  O5_20 
REMARK    7  A    between atoms: C17_23  and  O6_24 
REMARK    8  A    between atoms: O6_24  and  C18_25 
REMARK    9  A    between atoms: C18_25  and  C19_29 
ROOT
HETATM    1  C5  UNL     1     -21.481 -17.268  11.970  1.00  0.00     0.108 A 
HETATM    2  C6  UNL     1     -21.884 -16.675  13.200  1.00  0.00     0.060 A 
HETATM    3  C11 UNL     1     -21.665 -15.322  13.335  1.00  0.00     0.298 A 
HETATM    4  O3  UNL     1     -21.965 -14.640  14.384  1.00  0.00    -0.259 OA
HETATM    5  O4  UNL     1     -21.120 -14.601  12.389  1.00  0.00    -0.273 OA
HETATM    6  C12 UNL     1     -20.741 -15.099  11.241  1.00  0.00     0.104 A 
HETATM    7  C13 UNL     1     -20.187 -14.239  10.307  1.00  0.00     0.006 A 
HETATM    8  C14 UNL     1     -20.014 -12.794  10.612  1.00  0.00     0.054 C 
HETATM    9  C15 UNL     1     -19.816 -14.789   9.117  1.00  0.00     0.077 A 
HETATM   10  C16 UNL     1     -19.984 -16.121   8.854  1.00  0.00     0.075 A 
HETATM   11  C17 UNL     1     -20.531 -17.001   9.762  1.00  0.00     0.096 A 
HETATM   12  C23 UNL     1     -20.919 -16.470  11.004  1.00  0.00     0.067 A 
ENDROOT
BRANCH  11  13
HETATM   13  O6  UNL     1     -20.701 -18.350   9.470  1.00  0.00    -0.296 OA
BRANCH  13  14
HETATM   14  C18 UNL     1     -19.663 -19.227   9.318  1.00  0.00     0.125 C 
HETATM   15  N1  UNL     1     -18.926 -19.353  10.405  1.00  0.00    -0.383 N 
ATOM     16  H12 UNL     1     -19.203 -18.804  11.218  1.00  0.00     0.158 HD
ATOM     17  H11 UNL     1     -18.152 -20.008  10.291  1.00  0.00     0.158 HD
BRANCH  14  18
HETATM   18  C19 UNL     1     -19.263 -20.022   8.141  1.00  0.00     0.014 C 
HETATM   19  C20 UNL     1     -20.459 -20.396   7.339  1.00  0.00     0.023 C 
HETATM   20  C21 UNL     1     -18.319 -19.184   7.295  1.00  0.00     0.023 C 
HETATM   21  C22 UNL     1     -18.466 -21.275   8.496  1.00  0.00     0.023 C 
ENDBRANCH  14  18
ENDBRANCH  13  14
ENDBRANCH  11  13
BRANCH   9  22
HETATM   22  O5  UNL     1     -19.257 -13.980   8.150  1.00  0.00    -0.360 OA
ATOM     23  H5  UNL     1     -18.513 -13.434   8.378  1.00  0.00     0.217 HD
ENDBRANCH   9  22
BRANCH   1  24
HETATM   24  O2  UNL     1     -21.666 -18.615  11.809  1.00  0.00    -0.277 OA
BRANCH  24  25
HETATM   25  C4  UNL     1     -22.830 -19.195  11.243  1.00  0.00     0.264 C 
HETATM   26  O1  UNL     1     -23.655 -18.451  10.659  1.00  0.00    -0.265 OA
BRANCH  25  27
HETATM   27  C3  UNL     1     -23.024 -20.654  11.358  1.00  0.00     0.111 C 
BRANCH  27  28
HETATM   28  C2  UNL     1     -21.755 -21.376  11.672  1.00  0.00     0.005 C 
HETATM   29  C1  UNL     1     -21.396 -22.312  10.533  1.00  0.00     0.005 C 
ENDBRANCH  27  28
ENDBRANCH  25  27
ENDBRANCH  24  25
ENDBRANCH   1  24
BRANCH   2  30
HETATM   30  C7  UNL     1     -22.549 -17.421  14.252  1.00  0.00    -0.015 C 
HETATM   31  C8  UNL     1     -23.986 -17.742  14.177  1.00  0.00     0.020 C 
HETATM   32  C9  UNL     1     -21.823 -18.715  14.554  1.00  0.00     0.020 C 
HETATM   33  C10 UNL     1     -22.395 -16.627  15.597  1.00  0.00     0.020 C 
ENDBRANCH   2  30
TORSDOF 9
ENDMDL
MODEL 4
REMARK VINA RESULT: -6.264584925      2.041      5.090
REMARK  9 active torsions:
REMARK  status: ('A' for Active; 'I' for Inactive)
REMARK    1  A    between atoms: C2_2  and  C3_3 
REMARK    2  A    between atoms: C3_3  and  C4_4 
REMARK    3  A    between atoms: C4_4  and  O2_6 
REMARK    4  A    between atoms: O2_6  and  C5_7 
REMARK    5  A    between atoms: C6_8  and  C7_9 
REMARK    6  A    between atoms: C15_19  and  O5_20 
REMARK    7  A    between atoms: C17_23  and  O6_24 
REMARK    8  A    between atoms: O6_24  and  C18_25 
REMARK    9  A    between atoms: C18_25  and  C19_29 
ROOT
HETATM    1  C5  UNL     1     -20.944 -18.413  11.923  1.00  0.00     0.108 A 
HETATM    2  C6  UNL     1     -20.897 -19.715  12.498  1.00  0.00     0.060 A 
HETATM    3  C11 UNL     1     -20.307 -20.703  11.743  1.00  0.00     0.298 A 
HETATM    4  O3  UNL     1     -20.191 -21.930  12.115  1.00  0.00    -0.259 OA
HETATM    5  O4  UNL     1     -19.805 -20.475  10.556  1.00  0.00    -0.273 OA
HETATM    6  C12 UNL     1     -19.818 -19.296   9.990  1.00  0.00     0.104 A 
HETATM    7  C13 UNL     1     -19.246 -19.168   8.735  1.00  0.00     0.006 A 
HETATM    8  C14 UNL     1     -18.650 -20.342   8.047  1.00  0.00     0.054 C 
HETATM    9  C15 UNL     1     -19.265 -17.923   8.182  1.00  0.00     0.077 A 
HETATM   10  C16 UNL     1     -19.819 -16.853   8.832  1.00  0.00     0.075 A 
HETATM   11  C17 UNL     1     -20.395 -16.949  10.079  1.00  0.00     0.096 A 
HETATM   12  C23 UNL     1     -20.399 -18.221  10.678  1.00  0.00     0.067 A 
ENDROOT
BRANCH  11  13
HETATM   13  O6  UNL     1     -20.943 -15.845  10.725  1.00  0.00    -0.296 OA
BRANCH  13  14
HETATM   14  C18 UNL     1     -20.506 -14.564  10.532  1.00  0.00     0.125 C 
HETATM   15  N1  UNL     1     -20.419 -14.231   9.258  1.00  0.00    -0.383 N 
ATOM     16  H12 UNL     1     -20.681 -14.941   8.575  1.00  0.00     0.158 HD
ATOM     17  H11 UNL     1     -20.093 -13.275   9.115  1.00  0.00     0.158 HD
BRANCH  14  18
HETATM   18  C19 UNL     1     -20.126 -13.537  11.520  1.00  0.00     0.014 C 
HETATM   19  C20 UNL     1     -18.712 -13.122  11.315  1.00  0.00     0.023 C 
HETATM   20  C21 UNL     1     -21.043 -12.338  11.345  1.00  0.00     0.023 C 
HETATM   21  C22 UNL     1     -20.330 -13.979  12.968  1.00  0.00     0.023 C 
ENDBRANCH  14  18
ENDBRANCH  13  14
ENDBRANCH  11  13
BRANCH   9  22
HETATM   22  O5  UNL     1     -18.711 -17.736   6.933  1.00  0.00    -0.360 OA
ATOM     23  H5  UNL     1     -18.001 -17.113   6.831  1.00  0.00     0.217 HD
ENDBRANCH   9  22
BRANCH   1  24
HETATM   24  O2  UNL     1     -21.541 -17.410  12.639  1.00  0.00    -0.277 OA
BRANCH  24  25
HETATM   25  C4  UNL     1     -22.934 -17.140  12.619  1.00  0.00     0.264 C 
HETATM   26  O1  UNL     1     -23.583 -17.387  11.574  1.00  0.00    -0.265 OA
BRANCH  25  27
HETATM   27  C3  UNL     1     -23.566 -16.584  13.831  1.00  0.00     0.111 C 
BRANCH  27  28
HETATM   28  C2  UNL     1     -22.578 -15.943  14.749  1.00  0.00     0.005 C 
HETATM   29  C1  UNL     1     -23.015 -16.127  16.190  1.00  0.00     0.005 C 
ENDBRANCH  27  28
ENDBRANCH  25  27
ENDBRANCH  24  25
ENDBRANCH   1  24
BRANCH   2  30
HETATM   30  C7  UNL     1     -21.384 -20.002  13.835  1.00  0.00    -0.015 C 
HETATM   31  C8  UNL     1     -21.098 -19.102  14.967  1.00  0.00     0.020 C 
HETATM   32  C9  UNL     1     -22.877 -20.253  13.837  1.00  0.00     0.020 C 
HETATM   33  C10 UNL     1     -20.808 -21.392  14.285  1.00  0.00     0.020 C 
ENDBRANCH   2  30
TORSDOF 9
ENDMDL
MODEL 5
REMARK VINA RESULT: -6.203180970      5.479      9.172
REMARK  9 active torsions:
REMARK  status: ('A' for Active; 'I' for Inactive)
REMARK    1  A    between atoms: C2_2  and  C3_3 
REMARK    2  A    between atoms: C3_3  and  C4_4 
REMARK    3  A    between atoms: C4_4  and  O2_6 
REMARK    4  A    between atoms: O2_6  and  C5_7 
REMARK    5  A    between atoms: C6_8  and  C7_9 
REMARK    6  A    between atoms: C15_19  and  O5_20 
REMARK    7  A    between atoms: C17_23  and  O6_24 
REMARK    8  A    between atoms: O6_24  and  C18_25 
REMARK    9  A    between atoms: C18_25  and  C19_29 
ROOT
HETATM    1  C5  UNL     1     -24.882 -18.174  16.227  1.00  0.00     0.108 A 
HETATM    2  C6  UNL     1     -23.895 -17.321  15.655  1.00  0.00     0.060 A 
HETATM    3  C11 UNL     1     -23.408 -16.315  16.458  1.00  0.00     0.298 A 
HETATM    4  O3  UNL     1     -22.520 -15.458  16.090  1.00  0.00    -0.259 OA
HETATM    5  O4  UNL     1     -23.817 -16.138  17.688  1.00  0.00    -0.273 OA
HETATM    6  C12 UNL     1     -24.715 -16.898  18.258  1.00  0.00     0.104 A 
HETATM    7  C13 UNL     1     -25.063 -16.626  19.571  1.00  0.00     0.006 A 
HETATM    8  C14 UNL     1     -24.443 -15.490  20.302  1.00  0.00     0.054 C 
HETATM    9  C15 UNL     1     -25.991 -17.446  20.138  1.00  0.00     0.077 A 
HETATM   10  C16 UNL     1     -26.551 -18.488  19.448  1.00  0.00     0.075 A 
HETATM   11  C17 UNL     1     -26.225 -18.783  18.143  1.00  0.00     0.096 A 
HETATM   12  C23 UNL     1     -25.276 -17.953  17.524  1.00  0.00     0.067 A 
ENDROOT
BRANCH  11  13
HETATM   13  O6  UNL     1     -26.800 -19.854  17.465  1.00  0.00    -0.296 OA
BRANCH  13  14
HETATM   14  C18 UNL     1     -28.094 -20.256  17.646  1.00  0.00     0.125 C 
HETATM   15  N1  UNL     1     -28.959 -19.558  16.934  1.00  0.00    -0.383 N 
ATOM     16  H12 UNL     1     -28.581 -18.820  16.340  1.00  0.00     0.158 HD
ATOM     17  H11 UNL     1     -29.924 -19.858  17.068  1.00  0.00     0.158 HD
BRANCH  14  18
HETATM   18  C19 UNL     1     -28.641 -21.323  18.504  1.00  0.00     0.014 C 
HETATM   19  C20 UNL     1     -29.569 -20.748  19.515  1.00  0.00     0.023 C 
HETATM   20  C21 UNL     1     -29.388 -22.311  17.625  1.00  0.00     0.023 C 
HETATM   21  C22 UNL     1     -27.566 -22.153  19.203  1.00  0.00     0.023 C 
ENDBRANCH  14  18
ENDBRANCH  13  14
ENDBRANCH  11  13
BRANCH   9  22
HETATM   22  O5  UNL     1     -26.377 -17.221  21.443  1.00  0.00    -0.360 OA
ATOM     23  H5  UNL     1     -27.095 -17.727  21.806  1.00  0.00     0.217 HD
ENDBRANCH   9  22
BRANCH   1  24
HETATM   24  O2  UNL     1     -25.403 -19.174  15.450  1.00  0.00    -0.277 OA
BRANCH  24  25
HETATM   25  C4  UNL     1     -26.500 -19.006  14.568  1.00  0.00     0.264 C 
HETATM   26  O1  UNL     1     -27.266 -18.025  14.734  1.00  0.00    -0.265 OA
BRANCH  25  27
HETATM   27  C3  UNL     1     -26.697 -19.988  13.484  1.00  0.00     0.111 C 
BRANCH  27  28
HETATM   28  C2  UNL     1     -26.115 -21.325  13.811  1.00  0.00     0.005 C 
HETATM   29  C1  UNL     1     -27.127 -22.156  14.576  1.00  0.00     0.005 C 
ENDBRANCH  27  28
ENDBRANCH  25  27
ENDBRANCH  24  25
ENDBRANCH   1  24
BRANCH   2  30
HETATM   30  C7  UNL     1     -23.367 -17.518  14.318  1.00  0.00    -0.015 C 
HETATM   31  C8  UNL     1     -24.170 -17.211  13.121  1.00  0.00     0.020 C 
HETATM   32  C9  UNL     1     -22.033 -16.824  14.144  1.00  0.00     0.020 C 
HETATM   33  C10 UNL     1     -22.983 -19.031  14.154  1.00  0.00     0.020 C 
ENDBRANCH   2  30
TORSDOF 9
ENDMDL
