MODEL 1
REMARK VINA RESULT: -9.086367385      0.000      0.000
REMARK  7 active torsions:
REMARK  status: ('A' for Active; 'I' for Inactive)
REMARK    1  A    between atoms: O1_2  and  C2_3 
REMARK    2  A    between atoms: C4_5  and  C5_6 
REMARK    3  A    between atoms: C14_17  and  C15_18 
REMARK    4  A    between atoms: C15_18  and  C16_19 
REMARK    5  A    between atoms: C20_23  and  O4_24 
REMARK    6  A    between atoms: C23_28  and  O5_29 
REMARK    7  A    between atoms: C25_31  and  O6_32 
ROOT
HETATM    1  C5  UNL     1     -15.686 -10.537  13.638  1.00  0.00     0.017 C 
HETATM    2  C6  UNL     1     -16.011  -9.695  14.533  1.00  0.00    -0.040 C 
HETATM    3  C7  UNL     1     -15.007  -9.537  15.694  1.00  0.00     0.073 C 
HETATM    4  C8  UNL     1     -15.137  -8.060  16.098  1.00  0.00     0.175 C 
HETATM    5  O2  UNL     1     -15.520  -7.365  14.967  1.00  0.00    -0.233 OA
HETATM    6  O3  UNL     1     -16.769  -7.503  14.603  1.00  0.00    -0.225 OA
HETATM    7  C9  UNL     1     -17.182  -8.857  14.693  1.00  0.00     0.116 C 
HETATM    8  C10 UNL     1     -18.327  -9.011  13.746  1.00  0.00     0.054 C 
HETATM    9  C11 UNL     1     -17.820  -9.066  16.100  1.00  0.00     0.051 C 
HETATM   10  C12 UNL     1     -17.503  -7.840  16.867  1.00  0.00     0.006 C 
HETATM   11  C13 UNL     1     -18.052  -7.750  18.263  1.00  0.00     0.042 C 
HETATM   12  C14 UNL     1     -17.051  -6.766  18.838  1.00  0.00    -0.047 C 
HETATM   13  C20 UNL     1     -15.883  -6.933  18.234  1.00  0.00     0.053 C 
HETATM   14  C21 UNL     1     -16.018  -7.995  17.259  1.00  0.00     0.079 C 
ENDROOT
BRANCH   1  15
HETATM   15  C4  UNL     1     -16.287 -11.001  12.400  1.00  0.00    -0.030 A 
HETATM   16  C3  UNL     1     -17.388 -11.874  12.482  1.00  0.00     0.051 A 
HETATM   17  C2  UNL     1     -17.984 -12.443  11.404  1.00  0.00     0.104 A 
HETATM   18  C25 UNL     1     -17.471 -12.138  10.136  1.00  0.00     0.133 A 
HETATM   19  C23 UNL     1     -16.384 -11.281   9.983  1.00  0.00     0.104 A 
HETATM   20  C22 UNL     1     -15.831 -10.741  11.133  1.00  0.00     0.051 A 
BRANCH  17  21
HETATM   21  O1  UNL     1     -19.052 -13.293  11.477  1.00  0.00    -0.353 OA
HETATM   22  C1  UNL     1     -20.030 -13.350  12.487  1.00  0.00     0.210 C 
ENDBRANCH  17  21
BRANCH  18  23
HETATM   23  O6  UNL     1     -18.024 -12.677   8.991  1.00  0.00    -0.356 OA
ATOM     24  H6  UNL     1     -17.723 -13.507   8.642  1.00  0.00     0.218 HD
ENDBRANCH  18  23
BRANCH  19  25
HETATM   25  O5  UNL     1     -15.937 -11.027   8.791  1.00  0.00    -0.353 OA
HETATM   26  C24 UNL     1     -14.965 -11.231   7.877  1.00  0.00     0.210 C 
ENDBRANCH  19  25
ENDBRANCH   1  15
BRANCH  13  27
HETATM   27  O4  UNL     1     -14.752  -6.176  18.539  1.00  0.00    -0.364 OA
ATOM     28  H4  UNL     1     -13.937  -6.243  18.056  1.00  0.00     0.217 HD
ENDBRANCH  13  27
BRANCH  12  29
HETATM   29  C15 UNL     1     -17.421  -5.812  19.914  1.00  0.00     0.064 C 
BRANCH  29  30
HETATM   30  C16 UNL     1     -16.876  -6.309  21.204  1.00  0.00    -0.020 C 
HETATM   31  C17 UNL     1     -17.128  -5.698  22.325  1.00  0.00    -0.091 C 
HETATM   32  C18 UNL     1     -17.952  -4.492  22.422  1.00  0.00     0.042 C 
HETATM   33  C19 UNL     1     -16.546  -6.237  23.599  1.00  0.00     0.042 C 
ENDBRANCH  29  30
ENDBRANCH  12  29
TORSDOF 7
ENDMDL
MODEL 2
REMARK VINA RESULT: -8.617975902      0.255      2.309
REMARK  7 active torsions:
REMARK  status: ('A' for Active; 'I' for Inactive)
REMARK    1  A    between atoms: O1_2  and  C2_3 
REMARK    2  A    between atoms: C4_5  and  C5_6 
REMARK    3  A    between atoms: C14_17  and  C15_18 
REMARK    4  A    between atoms: C15_18  and  C16_19 
REMARK    5  A    between atoms: C20_23  and  O4_24 
REMARK    6  A    between atoms: C23_28  and  O5_29 
REMARK    7  A    between atoms: C25_31  and  O6_32 
ROOT
HETATM    1  C5  UNL     1     -15.688 -10.642  13.729  1.00  0.00     0.017 C 
HETATM    2  C6  UNL     1     -16.012  -9.779  14.604  1.00  0.00    -0.040 C 
HETATM    3  C7  UNL     1     -14.967  -9.530  15.712  1.00  0.00     0.073 C 
HETATM    4  C8  UNL     1     -15.146  -8.045  16.063  1.00  0.00     0.175 C 
HETATM    5  O2  UNL     1     -15.610  -7.414  14.925  1.00  0.00    -0.233 OA
HETATM    6  O3  UNL     1     -16.865  -7.622  14.624  1.00  0.00    -0.225 OA
HETATM    7  C9  UNL     1     -17.212  -8.987  14.784  1.00  0.00     0.116 C 
HETATM    8  C10 UNL     1     -18.389  -9.230  13.897  1.00  0.00     0.054 C 
HETATM    9  C11 UNL     1     -17.778  -9.167  16.226  1.00  0.00     0.051 C 
HETATM   10  C12 UNL     1     -17.484  -7.898  16.930  1.00  0.00     0.006 C 
HETATM   11  C13 UNL     1     -17.974  -7.775  18.345  1.00  0.00     0.042 C 
HETATM   12  C14 UNL     1     -16.995  -6.726  18.835  1.00  0.00    -0.047 C 
HETATM   13  C20 UNL     1     -15.849  -6.865  18.185  1.00  0.00     0.053 C 
HETATM   14  C21 UNL     1     -15.978  -7.972  17.259  1.00  0.00     0.079 C 
ENDROOT
BRANCH   1  15
HETATM   15  C4  UNL     1     -16.321 -11.181  12.538  1.00  0.00    -0.030 A 
HETATM   16  C3  UNL     1     -15.852 -10.751  11.283  1.00  0.00     0.051 A 
HETATM   17  C2  UNL     1     -16.411 -11.114  10.102  1.00  0.00     0.104 A 
HETATM   18  C25 UNL     1     -17.520 -11.970  10.139  1.00  0.00     0.133 A 
HETATM   19  C23 UNL     1     -18.036 -12.434  11.346  1.00  0.00     0.104 A 
HETATM   20  C22 UNL     1     -17.408 -12.017  12.509  1.00  0.00     0.051 A 
BRANCH  17  21
HETATM   21  O1  UNL     1     -15.962 -10.699   8.880  1.00  0.00    -0.353 OA
HETATM   22  C1  UNL     1     -14.801 -11.124   8.208  1.00  0.00     0.210 C 
ENDBRANCH  17  21
BRANCH  18  23
HETATM   23  O6  UNL     1     -18.144 -12.385   8.978  1.00  0.00    -0.356 OA
ATOM     24  H6  UNL     1     -18.536 -11.760   8.379  1.00  0.00     0.218 HD
ENDBRANCH  18  23
BRANCH  19  25
HETATM   25  O5  UNL     1     -19.067 -13.223  11.337  1.00  0.00    -0.353 OA
HETATM   26  C24 UNL     1     -20.402 -13.346  11.492  1.00  0.00     0.210 C 
ENDBRANCH  19  25
ENDBRANCH   1  15
BRANCH  13  27
HETATM   27  O4  UNL     1     -14.741  -6.048  18.409  1.00  0.00    -0.364 OA
ATOM     28  H4  UNL     1     -13.860  -6.285  18.147  1.00  0.00     0.217 HD
ENDBRANCH  13  27
BRANCH  12  29
HETATM   29  C15 UNL     1     -17.362  -5.746  19.889  1.00  0.00     0.064 C 
BRANCH  29  30
HETATM   30  C16 UNL     1     -16.829  -6.222  21.193  1.00  0.00    -0.020 C 
HETATM   31  C17 UNL     1     -17.167  -5.649  22.311  1.00  0.00    -0.091 C 
HETATM   32  C18 UNL     1     -18.080  -4.507  22.392  1.00  0.00     0.042 C 
HETATM   33  C19 UNL     1     -16.594  -6.163  23.599  1.00  0.00     0.042 C 
ENDBRANCH  29  30
ENDBRANCH  12  29
TORSDOF 7
ENDMDL
MODEL 3
REMARK VINA RESULT: -8.316390512      0.979      1.199
REMARK  7 active torsions:
REMARK  status: ('A' for Active; 'I' for Inactive)
REMARK    1  A    between atoms: O1_2  and  C2_3 
REMARK    2  A    between atoms: C4_5  and  C5_6 
REMARK    3  A    between atoms: C14_17  and  C15_18 
REMARK    4  A    between atoms: C15_18  and  C16_19 
REMARK    5  A    between atoms: C20_23  and  O4_24 
REMARK    6  A    between atoms: C23_28  and  O5_29 
REMARK    7  A    between atoms: C25_31  and  O6_32 
ROOT
HETATM    1  C5  UNL     1     -16.479 -11.266  13.849  1.00  0.00     0.017 C 
HETATM    2  C6  UNL     1     -16.531 -10.285  14.655  1.00  0.00    -0.040 C 
HETATM    3  C7  UNL     1     -15.351 -10.173  15.644  1.00  0.00     0.073 C 
HETATM    4  C8  UNL     1     -15.188  -8.660  15.856  1.00  0.00     0.175 C 
HETATM    5  O2  UNL     1     -15.625  -8.041  14.701  1.00  0.00    -0.233 OA
HETATM    6  O3  UNL     1     -16.920  -8.001  14.525  1.00  0.00    -0.225 OA
HETATM    7  C9  UNL     1     -17.520  -9.244  14.851  1.00  0.00     0.116 C 
HETATM    8  C10 UNL     1     -18.805  -9.304  14.091  1.00  0.00     0.054 C 
HETATM    9  C11 UNL     1     -17.963  -9.180  16.345  1.00  0.00     0.051 C 
HETATM   10  C12 UNL     1     -17.348  -7.950  16.890  1.00  0.00     0.006 C 
HETATM   11  C13 UNL     1     -17.659  -7.609  18.320  1.00  0.00     0.042 C 
HETATM   12  C14 UNL     1     -16.442  -6.755  18.621  1.00  0.00    -0.047 C 
HETATM   13  C20 UNL     1     -15.419  -7.188  17.898  1.00  0.00     0.053 C 
HETATM   14  C21 UNL     1     -15.863  -8.314  17.102  1.00  0.00     0.079 C 
ENDROOT
BRANCH   1  15
HETATM   15  C4  UNL     1     -17.325 -11.755  12.774  1.00  0.00    -0.030 A 
HETATM   16  C3  UNL     1     -18.597 -12.256  13.105  1.00  0.00     0.051 A 
HETATM   17  C2  UNL     1     -19.446 -12.817  12.208  1.00  0.00     0.104 A 
HETATM   18  C25 UNL     1     -19.027 -12.898  10.873  1.00  0.00     0.133 A 
HETATM   19  C23 UNL     1     -17.782 -12.420  10.476  1.00  0.00     0.104 A 
HETATM   20  C22 UNL     1     -16.972 -11.862  11.453  1.00  0.00     0.051 A 
BRANCH  17  21
HETATM   21  O1  UNL     1     -20.682 -13.308  12.523  1.00  0.00    -0.353 OA
HETATM   22  C1  UNL     1     -21.011 -14.177  13.580  1.00  0.00     0.210 C 
ENDBRANCH  17  21
BRANCH  18  23
HETATM   23  O6  UNL     1     -19.836 -13.455   9.901  1.00  0.00    -0.356 OA
ATOM     24  H6  UNL     1     -19.505 -14.114   9.303  1.00  0.00     0.218 HD
ENDBRANCH  18  23
BRANCH  19  25
HETATM   25  O5  UNL     1     -17.430 -12.516   9.230  1.00  0.00    -0.353 OA
HETATM   26  C24 UNL     1     -16.527 -12.197   8.279  1.00  0.00     0.210 C 
ENDBRANCH  19  25
ENDBRANCH   1  15
BRANCH  13  27
HETATM   27  O4  UNL     1     -14.151  -6.609  17.948  1.00  0.00    -0.364 OA
ATOM     28  H4  UNL     1     -13.621  -6.453  17.176  1.00  0.00     0.217 HD
ENDBRANCH  13  27
BRANCH  12  29
HETATM   29  C15 UNL     1     -16.493  -5.637  19.596  1.00  0.00     0.064 C 
BRANCH  29  30
HETATM   30  C16 UNL     1     -16.237  -6.176  20.958  1.00  0.00    -0.020 C 
HETATM   31  C17 UNL     1     -16.960  -5.811  21.976  1.00  0.00    -0.091 C 
HETATM   32  C18 UNL     1     -18.068  -4.859  21.883  1.00  0.00     0.042 C 
HETATM   33  C19 UNL     1     -16.654  -6.379  23.332  1.00  0.00     0.042 C 
ENDBRANCH  29  30
ENDBRANCH  12  29
TORSDOF 7
ENDMDL
MODEL 4
REMARK VINA RESULT: -7.746881579      9.377     12.445
REMARK  7 active torsions:
REMARK  status: ('A' for Active; 'I' for Inactive)
REMARK    1  A    between atoms: O1_2  and  C2_3 
REMARK    2  A    between atoms: C4_5  and  C5_6 
REMARK    3  A    between atoms: C14_17  and  C15_18 
REMARK    4  A    between atoms: C15_18  and  C16_19 
REMARK    5  A    between atoms: C20_23  and  O4_24 
REMARK    6  A    between atoms: C23_28  and  O5_29 
REMARK    7  A    between atoms: C25_31  and  O6_32 
ROOT
HETATM    1  C5  UNL     1     -22.918 -15.812  16.721  1.00  0.00     0.017 C 
HETATM    2  C6  UNL     1     -23.839 -16.090  17.552  1.00  0.00    -0.040 C 
HETATM    3  C7  UNL     1     -23.644 -15.524  18.974  1.00  0.00     0.073 C 
HETATM    4  C8  UNL     1     -25.075 -15.250  19.463  1.00  0.00     0.175 C 
HETATM    5  O2  UNL     1     -25.839 -14.980  18.344  1.00  0.00    -0.233 OA
HETATM    6  O3  UNL     1     -26.157 -16.010  17.604  1.00  0.00    -0.225 OA
HETATM    7  C9  UNL     1     -25.049 -16.877  17.428  1.00  0.00     0.116 C 
HETATM    8  C10 UNL     1     -25.303 -17.634  16.165  1.00  0.00     0.054 C 
HETATM    9  C11 UNL     1     -25.115 -17.964  18.544  1.00  0.00     0.051 C 
HETATM   10  C12 UNL     1     -26.157 -17.501  19.489  1.00  0.00     0.006 C 
HETATM   11  C13 UNL     1     -26.469 -18.400  20.652  1.00  0.00     0.042 C 
HETATM   12  C14 UNL     1     -27.032 -17.359  21.600  1.00  0.00    -0.047 C 
HETATM   13  C20 UNL     1     -26.440 -16.196  21.369  1.00  0.00     0.053 C 
HETATM   14  C21 UNL     1     -25.480 -16.375  20.299  1.00  0.00     0.079 C 
ENDROOT
BRANCH   1  15
HETATM   15  C4  UNL     1     -22.680 -16.106  15.319  1.00  0.00    -0.030 A 
HETATM   16  C3  UNL     1     -21.849 -15.236  14.589  1.00  0.00     0.051 A 
HETATM   17  C2  UNL     1     -21.616 -15.352  13.258  1.00  0.00     0.104 A 
HETATM   18  C25 UNL     1     -22.241 -16.404  12.573  1.00  0.00     0.133 A 
HETATM   19  C23 UNL     1     -23.075 -17.301  13.234  1.00  0.00     0.104 A 
HETATM   20  C22 UNL     1     -23.263 -17.114  14.594  1.00  0.00     0.051 A 
BRANCH  17  21
HETATM   21  O1  UNL     1     -20.812 -14.510  12.543  1.00  0.00    -0.353 OA
HETATM   22  C1  UNL     1     -21.095 -13.190  12.148  1.00  0.00     0.210 C 
ENDBRANCH  17  21
BRANCH  18  23
HETATM   23  O6  UNL     1     -22.052 -16.588  11.217  1.00  0.00    -0.356 OA
ATOM     24  H6  UNL     1     -22.777 -16.531  10.607  1.00  0.00     0.218 HD
ENDBRANCH  18  23
BRANCH  19  25
HETATM   25  O5  UNL     1     -23.638 -18.260  12.563  1.00  0.00    -0.353 OA
HETATM   26  C24 UNL     1     -23.925 -19.577  12.492  1.00  0.00     0.210 C 
ENDBRANCH  19  25
ENDBRANCH   1  15
BRANCH  13  27
HETATM   27  O4  UNL     1     -26.738 -15.034  22.079  1.00  0.00    -0.364 OA
ATOM     28  H4  UNL     1     -26.452 -14.170  21.806  1.00  0.00     0.217 HD
ENDBRANCH  13  27
BRANCH  12  29
HETATM   29  C15 UNL     1     -28.077 -17.695  22.599  1.00  0.00     0.064 C 
BRANCH  29  30
HETATM   30  C16 UNL     1     -28.909 -18.807  22.068  1.00  0.00    -0.020 C 
HETATM   31  C17 UNL     1     -28.798 -20.017  22.534  1.00  0.00    -0.091 C 
HETATM   32  C18 UNL     1     -27.866 -20.392  23.599  1.00  0.00     0.042 C 
HETATM   33  C19 UNL     1     -29.655 -21.105  21.957  1.00  0.00     0.042 C 
ENDBRANCH  29  30
ENDBRANCH  12  29
TORSDOF 7
ENDMDL
MODEL 5
REMARK VINA RESULT: -7.699977819      2.567     10.251
REMARK  7 active torsions:
REMARK  status: ('A' for Active; 'I' for Inactive)
REMARK    1  A    between atoms: O1_2  and  C2_3 
REMARK    2  A    between atoms: C4_5  and  C5_6 
REMARK    3  A    between atoms: C14_17  and  C15_18 
REMARK    4  A    between atoms: C15_18  and  C16_19 
REMARK    5  A    between atoms: C20_23  and  O4_24 
REMARK    6  A    between atoms: C23_28  and  O5_29 
REMARK    7  A    between atoms: C25_31  and  O6_32 
ROOT
HETATM    1  C5  UNL     1     -16.629  -7.052  20.175  1.00  0.00     0.017 C 
HETATM    2  C6  UNL     1     -16.634  -7.302  18.929  1.00  0.00    -0.040 C 
HETATM    3  C7  UNL     1     -17.807  -8.171  18.429  1.00  0.00     0.073 C 
HETATM    4  C8  UNL     1     -18.068  -7.657  17.005  1.00  0.00     0.175 C 
HETATM    5  O2  UNL     1     -17.687  -6.329  16.979  1.00  0.00    -0.233 OA
HETATM    6  O3  UNL     1     -16.399  -6.102  16.958  1.00  0.00    -0.225 OA
HETATM    7  C9  UNL     1     -15.714  -6.947  17.868  1.00  0.00     0.116 C 
HETATM    8  C10 UNL     1     -14.437  -6.251  18.209  1.00  0.00     0.054 C 
HETATM    9  C11 UNL     1     -15.259  -8.217  17.086  1.00  0.00     0.051 C 
HETATM   10  C12 UNL     1     -15.949  -8.147  15.778  1.00  0.00     0.006 C 
HETATM   11  C13 UNL     1     -15.645  -9.237  14.789  1.00  0.00     0.042 C 
HETATM   12  C14 UNL     1     -16.912  -9.153  13.960  1.00  0.00    -0.047 C 
HETATM   13  C20 UNL     1     -17.912  -8.760  14.736  1.00  0.00     0.053 C 
HETATM   14  C21 UNL     1     -17.403  -8.567  16.078  1.00  0.00     0.079 C 
ENDROOT
BRANCH   1  15
HETATM   15  C4  UNL     1     -15.765  -6.297  21.066  1.00  0.00    -0.030 A 
HETATM   16  C3  UNL     1     -16.290  -5.147  21.684  1.00  0.00     0.051 A 
HETATM   17  C2  UNL     1     -15.563  -4.312  22.469  1.00  0.00     0.104 A 
HETATM   18  C25 UNL     1     -14.211  -4.619  22.674  1.00  0.00     0.133 A 
HETATM   19  C23 UNL     1     -13.628  -5.741  22.093  1.00  0.00     0.104 A 
HETATM   20  C22 UNL     1     -14.437  -6.544  21.304  1.00  0.00     0.051 A 
BRANCH  17  21
HETATM   21  O1  UNL     1     -16.066  -3.193  23.070  1.00  0.00    -0.353 OA
HETATM   22  C1  UNL     1     -17.403  -2.944  23.428  1.00  0.00     0.210 C 
ENDBRANCH  17  21
BRANCH  18  23
HETATM   23  O6  UNL     1     -13.406  -3.817  23.461  1.00  0.00    -0.356 OA
ATOM     24  H6  UNL     1     -12.460  -3.835  23.377  1.00  0.00     0.218 HD
ENDBRANCH  18  23
BRANCH  19  25
HETATM   25  O5  UNL     1     -12.371  -5.989  22.305  1.00  0.00    -0.353 OA
HETATM   26  C24 UNL     1     -11.456  -6.800  22.876  1.00  0.00     0.210 C 
ENDBRANCH  19  25
ENDBRANCH   1  15
BRANCH  13  27
HETATM   27  O4  UNL     1     -19.215  -8.585  14.270  1.00  0.00    -0.364 OA
ATOM     28  H4  UNL     1     -19.913  -9.209  14.433  1.00  0.00     0.217 HD
ENDBRANCH  13  27
BRANCH  12  29
HETATM   29  C15 UNL     1     -16.924  -9.488  12.514  1.00  0.00     0.064 C 
BRANCH  29  30
HETATM   30  C16 UNL     1     -16.239 -10.793  12.318  1.00  0.00    -0.020 C 
HETATM   31  C17 UNL     1     -15.964 -11.240  11.127  1.00  0.00    -0.091 C 
HETATM   32  C18 UNL     1     -16.295 -10.520   9.896  1.00  0.00     0.042 C 
HETATM   33  C19 UNL     1     -15.279 -12.567  10.984  1.00  0.00     0.042 C 
ENDBRANCH  29  30
ENDBRANCH  12  29
TORSDOF 7
ENDMDL
