MODEL 1
REMARK VINA RESULT: -7.891361451      0.000      0.000
REMARK  7 active torsions:
REMARK  status: ('A' for Active; 'I' for Inactive)
REMARK    1  A    between atoms: C3_3  and  O1_4 
REMARK    2  A    between atoms: C10_13  and  C12_15 
REMARK    3  A    between atoms: C12_15  and  C13_16 
REMARK    4  A    between atoms: C13_16  and  C14_17 
REMARK    5  A    between atoms: C14_17  and  C15_18 
REMARK    6  A    between atoms: C23_28  and  O4_29 
REMARK    7  A    between atoms: O4_29  and  O5_30 
ROOT
HETATM    1  C1  UNL     1     -10.727  -4.594  20.790  1.00  0.00     0.016 C 
HETATM    2  C2  UNL     1     -11.655  -3.475  20.753  1.00  0.00     0.049 C 
HETATM    3  C3  UNL     1     -10.974  -2.279  21.390  1.00  0.00     0.124 C 
HETATM    4  C4  UNL     1     -11.157  -2.203  22.870  1.00  0.00     0.033 C 
HETATM    5  C5  UNL     1     -12.613  -2.269  23.281  1.00  0.00     0.015 C 
HETATM    6  C6  UNL     1     -13.201  -3.591  22.772  1.00  0.00    -0.006 C 
HETATM    7  C7  UNL     1     -12.805  -4.721  23.599  1.00  0.00     0.018 C 
HETATM    8  C8  UNL     1     -14.742  -3.519  22.789  1.00  0.00     0.044 C 
HETATM    9  C9  UNL     1     -15.161  -4.448  21.653  1.00  0.00     0.130 C 
HETATM   10  O2  UNL     1     -15.532  -5.650  22.182  1.00  0.00    -0.375 OA
HETATM   11  C10 UNL     1     -15.837  -6.635  21.284  1.00  0.00     0.058 C 
HETATM   12  C11 UNL     1     -15.935  -7.943  22.082  1.00  0.00     0.046 C 
HETATM   13  C20 UNL     1     -14.810  -6.771  20.183  1.00  0.00     0.038 C 
HETATM   14  C21 UNL     1     -13.526  -5.995  20.563  1.00  0.00     0.013 C 
HETATM   15  C22 UNL     1     -13.937  -4.577  20.737  1.00  0.00     0.054 C 
HETATM   16  C23 UNL     1     -13.008  -3.604  21.307  1.00  0.00     0.115 C 
ENDROOT
BRANCH  11  17
HETATM   17  C12 UNL     1     -17.186  -6.454  20.628  1.00  0.00     0.038 C 
BRANCH  17  18
HETATM   18  C13 UNL     1     -17.313  -7.434  19.489  1.00  0.00     0.007 C 
BRANCH  18  19
HETATM   19  C14 UNL     1     -17.429  -6.660  18.172  1.00  0.00     0.040 C 
BRANCH  19  20
HETATM   20  C15 UNL     1     -17.161  -7.538  17.032  1.00  0.00    -0.036 A 
HETATM   21  C16 UNL     1     -18.230  -8.146  16.397  1.00  0.00     0.012 A 
HETATM   22  C17 UNL     1     -17.989  -8.972  15.325  1.00  0.00     0.050 A 
HETATM   23  C18 UNL     1     -16.701  -9.196  14.885  1.00  0.00     0.141 A 
HETATM   24  S1  UNL     1     -16.401 -10.181  13.605  1.00  0.00    -0.052 SA
HETATM   25  O3  UNL     1     -15.727  -8.597  15.520  1.00  0.00    -0.311 OA
HETATM   26  C19 UNL     1     -15.901  -7.803  16.544  1.00  0.00     0.150 A 
ENDBRANCH  19  20
ENDBRANCH  18  19
ENDBRANCH  17  18
ENDBRANCH  11  17
BRANCH  16  27
HETATM   27  O4  UNL     1     -13.615  -2.348  20.939  1.00  0.00    -0.230 OA
BRANCH  27  28
HETATM   28  O5  UNL     1     -13.627  -2.227  19.635  1.00  0.00    -0.250 OA
ATOM     29  H5  UNL     1     -12.867  -1.732  19.351  1.00  0.00     0.253 HD
ENDBRANCH  27  28
ENDBRANCH  16  27
BRANCH   3  30
HETATM   30  O1  UNL     1     -11.262  -1.075  20.757  1.00  0.00    -0.395 OA
ATOM     31  H1  UNL     1     -10.633  -0.389  20.944  1.00  0.00     0.210 HD
ENDBRANCH   3  30
TORSDOF 7
ENDMDL
MODEL 2
REMARK VINA RESULT: -7.737218504      1.508      1.870
REMARK  7 active torsions:
REMARK  status: ('A' for Active; 'I' for Inactive)
REMARK    1  A    between atoms: C3_3  and  O1_4 
REMARK    2  A    between atoms: C10_13  and  C12_15 
REMARK    3  A    between atoms: C12_15  and  C13_16 
REMARK    4  A    between atoms: C13_16  and  C14_17 
REMARK    5  A    between atoms: C14_17  and  C15_18 
REMARK    6  A    between atoms: C23_28  and  O4_29 
REMARK    7  A    between atoms: O4_29  and  O5_30 
ROOT
HETATM    1  C1  UNL     1     -10.600  -6.912  21.541  1.00  0.00     0.016 C 
HETATM    2  C2  UNL     1     -11.016  -5.947  20.536  1.00  0.00     0.049 C 
HETATM    3  C3  UNL     1      -9.881  -4.961  20.335  1.00  0.00     0.124 C 
HETATM    4  C4  UNL     1      -9.925  -3.797  21.271  1.00  0.00     0.033 C 
HETATM    5  C5  UNL     1     -11.261  -3.085  21.252  1.00  0.00     0.015 C 
HETATM    6  C6  UNL     1     -12.351  -4.088  21.650  1.00  0.00    -0.006 C 
HETATM    7  C7  UNL     1     -12.377  -4.328  23.086  1.00  0.00     0.018 C 
HETATM    8  C8  UNL     1     -13.737  -3.544  21.244  1.00  0.00     0.044 C 
HETATM    9  C9  UNL     1     -14.557  -4.803  20.980  1.00  0.00     0.130 C 
HETATM   10  O2  UNL     1     -15.335  -5.058  22.072  1.00  0.00    -0.375 OA
HETATM   11  C10 UNL     1     -16.058  -6.219  22.039  1.00  0.00     0.058 C 
HETATM   12  C11 UNL     1     -16.609  -6.434  23.456  1.00  0.00     0.046 C 
HETATM   13  C20 UNL     1     -15.239  -7.414  21.610  1.00  0.00     0.038 C 
HETATM   14  C21 UNL     1     -13.732  -7.064  21.659  1.00  0.00     0.013 C 
HETATM   15  C22 UNL     1     -13.543  -5.925  20.722  1.00  0.00     0.054 C 
HETATM   16  C23 UNL     1     -12.273  -5.204  20.685  1.00  0.00     0.115 C 
ENDROOT
BRANCH  11  17
HETATM   17  C12 UNL     1     -17.267  -6.148  21.136  1.00  0.00     0.038 C 
BRANCH  17  18
HETATM   18  C13 UNL     1     -17.080  -7.111  19.990  1.00  0.00     0.007 C 
BRANCH  18  19
HETATM   19  C14 UNL     1     -16.992  -6.320  18.680  1.00  0.00     0.040 C 
BRANCH  19  20
HETATM   20  C15 UNL     1     -16.823  -7.225  17.542  1.00  0.00    -0.036 A 
HETATM   21  C16 UNL     1     -17.950  -7.789  16.970  1.00  0.00     0.012 A 
HETATM   22  C17 UNL     1     -17.801  -8.639  15.900  1.00  0.00     0.050 A 
HETATM   23  C18 UNL     1     -16.549  -8.930  15.400  1.00  0.00     0.141 A 
HETATM   24  S1  UNL     1     -16.360  -9.945  14.123  1.00  0.00    -0.052 SA
HETATM   25  O3  UNL     1     -15.518  -8.370  15.978  1.00  0.00    -0.311 OA
HETATM   26  C19 UNL     1     -15.603  -7.555  16.996  1.00  0.00     0.150 A 
ENDBRANCH  19  20
ENDBRANCH  18  19
ENDBRANCH  17  18
ENDBRANCH  11  17
BRANCH  16  27
HETATM   27  O4  UNL     1     -12.362  -4.492  19.434  1.00  0.00    -0.230 OA
BRANCH  27  28
HETATM   28  O5  UNL     1     -12.483  -5.343  18.446  1.00  0.00    -0.250 OA
ATOM     29  H5  UNL     1     -12.554  -4.873  17.623  1.00  0.00     0.253 HD
ENDBRANCH  27  28
ENDBRANCH  16  27
BRANCH   3  30
HETATM   30  O1  UNL     1      -9.715  -4.570  19.011  1.00  0.00    -0.395 OA
ATOM     31  H1  UNL     1      -9.071  -3.881  18.898  1.00  0.00     0.210 HD
ENDBRANCH   3  30
TORSDOF 7
ENDMDL
MODEL 3
REMARK VINA RESULT: -7.732083792      1.667      2.339
REMARK  7 active torsions:
REMARK  status: ('A' for Active; 'I' for Inactive)
REMARK    1  A    between atoms: C3_3  and  O1_4 
REMARK    2  A    between atoms: C10_13  and  C12_15 
REMARK    3  A    between atoms: C12_15  and  C13_16 
REMARK    4  A    between atoms: C13_16  and  C14_17 
REMARK    5  A    between atoms: C14_17  and  C15_18 
REMARK    6  A    between atoms: C23_28  and  O4_29 
REMARK    7  A    between atoms: O4_29  and  O5_30 
ROOT
HETATM    1  C1  UNL     1      -9.132  -3.720  21.853  1.00  0.00     0.016 C 
HETATM    2  C2  UNL     1      -9.564  -2.903  20.731  1.00  0.00     0.049 C 
HETATM    3  C3  UNL     1      -9.204  -1.460  21.034  1.00  0.00     0.124 C 
HETATM    4  C4  UNL     1     -10.260  -0.727  21.795  1.00  0.00     0.033 C 
HETATM    5  C5  UNL     1     -11.619  -0.810  21.133  1.00  0.00     0.015 C 
HETATM    6  C6  UNL     1     -12.016  -2.287  21.026  1.00  0.00    -0.006 C 
HETATM    7  C7  UNL     1     -12.483  -2.824  22.296  1.00  0.00     0.018 C 
HETATM    8  C8  UNL     1     -13.162  -2.448  20.004  1.00  0.00     0.044 C 
HETATM    9  C9  UNL     1     -12.953  -3.852  19.443  1.00  0.00     0.130 C 
HETATM   10  O2  UNL     1     -13.819  -4.707  20.064  1.00  0.00    -0.375 OA
HETATM   11  C10 UNL     1     -13.687  -6.031  19.749  1.00  0.00     0.058 C 
HETATM   12  C11 UNL     1     -14.541  -6.809  20.760  1.00  0.00     0.046 C 
HETATM   13  C20 UNL     1     -12.255  -6.511  19.797  1.00  0.00     0.038 C 
HETATM   14  C21 UNL     1     -11.373  -5.465  20.520  1.00  0.00     0.013 C 
HETATM   15  C22 UNL     1     -11.489  -4.211  19.729  1.00  0.00     0.054 C 
HETATM   16  C23 UNL     1     -10.950  -2.957  20.252  1.00  0.00     0.115 C 
ENDROOT
BRANCH  11  17
HETATM   17  C12 UNL     1     -14.241  -6.383  18.389  1.00  0.00     0.038 C 
BRANCH  17  18
HETATM   18  C13 UNL     1     -15.659  -6.869  18.547  1.00  0.00     0.007 C 
BRANCH  18  19
HETATM   19  C14 UNL     1     -16.475  -6.445  17.321  1.00  0.00     0.040 C 
BRANCH  19  20
HETATM   20  C15 UNL     1     -16.526  -7.527  16.337  1.00  0.00    -0.036 A 
HETATM   21  C16 UNL     1     -17.754  -8.082  16.023  1.00  0.00     0.012 A 
HETATM   22  C17 UNL     1     -17.811  -9.098  15.098  1.00  0.00     0.050 A 
HETATM   23  C18 UNL     1     -16.663  -9.562  14.489  1.00  0.00     0.141 A 
HETATM   24  S1  UNL     1     -16.720 -10.775  13.384  1.00  0.00    -0.052 SA
HETATM   25  O3  UNL     1     -15.529  -9.002  14.822  1.00  0.00    -0.311 OA
HETATM   26  C19 UNL     1     -15.419  -8.034  15.693  1.00  0.00     0.150 A 
ENDBRANCH  19  20
ENDBRANCH  18  19
ENDBRANCH  17  18
ENDBRANCH  11  17
BRANCH  16  27
HETATM   27  O4  UNL     1     -10.904  -2.128  19.072  1.00  0.00    -0.230 OA
BRANCH  27  28
HETATM   28  O5  UNL     1     -10.166  -2.702  18.156  1.00  0.00    -0.250 OA
ATOM     29  H5  UNL     1     -10.463  -2.440  17.292  1.00  0.00     0.253 HD
ENDBRANCH  27  28
ENDBRANCH  16  27
BRANCH   3  30
HETATM   30  O1  UNL     1      -8.765  -0.752  19.922  1.00  0.00    -0.395 OA
ATOM     31  H1  UNL     1      -7.929  -0.322  20.053  1.00  0.00     0.210 HD
ENDBRANCH   3  30
TORSDOF 7
ENDMDL
MODEL 4
REMARK VINA RESULT: -7.533935889     14.845     19.477
REMARK  7 active torsions:
REMARK  status: ('A' for Active; 'I' for Inactive)
REMARK    1  A    between atoms: C3_3  and  O1_4 
REMARK    2  A    between atoms: C10_13  and  C12_15 
REMARK    3  A    between atoms: C12_15  and  C13_16 
REMARK    4  A    between atoms: C13_16  and  C14_17 
REMARK    5  A    between atoms: C14_17  and  C15_18 
REMARK    6  A    between atoms: C23_28  and  O4_29 
REMARK    7  A    between atoms: O4_29  and  O5_30 
ROOT
HETATM    1  C1  UNL     1     -26.768 -22.576  15.427  1.00  0.00     0.016 C 
HETATM    2  C2  UNL     1     -27.489 -21.391  15.863  1.00  0.00     0.049 C 
HETATM    3  C3  UNL     1     -28.971 -21.714  15.857  1.00  0.00     0.124 C 
HETATM    4  C4  UNL     1     -29.634 -21.463  14.542  1.00  0.00     0.033 C 
HETATM    5  C5  UNL     1     -29.392 -20.060  14.027  1.00  0.00     0.015 C 
HETATM    6  C6  UNL     1     -27.880 -19.855  13.871  1.00  0.00    -0.006 C 
HETATM    7  C7  UNL     1     -27.360 -20.501  12.675  1.00  0.00     0.018 C 
HETATM    8  C8  UNL     1     -27.565 -18.348  13.761  1.00  0.00     0.044 C 
HETATM    9  C9  UNL     1     -26.163 -18.227  14.353  1.00  0.00     0.130 C 
HETATM   10  O2  UNL     1     -25.259 -18.162  13.332  1.00  0.00    -0.375 OA
HETATM   11  C10 UNL     1     -23.941 -18.157  13.694  1.00  0.00     0.058 C 
HETATM   12  C11 UNL     1     -23.131 -18.373  12.408  1.00  0.00     0.046 C 
HETATM   13  C20 UNL     1     -23.602 -19.223  14.710  1.00  0.00     0.038 C 
HETATM   14  C21 UNL     1     -24.759 -20.247  14.804  1.00  0.00     0.013 C 
HETATM   15  C22 UNL     1     -25.959 -19.476  15.222  1.00  0.00     0.054 C 
HETATM   16  C23 UNL     1     -27.281 -20.098  15.200  1.00  0.00     0.115 C 
ENDROOT
BRANCH  11  17
HETATM   17  C12 UNL     1     -23.477 -16.832  14.252  1.00  0.00     0.038 C 
BRANCH  17  18
HETATM   18  C13 UNL     1     -22.916 -17.053  15.635  1.00  0.00     0.007 C 
BRANCH  18  19
HETATM   19  C14 UNL     1     -23.209 -15.820  16.497  1.00  0.00     0.040 C 
BRANCH  19  20
HETATM   20  C15 UNL     1     -23.977 -16.193  17.686  1.00  0.00    -0.036 A 
HETATM   21  C16 UNL     1     -23.798 -15.464  18.848  1.00  0.00     0.012 A 
HETATM   22  C17 UNL     1     -24.517 -15.807  19.969  1.00  0.00     0.050 A 
HETATM   23  C18 UNL     1     -25.405 -16.862  19.941  1.00  0.00     0.141 A 
HETATM   24  S1  UNL     1     -26.268 -17.281  21.274  1.00  0.00    -0.052 SA
HETATM   25  O3  UNL     1     -25.537 -17.518  18.817  1.00  0.00    -0.311 OA
HETATM   26  C19 UNL     1     -24.879 -17.234  17.723  1.00  0.00     0.150 A 
ENDBRANCH  19  20
ENDBRANCH  18  19
ENDBRANCH  17  18
ENDBRANCH  11  17
BRANCH  16  27
HETATM   27  O4  UNL     1     -28.056 -19.200  16.020  1.00  0.00    -0.230 OA
BRANCH  27  28
HETATM   28  O5  UNL     1     -27.571 -19.179  17.236  1.00  0.00    -0.250 OA
ATOM     29  H5  UNL     1     -27.044 -18.398  17.359  1.00  0.00     0.253 HD
ENDBRANCH  27  28
ENDBRANCH  16  27
BRANCH   3  30
HETATM   30  O1  UNL     1     -29.667 -21.147  16.918  1.00  0.00    -0.395 OA
ATOM     31  H1  UNL     1     -30.416 -21.659  17.197  1.00  0.00     0.210 HD
ENDBRANCH   3  30
TORSDOF 7
ENDMDL
MODEL 5
REMARK VINA RESULT: -7.497825803     11.789     17.274
REMARK  7 active torsions:
REMARK  status: ('A' for Active; 'I' for Inactive)
REMARK    1  A    between atoms: C3_3  and  O1_4 
REMARK    2  A    between atoms: C10_13  and  C12_15 
REMARK    3  A    between atoms: C12_15  and  C13_16 
REMARK    4  A    between atoms: C13_16  and  C14_17 
REMARK    5  A    between atoms: C14_17  and  C15_18 
REMARK    6  A    between atoms: C23_28  and  O4_29 
REMARK    7  A    between atoms: O4_29  and  O5_30 
ROOT
HETATM    1  C1  UNL     1     -26.371 -19.201  18.512  1.00  0.00     0.016 C 
HETATM    2  C2  UNL     1     -26.886 -19.257  17.153  1.00  0.00     0.049 C 
HETATM    3  C3  UNL     1     -27.704 -20.527  17.014  1.00  0.00     0.124 C 
HETATM    4  C4  UNL     1     -26.898 -21.718  16.610  1.00  0.00     0.033 C 
HETATM    5  C5  UNL     1     -26.079 -21.471  15.361  1.00  0.00     0.015 C 
HETATM    6  C6  UNL     1     -25.133 -20.294  15.626  1.00  0.00    -0.006 C 
HETATM    7  C7  UNL     1     -23.984 -20.685  16.431  1.00  0.00     0.018 C 
HETATM    8  C8  UNL     1     -24.597 -19.741  14.289  1.00  0.00     0.044 C 
HETATM    9  C9  UNL     1     -24.348 -18.264  14.580  1.00  0.00     0.130 C 
HETATM   10  O2  UNL     1     -23.016 -18.082  14.819  1.00  0.00    -0.375 OA
HETATM   11  C10 UNL     1     -22.640 -16.824  15.202  1.00  0.00     0.058 C 
HETATM   12  C11 UNL     1     -21.187 -16.929  15.688  1.00  0.00     0.046 C 
HETATM   13  C20 UNL     1     -23.515 -16.251  16.293  1.00  0.00     0.038 C 
HETATM   14  C21 UNL     1     -24.380 -17.373  16.917  1.00  0.00     0.013 C 
HETATM   15  C22 UNL     1     -25.203 -17.923  15.808  1.00  0.00     0.054 C 
HETATM   16  C23 UNL     1     -25.982 -19.145  16.003  1.00  0.00     0.115 C 
ENDROOT
BRANCH  11  17
HETATM   17  C12 UNL     1     -22.620 -15.830  14.065  1.00  0.00     0.038 C 
BRANCH  17  18
HETATM   18  C13 UNL     1     -21.336 -15.042  14.125  1.00  0.00     0.007 C 
BRANCH  18  19
HETATM   19  C14 UNL     1     -21.519 -13.727  13.360  1.00  0.00     0.040 C 
BRANCH  19  20
HETATM   20  C15 UNL     1     -20.321 -13.414  12.578  1.00  0.00    -0.036 A 
HETATM   21  C16 UNL     1     -20.307 -13.729  11.231  1.00  0.00     0.012 A 
HETATM   22  C17 UNL     1     -19.186 -13.438  10.489  1.00  0.00     0.050 A 
HETATM   23  C18 UNL     1     -18.089 -12.842  11.075  1.00  0.00     0.141 A 
HETATM   24  S1  UNL     1     -16.746 -12.490  10.198  1.00  0.00    -0.052 SA
HETATM   25  O3  UNL     1     -18.155 -12.565  12.352  1.00  0.00    -0.311 OA
HETATM   26  C19 UNL     1     -19.195 -12.820  13.102  1.00  0.00     0.150 A 
ENDBRANCH  19  20
ENDBRANCH  18  19
ENDBRANCH  17  18
ENDBRANCH  11  17
BRANCH  16  27
HETATM   27  O4  UNL     1     -26.899 -19.104  14.890  1.00  0.00    -0.230 OA
BRANCH  27  28
HETATM   28  O5  UNL     1     -27.584 -17.989  14.921  1.00  0.00    -0.250 OA
ATOM     29  H5  UNL     1     -28.055 -17.878  14.103  1.00  0.00     0.253 HD
ENDBRANCH  27  28
ENDBRANCH  16  27
BRANCH   3  30
HETATM   30  O1  UNL     1     -28.844 -20.370  16.234  1.00  0.00    -0.395 OA
ATOM     31  H1  UNL     1     -29.636 -20.245  16.742  1.00  0.00     0.210 HD
ENDBRANCH   3  30
TORSDOF 7
ENDMDL
