MODEL 1
REMARK VINA RESULT: -6.781724616      0.000      0.000
REMARK  6 active torsions:
REMARK  status: ('A' for Active; 'I' for Inactive)
REMARK    1  A    between atoms: O1_2  and  C2_3 
REMARK    2  A    between atoms: C4_5  and  C5_6 
REMARK    3  A    between atoms: C8_10  and  O2_11 
REMARK    4  A    between atoms: C11_15  and  O3_16 
REMARK    5  A    between atoms: C21_28  and  O4_29 
REMARK    6  A    between atoms: O4_29  and  C22_30 
ROOT
HETATM    1  C5  UNL     1     -23.304 -19.193  13.599  1.00  0.00     0.144 C 
HETATM    2  N1  UNL     1     -24.575 -19.088  14.269  1.00  0.00    -0.370 N 
HETATM    3  C6  UNL     1     -25.650 -18.387  13.600  1.00  0.00     0.150 C 
HETATM    4  C7  UNL     1     -24.853 -19.624  15.550  1.00  0.00     0.092 A 
HETATM    5  C8  UNL     1     -25.865 -19.190  16.373  1.00  0.00     0.103 A 
HETATM    6  C9  UNL     1     -26.062 -19.772  17.597  1.00  0.00     0.007 A 
HETATM    7  C10 UNL     1     -27.157 -19.286  18.477  1.00  0.00     0.054 C 
HETATM    8  C11 UNL     1     -25.227 -20.793  17.975  1.00  0.00     0.082 A 
HETATM    9  C12 UNL     1     -24.177 -21.278  17.177  1.00  0.00     0.001 A 
HETATM   10  C13 UNL     1     -23.273 -22.346  17.576  1.00  0.00     0.054 C 
HETATM   11  C14 UNL     1     -24.009 -20.676  15.964  1.00  0.00     0.069 A 
HETATM   12  N2  UNL     1     -22.969 -21.119  15.099  1.00  0.00    -0.372 N 
HETATM   13  C15 UNL     1     -22.638 -22.504  15.080  1.00  0.00     0.150 C 
HETATM   14  C16 UNL     1     -22.317 -20.094  14.251  1.00  0.00     0.050 C 
HETATM   15  C17 UNL     1     -21.331 -19.388  15.158  1.00  0.00     0.041 C 
HETATM   16  C18 UNL     1     -21.480 -20.753  13.173  1.00  0.00     0.041 C 
ENDROOT
BRANCH   1  17
HETATM   17  C4  UNL     1     -22.744 -17.835  13.361  1.00  0.00    -0.030 A 
HETATM   18  C3  UNL     1     -22.202 -17.467  12.137  1.00  0.00     0.049 A 
HETATM   19  C2  UNL     1     -21.678 -16.216  11.900  1.00  0.00     0.102 A 
HETATM   20  C21 UNL     1     -21.670 -15.258  12.892  1.00  0.00     0.102 A 
HETATM   21  C20 UNL     1     -22.198 -15.586  14.116  1.00  0.00     0.040 A 
HETATM   22  C19 UNL     1     -22.727 -16.863  14.339  1.00  0.00     0.012 A 
BRANCH  19  23
HETATM   23  O1  UNL     1     -21.165 -15.969  10.633  1.00  0.00    -0.353 OA
HETATM   24  C1  UNL     1     -20.361 -16.881   9.939  1.00  0.00     0.210 C 
ENDBRANCH  19  23
BRANCH  20  25
HETATM   25  O4  UNL     1     -21.139 -14.022  12.618  1.00  0.00    -0.344 OA
BRANCH  25  26
HETATM   26  C22 UNL     1     -19.846 -13.685  12.263  1.00  0.00     0.121 C 
HETATM   27  C23 UNL     1     -19.764 -12.962  10.934  1.00  0.00     0.040 C 
HETATM   28  C24 UNL     1     -19.188 -12.776  13.293  1.00  0.00     0.040 C 
ENDBRANCH  25  26
ENDBRANCH  20  25
ENDBRANCH   1  17
BRANCH   5  29
HETATM   29  O2  UNL     1     -26.657 -18.170  15.929  1.00  0.00    -0.358 OA
ATOM     30  H2  UNL     1     -27.570 -18.170  16.192  1.00  0.00     0.217 HD
ENDBRANCH   5  29
BRANCH   8  31
HETATM   31  O3  UNL     1     -25.373 -21.435  19.215  1.00  0.00    -0.359 OA
ATOM     32  H3  UNL     1     -24.621 -21.638  19.758  1.00  0.00     0.217 HD
ENDBRANCH   8  31
TORSDOF 6
ENDMDL
MODEL 2
REMARK VINA RESULT: -6.606335804      3.164      4.814
REMARK  6 active torsions:
REMARK  status: ('A' for Active; 'I' for Inactive)
REMARK    1  A    between atoms: O1_2  and  C2_3 
REMARK    2  A    between atoms: C4_5  and  C5_6 
REMARK    3  A    between atoms: C8_10  and  O2_11 
REMARK    4  A    between atoms: C11_15  and  O3_16 
REMARK    5  A    between atoms: C21_28  and  O4_29 
REMARK    6  A    between atoms: O4_29  and  C22_30 
ROOT
HETATM    1  C5  UNL     1     -23.677 -18.734  14.556  1.00  0.00     0.144 C 
HETATM    2  N1  UNL     1     -23.680 -17.541  15.363  1.00  0.00    -0.370 N 
HETATM    3  C6  UNL     1     -23.012 -16.363  14.853  1.00  0.00     0.150 C 
HETATM    4  C7  UNL     1     -24.295 -17.435  16.634  1.00  0.00     0.092 A 
HETATM    5  C8  UNL     1     -23.963 -16.499  17.584  1.00  0.00     0.103 A 
HETATM    6  C9  UNL     1     -24.616 -16.469  18.789  1.00  0.00     0.007 A 
HETATM    7  C10 UNL     1     -24.239 -15.453  19.807  1.00  0.00     0.054 C 
HETATM    8  C11 UNL     1     -25.603 -17.393  19.017  1.00  0.00     0.082 A 
HETATM    9  C12 UNL     1     -25.985 -18.373  18.085  1.00  0.00     0.001 A 
HETATM   10  C13 UNL     1     -27.016 -19.371  18.324  1.00  0.00     0.054 C 
HETATM   11  C14 UNL     1     -25.315 -18.374  16.897  1.00  0.00     0.069 A 
HETATM   12  N2  UNL     1     -25.652 -19.335  15.902  1.00  0.00    -0.372 N 
HETATM   13  C15 UNL     1     -27.013 -19.735  15.770  1.00  0.00     0.150 C 
HETATM   14  C16 UNL     1     -24.549 -19.834  15.047  1.00  0.00     0.050 C 
HETATM   15  C17 UNL     1     -23.832 -20.874  15.881  1.00  0.00     0.041 C 
HETATM   16  C18 UNL     1     -25.104 -20.580  13.850  1.00  0.00     0.041 C 
ENDROOT
BRANCH   1  17
HETATM   17  C4  UNL     1     -22.278 -19.192  14.336  1.00  0.00    -0.030 A 
HETATM   18  C3  UNL     1     -21.401 -19.409  15.390  1.00  0.00     0.049 A 
HETATM   19  C2  UNL     1     -20.104 -19.831  15.205  1.00  0.00     0.102 A 
HETATM   20  C21 UNL     1     -19.613 -20.059  13.936  1.00  0.00     0.102 A 
HETATM   21  C20 UNL     1     -20.452 -19.854  12.869  1.00  0.00     0.040 A 
HETATM   22  C19 UNL     1     -21.768 -19.426  13.076  1.00  0.00     0.012 A 
BRANCH  19  23
HETATM   23  O1  UNL     1     -19.324 -20.014  16.341  1.00  0.00    -0.353 OA
HETATM   24  C1  UNL     1     -18.451 -19.039  16.836  1.00  0.00     0.210 C 
ENDBRANCH  19  23
BRANCH  20  25
HETATM   25  O4  UNL     1     -18.314 -20.480  13.792  1.00  0.00    -0.344 OA
BRANCH  25  26
HETATM   26  C22 UNL     1     -17.390 -20.145  12.819  1.00  0.00     0.121 C 
HETATM   27  C23 UNL     1     -16.087 -19.624  13.391  1.00  0.00     0.040 C 
HETATM   28  C24 UNL     1     -17.032 -21.334  11.936  1.00  0.00     0.040 C 
ENDBRANCH  25  26
ENDBRANCH  20  25
ENDBRANCH   1  17
BRANCH   5  29
HETATM   29  O2  UNL     1     -22.970 -15.609  17.286  1.00  0.00    -0.358 OA
ATOM     30  H2  UNL     1     -22.075 -15.926  17.286  1.00  0.00     0.217 HD
ENDBRANCH   5  29
BRANCH   8  31
HETATM   31  O3  UNL     1     -26.313 -17.419  20.228  1.00  0.00    -0.359 OA
ATOM     32  H3  UNL     1     -27.242 -17.224  20.261  1.00  0.00     0.217 HD
ENDBRANCH   8  31
TORSDOF 6
ENDMDL
MODEL 3
REMARK VINA RESULT: -6.601044606      3.005      5.896
REMARK  6 active torsions:
REMARK  status: ('A' for Active; 'I' for Inactive)
REMARK    1  A    between atoms: O1_2  and  C2_3 
REMARK    2  A    between atoms: C4_5  and  C5_6 
REMARK    3  A    between atoms: C8_10  and  O2_11 
REMARK    4  A    between atoms: C11_15  and  O3_16 
REMARK    5  A    between atoms: C21_28  and  O4_29 
REMARK    6  A    between atoms: O4_29  and  C22_30 
ROOT
HETATM    1  C5  UNL     1     -21.315 -18.344  14.333  1.00  0.00     0.144 C 
HETATM    2  N1  UNL     1     -21.839 -18.359  12.991  1.00  0.00    -0.370 N 
HETATM    3  C6  UNL     1     -22.058 -17.094  12.323  1.00  0.00     0.150 C 
HETATM    4  C7  UNL     1     -22.159 -19.534  12.269  1.00  0.00     0.092 A 
HETATM    5  C8  UNL     1     -23.029 -19.582  11.206  1.00  0.00     0.103 A 
HETATM    6  C9  UNL     1     -23.277 -20.767  10.563  1.00  0.00     0.007 A 
HETATM    7  C10 UNL     1     -24.226 -20.800   9.419  1.00  0.00     0.054 C 
HETATM    8  C11 UNL     1     -22.637 -21.895  11.009  1.00  0.00     0.082 A 
HETATM    9  C12 UNL     1     -21.740 -21.907  12.089  1.00  0.00     0.001 A 
HETATM   10  C13 UNL     1     -21.071 -23.101  12.584  1.00  0.00     0.054 C 
HETATM   11  C14 UNL     1     -21.516 -20.711  12.706  1.00  0.00     0.069 A 
HETATM   12  N2  UNL     1     -20.613 -20.646  13.805  1.00  0.00    -0.372 N 
HETATM   13  C15 UNL     1     -19.465 -21.489  13.799  1.00  0.00     0.150 C 
HETATM   14  C16 UNL     1     -20.927 -19.672  14.877  1.00  0.00     0.050 C 
HETATM   15  C17 UNL     1     -21.992 -20.335  15.725  1.00  0.00     0.041 C 
HETATM   16  C18 UNL     1     -19.732 -19.488  15.791  1.00  0.00     0.041 C 
ENDROOT
BRANCH   1  17
HETATM   17  C4  UNL     1     -22.259 -17.629  15.235  1.00  0.00    -0.030 A 
HETATM   18  C3  UNL     1     -23.558 -18.075  15.443  1.00  0.00     0.049 A 
HETATM   19  C2  UNL     1     -24.444 -17.426  16.273  1.00  0.00     0.102 A 
HETATM   20  C21 UNL     1     -24.069 -16.282  16.945  1.00  0.00     0.102 A 
HETATM   21  C20 UNL     1     -22.792 -15.812  16.763  1.00  0.00     0.040 A 
HETATM   22  C19 UNL     1     -21.904 -16.484  15.917  1.00  0.00     0.012 A 
BRANCH  19  23
HETATM   23  O1  UNL     1     -25.716 -17.971  16.399  1.00  0.00    -0.353 OA
HETATM   24  C1  UNL     1     -26.388 -18.602  15.345  1.00  0.00     0.210 C 
ENDBRANCH  19  23
BRANCH  20  25
HETATM   25  O4  UNL     1     -24.981 -15.663  17.764  1.00  0.00    -0.344 OA
BRANCH  25  26
HETATM   26  C22 UNL     1     -24.766 -14.943  18.926  1.00  0.00     0.121 C 
HETATM   27  C23 UNL     1     -26.029 -14.312  19.474  1.00  0.00     0.040 C 
HETATM   28  C24 UNL     1     -24.194 -15.811  20.039  1.00  0.00     0.040 C 
ENDBRANCH  25  26
ENDBRANCH  20  25
ENDBRANCH   1  17
BRANCH   5  29
HETATM   29  O2  UNL     1     -23.629 -18.418  10.817  1.00  0.00    -0.358 OA
ATOM     30  H2  UNL     1     -23.143 -17.837  10.244  1.00  0.00     0.217 HD
ENDBRANCH   5  29
BRANCH   8  31
HETATM   31  O3  UNL     1     -22.844 -23.141  10.397  1.00  0.00    -0.359 OA
ATOM     32  H3  UNL     1     -23.103 -23.903  10.901  1.00  0.00     0.217 HD
ENDBRANCH   8  31
TORSDOF 6
ENDMDL
MODEL 4
REMARK VINA RESULT: -6.565099579      2.996      4.476
REMARK  6 active torsions:
REMARK  status: ('A' for Active; 'I' for Inactive)
REMARK    1  A    between atoms: O1_2  and  C2_3 
REMARK    2  A    between atoms: C4_5  and  C5_6 
REMARK    3  A    between atoms: C8_10  and  O2_11 
REMARK    4  A    between atoms: C11_15  and  O3_16 
REMARK    5  A    between atoms: C21_28  and  O4_29 
REMARK    6  A    between atoms: O4_29  and  C22_30 
ROOT
HETATM    1  C5  UNL     1     -23.702 -18.603  14.531  1.00  0.00     0.144 C 
HETATM    2  N1  UNL     1     -23.705 -17.428  15.364  1.00  0.00    -0.370 N 
HETATM    3  C6  UNL     1     -23.029 -16.242  14.885  1.00  0.00     0.150 C 
HETATM    4  C7  UNL     1     -24.327 -17.348  16.634  1.00  0.00     0.092 A 
HETATM    5  C8  UNL     1     -23.998 -16.434  17.606  1.00  0.00     0.103 A 
HETATM    6  C9  UNL     1     -24.658 -16.428  18.807  1.00  0.00     0.007 A 
HETATM    7  C10 UNL     1     -24.283 -15.436  19.850  1.00  0.00     0.054 C 
HETATM    8  C11 UNL     1     -25.650 -17.353  19.009  1.00  0.00     0.082 A 
HETATM    9  C12 UNL     1     -26.029 -18.311  18.053  1.00  0.00     0.001 A 
HETATM   10  C13 UNL     1     -27.066 -19.310  18.264  1.00  0.00     0.054 C 
HETATM   11  C14 UNL     1     -25.352 -18.289  16.869  1.00  0.00     0.069 A 
HETATM   12  N2  UNL     1     -25.687 -19.226  15.851  1.00  0.00    -0.372 N 
HETATM   13  C15 UNL     1     -27.048 -19.618  15.703  1.00  0.00     0.150 C 
HETATM   14  C16 UNL     1     -24.581 -19.710  14.992  1.00  0.00     0.050 C 
HETATM   15  C17 UNL     1     -23.873 -20.771  15.807  1.00  0.00     0.041 C 
HETATM   16  C18 UNL     1     -25.131 -20.427  13.776  1.00  0.00     0.041 C 
ENDROOT
BRANCH   1  17
HETATM   17  C4  UNL     1     -22.303 -19.061  14.309  1.00  0.00    -0.030 A 
HETATM   18  C3  UNL     1     -21.799 -19.294  13.036  1.00  0.00     0.049 A 
HETATM   19  C2  UNL     1     -20.509 -19.719  12.813  1.00  0.00     0.102 A 
HETATM   20  C21 UNL     1     -19.647 -19.936  13.868  1.00  0.00     0.102 A 
HETATM   21  C20 UNL     1     -20.112 -19.716  15.140  1.00  0.00     0.040 A 
HETATM   22  C19 UNL     1     -21.426 -19.283  15.350  1.00  0.00     0.012 A 
BRANCH  19  23
HETATM   23  O1  UNL     1     -20.122 -19.917  11.493  1.00  0.00    -0.353 OA
HETATM   24  C1  UNL     1     -20.025 -18.879  10.558  1.00  0.00     0.210 C 
ENDBRANCH  19  23
BRANCH  20  25
HETATM   25  O4  UNL     1     -18.368 -20.360  13.605  1.00  0.00    -0.344 OA
BRANCH  25  26
HETATM   26  C22 UNL     1     -17.210 -20.149  14.331  1.00  0.00     0.121 C 
HETATM   27  C23 UNL     1     -16.658 -21.417  14.949  1.00  0.00     0.040 C 
HETATM   28  C24 UNL     1     -16.096 -19.562  13.474  1.00  0.00     0.040 C 
ENDBRANCH  25  26
ENDBRANCH  20  25
ENDBRANCH   1  17
BRANCH   5  29
HETATM   29  O2  UNL     1     -23.000 -15.542  17.334  1.00  0.00    -0.358 OA
ATOM     30  H2  UNL     1     -22.162 -15.666  17.765  1.00  0.00     0.217 HD
ENDBRANCH   5  29
BRANCH   8  31
HETATM   31  O3  UNL     1     -26.367 -17.404  20.215  1.00  0.00    -0.359 OA
ATOM     32  H3  UNL     1     -25.960 -17.699  21.020  1.00  0.00     0.217 HD
ENDBRANCH   8  31
TORSDOF 6
ENDMDL
MODEL 5
REMARK VINA RESULT: -6.468704082      0.960      1.945
REMARK  6 active torsions:
REMARK  status: ('A' for Active; 'I' for Inactive)
REMARK    1  A    between atoms: O1_2  and  C2_3 
REMARK    2  A    between atoms: C4_5  and  C5_6 
REMARK    3  A    between atoms: C8_10  and  O2_11 
REMARK    4  A    between atoms: C11_15  and  O3_16 
REMARK    5  A    between atoms: C21_28  and  O4_29 
REMARK    6  A    between atoms: O4_29  and  C22_30 
ROOT
HETATM    1  C5  UNL     1     -23.474 -19.515  13.763  1.00  0.00     0.144 C 
HETATM    2  N1  UNL     1     -24.716 -19.459  14.492  1.00  0.00    -0.370 N 
HETATM    3  C6  UNL     1     -25.821 -18.726  13.912  1.00  0.00     0.150 C 
HETATM    4  C7  UNL     1     -24.936 -20.073  15.749  1.00  0.00     0.092 A 
HETATM    5  C8  UNL     1     -25.913 -19.696  16.639  1.00  0.00     0.103 A 
HETATM    6  C9  UNL     1     -26.055 -20.351  17.834  1.00  0.00     0.007 A 
HETATM    7  C10 UNL     1     -27.114 -19.926  18.787  1.00  0.00     0.054 C 
HETATM    8  C11 UNL     1     -25.201 -21.387  18.114  1.00  0.00     0.082 A 
HETATM    9  C12 UNL     1     -24.184 -21.816  17.244  1.00  0.00     0.001 A 
HETATM   10  C13 UNL     1     -23.259 -22.900  17.538  1.00  0.00     0.054 C 
HETATM   11  C14 UNL     1     -24.070 -21.142  16.063  1.00  0.00     0.069 A 
HETATM   12  N2  UNL     1     -23.066 -21.525  15.130  1.00  0.00    -0.372 N 
HETATM   13  C15 UNL     1     -22.730 -22.904  15.013  1.00  0.00     0.150 C 
HETATM   14  C16 UNL     1     -22.456 -20.446  14.317  1.00  0.00     0.050 C 
HETATM   15  C17 UNL     1     -21.435 -19.789  15.222  1.00  0.00     0.041 C 
HETATM   16  C18 UNL     1     -21.664 -21.035  13.167  1.00  0.00     0.041 C 
ENDROOT
BRANCH   1  17
HETATM   17  C4  UNL     1     -22.930 -18.142  13.584  1.00  0.00    -0.030 A 
HETATM   18  C3  UNL     1     -22.946 -17.205  14.609  1.00  0.00     0.049 A 
HETATM   19  C2  UNL     1     -22.448 -15.930  14.460  1.00  0.00     0.102 A 
HETATM   20  C21 UNL     1     -21.903 -15.523  13.261  1.00  0.00     0.102 A 
HETATM   21  C20 UNL     1     -21.872 -16.423  12.224  1.00  0.00     0.040 A 
HETATM   22  C19 UNL     1     -22.381 -17.715  12.393  1.00  0.00     0.012 A 
BRANCH  19  23
HETATM   23  O1  UNL     1     -22.520 -15.085  15.562  1.00  0.00    -0.353 OA
HETATM   24  C1  UNL     1     -23.165 -15.433  16.755  1.00  0.00     0.210 C 
ENDBRANCH  19  23
BRANCH  20  25
HETATM   25  O4  UNL     1     -21.418 -14.244  13.151  1.00  0.00    -0.344 OA
BRANCH  25  26
HETATM   26  C22 UNL     1     -20.328 -13.780  12.437  1.00  0.00     0.121 C 
HETATM   27  C23 UNL     1     -20.714 -12.874  11.285  1.00  0.00     0.040 C 
HETATM   28  C24 UNL     1     -19.366 -12.986  13.311  1.00  0.00     0.040 C 
ENDBRANCH  25  26
ENDBRANCH  20  25
ENDBRANCH   1  17
BRANCH   5  29
HETATM   29  O2  UNL     1     -26.728 -18.656  16.291  1.00  0.00    -0.358 OA
ATOM     30  H2  UNL     1     -26.333 -17.905  15.864  1.00  0.00     0.217 HD
ENDBRANCH   5  29
BRANCH   8  31
HETATM   31  O3  UNL     1     -25.290 -22.103  19.318  1.00  0.00    -0.359 OA
ATOM     32  H3  UNL     1     -25.289 -21.660  20.158  1.00  0.00     0.217 HD
ENDBRANCH   8  31
TORSDOF 6
ENDMDL
