MODEL 1
REMARK VINA RESULT: -9.955175853      0.000      0.000
REMARK  15 active torsions:
REMARK  status: ('A' for Active; 'I' for Inactive)
REMARK    1  A    between atoms: C2_2  and  O2_4 
REMARK    2  A    between atoms: O2_4  and  C3_5 
REMARK    3  A    between atoms: C9_11  and  C10_12 
REMARK    4  A    between atoms: C11_13  and  C12_14 
REMARK    5  A    between atoms: C12_14  and  O7_37 
REMARK    6  A    between atoms: C13_15  and  C14_16 
REMARK    7  A    between atoms: C15_17  and  C16_18 
REMARK    8  A    between atoms: C18_20  and  O3_21 
REMARK    9  A    between atoms: O3_21  and  C19_22 
REMARK       I    between atoms: C19_22  and  N1_24 
REMARK   10  A    between atoms: N1_24  and  C20_26 
REMARK   11  A    between atoms: C23_29  and  O5_30 
REMARK   12  A    between atoms: O7_37  and  C28_38 
REMARK   13  A    between atoms: C28_38  and  C29_39 
REMARK   14  A    between atoms: C30_40  and  C31_41 
REMARK   15  A    between atoms: C31_41  and  O8_44 
ROOT
HETATM    1  C12 UNL     1     -18.409 -14.385 -46.013  1.00  0.00     0.068 C 
HETATM    2  C13 UNL     1     -17.443 -13.859 -46.724  1.00  0.00     0.036 C 
ENDROOT
BRANCH   1   3
HETATM    3  C11 UNL     1     -18.181 -15.527 -45.145  1.00  0.00     0.033 C 
HETATM    4  C10 UNL     1     -18.471 -16.771 -45.336  1.00  0.00    -0.016 C 
BRANCH   4   5
HETATM    5  C9  UNL     1     -19.114 -17.383 -46.481  1.00  0.00     0.045 C 
HETATM    6  C3  UNL     1     -18.429 -18.741 -46.762  1.00  0.00     0.140 C 
HETATM    7  C4  UNL     1     -19.391 -19.352 -47.713  1.00  0.00     0.034 C 
HETATM    8  C5  UNL     1     -20.744 -18.965 -47.164  1.00  0.00     0.012 C 
HETATM    9  C6  UNL     1     -20.530 -17.868 -46.176  1.00  0.00    -0.038 C 
HETATM   10  C7  UNL     1     -21.516 -16.726 -46.390  1.00  0.00     0.015 C 
HETATM   11  C8  UNL     1     -20.570 -18.344 -44.758  1.00  0.00     0.015 C 
BRANCH   6  12
HETATM   12  O2  UNL     1     -17.153 -18.497 -47.323  1.00  0.00    -0.316 OA
BRANCH  12  13
HETATM   13  C2  UNL     1     -16.787 -19.084 -48.505  1.00  0.00     0.255 C 
HETATM   14  C1  UNL     1     -16.811 -18.434 -49.831  1.00  0.00     0.126 C 
HETATM   15  O1  UNL     1     -16.397 -20.289 -48.451  1.00  0.00    -0.266 OA
ENDBRANCH  12  13
ENDBRANCH   6  12
ENDBRANCH   4   5
ENDBRANCH   1   3
BRANCH   1  16
HETATM   16  O7  UNL     1     -19.671 -13.774 -46.146  1.00  0.00    -0.348 OA
BRANCH  16  17
HETATM   17  C28 UNL     1     -19.692 -12.408 -46.496  1.00  0.00     0.203 C 
BRANCH  17  18
HETATM   18  C29 UNL     1     -20.973 -11.760 -46.084  1.00  0.00    -0.002 C 
HETATM   19  C30 UNL     1     -21.213 -10.480 -46.347  1.00  0.00     0.008 C 
BRANCH  19  20
HETATM   20  C31 UNL     1     -22.456  -9.789 -45.966  1.00  0.00     0.068 C 
HETATM   21  C32 UNL     1     -22.986  -8.976 -47.127  1.00  0.00     0.050 C 
HETATM   22  C33 UNL     1     -22.241  -8.871 -44.773  1.00  0.00     0.050 C 
BRANCH  20  23
HETATM   23  O8  UNL     1     -23.446 -10.747 -45.666  1.00  0.00    -0.387 OA
ATOM     24  H8  UNL     1     -24.247 -10.522 -46.125  1.00  0.00     0.211 HD
ENDBRANCH  20  23
ENDBRANCH  19  20
ENDBRANCH  17  18
ENDBRANCH  16  17
ENDBRANCH   1  16
BRANCH   2  25
HETATM   25  C14 UNL     1     -16.087 -14.317 -46.742  1.00  0.00     0.001 C 
HETATM   26  C15 UNL     1     -15.677 -15.292 -47.578  1.00  0.00     0.005 C 
BRANCH  26  27
HETATM   27  C16 UNL     1     -14.271 -15.727 -47.557  1.00  0.00     0.146 C 
HETATM   28  C17 UNL     1     -13.345 -14.688 -48.176  1.00  0.00     0.070 C 
HETATM   29  C18 UNL     1     -12.171 -15.582 -48.552  1.00  0.00     0.160 C 
HETATM   30  C27 UNL     1     -12.762 -16.929 -48.688  1.00  0.00     0.201 C 
HETATM   31  O6  UNL     1     -14.093 -16.838 -48.371  1.00  0.00    -0.379 OA
BRANCH  29  32
HETATM   32  O3  UNL     1     -11.540 -15.065 -49.700  1.00  0.00    -0.296 OA
BRANCH  32  33
HETATM   33  C19 UNL     1     -10.629 -13.976 -49.601  1.00  0.00     0.365 C 
HETATM   34  O4  UNL     1      -9.501 -14.338 -49.182  1.00  0.00    -0.238 OA
HETATM   35  N1  UNL     1     -11.020 -12.679 -49.949  1.00  0.00    -0.303 N 
ATOM     36  H1  UNL     1     -11.984 -12.590 -50.269  1.00  0.00     0.171 HD
BRANCH  35  37
HETATM   37  C20 UNL     1     -10.291 -11.484 -49.925  1.00  0.00     0.037 A 
HETATM   38  C21 UNL     1     -10.594 -10.481 -49.047  1.00  0.00     0.032 A 
HETATM   39  C22 UNL     1      -9.865  -9.279 -49.012  1.00  0.00     0.039 A 
HETATM   40  C23 UNL     1      -8.818  -9.116 -49.894  1.00  0.00     0.071 A 
HETATM   41  C24 UNL     1      -8.492 -10.113 -50.790  1.00  0.00    -0.027 A 
HETATM   42  C25 UNL     1      -7.364  -9.917 -51.725  1.00  0.00     0.051 C 
HETATM   43  C26 UNL     1      -9.225 -11.276 -50.797  1.00  0.00     0.039 A 
BRANCH  40  44
HETATM   44  O5  UNL     1      -8.048  -7.956 -49.923  1.00  0.00    -0.360 OA
ATOM     45  H5  UNL     1      -7.356  -7.824 -50.561  1.00  0.00     0.217 HD
ENDBRANCH  40  44
ENDBRANCH  35  37
ENDBRANCH  32  33
ENDBRANCH  29  32
ENDBRANCH  26  27
ENDBRANCH   2  25
TORSDOF 15
ENDMDL
MODEL 2
REMARK VINA RESULT: -9.654849361      1.538      1.900
REMARK  15 active torsions:
REMARK  status: ('A' for Active; 'I' for Inactive)
REMARK    1  A    between atoms: C2_2  and  O2_4 
REMARK    2  A    between atoms: O2_4  and  C3_5 
REMARK    3  A    between atoms: C9_11  and  C10_12 
REMARK    4  A    between atoms: C11_13  and  C12_14 
REMARK    5  A    between atoms: C12_14  and  O7_37 
REMARK    6  A    between atoms: C13_15  and  C14_16 
REMARK    7  A    between atoms: C15_17  and  C16_18 
REMARK    8  A    between atoms: C18_20  and  O3_21 
REMARK    9  A    between atoms: O3_21  and  C19_22 
REMARK       I    between atoms: C19_22  and  N1_24 
REMARK   10  A    between atoms: N1_24  and  C20_26 
REMARK   11  A    between atoms: C23_29  and  O5_30 
REMARK   12  A    between atoms: O7_37  and  C28_38 
REMARK   13  A    between atoms: C28_38  and  C29_39 
REMARK   14  A    between atoms: C30_40  and  C31_41 
REMARK   15  A    between atoms: C31_41  and  O8_44 
ROOT
HETATM    1  C12 UNL     1     -18.455 -14.358 -46.031  1.00  0.00     0.068 C 
HETATM    2  C13 UNL     1     -17.604 -13.671 -46.754  1.00  0.00     0.036 C 
ENDROOT
BRANCH   1   3
HETATM    3  C11 UNL     1     -18.036 -15.509 -45.252  1.00  0.00     0.033 C 
HETATM    4  C10 UNL     1     -18.080 -16.764 -45.557  1.00  0.00    -0.016 C 
BRANCH   4   5
HETATM    5  C9  UNL     1     -18.565 -17.381 -46.774  1.00  0.00     0.045 C 
HETATM    6  C3  UNL     1     -17.456 -18.301 -47.336  1.00  0.00     0.140 C 
HETATM    7  C4  UNL     1     -18.215 -19.073 -48.351  1.00  0.00     0.034 C 
HETATM    8  C5  UNL     1     -19.547 -19.337 -47.690  1.00  0.00     0.012 C 
HETATM    9  C6  UNL     1     -19.655 -18.420 -46.518  1.00  0.00    -0.038 C 
HETATM   10  C7  UNL     1     -21.015 -17.731 -46.472  1.00  0.00     0.015 C 
HETATM   11  C8  UNL     1     -19.362 -19.099 -45.218  1.00  0.00     0.015 C 
BRANCH   6  12
HETATM   12  O2  UNL     1     -16.432 -17.494 -47.884  1.00  0.00    -0.316 OA
BRANCH  12  13
HETATM   13  C2  UNL     1     -15.198 -18.023 -48.156  1.00  0.00     0.255 C 
HETATM   14  C1  UNL     1     -14.700 -18.402 -49.494  1.00  0.00     0.126 C 
HETATM   15  O1  UNL     1     -14.420 -18.201 -47.171  1.00  0.00    -0.266 OA
ENDBRANCH  12  13
ENDBRANCH   6  12
ENDBRANCH   4   5
ENDBRANCH   1   3
BRANCH   1  16
HETATM   16  O7  UNL     1     -19.788 -13.908 -46.062  1.00  0.00    -0.348 OA
BRANCH  16  17
HETATM   17  C28 UNL     1     -20.018 -12.608 -46.560  1.00  0.00     0.203 C 
BRANCH  17  18
HETATM   18  C29 UNL     1     -20.337 -11.651 -45.457  1.00  0.00    -0.002 C 
HETATM   19  C30 UNL     1     -20.534 -10.360 -45.701  1.00  0.00     0.008 C 
BRANCH  19  20
HETATM   20  C31 UNL     1     -20.851  -9.373 -44.656  1.00  0.00     0.068 C 
HETATM   21  C32 UNL     1     -20.810 -10.019 -43.289  1.00  0.00     0.050 C 
HETATM   22  C33 UNL     1     -22.221  -8.751 -44.872  1.00  0.00     0.050 C 
BRANCH  20  23
HETATM   23  O8  UNL     1     -19.860  -8.369 -44.651  1.00  0.00    -0.387 OA
ATOM     24  H8  UNL     1     -19.424  -8.364 -43.807  1.00  0.00     0.211 HD
ENDBRANCH  20  23
ENDBRANCH  19  20
ENDBRANCH  17  18
ENDBRANCH  16  17
ENDBRANCH   1  16
BRANCH   2  25
HETATM   25  C14 UNL     1     -16.205 -13.950 -46.867  1.00  0.00     0.001 C 
HETATM   26  C15 UNL     1     -15.567 -13.918 -48.055  1.00  0.00     0.005 C 
BRANCH  26  27
HETATM   27  C16 UNL     1     -14.126 -14.212 -48.118  1.00  0.00     0.146 C 
HETATM   28  C17 UNL     1     -13.317 -12.997 -48.552  1.00  0.00     0.070 C 
HETATM   29  C18 UNL     1     -12.073 -13.694 -49.085  1.00  0.00     0.160 C 
HETATM   30  C27 UNL     1     -12.537 -15.048 -49.450  1.00  0.00     0.201 C 
HETATM   31  O6  UNL     1     -13.863 -15.143 -49.115  1.00  0.00    -0.379 OA
BRANCH  29  32
HETATM   32  O3  UNL     1     -11.520 -12.928 -50.130  1.00  0.00    -0.296 OA
BRANCH  32  33
HETATM   33  C19 UNL     1     -10.234 -12.335 -49.993  1.00  0.00     0.365 C 
HETATM   34  O4  UNL     1      -9.395 -13.128 -49.498  1.00  0.00    -0.238 OA
HETATM   35  N1  UNL     1     -10.008 -11.012 -50.389  1.00  0.00    -0.303 N 
ATOM     36  H1  UNL     1     -10.822 -10.531 -50.771  1.00  0.00     0.171 HD
BRANCH  35  37
HETATM   37  C20 UNL     1      -8.836 -10.247 -50.342  1.00  0.00     0.037 A 
HETATM   38  C21 UNL     1      -8.820  -9.000 -49.783  1.00  0.00     0.032 A 
HETATM   39  C22 UNL     1      -7.648  -8.226 -49.727  1.00  0.00     0.039 A 
HETATM   40  C23 UNL     1      -6.485  -8.749 -50.254  1.00  0.00     0.071 A 
HETATM   41  C24 UNL     1      -6.475 -10.005 -50.823  1.00  0.00    -0.027 A 
HETATM   42  C25 UNL     1      -5.218 -10.546 -51.380  1.00  0.00     0.051 C 
HETATM   43  C26 UNL     1      -7.639 -10.735 -50.862  1.00  0.00     0.039 A 
BRANCH  40  44
HETATM   44  O5  UNL     1      -5.283  -8.046 -50.237  1.00  0.00    -0.360 OA
ATOM     45  H5  UNL     1      -4.525  -8.330 -50.735  1.00  0.00     0.217 HD
ENDBRANCH  40  44
ENDBRANCH  35  37
ENDBRANCH  32  33
ENDBRANCH  29  32
ENDBRANCH  26  27
ENDBRANCH   2  25
TORSDOF 15
ENDMDL
MODEL 3
REMARK VINA RESULT: -9.523775576      1.538      1.990
REMARK  15 active torsions:
REMARK  status: ('A' for Active; 'I' for Inactive)
REMARK    1  A    between atoms: C2_2  and  O2_4 
REMARK    2  A    between atoms: O2_4  and  C3_5 
REMARK    3  A    between atoms: C9_11  and  C10_12 
REMARK    4  A    between atoms: C11_13  and  C12_14 
REMARK    5  A    between atoms: C12_14  and  O7_37 
REMARK    6  A    between atoms: C13_15  and  C14_16 
REMARK    7  A    between atoms: C15_17  and  C16_18 
REMARK    8  A    between atoms: C18_20  and  O3_21 
REMARK    9  A    between atoms: O3_21  and  C19_22 
REMARK       I    between atoms: C19_22  and  N1_24 
REMARK   10  A    between atoms: N1_24  and  C20_26 
REMARK   11  A    between atoms: C23_29  and  O5_30 
REMARK   12  A    between atoms: O7_37  and  C28_38 
REMARK   13  A    between atoms: C28_38  and  C29_39 
REMARK   14  A    between atoms: C30_40  and  C31_41 
REMARK   15  A    between atoms: C31_41  and  O8_44 
ROOT
HETATM    1  C12 UNL     1     -18.626 -14.480 -45.930  1.00  0.00     0.068 C 
HETATM    2  C13 UNL     1     -17.761 -13.798 -46.640  1.00  0.00     0.036 C 
ENDROOT
BRANCH   1   3
HETATM    3  C11 UNL     1     -18.237 -15.670 -45.194  1.00  0.00     0.033 C 
HETATM    4  C10 UNL     1     -18.242 -16.905 -45.573  1.00  0.00    -0.016 C 
BRANCH   4   5
HETATM    5  C9  UNL     1     -18.643 -17.456 -46.851  1.00  0.00     0.045 C 
HETATM    6  C3  UNL     1     -17.514 -18.381 -47.365  1.00  0.00     0.140 C 
HETATM    7  C4  UNL     1     -18.208 -19.088 -48.470  1.00  0.00     0.034 C 
HETATM    8  C5  UNL     1     -19.595 -19.343 -47.928  1.00  0.00     0.012 C 
HETATM    9  C6  UNL     1     -19.774 -18.475 -46.729  1.00  0.00    -0.038 C 
HETATM   10  C7  UNL     1     -21.116 -17.752 -46.759  1.00  0.00     0.015 C 
HETATM   11  C8  UNL     1     -19.602 -19.218 -45.441  1.00  0.00     0.015 C 
BRANCH   6  12
HETATM   12  O2  UNL     1     -16.431 -17.579 -47.794  1.00  0.00    -0.316 OA
BRANCH  12  13
HETATM   13  C2  UNL     1     -15.234 -18.150 -48.136  1.00  0.00     0.255 C 
HETATM   14  C1  UNL     1     -14.840 -18.572 -49.495  1.00  0.00     0.126 C 
HETATM   15  O1  UNL     1     -14.396 -18.330 -47.202  1.00  0.00    -0.266 OA
ENDBRANCH  12  13
ENDBRANCH   6  12
ENDBRANCH   4   5
ENDBRANCH   1   3
BRANCH   1  16
HETATM   16  O7  UNL     1     -19.944 -13.986 -45.930  1.00  0.00    -0.348 OA
BRANCH  16  17
HETATM   17  C28 UNL     1     -20.160 -12.726 -46.527  1.00  0.00     0.203 C 
BRANCH  17  18
HETATM   18  C29 UNL     1     -20.733 -11.752 -45.550  1.00  0.00    -0.002 C 
HETATM   19  C30 UNL     1     -20.328 -10.487 -45.520  1.00  0.00     0.008 C 
BRANCH  19  20
HETATM   20  C31 UNL     1     -20.855  -9.484 -44.581  1.00  0.00     0.068 C 
HETATM   21  C32 UNL     1     -22.361  -9.393 -44.697  1.00  0.00     0.050 C 
HETATM   22  C33 UNL     1     -20.253  -8.111 -44.834  1.00  0.00     0.050 C 
BRANCH  20  23
HETATM   23  O8  UNL     1     -20.581  -9.895 -43.261  1.00  0.00    -0.387 OA
ATOM     24  H8  UNL     1     -21.387  -9.883 -42.757  1.00  0.00     0.211 HD
ENDBRANCH  20  23
ENDBRANCH  19  20
ENDBRANCH  17  18
ENDBRANCH  16  17
ENDBRANCH   1  16
BRANCH   2  25
HETATM   25  C14 UNL     1     -16.373 -14.119 -46.780  1.00  0.00     0.001 C 
HETATM   26  C15 UNL     1     -15.715 -13.938 -47.943  1.00  0.00     0.005 C 
BRANCH  26  27
HETATM   27  C16 UNL     1     -14.288 -14.283 -48.036  1.00  0.00     0.146 C 
HETATM   28  C17 UNL     1     -13.439 -13.085 -48.442  1.00  0.00     0.070 C 
HETATM   29  C18 UNL     1     -12.229 -13.811 -49.014  1.00  0.00     0.160 C 
HETATM   30  C27 UNL     1     -12.748 -15.133 -49.415  1.00  0.00     0.201 C 
HETATM   31  O6  UNL     1     -14.072 -15.190 -49.065  1.00  0.00    -0.379 OA
BRANCH  29  32
HETATM   32  O3  UNL     1     -11.661 -13.031 -50.040  1.00  0.00    -0.296 OA
BRANCH  32  33
HETATM   33  C19 UNL     1     -10.317 -12.571 -49.945  1.00  0.00     0.365 C 
HETATM   34  O4  UNL     1      -9.634 -13.260 -49.146  1.00  0.00    -0.238 OA
HETATM   35  N1  UNL     1      -9.882 -11.469 -50.689  1.00  0.00    -0.303 N 
ATOM     36  H1  UNL     1     -10.592 -11.043 -51.284  1.00  0.00     0.171 HD
BRANCH  35  37
HETATM   37  C20 UNL     1      -8.621 -10.861 -50.742  1.00  0.00     0.037 A 
HETATM   38  C21 UNL     1      -7.523 -11.536 -51.193  1.00  0.00     0.032 A 
HETATM   39  C22 UNL     1      -6.254 -10.934 -51.255  1.00  0.00     0.039 A 
HETATM   40  C23 UNL     1      -6.125  -9.623 -50.845  1.00  0.00     0.071 A 
HETATM   41  C24 UNL     1      -7.219  -8.920 -50.386  1.00  0.00    -0.027 A 
HETATM   42  C25 UNL     1      -7.058  -7.516 -49.954  1.00  0.00     0.051 C 
HETATM   43  C26 UNL     1      -8.445  -9.539 -50.339  1.00  0.00     0.039 A 
BRANCH  40  44
HETATM   44  O5  UNL     1      -4.903  -8.955 -50.875  1.00  0.00    -0.360 OA
ATOM     45  H5  UNL     1      -4.826  -8.034 -50.655  1.00  0.00     0.217 HD
ENDBRANCH  40  44
ENDBRANCH  35  37
ENDBRANCH  32  33
ENDBRANCH  29  32
ENDBRANCH  26  27
ENDBRANCH   2  25
TORSDOF 15
ENDMDL
MODEL 4
REMARK VINA RESULT: -9.323632994      1.408      1.979
REMARK  15 active torsions:
REMARK  status: ('A' for Active; 'I' for Inactive)
REMARK    1  A    between atoms: C2_2  and  O2_4 
REMARK    2  A    between atoms: O2_4  and  C3_5 
REMARK    3  A    between atoms: C9_11  and  C10_12 
REMARK    4  A    between atoms: C11_13  and  C12_14 
REMARK    5  A    between atoms: C12_14  and  O7_37 
REMARK    6  A    between atoms: C13_15  and  C14_16 
REMARK    7  A    between atoms: C15_17  and  C16_18 
REMARK    8  A    between atoms: C18_20  and  O3_21 
REMARK    9  A    between atoms: O3_21  and  C19_22 
REMARK       I    between atoms: C19_22  and  N1_24 
REMARK   10  A    between atoms: N1_24  and  C20_26 
REMARK   11  A    between atoms: C23_29  and  O5_30 
REMARK   12  A    between atoms: O7_37  and  C28_38 
REMARK   13  A    between atoms: C28_38  and  C29_39 
REMARK   14  A    between atoms: C30_40  and  C31_41 
REMARK   15  A    between atoms: C31_41  and  O8_44 
ROOT
HETATM    1  C12 UNL     1     -18.500 -13.873 -46.206  1.00  0.00     0.068 C 
HETATM    2  C13 UNL     1     -17.366 -13.764 -46.853  1.00  0.00     0.036 C 
ENDROOT
BRANCH   1   3
HETATM    3  C11 UNL     1     -18.736 -14.949 -45.260  1.00  0.00     0.033 C 
HETATM    4  C10 UNL     1     -19.612 -15.897 -45.301  1.00  0.00    -0.016 C 
BRANCH   4   5
HETATM    5  C9  UNL     1     -20.617 -16.157 -46.312  1.00  0.00     0.045 C 
HETATM    6  C3  UNL     1     -20.739 -17.687 -46.504  1.00  0.00     0.140 C 
HETATM    7  C4  UNL     1     -21.992 -17.774 -47.295  1.00  0.00     0.034 C 
HETATM    8  C5  UNL     1     -22.890 -16.729 -46.675  1.00  0.00     0.012 C 
HETATM    9  C6  UNL     1     -22.033 -15.843 -45.834  1.00  0.00    -0.038 C 
HETATM   10  C7  UNL     1     -22.340 -14.371 -46.084  1.00  0.00     0.015 C 
HETATM   11  C8  UNL     1     -22.120 -16.162 -44.376  1.00  0.00     0.015 C 
BRANCH   6  12
HETATM   12  O2  UNL     1     -19.596 -18.150 -47.196  1.00  0.00    -0.316 OA
BRANCH  12  13
HETATM   13  C2  UNL     1     -18.649 -18.902 -46.552  1.00  0.00     0.255 C 
HETATM   14  C1  UNL     1     -18.889 -19.766 -45.378  1.00  0.00     0.126 C 
HETATM   15  O1  UNL     1     -17.467 -18.848 -47.006  1.00  0.00    -0.266 OA
ENDBRANCH  12  13
ENDBRANCH   6  12
ENDBRANCH   4   5
ENDBRANCH   1   3
BRANCH   1  16
HETATM   16  O7  UNL     1     -19.464 -12.887 -46.489  1.00  0.00    -0.348 OA
BRANCH  16  17
HETATM   17  C28 UNL     1     -19.927 -12.110 -45.407  1.00  0.00     0.203 C 
BRANCH  17  18
HETATM   18  C29 UNL     1     -20.679 -10.909 -45.881  1.00  0.00    -0.002 C 
HETATM   19  C30 UNL     1     -21.376 -10.155 -45.038  1.00  0.00     0.008 C 
BRANCH  19  20
HETATM   20  C31 UNL     1     -22.136  -8.963 -45.447  1.00  0.00     0.068 C 
HETATM   21  C32 UNL     1     -22.636  -9.117 -46.867  1.00  0.00     0.050 C 
HETATM   22  C33 UNL     1     -21.292  -7.703 -45.352  1.00  0.00     0.050 C 
BRANCH  20  23
HETATM   23  O8  UNL     1     -23.281  -8.840 -44.634  1.00  0.00    -0.387 OA
ATOM     24  H8  UNL     1     -23.111  -8.202 -43.950  1.00  0.00     0.211 HD
ENDBRANCH  20  23
ENDBRANCH  19  20
ENDBRANCH  17  18
ENDBRANCH  16  17
ENDBRANCH   1  16
BRANCH   2  25
HETATM   25  C14 UNL     1     -16.251 -14.652 -46.720  1.00  0.00     0.001 C 
HETATM   26  C15 UNL     1     -15.997 -15.615 -47.628  1.00  0.00     0.005 C 
BRANCH  26  27
HETATM   27  C16 UNL     1     -14.837 -16.503 -47.445  1.00  0.00     0.146 C 
HETATM   28  C17 UNL     1     -13.519 -15.761 -47.631  1.00  0.00     0.070 C 
HETATM   29  C18 UNL     1     -12.611 -16.934 -47.974  1.00  0.00     0.160 C 
HETATM   30  C27 UNL     1     -13.524 -17.960 -48.517  1.00  0.00     0.201 C 
HETATM   31  O6  UNL     1     -14.801 -17.470 -48.441  1.00  0.00    -0.379 OA
BRANCH  29  32
HETATM   32  O3  UNL     1     -11.589 -16.495 -48.838  1.00  0.00    -0.296 OA
BRANCH  32  33
HETATM   33  C19 UNL     1     -11.095 -15.162 -48.761  1.00  0.00     0.365 C 
HETATM   34  O4  UNL     1      -9.997 -15.098 -48.152  1.00  0.00    -0.238 OA
HETATM   35  N1  UNL     1     -11.807 -14.099 -49.325  1.00  0.00    -0.303 N 
ATOM     36  H1  UNL     1     -12.682 -14.359 -49.780  1.00  0.00     0.171 HD
BRANCH  35  37
HETATM   37  C20 UNL     1     -11.504 -12.732 -49.361  1.00  0.00     0.037 A 
HETATM   38  C21 UNL     1     -12.207 -11.826 -48.617  1.00  0.00     0.032 A 
HETATM   39  C22 UNL     1     -11.907 -10.453 -48.643  1.00  0.00     0.039 A 
HETATM   40  C23 UNL     1     -10.873 -10.017 -49.445  1.00  0.00     0.071 A 
HETATM   41  C24 UNL     1     -10.148 -10.912 -50.204  1.00  0.00    -0.027 A 
HETATM   42  C25 UNL     1      -9.044 -10.423 -51.055  1.00  0.00     0.051 C 
HETATM   43  C26 UNL     1     -10.468 -12.248 -50.156  1.00  0.00     0.039 A 
BRANCH  40  44
HETATM   44  O5  UNL     1     -10.514  -8.674 -49.525  1.00  0.00    -0.360 OA
ATOM     45  H5  UNL     1      -9.660  -8.362 -49.249  1.00  0.00     0.217 HD
ENDBRANCH  40  44
ENDBRANCH  35  37
ENDBRANCH  32  33
ENDBRANCH  29  32
ENDBRANCH  26  27
ENDBRANCH   2  25
TORSDOF 15
ENDMDL
MODEL 5
REMARK VINA RESULT: -9.283144093      2.699     12.852
REMARK  15 active torsions:
REMARK  status: ('A' for Active; 'I' for Inactive)
REMARK    1  A    between atoms: C2_2  and  O2_4 
REMARK    2  A    between atoms: O2_4  and  C3_5 
REMARK    3  A    between atoms: C9_11  and  C10_12 
REMARK    4  A    between atoms: C11_13  and  C12_14 
REMARK    5  A    between atoms: C12_14  and  O7_37 
REMARK    6  A    between atoms: C13_15  and  C14_16 
REMARK    7  A    between atoms: C15_17  and  C16_18 
REMARK    8  A    between atoms: C18_20  and  O3_21 
REMARK    9  A    between atoms: O3_21  and  C19_22 
REMARK       I    between atoms: C19_22  and  N1_24 
REMARK   10  A    between atoms: N1_24  and  C20_26 
REMARK   11  A    between atoms: C23_29  and  O5_30 
REMARK   12  A    between atoms: O7_37  and  C28_38 
REMARK   13  A    between atoms: C28_38  and  C29_39 
REMARK   14  A    between atoms: C30_40  and  C31_41 
REMARK   15  A    between atoms: C31_41  and  O8_44 
ROOT
HETATM    1  C12 UNL     1      -8.372  -8.930 -50.045  1.00  0.00     0.068 C 
HETATM    2  C13 UNL     1      -9.461  -8.920 -49.317  1.00  0.00     0.036 C 
ENDROOT
BRANCH   1   3
HETATM    3  C11 UNL     1      -8.289  -9.686 -51.283  1.00  0.00     0.033 C 
HETATM    4  C10 UNL     1      -7.702 -10.813 -51.515  1.00  0.00    -0.016 C 
BRANCH   4   5
HETATM    5  C9  UNL     1      -6.951 -11.647 -50.599  1.00  0.00     0.045 C 
HETATM    6  C3  UNL     1      -7.341 -13.123 -50.844  1.00  0.00     0.140 C 
HETATM    7  C4  UNL     1      -6.277 -13.827 -50.085  1.00  0.00     0.034 C 
HETATM    8  C5  UNL     1      -5.031 -13.021 -50.369  1.00  0.00     0.012 C 
HETATM    9  C6  UNL     1      -5.464 -11.714 -50.943  1.00  0.00    -0.038 C 
HETATM   10  C7  UNL     1      -4.736 -10.548 -50.283  1.00  0.00     0.015 C 
HETATM   11  C8  UNL     1      -5.320 -11.654 -52.430  1.00  0.00     0.015 C 
BRANCH   6  12
HETATM   12  O2  UNL     1      -8.642 -13.339 -50.331  1.00  0.00    -0.316 OA
BRANCH  12  13
HETATM   13  C2  UNL     1      -9.148 -14.607 -50.227  1.00  0.00     0.255 C 
HETATM   14  C1  UNL     1      -9.193 -15.607 -51.314  1.00  0.00     0.126 C 
HETATM   15  O1  UNL     1      -9.619 -14.947 -49.100  1.00  0.00    -0.266 OA
ENDBRANCH  12  13
ENDBRANCH   6  12
ENDBRANCH   4   5
ENDBRANCH   1   3
BRANCH   1  16
HETATM   16  O7  UNL     1      -7.298  -8.166 -49.552  1.00  0.00    -0.348 OA
BRANCH  16  17
HETATM   17  C28 UNL     1      -7.032  -6.938 -50.194  1.00  0.00     0.203 C 
BRANCH  17  18
HETATM   18  C29 UNL     1      -5.628  -6.883 -50.703  1.00  0.00    -0.002 C 
HETATM   19  C30 UNL     1      -5.313  -7.348 -51.907  1.00  0.00     0.008 C 
BRANCH  19  20
HETATM   20  C31 UNL     1      -3.949  -7.321 -52.460  1.00  0.00     0.068 C 
HETATM   21  C32 UNL     1      -3.756  -8.453 -53.445  1.00  0.00     0.050 C 
HETATM   22  C33 UNL     1      -2.900  -7.429 -51.365  1.00  0.00     0.050 C 
BRANCH  20  23
HETATM   23  O8  UNL     1      -3.767  -6.126 -53.187  1.00  0.00    -0.387 OA
ATOM     24  H8  UNL     1      -2.842  -6.007 -53.365  1.00  0.00     0.211 HD
ENDBRANCH  20  23
ENDBRANCH  19  20
ENDBRANCH  17  18
ENDBRANCH  16  17
ENDBRANCH   1  16
BRANCH   2  25
HETATM   25  C14 UNL     1     -10.668  -9.623 -49.629  1.00  0.00     0.001 C 
HETATM   26  C15 UNL     1     -10.939 -10.837 -49.108  1.00  0.00     0.005 C 
BRANCH  26  27
HETATM   27  C16 UNL     1     -12.196 -11.518 -49.461  1.00  0.00     0.146 C 
HETATM   28  C17 UNL     1     -12.910 -12.064 -48.231  1.00  0.00     0.070 C 
HETATM   29  C18 UNL     1     -13.755 -13.148 -48.885  1.00  0.00     0.160 C 
HETATM   30  C27 UNL     1     -13.028 -13.483 -50.126  1.00  0.00     0.201 C 
HETATM   31  O6  UNL     1     -11.937 -12.658 -50.211  1.00  0.00    -0.379 OA
BRANCH  29  32
HETATM   32  O3  UNL     1     -13.945 -14.205 -47.974  1.00  0.00    -0.296 OA
BRANCH  32  33
HETATM   33  C19 UNL     1     -15.246 -14.725 -47.724  1.00  0.00     0.365 C 
HETATM   34  O4  UNL     1     -15.461 -15.791 -48.354  1.00  0.00    -0.238 OA
HETATM   35  N1  UNL     1     -16.127 -14.067 -46.860  1.00  0.00    -0.303 N 
ATOM     36  H1  UNL     1     -15.763 -13.211 -46.442  1.00  0.00     0.171 HD
BRANCH  35  37
HETATM   37  C20 UNL     1     -17.433 -14.402 -46.481  1.00  0.00     0.037 A 
HETATM   38  C21 UNL     1     -17.762 -15.673 -46.102  1.00  0.00     0.032 A 
HETATM   39  C22 UNL     1     -19.068 -16.018 -45.715  1.00  0.00     0.039 A 
HETATM   40  C23 UNL     1     -20.040 -15.039 -45.723  1.00  0.00     0.071 A 
HETATM   41  C24 UNL     1     -19.734 -13.749 -46.101  1.00  0.00    -0.027 A 
HETATM   42  C25 UNL     1     -20.790 -12.716 -46.101  1.00  0.00     0.051 C 
HETATM   43  C26 UNL     1     -18.446 -13.445 -46.474  1.00  0.00     0.039 A 
BRANCH  40  44
HETATM   44  O5  UNL     1     -21.357 -15.301 -45.353  1.00  0.00    -0.360 OA
ATOM     45  H5  UNL     1     -21.999 -15.629 -45.972  1.00  0.00     0.217 HD
ENDBRANCH  40  44
ENDBRANCH  35  37
ENDBRANCH  32  33
ENDBRANCH  29  32
ENDBRANCH  26  27
ENDBRANCH   2  25
TORSDOF 15
ENDMDL
