MODEL 1
REMARK VINA RESULT: -8.448590925      0.000      0.000
REMARK  14 active torsions:
REMARK  status: ('A' for Active; 'I' for Inactive)
REMARK    1  A    between atoms: O1_2  and  C2_3 
REMARK    2  A    between atoms: C9_11  and  C10_12 
REMARK    3  A    between atoms: C10_12  and  O3_13 
REMARK    4  A    between atoms: C10_12  and  C11_15 
REMARK    5  A    between atoms: C12_17  and  O4_18 
REMARK    6  A    between atoms: C15_22  and  O5_23 
REMARK    7  A    between atoms: C17_26  and  C18_27 
REMARK    8  A    between atoms: C17_26  and  C23_32 
REMARK    9  A    between atoms: C18_27  and  C19_28 
REMARK   10  A    between atoms: C23_32  and  C24_33 
REMARK   11  A    between atoms: C25_34  and  C27_36 
REMARK   12  A    between atoms: C27_36  and  C28_37 
REMARK   13  A    between atoms: C28_37  and  C29_38 
REMARK   14  A    between atoms: C34_44  and  O7_45 
ROOT
HETATM    1  C2  UNL     1     -14.638 -19.240 -51.802  1.00  0.00     0.155 C 
HETATM    2  C3  UNL     1     -15.656 -18.192 -52.207  1.00  0.00     0.015 C 
HETATM    3  C4  UNL     1     -16.979 -18.769 -52.620  1.00  0.00     0.012 C 
HETATM    4  C5  UNL     1     -15.785 -17.255 -51.021  1.00  0.00     0.035 C 
HETATM    5  C6  UNL     1     -14.706 -17.573 -50.059  1.00  0.00     0.115 C 
HETATM    6  C7  UNL     1     -15.259 -18.083 -48.793  1.00  0.00     0.179 C 
HETATM    7  O2  UNL     1     -15.112 -19.224 -48.330  1.00  0.00    -0.291 OA
HETATM    8  C8  UNL     1     -16.052 -17.122 -48.003  1.00  0.00     0.037 A 
HETATM    9  C9  UNL     1     -17.199 -17.547 -47.385  1.00  0.00     0.042 A 
HETATM   10  C12 UNL     1     -17.785 -16.683 -46.434  1.00  0.00     0.088 A 
HETATM   11  C13 UNL     1     -17.145 -15.456 -46.211  1.00  0.00     0.006 A 
HETATM   12  C14 UNL     1     -17.779 -14.538 -45.188  1.00  0.00     0.054 C 
HETATM   13  C15 UNL     1     -16.011 -15.079 -46.860  1.00  0.00     0.082 A 
HETATM   14  C16 UNL     1     -15.393 -15.898 -47.806  1.00  0.00     0.007 A 
HETATM   15  C17 UNL     1     -14.201 -15.439 -48.524  1.00  0.00     0.059 C 
HETATM   16  C33 UNL     1     -13.953 -16.337 -49.714  1.00  0.00     0.159 C 
HETATM   17  O6  UNL     1     -13.066 -16.060 -50.474  1.00  0.00    -0.295 OA
HETATM   18  C34 UNL     1     -13.798 -18.592 -50.735  1.00  0.00     0.171 C 
ENDROOT
BRANCH  15  19
HETATM   19  C18 UNL     1     -12.903 -15.583 -47.792  1.00  0.00     0.050 C 
BRANCH  19  20
HETATM   20  C19 UNL     1     -12.219 -16.838 -47.708  1.00  0.00    -0.023 C 
HETATM   21  C20 UNL     1     -10.919 -16.916 -48.051  1.00  0.00    -0.091 C 
HETATM   22  C21 UNL     1     -10.155 -18.179 -47.986  1.00  0.00     0.042 C 
HETATM   23  C22 UNL     1     -10.217 -15.686 -48.510  1.00  0.00     0.042 C 
ENDBRANCH  19  20
ENDBRANCH  15  19
BRANCH  15  24
HETATM   24  C23 UNL     1     -14.441 -14.097 -49.176  1.00  0.00     0.050 C 
BRANCH  24  25
HETATM   25  C24 UNL     1     -13.728 -12.941 -48.650  1.00  0.00    -0.023 C 
HETATM   26  C25 UNL     1     -12.654 -12.462 -49.261  1.00  0.00    -0.087 C 
HETATM   27  C26 UNL     1     -12.106 -13.049 -50.489  1.00  0.00     0.043 C 
BRANCH  26  28
HETATM   28  C27 UNL     1     -11.972 -11.300 -48.649  1.00  0.00     0.037 C 
BRANCH  28  29
HETATM   29  C28 UNL     1     -11.682 -10.146 -49.514  1.00  0.00     0.031 C 
BRANCH  29  30
HETATM   30  C29 UNL     1     -10.538  -9.302 -49.242  1.00  0.00    -0.024 C 
HETATM   31  C30 UNL     1      -9.388  -9.437 -49.933  1.00  0.00    -0.091 C 
HETATM   32  C31 UNL     1      -9.283 -10.470 -50.999  1.00  0.00     0.042 C 
HETATM   33  C32 UNL     1      -8.213  -8.550 -49.627  1.00  0.00     0.042 C 
ENDBRANCH  29  30
ENDBRANCH  28  29
ENDBRANCH  26  28
ENDBRANCH  24  25
ENDBRANCH  15  24
BRANCH  13  34
HETATM   34  O5  UNL     1     -15.495 -13.852 -46.542  1.00  0.00    -0.359 OA
ATOM     35  H5  UNL     1     -14.629 -13.650 -46.877  1.00  0.00     0.217 HD
ENDBRANCH  13  34
BRANCH   9  36
HETATM   36  C10 UNL     1     -17.935 -18.751 -47.675  1.00  0.00     0.071 C 
BRANCH  36  37
HETATM   37  O3  UNL     1     -17.889 -19.695 -46.777  1.00  0.00    -0.363 OA
ATOM     38  H3  UNL     1     -18.573 -19.689 -46.117  1.00  0.00     0.217 HD
ENDBRANCH  36  37
BRANCH  36  39
HETATM   39  C11 UNL     1     -18.771 -19.149 -48.791  1.00  0.00     0.179 C 
HETATM   40 CL1  UNL     1     -17.960 -20.594 -49.627  1.00  0.00    -0.123 Cl
ENDBRANCH  36  39
ENDBRANCH   9  36
BRANCH  18  41
HETATM   41  O7  UNL     1     -13.269 -19.414 -49.790  1.00  0.00    -0.391 OA
ATOM     42  H7  UNL     1     -12.507 -19.922 -50.044  1.00  0.00     0.210 HD
ENDBRANCH  18  41
BRANCH  10  43
HETATM   43  O4  UNL     1     -18.880 -16.932 -45.739  1.00  0.00    -0.359 OA
ATOM     44  H4  UNL     1     -18.924 -17.047 -44.797  1.00  0.00     0.217 HD
ENDBRANCH  10  43
BRANCH   1  45
HETATM   45  O1  UNL     1     -15.134 -20.456 -51.511  1.00  0.00    -0.388 OA
HETATM   46  C1  UNL     1     -14.629 -21.540 -52.176  1.00  0.00     0.202 C 
ENDBRANCH   1  45
TORSDOF 14
ENDMDL
MODEL 2
REMARK VINA RESULT: -7.629140998      3.104      7.666
REMARK  14 active torsions:
REMARK  status: ('A' for Active; 'I' for Inactive)
REMARK    1  A    between atoms: O1_2  and  C2_3 
REMARK    2  A    between atoms: C9_11  and  C10_12 
REMARK    3  A    between atoms: C10_12  and  O3_13 
REMARK    4  A    between atoms: C10_12  and  C11_15 
REMARK    5  A    between atoms: C12_17  and  O4_18 
REMARK    6  A    between atoms: C15_22  and  O5_23 
REMARK    7  A    between atoms: C17_26  and  C18_27 
REMARK    8  A    between atoms: C17_26  and  C23_32 
REMARK    9  A    between atoms: C18_27  and  C19_28 
REMARK   10  A    between atoms: C23_32  and  C24_33 
REMARK   11  A    between atoms: C25_34  and  C27_36 
REMARK   12  A    between atoms: C27_36  and  C28_37 
REMARK   13  A    between atoms: C28_37  and  C29_38 
REMARK   14  A    between atoms: C34_44  and  O7_45 
ROOT
HETATM    1  C2  UNL     1     -10.724 -18.885 -50.672  1.00  0.00     0.155 C 
HETATM    2  C3  UNL     1     -10.223 -18.402 -49.325  1.00  0.00     0.015 C 
HETATM    3  C4  UNL     1      -8.726 -18.386 -49.212  1.00  0.00     0.012 C 
HETATM    4  C5  UNL     1     -10.827 -17.025 -49.125  1.00  0.00     0.035 C 
HETATM    5  C6  UNL     1     -11.846 -16.808 -50.177  1.00  0.00     0.115 C 
HETATM    6  C7  UNL     1     -11.455 -15.710 -51.076  1.00  0.00     0.179 C 
HETATM    7  O2  UNL     1     -11.180 -15.806 -52.281  1.00  0.00    -0.291 OA
HETATM    8  C8  UNL     1     -11.402 -14.367 -50.468  1.00  0.00     0.037 A 
HETATM    9  C9  UNL     1     -10.379 -13.519 -50.802  1.00  0.00     0.042 A 
HETATM   10  C12 UNL     1     -10.500 -12.167 -50.413  1.00  0.00     0.088 A 
HETATM   11  C13 UNL     1     -11.657 -11.810 -49.708  1.00  0.00     0.006 A 
HETATM   12  C14 UNL     1     -11.778 -10.358 -49.297  1.00  0.00     0.054 C 
HETATM   13  C15 UNL     1     -12.640 -12.695 -49.393  1.00  0.00     0.082 A 
HETATM   14  C16 UNL     1     -12.567 -14.041 -49.757  1.00  0.00     0.007 A 
HETATM   15  C17 UNL     1     -13.621 -14.978 -49.357  1.00  0.00     0.059 C 
HETATM   16  C33 UNL     1     -13.135 -16.396 -49.556  1.00  0.00     0.159 C 
HETATM   17  O6  UNL     1     -13.833 -17.304 -49.197  1.00  0.00    -0.295 OA
HETATM   18  C34 UNL     1     -12.000 -18.127 -50.922  1.00  0.00     0.171 C 
ENDROOT
BRANCH  15  19
HETATM   19  C18 UNL     1     -14.849 -14.982 -50.211  1.00  0.00     0.050 C 
BRANCH  19  20
HETATM   20  C19 UNL     1     -14.779 -14.861 -51.636  1.00  0.00    -0.023 C 
HETATM   21  C20 UNL     1     -15.331 -15.809 -52.417  1.00  0.00    -0.091 C 
HETATM   22  C21 UNL     1     -15.293 -15.743 -53.892  1.00  0.00     0.042 C 
HETATM   23  C22 UNL     1     -16.009 -16.969 -51.777  1.00  0.00     0.042 C 
ENDBRANCH  19  20
ENDBRANCH  15  19
BRANCH  15  24
HETATM   24  C23 UNL     1     -13.859 -14.925 -47.865  1.00  0.00     0.050 C 
BRANCH  24  25
HETATM   25  C24 UNL     1     -15.000 -14.163 -47.380  1.00  0.00    -0.023 C 
HETATM   26  C25 UNL     1     -16.124 -14.766 -47.018  1.00  0.00    -0.087 C 
HETATM   27  C26 UNL     1     -16.305 -16.220 -47.081  1.00  0.00     0.043 C 
BRANCH  26  28
HETATM   28  C27 UNL     1     -17.246 -13.918 -46.558  1.00  0.00     0.037 C 
BRANCH  28  29
HETATM   29  C28 UNL     1     -18.495 -14.590 -46.168  1.00  0.00     0.031 C 
BRANCH  29  30
HETATM   30  C29 UNL     1     -19.746 -13.863 -46.177  1.00  0.00    -0.024 C 
HETATM   31  C30 UNL     1     -20.898 -14.446 -45.787  1.00  0.00    -0.091 C 
HETATM   32  C31 UNL     1     -20.893 -15.864 -45.337  1.00  0.00     0.042 C 
HETATM   33  C32 UNL     1     -22.184 -13.668 -45.811  1.00  0.00     0.042 C 
ENDBRANCH  29  30
ENDBRANCH  28  29
ENDBRANCH  26  28
ENDBRANCH  24  25
ENDBRANCH  15  24
BRANCH  13  34
HETATM   34  O5  UNL     1     -13.714 -12.206 -48.700  1.00  0.00    -0.359 OA
ATOM     35  H5  UNL     1     -14.576 -12.480 -48.994  1.00  0.00     0.217 HD
ENDBRANCH  13  34
BRANCH   9  36
HETATM   36  C10 UNL     1      -9.133 -13.881 -51.428  1.00  0.00     0.071 C 
BRANCH  36  37
HETATM   37  O3  UNL     1      -8.994 -13.557 -52.684  1.00  0.00    -0.363 OA
ATOM     38  H3  UNL     1      -8.259 -13.944 -53.144  1.00  0.00     0.217 HD
ENDBRANCH  36  37
BRANCH  36  39
HETATM   39  C11 UNL     1      -7.938 -14.539 -50.936  1.00  0.00     0.179 C 
HETATM   40 CL1  UNL     1      -7.748 -16.142 -51.852  1.00  0.00    -0.123 Cl
ENDBRANCH  36  39
ENDBRANCH   9  36
BRANCH  18  41
HETATM   41  O7  UNL     1     -12.316 -17.873 -52.219  1.00  0.00    -0.391 OA
ATOM     42  H7  UNL     1     -12.929 -17.165 -52.378  1.00  0.00     0.210 HD
ENDBRANCH  18  41
BRANCH  10  43
HETATM   43  O4  UNL     1      -9.620 -11.213 -50.658  1.00  0.00    -0.359 OA
ATOM     44  H4  UNL     1      -9.713 -10.298 -50.420  1.00  0.00     0.217 HD
ENDBRANCH  10  43
BRANCH   1  45
HETATM   45  O1  UNL     1      -9.822 -18.875 -51.670  1.00  0.00    -0.388 OA
HETATM   46  C1  UNL     1      -9.604 -20.036 -52.361  1.00  0.00     0.202 C 
ENDBRANCH   1  45
TORSDOF 14
ENDMDL
MODEL 3
REMARK VINA RESULT: -7.571943219      1.310      1.503
REMARK  14 active torsions:
REMARK  status: ('A' for Active; 'I' for Inactive)
REMARK    1  A    between atoms: O1_2  and  C2_3 
REMARK    2  A    between atoms: C9_11  and  C10_12 
REMARK    3  A    between atoms: C10_12  and  O3_13 
REMARK    4  A    between atoms: C10_12  and  C11_15 
REMARK    5  A    between atoms: C12_17  and  O4_18 
REMARK    6  A    between atoms: C15_22  and  O5_23 
REMARK    7  A    between atoms: C17_26  and  C18_27 
REMARK    8  A    between atoms: C17_26  and  C23_32 
REMARK    9  A    between atoms: C18_27  and  C19_28 
REMARK   10  A    between atoms: C23_32  and  C24_33 
REMARK   11  A    between atoms: C25_34  and  C27_36 
REMARK   12  A    between atoms: C27_36  and  C28_37 
REMARK   13  A    between atoms: C28_37  and  C29_38 
REMARK   14  A    between atoms: C34_44  and  O7_45 
ROOT
HETATM    1  C2  UNL     1     -13.335 -18.716 -52.746  1.00  0.00     0.155 C 
HETATM    2  C3  UNL     1     -14.386 -17.694 -53.133  1.00  0.00     0.015 C 
HETATM    3  C4  UNL     1     -15.692 -18.305 -53.549  1.00  0.00     0.012 C 
HETATM    4  C5  UNL     1     -14.538 -16.778 -51.934  1.00  0.00     0.035 C 
HETATM    5  C6  UNL     1     -13.446 -17.076 -50.980  1.00  0.00     0.115 C 
HETATM    6  C7  UNL     1     -13.978 -17.619 -49.719  1.00  0.00     0.179 C 
HETATM    7  O2  UNL     1     -13.795 -18.761 -49.272  1.00  0.00    -0.291 OA
HETATM    8  C8  UNL     1     -14.796 -16.692 -48.913  1.00  0.00     0.037 A 
HETATM    9  C9  UNL     1     -15.928 -17.160 -48.297  1.00  0.00     0.042 A 
HETATM   10  C12 UNL     1     -16.536 -16.327 -47.332  1.00  0.00     0.088 A 
HETATM   11  C13 UNL     1     -15.932 -15.085 -47.096  1.00  0.00     0.006 A 
HETATM   12  C14 UNL     1     -16.590 -14.200 -46.058  1.00  0.00     0.054 C 
HETATM   13  C15 UNL     1     -14.812 -14.664 -47.744  1.00  0.00     0.082 A 
HETATM   14  C16 UNL     1     -14.174 -15.452 -48.703  1.00  0.00     0.007 A 
HETATM   15  C17 UNL     1     -12.999 -14.947 -49.418  1.00  0.00     0.059 C 
HETATM   16  C33 UNL     1     -12.729 -15.822 -50.622  1.00  0.00     0.159 C 
HETATM   17  O6  UNL     1     -11.855 -15.508 -51.382  1.00  0.00    -0.295 OA
HETATM   18  C34 UNL     1     -12.511 -18.057 -51.673  1.00  0.00     0.171 C 
ENDROOT
BRANCH  15  19
HETATM   19  C18 UNL     1     -11.695 -15.062 -48.694  1.00  0.00     0.050 C 
BRANCH  19  20
HETATM   20  C19 UNL     1     -11.319 -16.255 -47.998  1.00  0.00    -0.023 C 
HETATM   21  C20 UNL     1     -10.128 -16.831 -48.251  1.00  0.00    -0.091 C 
HETATM   22  C21 UNL     1      -9.681 -18.062 -47.568  1.00  0.00     0.042 C 
HETATM   23  C22 UNL     1      -9.221 -16.207 -49.253  1.00  0.00     0.042 C 
ENDBRANCH  19  20
ENDBRANCH  15  19
BRANCH  15  24
HETATM   24  C23 UNL     1     -13.283 -13.604 -50.052  1.00  0.00     0.050 C 
BRANCH  24  25
HETATM   25  C24 UNL     1     -12.768 -12.413 -49.392  1.00  0.00    -0.023 C 
HETATM   26  C25 UNL     1     -11.585 -11.908 -49.715  1.00  0.00    -0.087 C 
HETATM   27  C26 UNL     1     -10.716 -12.500 -50.738  1.00  0.00     0.043 C 
BRANCH  26  28
HETATM   28  C27 UNL     1     -11.123 -10.709 -48.981  1.00  0.00     0.037 C 
BRANCH  28  29
HETATM   29  C28 UNL     1     -10.653  -9.562 -49.774  1.00  0.00     0.031 C 
BRANCH  29  30
HETATM   30  C29 UNL     1      -9.441  -8.866 -49.398  1.00  0.00    -0.024 C 
HETATM   31  C30 UNL     1      -8.317  -8.970 -50.136  1.00  0.00    -0.091 C 
HETATM   32  C31 UNL     1      -8.312  -9.814 -51.361  1.00  0.00     0.042 C 
HETATM   33  C32 UNL     1      -7.070  -8.239 -49.720  1.00  0.00     0.042 C 
ENDBRANCH  29  30
ENDBRANCH  28  29
ENDBRANCH  26  28
ENDBRANCH  24  25
ENDBRANCH  15  24
BRANCH  13  34
HETATM   34  O5  UNL     1     -14.333 -13.426 -47.411  1.00  0.00    -0.359 OA
ATOM     35  H5  UNL     1     -14.856 -12.911 -46.808  1.00  0.00     0.217 HD
ENDBRANCH  13  34
BRANCH   9  36
HETATM   36  C10 UNL     1     -16.629 -18.382 -48.600  1.00  0.00     0.071 C 
BRANCH  36  37
HETATM   37  O3  UNL     1     -16.584 -19.321 -47.697  1.00  0.00    -0.363 OA
ATOM     38  H3  UNL     1     -17.113 -19.190 -46.919  1.00  0.00     0.217 HD
ENDBRANCH  36  37
BRANCH  36  39
HETATM   39  C11 UNL     1     -17.427 -18.803 -49.735  1.00  0.00     0.179 C 
HETATM   40 CL1  UNL     1     -16.575 -20.249 -50.529  1.00  0.00    -0.123 Cl
ENDBRANCH  36  39
ENDBRANCH   9  36
BRANCH  18  41
HETATM   41  O7  UNL     1     -11.953 -18.875 -50.742  1.00  0.00    -0.391 OA
ATOM     42  H7  UNL     1     -11.125 -18.595 -50.368  1.00  0.00     0.210 HD
ENDBRANCH  18  41
BRANCH  10  43
HETATM   43  O4  UNL     1     -17.619 -16.618 -46.637  1.00  0.00    -0.359 OA
ATOM     44  H4  UNL     1     -17.640 -17.108 -45.823  1.00  0.00     0.217 HD
ENDBRANCH  10  43
BRANCH   1  45
HETATM   45  O1  UNL     1     -13.793 -19.951 -52.469  1.00  0.00    -0.388 OA
HETATM   46  C1  UNL     1     -13.243 -21.012 -53.135  1.00  0.00     0.202 C 
ENDBRANCH   1  45
TORSDOF 14
ENDMDL
MODEL 4
REMARK VINA RESULT: -7.570913225      3.459      6.367
REMARK  14 active torsions:
REMARK  status: ('A' for Active; 'I' for Inactive)
REMARK    1  A    between atoms: O1_2  and  C2_3 
REMARK    2  A    between atoms: C9_11  and  C10_12 
REMARK    3  A    between atoms: C10_12  and  O3_13 
REMARK    4  A    between atoms: C10_12  and  C11_15 
REMARK    5  A    between atoms: C12_17  and  O4_18 
REMARK    6  A    between atoms: C15_22  and  O5_23 
REMARK    7  A    between atoms: C17_26  and  C18_27 
REMARK    8  A    between atoms: C17_26  and  C23_32 
REMARK    9  A    between atoms: C18_27  and  C19_28 
REMARK   10  A    between atoms: C23_32  and  C24_33 
REMARK   11  A    between atoms: C25_34  and  C27_36 
REMARK   12  A    between atoms: C27_36  and  C28_37 
REMARK   13  A    between atoms: C28_37  and  C29_38 
REMARK   14  A    between atoms: C34_44  and  O7_45 
ROOT
HETATM    1  C2  UNL     1      -7.560 -14.420 -50.806  1.00  0.00     0.155 C 
HETATM    2  C3  UNL     1      -8.223 -13.189 -51.393  1.00  0.00     0.015 C 
HETATM    3  C4  UNL     1      -7.790 -12.886 -52.797  1.00  0.00     0.012 C 
HETATM    4  C5  UNL     1      -9.716 -13.432 -51.292  1.00  0.00     0.035 C 
HETATM    5  C6  UNL     1      -9.937 -14.630 -50.451  1.00  0.00     0.115 C 
HETATM    6  C7  UNL     1     -10.544 -15.721 -51.230  1.00  0.00     0.179 C 
HETATM    7  O2  UNL     1     -10.024 -16.813 -51.499  1.00  0.00    -0.291 OA
HETATM    8  C8  UNL     1     -11.915 -15.477 -51.719  1.00  0.00     0.037 A 
HETATM    9  C9  UNL     1     -12.257 -15.880 -52.984  1.00  0.00     0.042 A 
HETATM   10  C12 UNL     1     -13.628 -15.871 -53.322  1.00  0.00     0.088 A 
HETATM   11  C13 UNL     1     -14.523 -15.441 -52.332  1.00  0.00     0.006 A 
HETATM   12  C14 UNL     1     -15.991 -15.438 -52.703  1.00  0.00     0.054 C 
HETATM   13  C15 UNL     1     -14.129 -15.042 -51.093  1.00  0.00     0.082 A 
HETATM   14  C16 UNL     1     -12.786 -15.035 -50.712  1.00  0.00     0.007 A 
HETATM   15  C17 UNL     1     -12.392 -14.551 -49.386  1.00  0.00     0.059 C 
HETATM   16  C33 UNL     1     -10.900 -14.313 -49.360  1.00  0.00     0.159 C 
HETATM   17  O6  UNL     1     -10.406 -13.828 -48.379  1.00  0.00    -0.295 OA
HETATM   18  C34 UNL     1      -8.581 -15.024 -49.880  1.00  0.00     0.171 C 
ENDROOT
BRANCH  15  19
HETATM   19  C18 UNL     1     -12.536 -15.531 -48.264  1.00  0.00     0.050 C 
BRANCH  19  20
HETATM   20  C19 UNL     1     -12.545 -16.944 -48.492  1.00  0.00    -0.023 C 
HETATM   21  C20 UNL     1     -13.648 -17.662 -48.204  1.00  0.00    -0.091 C 
HETATM   22  C21 UNL     1     -13.722 -19.122 -48.416  1.00  0.00     0.042 C 
HETATM   23  C22 UNL     1     -14.842 -16.964 -47.656  1.00  0.00     0.042 C 
ENDBRANCH  19  20
ENDBRANCH  15  19
BRANCH  15  24
HETATM   24  C23 UNL     1     -12.944 -13.168 -49.124  1.00  0.00     0.050 C 
BRANCH  24  25
HETATM   25  C24 UNL     1     -12.309 -12.040 -49.791  1.00  0.00    -0.023 C 
HETATM   26  C25 UNL     1     -11.880 -10.991 -49.102  1.00  0.00    -0.087 C 
HETATM   27  C26 UNL     1     -12.011 -10.884 -47.646  1.00  0.00     0.043 C 
BRANCH  26  28
HETATM   28  C27 UNL     1     -11.267  -9.875 -49.856  1.00  0.00     0.037 C 
BRANCH  28  29
HETATM   29  C28 UNL     1      -9.828  -9.956 -50.148  1.00  0.00     0.031 C 
BRANCH  29  30
HETATM   30  C29 UNL     1      -8.919  -8.965 -49.612  1.00  0.00    -0.024 C 
HETATM   31  C30 UNL     1      -7.748  -8.687 -50.219  1.00  0.00    -0.091 C 
HETATM   32  C31 UNL     1      -7.372  -9.408 -51.465  1.00  0.00     0.042 C 
HETATM   33  C32 UNL     1      -6.821  -7.656 -49.638  1.00  0.00     0.042 C 
ENDBRANCH  29  30
ENDBRANCH  28  29
ENDBRANCH  26  28
ENDBRANCH  24  25
ENDBRANCH  15  24
BRANCH  13  34
HETATM   34  O5  UNL     1     -15.113 -14.648 -50.228  1.00  0.00    -0.359 OA
ATOM     35  H5  UNL     1     -15.098 -13.741 -49.945  1.00  0.00     0.217 HD
ENDBRANCH  13  34
BRANCH   9  36
HETATM   36  C10 UNL     1     -11.351 -16.220 -54.051  1.00  0.00     0.071 C 
BRANCH  36  37
HETATM   37  O3  UNL     1     -11.238 -17.486 -54.340  1.00  0.00    -0.363 OA
ATOM     38  H3  UNL     1     -10.708 -17.705 -55.097  1.00  0.00     0.217 HD
ENDBRANCH  36  37
BRANCH  36  39
HETATM   39  C11 UNL     1     -10.517 -15.420 -54.927  1.00  0.00     0.179 C 
HETATM   40 CL1  UNL     1      -8.745 -15.857 -54.586  1.00  0.00    -0.123 Cl
ENDBRANCH  36  39
ENDBRANCH   9  36
BRANCH  18  41
HETATM   41  O7  UNL     1      -8.540 -16.373 -49.720  1.00  0.00    -0.391 OA
ATOM     42  H7  UNL     1      -8.029 -16.700 -48.989  1.00  0.00     0.210 HD
ENDBRANCH  18  41
BRANCH  10  43
HETATM   43  O4  UNL     1     -14.137 -16.233 -54.485  1.00  0.00    -0.359 OA
ATOM     44  H4  UNL     1     -13.888 -17.003 -54.983  1.00  0.00     0.217 HD
ENDBRANCH  10  43
BRANCH   1  45
HETATM   45  O1  UNL     1      -6.994 -15.259 -51.693  1.00  0.00    -0.388 OA
HETATM   46  C1  UNL     1      -5.678 -15.592 -51.524  1.00  0.00     0.202 C 
ENDBRANCH   1  45
TORSDOF 14
ENDMDL
MODEL 5
REMARK VINA RESULT: -7.544806372      3.812      8.161
REMARK  14 active torsions:
REMARK  status: ('A' for Active; 'I' for Inactive)
REMARK    1  A    between atoms: O1_2  and  C2_3 
REMARK    2  A    between atoms: C9_11  and  C10_12 
REMARK    3  A    between atoms: C10_12  and  O3_13 
REMARK    4  A    between atoms: C10_12  and  C11_15 
REMARK    5  A    between atoms: C12_17  and  O4_18 
REMARK    6  A    between atoms: C15_22  and  O5_23 
REMARK    7  A    between atoms: C17_26  and  C18_27 
REMARK    8  A    between atoms: C17_26  and  C23_32 
REMARK    9  A    between atoms: C18_27  and  C19_28 
REMARK   10  A    between atoms: C23_32  and  C24_33 
REMARK   11  A    between atoms: C25_34  and  C27_36 
REMARK   12  A    between atoms: C27_36  and  C28_37 
REMARK   13  A    between atoms: C28_37  and  C29_38 
REMARK   14  A    between atoms: C34_44  and  O7_45 
ROOT
HETATM    1  C2  UNL     1      -8.852 -17.671 -51.871  1.00  0.00     0.155 C 
HETATM    2  C3  UNL     1      -8.521 -17.381 -50.420  1.00  0.00     0.015 C 
HETATM    3  C4  UNL     1      -7.069 -17.089 -50.182  1.00  0.00     0.012 C 
HETATM    4  C5  UNL     1      -9.413 -16.223 -50.013  1.00  0.00     0.035 C 
HETATM    5  C6  UNL     1     -10.410 -16.006 -51.085  1.00  0.00     0.115 C 
HETATM    6  C7  UNL     1     -10.224 -14.693 -51.724  1.00  0.00     0.179 C 
HETATM    7  O2  UNL     1      -9.886 -14.485 -52.899  1.00  0.00    -0.291 OA
HETATM    8  C8  UNL     1     -10.484 -13.518 -50.870  1.00  0.00     0.037 A 
HETATM    9  C9  UNL     1      -9.651 -12.432 -50.952  1.00  0.00     0.042 A 
HETATM   10  C12 UNL     1     -10.073 -11.239 -50.324  1.00  0.00     0.088 A 
HETATM   11  C13 UNL     1     -11.308 -11.272 -49.662  1.00  0.00     0.006 A 
HETATM   12  C14 UNL     1     -11.752  -9.988 -48.995  1.00  0.00     0.054 C 
HETATM   13  C15 UNL     1     -12.092 -12.382 -49.603  1.00  0.00     0.082 A 
HETATM   14  C16 UNL     1     -11.720 -13.583 -50.209  1.00  0.00     0.007 A 
HETATM   15  C17 UNL     1     -12.565 -14.773 -50.083  1.00  0.00     0.059 C 
HETATM   16  C33 UNL     1     -11.782 -15.994 -50.507  1.00  0.00     0.159 C 
HETATM   17  O6  UNL     1     -12.285 -17.077 -50.386  1.00  0.00    -0.295 OA
HETATM   18  C34 UNL     1     -10.248 -17.150 -52.077  1.00  0.00     0.171 C 
ENDROOT
BRANCH  15  19
HETATM   19  C18 UNL     1     -13.728 -14.850 -51.021  1.00  0.00     0.050 C 
BRANCH  19  20
HETATM   20  C19 UNL     1     -13.628 -15.491 -52.298  1.00  0.00    -0.023 C 
HETATM   21  C20 UNL     1     -14.738 -15.700 -53.031  1.00  0.00    -0.091 C 
HETATM   22  C21 UNL     1     -14.702 -16.354 -54.356  1.00  0.00     0.042 C 
HETATM   23  C22 UNL     1     -16.053 -15.255 -52.496  1.00  0.00     0.042 C 
ENDBRANCH  19  20
ENDBRANCH  15  19
BRANCH  15  24
HETATM   24  C23 UNL     1     -12.871 -15.073 -48.633  1.00  0.00     0.050 C 
BRANCH  24  25
HETATM   25  C24 UNL     1     -14.265 -15.070 -48.212  1.00  0.00    -0.023 C 
HETATM   26  C25 UNL     1     -14.839 -16.167 -47.738  1.00  0.00    -0.087 C 
HETATM   27  C26 UNL     1     -14.133 -17.446 -47.607  1.00  0.00     0.043 C 
BRANCH  26  28
HETATM   28  C27 UNL     1     -16.266 -16.088 -47.353  1.00  0.00     0.037 C 
BRANCH  28  29
HETATM   29  C28 UNL     1     -16.623 -15.206 -46.231  1.00  0.00     0.031 C 
BRANCH  29  30
HETATM   30  C29 UNL     1     -17.452 -14.041 -46.457  1.00  0.00    -0.024 C 
HETATM   31  C30 UNL     1     -18.778 -14.067 -46.214  1.00  0.00    -0.091 C 
HETATM   32  C31 UNL     1     -19.412 -15.313 -45.705  1.00  0.00     0.042 C 
HETATM   33  C32 UNL     1     -19.616 -12.844 -46.462  1.00  0.00     0.042 C 
ENDBRANCH  29  30
ENDBRANCH  28  29
ENDBRANCH  26  28
ENDBRANCH  24  25
ENDBRANCH  15  24
BRANCH  13  34
HETATM   34  O5  UNL     1     -13.274 -12.269 -48.922  1.00  0.00    -0.359 OA
ATOM     35  H5  UNL     1     -13.570 -13.036 -48.446  1.00  0.00     0.217 HD
ENDBRANCH  13  34
BRANCH   9  36
HETATM   36  C10 UNL     1      -8.332 -12.403 -51.529  1.00  0.00     0.071 C 
BRANCH  36  37
HETATM   37  O3  UNL     1      -8.237 -11.945 -52.746  1.00  0.00    -0.363 OA
ATOM     38  H3  UNL     1      -8.451 -11.028 -52.874  1.00  0.00     0.217 HD
ENDBRANCH  36  37
BRANCH  36  39
HETATM   39  C11 UNL     1      -7.025 -12.770 -51.019  1.00  0.00     0.179 C 
HETATM   40 CL1  UNL     1      -6.077 -11.207 -50.694  1.00  0.00    -0.123 Cl
ENDBRANCH  36  39
ENDBRANCH   9  36
BRANCH  18  41
HETATM   41  O7  UNL     1     -10.557 -16.706 -53.324  1.00  0.00    -0.391 OA
ATOM     42  H7  UNL     1     -10.708 -17.369 -53.988  1.00  0.00     0.210 HD
ENDBRANCH  18  41
BRANCH  10  43
HETATM   43  O4  UNL     1      -9.407 -10.100 -50.310  1.00  0.00    -0.359 OA
ATOM     44  H4  UNL     1      -8.952  -9.714 -51.050  1.00  0.00     0.217 HD
ENDBRANCH  10  43
BRANCH   1  45
HETATM   45  O1  UNL     1      -7.932 -17.278 -52.771  1.00  0.00    -0.388 OA
HETATM   46  C1  UNL     1      -7.457 -18.203 -53.661  1.00  0.00     0.202 C 
ENDBRANCH   1  45
TORSDOF 14
ENDMDL
