MODEL 1
REMARK VINA RESULT: -7.474335949      0.000      0.000
REMARK  11 active torsions:
REMARK  status: ('A' for Active; 'I' for Inactive)
REMARK    1  A    between atoms: C2_2  and  C3_3 
REMARK    2  A    between atoms: C5_6  and  C6_7 
REMARK    3  A    between atoms: C7_8  and  C8_9 
REMARK    4  A    between atoms: C10_11  and  C11_12 
REMARK    5  A    between atoms: C12_13  and  O2_14 
REMARK    6  A    between atoms: C13_16  and  O3_17 
REMARK    7  A    between atoms: C16_20  and  C17_21 
REMARK    8  A    between atoms: C17_21  and  C21_25 
REMARK    9  A    between atoms: C18_22  and  C19_23 
REMARK   10  A    between atoms: C22_28  and  C23_29 
REMARK   11  A    between atoms: C33_42  and  O9_43 
ROOT
HETATM    1  C11 UNL     1      -9.871 -11.104 -50.302  1.00  0.00     0.011 A 
HETATM    2  C12 UNL     1      -9.591  -9.755 -50.133  1.00  0.00     0.110 A 
HETATM    3  C13 UNL     1      -8.319  -9.242 -50.238  1.00  0.00     0.102 A 
HETATM    4  C15 UNL     1      -7.322 -10.111 -50.515  1.00  0.00     0.053 A 
HETATM    5  C16 UNL     1      -7.561 -11.496 -50.691  1.00  0.00    -0.006 A 
HETATM    6  C22 UNL     1      -8.823 -12.019 -50.593  1.00  0.00     0.003 A 
ENDROOT
BRANCH   1   7
HETATM    7  C10 UNL     1     -11.208 -11.636 -50.320  1.00  0.00     0.021 C 
HETATM    8  C8  UNL     1     -11.893 -11.909 -49.220  1.00  0.00    -0.061 C 
HETATM    9  C9  UNL     1     -11.303 -11.567 -47.903  1.00  0.00     0.048 C 
BRANCH   8  10
HETATM   10  C7  UNL     1     -13.247 -12.438 -49.257  1.00  0.00     0.005 C 
HETATM   11  C6  UNL     1     -13.778 -13.674 -48.760  1.00  0.00     0.006 C 
BRANCH  11  12
HETATM   12  C5  UNL     1     -13.480 -15.022 -49.213  1.00  0.00     0.153 C 
HETATM   13  O1  UNL     1     -14.771 -15.530 -49.719  1.00  0.00    -0.364 OA
HETATM   14  C3  UNL     1     -14.475 -16.268 -50.876  1.00  0.00     0.101 C 
HETATM   15  C4  UNL     1     -15.655 -17.142 -51.194  1.00  0.00     0.053 C 
HETATM   16  C33 UNL     1     -13.287 -17.179 -50.600  1.00  0.00     0.157 C 
HETATM   17  C32 UNL     1     -13.294 -17.433 -49.122  1.00  0.00     0.046 C 
HETATM   18  C29 UNL     1     -12.885 -16.094 -48.430  1.00  0.00    -0.016 C 
HETATM   19  C30 UNL     1     -11.377 -16.143 -48.436  1.00  0.00     0.018 C 
HETATM   20  C31 UNL     1     -13.386 -16.260 -47.027  1.00  0.00     0.018 C 
BRANCH  14  21
HETATM   21  C2  UNL     1     -14.166 -15.430 -52.047  1.00  0.00     0.003 C 
HETATM   22  C1  UNL     1     -14.505 -15.793 -53.279  1.00  0.00     0.010 C 
ENDBRANCH  14  21
BRANCH  16  23
HETATM   23  O9  UNL     1     -13.414 -18.375 -51.326  1.00  0.00    -0.392 OA
ATOM     24  H9  UNL     1     -12.598 -18.862 -51.302  1.00  0.00     0.210 HD
ENDBRANCH  16  23
ENDBRANCH  11  12
ENDBRANCH   8  10
ENDBRANCH   1   7
BRANCH   2  25
HETATM   25  O2  UNL     1     -10.635  -8.887 -49.839  1.00  0.00    -0.357 OA
ATOM     26  H2  UNL     1     -10.505  -8.226 -49.169  1.00  0.00     0.217 HD
ENDBRANCH   2  25
BRANCH   6  27
HETATM   27  C23 UNL     1      -9.111 -13.417 -50.835  1.00  0.00     0.237 C 
HETATM   28  O6  UNL     1      -8.254 -14.219 -49.909  1.00  0.00    -0.302 OA
HETATM   29  C24 UNL     1      -8.201 -15.503 -50.369  1.00  0.00     0.275 C 
HETATM   30  O7  UNL     1      -7.939 -16.497 -49.624  1.00  0.00    -0.264 OA
HETATM   31  C25 UNL     1      -8.493 -15.498 -51.805  1.00  0.00     0.104 C 
HETATM   32  C26 UNL     1      -7.352 -16.008 -52.623  1.00  0.00     0.034 C 
HETATM   33  C27 UNL     1      -9.769 -16.297 -52.073  1.00  0.00     0.034 C 
HETATM   34  C28 UNL     1      -8.842 -14.072 -52.086  1.00  0.00     0.178 C 
HETATM   35  O8  UNL     1      -8.865 -13.651 -53.237  1.00  0.00    -0.293 OA
ENDBRANCH   6  27
BRANCH   3  36
HETATM   36  O3  UNL     1      -8.117  -7.873 -50.058  1.00  0.00    -0.353 OA
HETATM   37  C14 UNL     1      -6.840  -7.288 -50.074  1.00  0.00     0.210 C 
ENDBRANCH   3  36
BRANCH   5  38
HETATM   38  C17 UNL     1      -6.382 -12.269 -51.096  1.00  0.00     0.048 C 
HETATM   39  C18 UNL     1      -5.772 -12.923 -50.142  1.00  0.00    -0.008 C 
BRANCH  39  40
HETATM   40  C19 UNL     1      -4.599 -13.781 -50.125  1.00  0.00     0.024 C 
HETATM   41  C20 UNL     1      -4.813 -14.774 -48.957  1.00  0.00     0.009 C 
ENDBRANCH  39  40
BRANCH  38  42
HETATM   42  C21 UNL     1      -6.026 -12.420 -52.470  1.00  0.00     0.209 C 
HETATM   43  O4  UNL     1      -5.365 -13.421 -52.944  1.00  0.00    -0.644 OA
HETATM   44  O5  UNL     1      -6.379 -11.481 -53.468  1.00  0.00    -0.644 OA
ENDBRANCH  38  42
ENDBRANCH   5  38
TORSDOF 11
ENDMDL
MODEL 2
REMARK VINA RESULT: -7.462120578      1.761      2.688
REMARK  11 active torsions:
REMARK  status: ('A' for Active; 'I' for Inactive)
REMARK    1  A    between atoms: C2_2  and  C3_3 
REMARK    2  A    between atoms: C5_6  and  C6_7 
REMARK    3  A    between atoms: C7_8  and  C8_9 
REMARK    4  A    between atoms: C10_11  and  C11_12 
REMARK    5  A    between atoms: C12_13  and  O2_14 
REMARK    6  A    between atoms: C13_16  and  O3_17 
REMARK    7  A    between atoms: C16_20  and  C17_21 
REMARK    8  A    between atoms: C17_21  and  C21_25 
REMARK    9  A    between atoms: C18_22  and  C19_23 
REMARK   10  A    between atoms: C22_28  and  C23_29 
REMARK   11  A    between atoms: C33_42  and  O9_43 
ROOT
HETATM    1  C11 UNL     1      -9.339 -12.593 -50.545  1.00  0.00     0.011 A 
HETATM    2  C12 UNL     1      -8.597 -11.488 -50.939  1.00  0.00     0.110 A 
HETATM    3  C13 UNL     1      -7.230 -11.525 -51.080  1.00  0.00     0.102 A 
HETATM    4  C15 UNL     1      -6.611 -12.696 -50.813  1.00  0.00     0.053 A 
HETATM    5  C16 UNL     1      -7.327 -13.847 -50.403  1.00  0.00    -0.006 A 
HETATM    6  C22 UNL     1      -8.690 -13.825 -50.263  1.00  0.00     0.003 A 
ENDROOT
BRANCH   1   7
HETATM    7  C10 UNL     1     -10.778 -12.606 -50.514  1.00  0.00     0.021 C 
HETATM    8  C8  UNL     1     -11.485 -12.164 -49.486  1.00  0.00    -0.061 C 
HETATM    9  C9  UNL     1     -10.776 -11.536 -48.344  1.00  0.00     0.048 C 
BRANCH   8  10
HETATM   10  C7  UNL     1     -12.939 -12.178 -49.476  1.00  0.00     0.005 C 
HETATM   11  C6  UNL     1     -13.858 -13.060 -48.819  1.00  0.00     0.006 C 
BRANCH  11  12
HETATM   12  C5  UNL     1     -14.071 -14.476 -49.067  1.00  0.00     0.153 C 
HETATM   13  O1  UNL     1     -14.901 -14.511 -50.288  1.00  0.00    -0.364 OA
HETATM   14  C3  UNL     1     -14.423 -15.583 -51.057  1.00  0.00     0.101 C 
HETATM   15  C4  UNL     1     -15.464 -15.932 -52.082  1.00  0.00     0.053 C 
HETATM   16  C33 UNL     1     -14.233 -16.799 -50.160  1.00  0.00     0.157 C 
HETATM   17  C32 UNL     1     -15.187 -16.623 -49.016  1.00  0.00     0.046 C 
HETATM   18  C29 UNL     1     -14.639 -15.448 -48.146  1.00  0.00    -0.016 C 
HETATM   19  C30 UNL     1     -13.654 -16.124 -47.225  1.00  0.00     0.018 C 
HETATM   20  C31 UNL     1     -15.838 -15.009 -47.360  1.00  0.00     0.018 C 
BRANCH  14  21
HETATM   21  C2  UNL     1     -13.149 -15.297 -51.740  1.00  0.00     0.003 C 
HETATM   22  C1  UNL     1     -12.828 -15.872 -52.894  1.00  0.00     0.010 C 
ENDBRANCH  14  21
BRANCH  16  23
HETATM   23  O9  UNL     1     -14.502 -17.977 -50.876  1.00  0.00    -0.392 OA
ATOM     24  H9  UNL     1     -14.062 -17.957 -51.718  1.00  0.00     0.210 HD
ENDBRANCH  16  23
ENDBRANCH  11  12
ENDBRANCH   8  10
ENDBRANCH   1   7
BRANCH   2  25
HETATM   25  O2  UNL     1      -9.260 -10.295 -51.197  1.00  0.00    -0.357 OA
ATOM     26  H2  UNL     1      -9.616 -10.148 -52.066  1.00  0.00     0.217 HD
ENDBRANCH   2  25
BRANCH   6  27
HETATM   27  C23 UNL     1      -9.459 -15.001 -49.914  1.00  0.00     0.237 C 
HETATM   28  O6  UNL     1      -8.873 -15.563 -48.658  1.00  0.00    -0.302 OA
HETATM   29  C24 UNL     1      -9.298 -16.853 -48.520  1.00  0.00     0.275 C 
HETATM   30  O7  UNL     1      -9.347 -17.452 -47.402  1.00  0.00    -0.264 OA
HETATM   31  C25 UNL     1      -9.664 -17.369 -49.843  1.00  0.00     0.104 C 
HETATM   32  C26 UNL     1      -8.826 -18.535 -50.254  1.00  0.00     0.034 C 
HETATM   33  C27 UNL     1     -11.152 -17.720 -49.864  1.00  0.00     0.034 C 
HETATM   34  C28 UNL     1      -9.516 -16.179 -50.735  1.00  0.00     0.178 C 
HETATM   35  O8  UNL     1      -9.467 -16.314 -51.952  1.00  0.00    -0.293 OA
ENDBRANCH   6  27
BRANCH   3  36
HETATM   36  O3  UNL     1      -6.553 -10.373 -51.484  1.00  0.00    -0.353 OA
HETATM   37  C14 UNL     1      -5.785  -9.596 -50.600  1.00  0.00     0.210 C 
ENDBRANCH   3  36
BRANCH   5  38
HETATM   38  C17 UNL     1      -6.509 -15.055 -50.267  1.00  0.00     0.048 C 
HETATM   39  C18 UNL     1      -6.431 -15.816 -51.328  1.00  0.00    -0.008 C 
BRANCH  39  40
HETATM   40  C19 UNL     1      -5.744 -17.066 -51.601  1.00  0.00     0.024 C 
HETATM   41  C20 UNL     1      -6.324 -17.590 -52.937  1.00  0.00     0.009 C 
ENDBRANCH  39  40
BRANCH  38  42
HETATM   42  C21 UNL     1      -5.722 -15.297 -49.100  1.00  0.00     0.209 C 
HETATM   43  O4  UNL     1      -6.041 -16.129 -48.168  1.00  0.00    -0.644 OA
HETATM   44  O5  UNL     1      -4.488 -14.650 -48.852  1.00  0.00    -0.644 OA
ENDBRANCH  38  42
ENDBRANCH   5  38
TORSDOF 11
ENDMDL
MODEL 3
REMARK VINA RESULT: -7.364230911      0.866      1.452
REMARK  11 active torsions:
REMARK  status: ('A' for Active; 'I' for Inactive)
REMARK    1  A    between atoms: C2_2  and  C3_3 
REMARK    2  A    between atoms: C5_6  and  C6_7 
REMARK    3  A    between atoms: C7_8  and  C8_9 
REMARK    4  A    between atoms: C10_11  and  C11_12 
REMARK    5  A    between atoms: C12_13  and  O2_14 
REMARK    6  A    between atoms: C13_16  and  O3_17 
REMARK    7  A    between atoms: C16_20  and  C17_21 
REMARK    8  A    between atoms: C17_21  and  C21_25 
REMARK    9  A    between atoms: C18_22  and  C19_23 
REMARK   10  A    between atoms: C22_28  and  C23_29 
REMARK   11  A    between atoms: C33_42  and  O9_43 
ROOT
HETATM    1  C11 UNL     1     -10.034 -11.198 -50.270  1.00  0.00     0.011 A 
HETATM    2  C12 UNL     1      -9.737  -9.849 -50.130  1.00  0.00     0.110 A 
HETATM    3  C13 UNL     1      -8.468  -9.348 -50.298  1.00  0.00     0.102 A 
HETATM    4  C15 UNL     1      -7.490 -10.227 -50.607  1.00  0.00     0.053 A 
HETATM    5  C16 UNL     1      -7.746 -11.612 -50.754  1.00  0.00    -0.006 A 
HETATM    6  C22 UNL     1      -9.006 -12.125 -50.595  1.00  0.00     0.003 A 
ENDROOT
BRANCH   1   7
HETATM    7  C10 UNL     1     -11.374 -11.720 -50.222  1.00  0.00     0.021 C 
HETATM    8  C8  UNL     1     -12.025 -11.942 -49.091  1.00  0.00    -0.061 C 
HETATM    9  C9  UNL     1     -11.391 -11.549 -47.809  1.00  0.00     0.048 C 
BRANCH   8  10
HETATM   10  C7  UNL     1     -13.383 -12.462 -49.062  1.00  0.00     0.005 C 
HETATM   11  C6  UNL     1     -13.897 -13.693 -48.538  1.00  0.00     0.006 C 
BRANCH  11  12
HETATM   12  C5  UNL     1     -13.630 -15.044 -49.001  1.00  0.00     0.153 C 
HETATM   13  O1  UNL     1     -14.899 -15.473 -49.623  1.00  0.00    -0.364 OA
HETATM   14  C3  UNL     1     -14.547 -16.199 -50.771  1.00  0.00     0.101 C 
HETATM   15  C4  UNL     1     -15.739 -17.004 -51.207  1.00  0.00     0.053 C 
HETATM   16  C33 UNL     1     -13.431 -17.176 -50.426  1.00  0.00     0.157 C 
HETATM   17  C32 UNL     1     -13.571 -17.463 -48.960  1.00  0.00     0.046 C 
HETATM   18  C29 UNL     1     -13.154 -16.163 -48.203  1.00  0.00    -0.016 C 
HETATM   19  C30 UNL     1     -11.656 -16.289 -48.089  1.00  0.00     0.018 C 
HETATM   20  C31 UNL     1     -13.776 -16.335 -46.849  1.00  0.00     0.018 C 
BRANCH  14  21
HETATM   21  C2  UNL     1     -14.102 -15.351 -51.891  1.00  0.00     0.003 C 
HETATM   22  C1  UNL     1     -14.356 -15.670 -53.156  1.00  0.00     0.010 C 
ENDBRANCH  14  21
BRANCH  16  23
HETATM   23  O9  UNL     1     -13.558 -18.347 -51.192  1.00  0.00    -0.392 OA
ATOM     24  H9  UNL     1     -14.064 -18.173 -51.977  1.00  0.00     0.210 HD
ENDBRANCH  16  23
ENDBRANCH  11  12
ENDBRANCH   8  10
ENDBRANCH   1   7
BRANCH   2  25
HETATM   25  O2  UNL     1     -10.761  -8.970 -49.803  1.00  0.00    -0.357 OA
ATOM     26  H2  UNL     1     -10.898  -8.204 -50.348  1.00  0.00     0.217 HD
ENDBRANCH   2  25
BRANCH   6  27
HETATM   27  C23 UNL     1      -9.314 -13.523 -50.807  1.00  0.00     0.237 C 
HETATM   28  O6  UNL     1      -8.482 -14.315 -49.849  1.00  0.00    -0.302 OA
HETATM   29  C24 UNL     1      -8.445 -15.611 -50.276  1.00  0.00     0.275 C 
HETATM   30  O7  UNL     1      -8.209 -16.591 -49.503  1.00  0.00    -0.264 OA
HETATM   31  C25 UNL     1      -8.718 -15.638 -51.716  1.00  0.00     0.104 C 
HETATM   32  C26 UNL     1      -7.575 -16.187 -52.505  1.00  0.00     0.034 C 
HETATM   33  C27 UNL     1     -10.003 -16.423 -51.981  1.00  0.00     0.034 C 
HETATM   34  C28 UNL     1      -9.039 -14.214 -52.037  1.00  0.00     0.178 C 
HETATM   35  O8  UNL     1      -9.040 -13.821 -53.197  1.00  0.00    -0.293 OA
ENDBRANCH   6  27
BRANCH   3  36
HETATM   36  O3  UNL     1      -8.249  -7.978 -50.144  1.00  0.00    -0.353 OA
HETATM   37  C14 UNL     1      -6.966  -7.405 -50.195  1.00  0.00     0.210 C 
ENDBRANCH   3  36
BRANCH   5  38
HETATM   38  C17 UNL     1      -6.592 -12.399 -51.201  1.00  0.00     0.048 C 
HETATM   39  C18 UNL     1      -6.386 -12.430 -52.492  1.00  0.00    -0.008 C 
BRANCH  39  40
HETATM   40  C19 UNL     1      -5.382 -13.078 -53.318  1.00  0.00     0.024 C 
HETATM   41  C20 UNL     1      -4.314 -11.998 -53.618  1.00  0.00     0.009 C 
ENDBRANCH  39  40
BRANCH  38  42
HETATM   42  C21 UNL     1      -5.665 -12.959 -50.270  1.00  0.00     0.209 C 
HETATM   43  O4  UNL     1      -4.924 -12.265 -49.475  1.00  0.00    -0.644 OA
HETATM   44  O5  UNL     1      -5.474 -14.352 -50.114  1.00  0.00    -0.644 OA
ENDBRANCH  38  42
ENDBRANCH   5  38
TORSDOF 11
ENDMDL
MODEL 4
REMARK VINA RESULT: -7.269594654      0.941      2.184
REMARK  11 active torsions:
REMARK  status: ('A' for Active; 'I' for Inactive)
REMARK    1  A    between atoms: C2_2  and  C3_3 
REMARK    2  A    between atoms: C5_6  and  C6_7 
REMARK    3  A    between atoms: C7_8  and  C8_9 
REMARK    4  A    between atoms: C10_11  and  C11_12 
REMARK    5  A    between atoms: C12_13  and  O2_14 
REMARK    6  A    between atoms: C13_16  and  O3_17 
REMARK    7  A    between atoms: C16_20  and  C17_21 
REMARK    8  A    between atoms: C17_21  and  C21_25 
REMARK    9  A    between atoms: C18_22  and  C19_23 
REMARK   10  A    between atoms: C22_28  and  C23_29 
REMARK   11  A    between atoms: C33_42  and  O9_43 
ROOT
HETATM    1  C11 UNL     1      -9.598 -10.692 -50.303  1.00  0.00     0.011 A 
HETATM    2  C12 UNL     1      -9.302  -9.366 -50.023  1.00  0.00     0.110 A 
HETATM    3  C13 UNL     1      -8.021  -8.867 -50.062  1.00  0.00     0.102 A 
HETATM    4  C15 UNL     1      -7.031  -9.728 -50.387  1.00  0.00     0.053 A 
HETATM    5  C16 UNL     1      -7.286 -11.090 -50.676  1.00  0.00    -0.006 A 
HETATM    6  C22 UNL     1      -8.558 -11.599 -50.644  1.00  0.00     0.003 A 
ENDROOT
BRANCH   1   7
HETATM    7  C10 UNL     1     -10.942 -11.200 -50.389  1.00  0.00     0.021 C 
HETATM    8  C8  UNL     1     -11.668 -11.512 -49.326  1.00  0.00    -0.061 C 
HETATM    9  C9  UNL     1     -11.116 -11.243 -47.976  1.00  0.00     0.048 C 
BRANCH   8  10
HETATM   10  C7  UNL     1     -13.028 -12.016 -49.432  1.00  0.00     0.005 C 
HETATM   11  C6  UNL     1     -13.615 -13.224 -48.933  1.00  0.00     0.006 C 
BRANCH  11  12
HETATM   12  C5  UNL     1     -13.319 -14.592 -49.325  1.00  0.00     0.153 C 
HETATM   13  O1  UNL     1     -12.128 -14.950 -48.528  1.00  0.00    -0.364 OA
HETATM   14  C3  UNL     1     -12.314 -16.281 -48.124  1.00  0.00     0.101 C 
HETATM   15  C4  UNL     1     -10.986 -16.831 -47.683  1.00  0.00     0.053 C 
HETATM   16  C33 UNL     1     -12.783 -17.107 -49.314  1.00  0.00     0.157 C 
HETATM   17  C32 UNL     1     -12.267 -16.405 -50.535  1.00  0.00     0.046 C 
HETATM   18  C29 UNL     1     -13.084 -15.081 -50.675  1.00  0.00    -0.016 C 
HETATM   19  C30 UNL     1     -14.314 -15.508 -51.435  1.00  0.00     0.018 C 
HETATM   20  C31 UNL     1     -12.220 -14.231 -51.557  1.00  0.00     0.018 C 
BRANCH  14  21
HETATM   21  C2  UNL     1     -13.287 -16.435 -47.029  1.00  0.00     0.003 C 
HETATM   22  C1  UNL     1     -14.546 -16.793 -47.255  1.00  0.00     0.010 C 
ENDBRANCH  14  21
BRANCH  16  23
HETATM   23  O9  UNL     1     -12.279 -18.415 -49.225  1.00  0.00    -0.392 OA
ATOM     24  H9  UNL     1     -12.456 -18.777 -48.364  1.00  0.00     0.210 HD
ENDBRANCH  16  23
ENDBRANCH  11  12
ENDBRANCH   8  10
ENDBRANCH   1   7
BRANCH   2  25
HETATM   25  O2  UNL     1     -10.339  -8.507 -49.683  1.00  0.00    -0.357 OA
ATOM     26  H2  UNL     1     -10.126  -7.640 -49.355  1.00  0.00     0.217 HD
ENDBRANCH   2  25
BRANCH   6  27
HETATM   27  C23 UNL     1      -8.861 -12.968 -51.002  1.00  0.00     0.237 C 
HETATM   28  O6  UNL     1      -8.154 -13.854 -50.026  1.00  0.00    -0.302 OA
HETATM   29  C24 UNL     1      -8.089 -15.112 -50.550  1.00  0.00     0.275 C 
HETATM   30  O7  UNL     1      -7.956 -16.155 -49.838  1.00  0.00    -0.264 OA
HETATM   31  C25 UNL     1      -8.198 -15.018 -52.009  1.00  0.00     0.104 C 
HETATM   32  C26 UNL     1      -6.983 -15.530 -52.708  1.00  0.00     0.034 C 
HETATM   33  C27 UNL     1      -9.457 -15.749 -52.477  1.00  0.00     0.034 C 
HETATM   34  C28 UNL     1      -8.460 -13.566 -52.246  1.00  0.00     0.178 C 
HETATM   35  O8  UNL     1      -8.325 -13.083 -53.364  1.00  0.00    -0.293 OA
ENDBRANCH   6  27
BRANCH   3  36
HETATM   36  O3  UNL     1      -7.803  -7.520 -49.771  1.00  0.00    -0.353 OA
HETATM   37  C14 UNL     1      -6.636  -6.840 -50.159  1.00  0.00     0.210 C 
ENDBRANCH   3  36
BRANCH   5  38
HETATM   38  C17 UNL     1      -6.111 -11.848 -51.117  1.00  0.00     0.048 C 
HETATM   39  C18 UNL     1      -5.592 -12.664 -50.237  1.00  0.00    -0.008 C 
BRANCH  39  40
HETATM   40  C19 UNL     1      -4.456 -13.567 -50.275  1.00  0.00     0.024 C 
HETATM   41  C20 UNL     1      -4.631 -14.525 -49.071  1.00  0.00     0.009 C 
ENDBRANCH  39  40
BRANCH  38  42
HETATM   42  C21 UNL     1      -5.665 -11.810 -52.473  1.00  0.00     0.209 C 
HETATM   43  O4  UNL     1      -5.836 -10.809 -53.267  1.00  0.00    -0.644 OA
HETATM   44  O5  UNL     1      -4.966 -12.876 -53.087  1.00  0.00    -0.644 OA
ENDBRANCH  38  42
ENDBRANCH   5  38
TORSDOF 11
ENDMDL
MODEL 5
REMARK VINA RESULT: -7.211540127      3.212      9.239
REMARK  11 active torsions:
REMARK  status: ('A' for Active; 'I' for Inactive)
REMARK    1  A    between atoms: C2_2  and  C3_3 
REMARK    2  A    between atoms: C5_6  and  C6_7 
REMARK    3  A    between atoms: C7_8  and  C8_9 
REMARK    4  A    between atoms: C10_11  and  C11_12 
REMARK    5  A    between atoms: C12_13  and  O2_14 
REMARK    6  A    between atoms: C13_16  and  O3_17 
REMARK    7  A    between atoms: C16_20  and  C17_21 
REMARK    8  A    between atoms: C17_21  and  C21_25 
REMARK    9  A    between atoms: C18_22  and  C19_23 
REMARK   10  A    between atoms: C22_28  and  C23_29 
REMARK   11  A    between atoms: C33_42  and  O9_43 
ROOT
HETATM    1  C11 UNL     1     -14.788 -16.084 -47.695  1.00  0.00     0.011 A 
HETATM    2  C12 UNL     1     -15.420 -14.969 -47.164  1.00  0.00     0.110 A 
HETATM    3  C13 UNL     1     -16.726 -14.992 -46.733  1.00  0.00     0.102 A 
HETATM    4  C15 UNL     1     -17.396 -16.160 -46.847  1.00  0.00     0.053 A 
HETATM    5  C16 UNL     1     -16.792 -17.321 -47.388  1.00  0.00    -0.006 A 
HETATM    6  C22 UNL     1     -15.491 -17.314 -47.817  1.00  0.00     0.003 A 
ENDROOT
BRANCH   1   7
HETATM    7  C10 UNL     1     -13.389 -16.112 -48.034  1.00  0.00     0.021 C 
HETATM    8  C8  UNL     1     -12.915 -15.675 -49.191  1.00  0.00    -0.061 C 
HETATM    9  C9  UNL     1     -13.847 -15.039 -50.154  1.00  0.00     0.048 C 
BRANCH   8  10
HETATM   10  C7  UNL     1     -11.497 -15.702 -49.513  1.00  0.00     0.005 C 
HETATM   11  C6  UNL     1     -10.461 -14.753 -49.235  1.00  0.00     0.006 C 
BRANCH  11  12
HETATM   12  C5  UNL     1     -10.321 -13.402 -49.753  1.00  0.00     0.153 C 
HETATM   13  O1  UNL     1      -8.863 -13.169 -49.774  1.00  0.00    -0.364 OA
HETATM   14  C3  UNL     1      -8.596 -12.461 -50.955  1.00  0.00     0.101 C 
HETATM   15  C4  UNL     1      -7.235 -11.836 -50.836  1.00  0.00     0.053 C 
HETATM   16  C33 UNL     1      -9.609 -11.334 -51.105  1.00  0.00     0.157 C 
HETATM   17  C32 UNL     1     -10.062 -10.997 -49.716  1.00  0.00     0.046 C 
HETATM   18  C29 UNL     1     -10.932 -12.195 -49.220  1.00  0.00    -0.016 C 
HETATM   19  C30 UNL     1     -12.307 -11.874 -49.751  1.00  0.00     0.018 C 
HETATM   20  C31 UNL     1     -10.922 -12.039 -47.729  1.00  0.00     0.018 C 
BRANCH  14  21
HETATM   21  C2  UNL     1      -8.638 -13.297 -52.167  1.00  0.00     0.003 C 
HETATM   22  C1  UNL     1      -7.791 -14.304 -52.354  1.00  0.00     0.010 C 
ENDBRANCH  14  21
BRANCH  16  23
HETATM   23  O9  UNL     1      -9.014 -10.227 -51.733  1.00  0.00    -0.392 OA
ATOM     24  H9  UNL     1      -9.682  -9.662 -52.104  1.00  0.00     0.210 HD
ENDBRANCH  16  23
ENDBRANCH  11  12
ENDBRANCH   8  10
ENDBRANCH   1   7
BRANCH   2  25
HETATM   25  O2  UNL     1     -14.710 -13.780 -47.067  1.00  0.00    -0.357 OA
ATOM     26  H2  UNL     1     -15.167 -12.995 -46.787  1.00  0.00     0.217 HD
ENDBRANCH   2  25
BRANCH   6  27
HETATM   27  C23 UNL     1     -14.823 -18.499 -48.310  1.00  0.00     0.237 C 
HETATM   28  O6  UNL     1     -13.471 -18.550 -47.673  1.00  0.00    -0.302 OA
HETATM   29  C24 UNL     1     -12.685 -19.403 -48.391  1.00  0.00     0.275 C 
HETATM   30  O7  UNL     1     -11.670 -19.989 -47.903  1.00  0.00    -0.264 OA
HETATM   31  C25 UNL     1     -13.218 -19.497 -49.753  1.00  0.00     0.104 C 
HETATM   32  C26 UNL     1     -12.250 -19.016 -50.783  1.00  0.00     0.034 C 
HETATM   33  C27 UNL     1     -13.658 -20.935 -50.034  1.00  0.00     0.034 C 
HETATM   34  C28 UNL     1     -14.477 -18.694 -49.691  1.00  0.00     0.178 C 
HETATM   35  O8  UNL     1     -15.032 -18.323 -50.719  1.00  0.00    -0.293 OA
ENDBRANCH   6  27
BRANCH   3  36
HETATM   36  O3  UNL     1     -17.292 -13.830 -46.206  1.00  0.00    -0.353 OA
HETATM   37  C14 UNL     1     -18.630 -13.467 -46.437  1.00  0.00     0.210 C 
ENDBRANCH   3  36
BRANCH   5  38
HETATM   38  C17 UNL     1     -17.629 -18.523 -47.331  1.00  0.00     0.048 C 
HETATM   39  C18 UNL     1     -18.371 -18.654 -46.262  1.00  0.00    -0.008 C 
BRANCH  39  40
HETATM   40  C19 UNL     1     -19.312 -19.672 -45.829  1.00  0.00     0.024 C 
HETATM   41  C20 UNL     1     -19.045 -19.887 -44.319  1.00  0.00     0.009 C 
ENDBRANCH  39  40
BRANCH  38  42
HETATM   42  C21 UNL     1     -17.741 -19.408 -48.446  1.00  0.00     0.209 C 
HETATM   43  O4  UNL     1     -18.232 -19.076 -49.591  1.00  0.00    -0.644 OA
HETATM   44  O5  UNL     1     -17.306 -20.754 -48.411  1.00  0.00    -0.644 OA
ENDBRANCH  38  42
ENDBRANCH   5  38
TORSDOF 11
ENDMDL
