MODEL 1
REMARK VINA RESULT: -8.788248227      0.000      0.000
REMARK  14 active torsions:
REMARK  status: ('A' for Active; 'I' for Inactive)
REMARK    1  A    between atoms: C4_4  and  C5_5 
REMARK    2  A    between atoms: C5_5  and  C6_6 
REMARK    3  A    between atoms: C8_8  and  C9_9 
REMARK    4  A    between atoms: C12_13  and  C13_14 
REMARK    5  A    between atoms: C13_14  and  C14_15 
REMARK    6  A    between atoms: C14_15  and  O2_16 
REMARK    7  A    between atoms: C14_15  and  C15_18 
REMARK    8  A    between atoms: C18_23  and  C19_24 
REMARK    9  A    between atoms: C21_27  and  O6_28 
REMARK   10  A    between atoms: C24_32  and  C26_34 
REMARK   11  A    between atoms: C26_34  and  C27_35 
REMARK   12  A    between atoms: C27_35  and  C28_36 
REMARK   13  A    between atoms: C28_36  and  O8_38 
REMARK   14  A    between atoms: O8_38  and  C29_39 
ROOT
HETATM    1  C15 UNL     1     -17.402 -14.642 -46.590  1.00  0.00    -0.035 C 
HETATM    2  C16 UNL     1     -17.945 -13.435 -46.766  1.00  0.00     0.088 C 
HETATM    3  C17 UNL     1     -19.247 -13.020 -46.284  1.00  0.00     0.283 C 
HETATM    4  O3  UNL     1     -19.703 -11.842 -46.479  1.00  0.00    -0.260 OA
HETATM    5  O4  UNL     1     -19.971 -13.943 -45.608  1.00  0.00    -0.307 OA
HETATM    6  C18 UNL     1     -19.699 -15.334 -46.072  1.00  0.00     0.180 C 
HETATM    7  C24 UNL     1     -18.247 -15.573 -45.815  1.00  0.00     0.014 C 
HETATM    8  C25 UNL     1     -18.049 -15.097 -44.349  1.00  0.00     0.023 C 
ENDROOT
BRANCH   1   9
HETATM    9  C14 UNL     1     -16.090 -14.790 -47.189  1.00  0.00     0.150 C 
BRANCH   9  10
HETATM   10  C13 UNL     1     -15.402 -13.847 -48.014  1.00  0.00     0.069 C 
BRANCH  10  11
HETATM   11  C12 UNL     1     -14.836 -14.020 -49.328  1.00  0.00     0.133 C 
HETATM   12  O1  UNL     1     -14.000 -12.889 -49.558  1.00  0.00    -0.379 OA
HETATM   13  C8  UNL     1     -12.830 -12.855 -48.905  1.00  0.00     0.125 C 
HETATM   14  C7  UNL     1     -11.926 -14.061 -49.175  1.00  0.00     0.038 C 
HETATM   15  C6  UNL     1     -12.770 -15.264 -48.839  1.00  0.00     0.002 C 
HETATM   16  C30 UNL     1     -14.010 -15.187 -49.684  1.00  0.00    -0.017 C 
HETATM   17  C31 UNL     1     -13.541 -14.941 -51.125  1.00  0.00     0.018 C 
HETATM   18  C32 UNL     1     -14.708 -16.519 -49.775  1.00  0.00     0.018 C 
BRANCH  13  19
HETATM   19  C9  UNL     1     -12.109 -11.568 -49.304  1.00  0.00     0.006 C 
HETATM   20  C10 UNL     1     -11.817 -10.738 -48.043  1.00  0.00     0.012 C 
HETATM   21  C11 UNL     1     -10.804 -11.796 -49.982  1.00  0.00     0.012 C 
ENDBRANCH  13  19
BRANCH  15  22
HETATM   22  C5  UNL     1     -12.046 -16.569 -48.997  1.00  0.00     0.033 C 
BRANCH  22  23
HETATM   23  C4  UNL     1     -11.192 -16.816 -47.816  1.00  0.00    -0.024 C 
HETATM   24  C2  UNL     1      -9.869 -16.872 -47.895  1.00  0.00    -0.091 C 
HETATM   25  C1  UNL     1      -9.155 -16.686 -49.198  1.00  0.00     0.042 C 
HETATM   26  C3  UNL     1      -9.073 -17.125 -46.665  1.00  0.00     0.042 C 
ENDBRANCH  22  23
ENDBRANCH  15  22
ENDBRANCH  10  11
ENDBRANCH   9  10
BRANCH   9  27
HETATM   27  O2  UNL     1     -15.241 -15.265 -46.186  1.00  0.00    -0.391 OA
ATOM     28  H2  UNL     1     -15.731 -15.778 -45.556  1.00  0.00     0.210 HD
ENDBRANCH   9  27
ENDBRANCH   1   9
BRANCH   7  29
HETATM   29  C26 UNL     1     -17.945 -16.991 -45.830  1.00  0.00     0.026 C 
BRANCH  29  30
HETATM   30  C27 UNL     1     -17.894 -17.783 -47.085  1.00  0.00     0.113 C 
BRANCH  30  31
HETATM   31  C28 UNL     1     -18.585 -19.120 -46.843  1.00  0.00     0.267 C 
HETATM   32  O7  UNL     1     -18.278 -19.851 -45.878  1.00  0.00    -0.265 OA
BRANCH  31  33
HETATM   33  O8  UNL     1     -19.573 -19.536 -47.711  1.00  0.00    -0.230 OA
BRANCH  33  34
HETATM   34  C29 UNL     1     -20.920 -19.521 -47.406  1.00  0.00     0.380 C 
HETATM   35  N1  UNL     1     -21.846 -18.584 -47.933  1.00  0.00    -0.032 NA
HETATM   36  O9  UNL     1     -21.355 -20.391 -46.613  1.00  0.00    -0.242 OA
ENDBRANCH  33  34
ENDBRANCH  31  33
ENDBRANCH  30  31
ENDBRANCH  29  30
ENDBRANCH   7  29
BRANCH   6  37
HETATM   37  C19 UNL     1     -20.728 -16.124 -45.451  1.00  0.00     0.005 A 
HETATM   38  C20 UNL     1     -20.793 -17.256 -44.736  1.00  0.00     0.155 A 
HETATM   39  O5  UNL     1     -22.046 -17.511 -44.333  1.00  0.00    -0.299 OA
HETATM   40  C21 UNL     1     -22.806 -16.566 -44.769  1.00  0.00     0.189 A 
HETATM   41  C22 UNL     1     -22.066 -15.670 -45.468  1.00  0.00     0.007 A 
HETATM   42  C23 UNL     1     -22.581 -14.437 -46.132  1.00  0.00     0.054 C 
BRANCH  40  43
HETATM   43  O6  UNL     1     -24.174 -16.500 -44.542  1.00  0.00    -0.340 OA
ATOM     44  H6  UNL     1     -24.582 -15.910 -43.919  1.00  0.00     0.220 HD
ENDBRANCH  40  43
ENDBRANCH   6  37
TORSDOF 14
ENDMDL
MODEL 2
REMARK VINA RESULT: -8.626958562      6.895     12.607
REMARK  14 active torsions:
REMARK  status: ('A' for Active; 'I' for Inactive)
REMARK    1  A    between atoms: C4_4  and  C5_5 
REMARK    2  A    between atoms: C5_5  and  C6_6 
REMARK    3  A    between atoms: C8_8  and  C9_9 
REMARK    4  A    between atoms: C12_13  and  C13_14 
REMARK    5  A    between atoms: C13_14  and  C14_15 
REMARK    6  A    between atoms: C14_15  and  O2_16 
REMARK    7  A    between atoms: C14_15  and  C15_18 
REMARK    8  A    between atoms: C18_23  and  C19_24 
REMARK    9  A    between atoms: C21_27  and  O6_28 
REMARK   10  A    between atoms: C24_32  and  C26_34 
REMARK   11  A    between atoms: C26_34  and  C27_35 
REMARK   12  A    between atoms: C27_35  and  C28_36 
REMARK   13  A    between atoms: C28_36  and  O8_38 
REMARK   14  A    between atoms: O8_38  and  C29_39 
ROOT
HETATM    1  C15 UNL     1      -7.433 -11.969 -52.836  1.00  0.00    -0.035 C 
HETATM    2  C16 UNL     1      -7.786 -11.465 -54.021  1.00  0.00     0.088 C 
HETATM    3  C17 UNL     1      -7.356 -10.188 -54.554  1.00  0.00     0.283 C 
HETATM    4  O3  UNL     1      -7.724  -9.769 -55.703  1.00  0.00    -0.260 OA
HETATM    5  O4  UNL     1      -6.532  -9.447 -53.775  1.00  0.00    -0.307 OA
HETATM    6  C18 UNL     1      -6.778  -9.661 -52.319  1.00  0.00     0.180 C 
HETATM    7  C24 UNL     1      -6.510 -11.109 -52.069  1.00  0.00     0.014 C 
HETATM    8  C25 UNL     1      -5.139 -11.354 -52.758  1.00  0.00     0.023 C 
ENDROOT
BRANCH   1   9
HETATM    9  C14 UNL     1      -8.022 -13.263 -52.549  1.00  0.00     0.150 C 
BRANCH   9  10
HETATM   10  C13 UNL     1      -9.322 -13.524 -52.014  1.00  0.00     0.069 C 
BRANCH  10  11
HETATM   11  C12 UNL     1      -9.700 -13.938 -50.685  1.00  0.00     0.133 C 
HETATM   12  O1  UNL     1      -9.696 -12.761 -49.882  1.00  0.00    -0.379 OA
HETATM   13  C8  UNL     1     -10.710 -11.902 -50.055  1.00  0.00     0.125 C 
HETATM   14  C7  UNL     1     -12.095 -12.516 -49.830  1.00  0.00     0.038 C 
HETATM   15  C6  UNL     1     -12.148 -13.707 -50.751  1.00  0.00     0.002 C 
HETATM   16  C30 UNL     1     -10.988 -14.593 -50.400  1.00  0.00    -0.017 C 
HETATM   17  C31 UNL     1     -11.030 -14.783 -48.877  1.00  0.00     0.018 C 
HETATM   18  C32 UNL     1     -11.175 -15.994 -50.923  1.00  0.00     0.018 C 
BRANCH  13  19
HETATM   19  C9  UNL     1     -10.500 -10.731 -49.096  1.00  0.00     0.006 C 
HETATM   20  C10 UNL     1     -11.056  -9.448 -49.733  1.00  0.00     0.012 C 
HETATM   21  C11 UNL     1     -11.189 -10.896 -47.787  1.00  0.00     0.012 C 
ENDBRANCH  13  19
BRANCH  15  22
HETATM   22  C5  UNL     1     -13.461 -14.435 -50.716  1.00  0.00     0.033 C 
BRANCH  22  23
HETATM   23  C4  UNL     1     -14.298 -13.910 -49.617  1.00  0.00    -0.024 C 
HETATM   24  C2  UNL     1     -14.777 -14.689 -48.655  1.00  0.00    -0.091 C 
HETATM   25  C1  UNL     1     -14.495 -16.159 -48.626  1.00  0.00     0.042 C 
HETATM   26  C3  UNL     1     -15.613 -14.092 -47.580  1.00  0.00     0.042 C 
ENDBRANCH  22  23
ENDBRANCH  15  22
ENDBRANCH  10  11
ENDBRANCH   9  10
BRANCH   9  27
HETATM   27  O2  UNL     1      -7.787 -14.069 -53.665  1.00  0.00    -0.391 OA
ATOM     28  H2  UNL     1      -7.381 -14.886 -53.402  1.00  0.00     0.210 HD
ENDBRANCH   9  27
ENDBRANCH   1   9
BRANCH   7  29
HETATM   29  C26 UNL     1      -6.310 -11.362 -50.656  1.00  0.00     0.026 C 
BRANCH  29  30
HETATM   30  C27 UNL     1      -5.027 -11.871 -50.109  1.00  0.00     0.113 C 
BRANCH  30  31
HETATM   31  C28 UNL     1      -5.100 -13.391 -50.033  1.00  0.00     0.267 C 
HETATM   32  O7  UNL     1      -4.102 -14.107 -50.262  1.00  0.00    -0.265 OA
BRANCH  31  33
HETATM   33  O8  UNL     1      -6.295 -13.994 -49.705  1.00  0.00    -0.230 OA
BRANCH  33  34
HETATM   34  C29 UNL     1      -6.460 -15.360 -49.586  1.00  0.00     0.380 C 
HETATM   35  N1  UNL     1      -6.260 -16.086 -48.383  1.00  0.00    -0.032 NA
HETATM   36  O9  UNL     1      -6.809 -16.004 -50.605  1.00  0.00    -0.242 OA
ENDBRANCH  33  34
ENDBRANCH  31  33
ENDBRANCH  30  31
ENDBRANCH  29  30
ENDBRANCH   7  29
BRANCH   6  37
HETATM   37  C19 UNL     1      -6.026  -8.619 -51.674  1.00  0.00     0.005 A 
HETATM   38  C20 UNL     1      -4.860  -7.988 -51.874  1.00  0.00     0.155 A 
HETATM   39  O5  UNL     1      -4.670  -7.012 -50.974  1.00  0.00    -0.299 OA
HETATM   40  C21 UNL     1      -5.690  -6.989 -50.187  1.00  0.00     0.189 A 
HETATM   41  C22 UNL     1      -6.572  -7.952 -50.555  1.00  0.00     0.007 A 
HETATM   42  C23 UNL     1      -7.876  -8.244 -49.890  1.00  0.00     0.054 C 
BRANCH  40  43
HETATM   43  O6  UNL     1      -5.837  -6.103 -49.130  1.00  0.00    -0.340 OA
ATOM     44  H6  UNL     1      -5.212  -5.419 -48.917  1.00  0.00     0.220 HD
ENDBRANCH  40  43
ENDBRANCH   6  37
TORSDOF 14
ENDMDL
MODEL 3
REMARK VINA RESULT: -8.584179358      1.305      3.022
REMARK  14 active torsions:
REMARK  status: ('A' for Active; 'I' for Inactive)
REMARK    1  A    between atoms: C4_4  and  C5_5 
REMARK    2  A    between atoms: C5_5  and  C6_6 
REMARK    3  A    between atoms: C8_8  and  C9_9 
REMARK    4  A    between atoms: C12_13  and  C13_14 
REMARK    5  A    between atoms: C13_14  and  C14_15 
REMARK    6  A    between atoms: C14_15  and  O2_16 
REMARK    7  A    between atoms: C14_15  and  C15_18 
REMARK    8  A    between atoms: C18_23  and  C19_24 
REMARK    9  A    between atoms: C21_27  and  O6_28 
REMARK   10  A    between atoms: C24_32  and  C26_34 
REMARK   11  A    between atoms: C26_34  and  C27_35 
REMARK   12  A    between atoms: C27_35  and  C28_36 
REMARK   13  A    between atoms: C28_36  and  O8_38 
REMARK   14  A    between atoms: O8_38  and  C29_39 
ROOT
HETATM    1  C15 UNL     1     -17.366 -14.863 -46.513  1.00  0.00    -0.035 C 
HETATM    2  C16 UNL     1     -17.851 -13.639 -46.737  1.00  0.00     0.088 C 
HETATM    3  C17 UNL     1     -19.153 -13.160 -46.319  1.00  0.00     0.283 C 
HETATM    4  O3  UNL     1     -19.552 -11.970 -46.558  1.00  0.00    -0.260 OA
HETATM    5  O4  UNL     1     -19.941 -14.037 -45.653  1.00  0.00    -0.307 OA
HETATM    6  C18 UNL     1     -19.709 -15.448 -46.074  1.00  0.00     0.180 C 
HETATM    7  C24 UNL     1     -18.279 -15.740 -45.753  1.00  0.00     0.014 C 
HETATM    8  C25 UNL     1     -18.120 -15.238 -44.291  1.00  0.00     0.023 C 
ENDROOT
BRANCH   1   9
HETATM    9  C14 UNL     1     -16.038 -15.077 -47.054  1.00  0.00     0.150 C 
BRANCH   9  10
HETATM   10  C13 UNL     1     -15.667 -15.167 -48.432  1.00  0.00     0.069 C 
BRANCH  10  11
HETATM   11  C12 UNL     1     -14.635 -15.959 -49.054  1.00  0.00     0.133 C 
HETATM   12  O1  UNL     1     -15.103 -16.272 -50.363  1.00  0.00    -0.379 OA
HETATM   13  C8  UNL     1     -15.086 -15.284 -51.267  1.00  0.00     0.125 C 
HETATM   14  C7  UNL     1     -13.703 -14.665 -51.492  1.00  0.00     0.038 C 
HETATM   15  C6  UNL     1     -13.240 -14.238 -50.123  1.00  0.00     0.002 C 
HETATM   16  C30 UNL     1     -13.264 -15.456 -49.246  1.00  0.00    -0.017 C 
HETATM   17  C31 UNL     1     -12.520 -16.559 -50.012  1.00  0.00     0.018 C 
HETATM   18  C32 UNL     1     -12.421 -15.272 -48.010  1.00  0.00     0.018 C 
BRANCH  13  19
HETATM   19  C9  UNL     1     -15.622 -15.846 -52.584  1.00  0.00     0.006 C 
HETATM   20  C10 UNL     1     -16.646 -14.864 -53.175  1.00  0.00     0.012 C 
HETATM   21  C11 UNL     1     -14.573 -16.052 -53.620  1.00  0.00     0.012 C 
ENDBRANCH  13  19
BRANCH  15  22
HETATM   22  C5  UNL     1     -11.903 -13.556 -50.127  1.00  0.00     0.033 C 
BRANCH  22  23
HETATM   23  C4  UNL     1     -12.046 -12.165 -49.650  1.00  0.00    -0.024 C 
HETATM   24  C2  UNL     1     -11.080 -11.264 -49.786  1.00  0.00    -0.091 C 
HETATM   25  C1  UNL     1      -9.777 -11.608 -50.439  1.00  0.00     0.042 C 
HETATM   26  C3  UNL     1     -11.293  -9.882 -49.282  1.00  0.00     0.042 C 
ENDBRANCH  22  23
ENDBRANCH  15  22
ENDBRANCH  10  11
ENDBRANCH   9  10
BRANCH   9  27
HETATM   27  O2  UNL     1     -15.182 -14.203 -46.379  1.00  0.00    -0.391 OA
ATOM     28  H2  UNL     1     -15.485 -14.068 -45.489  1.00  0.00     0.210 HD
ENDBRANCH   9  27
ENDBRANCH   1   9
BRANCH   7  29
HETATM   29  C26 UNL     1     -18.035 -17.168 -45.725  1.00  0.00     0.026 C 
BRANCH  29  30
HETATM   30  C27 UNL     1     -17.930 -17.985 -46.960  1.00  0.00     0.113 C 
BRANCH  30  31
HETATM   31  C28 UNL     1     -18.633 -19.316 -46.724  1.00  0.00     0.267 C 
HETATM   32  O7  UNL     1     -18.363 -20.034 -45.737  1.00  0.00    -0.265 OA
BRANCH  31  33
HETATM   33  O8  UNL     1     -19.590 -19.743 -47.620  1.00  0.00    -0.230 OA
BRANCH  33  34
HETATM   34  C29 UNL     1     -20.946 -19.733 -47.359  1.00  0.00     0.380 C 
HETATM   35  N1  UNL     1     -21.863 -18.815 -47.934  1.00  0.00    -0.032 NA
HETATM   36  O9  UNL     1     -21.401 -20.588 -46.561  1.00  0.00    -0.242 OA
ENDBRANCH  33  34
ENDBRANCH  31  33
ENDBRANCH  30  31
ENDBRANCH  29  30
ENDBRANCH   7  29
BRANCH   6  37
HETATM   37  C19 UNL     1     -20.793 -16.181 -45.479  1.00  0.00     0.005 A 
HETATM   38  C20 UNL     1     -20.933 -17.292 -44.740  1.00  0.00     0.155 A 
HETATM   39  O5  UNL     1     -22.211 -17.487 -44.386  1.00  0.00    -0.299 OA
HETATM   40  C21 UNL     1     -22.914 -16.524 -44.876  1.00  0.00     0.189 A 
HETATM   41  C22 UNL     1     -22.110 -15.677 -45.565  1.00  0.00     0.007 A 
HETATM   42  C23 UNL     1     -22.548 -14.441 -46.279  1.00  0.00     0.054 C 
BRANCH  40  43
HETATM   43  O6  UNL     1     -24.286 -16.400 -44.709  1.00  0.00    -0.340 OA
ATOM     44  H6  UNL     1     -24.710 -16.271 -43.869  1.00  0.00     0.220 HD
ENDBRANCH  40  43
ENDBRANCH   6  37
TORSDOF 14
ENDMDL
MODEL 4
REMARK VINA RESULT: -8.502147485      4.311      9.858
REMARK  14 active torsions:
REMARK  status: ('A' for Active; 'I' for Inactive)
REMARK    1  A    between atoms: C4_4  and  C5_5 
REMARK    2  A    between atoms: C5_5  and  C6_6 
REMARK    3  A    between atoms: C8_8  and  C9_9 
REMARK    4  A    between atoms: C12_13  and  C13_14 
REMARK    5  A    between atoms: C13_14  and  C14_15 
REMARK    6  A    between atoms: C14_15  and  O2_16 
REMARK    7  A    between atoms: C14_15  and  C15_18 
REMARK    8  A    between atoms: C18_23  and  C19_24 
REMARK    9  A    between atoms: C21_27  and  O6_28 
REMARK   10  A    between atoms: C24_32  and  C26_34 
REMARK   11  A    between atoms: C26_34  and  C27_35 
REMARK   12  A    between atoms: C27_35  and  C28_36 
REMARK   13  A    between atoms: C28_36  and  O8_38 
REMARK   14  A    between atoms: O8_38  and  C29_39 
ROOT
HETATM    1  C15 UNL     1      -9.955 -17.211 -48.696  1.00  0.00    -0.035 C 
HETATM    2  C16 UNL     1      -9.654 -16.018 -49.216  1.00  0.00     0.088 C 
HETATM    3  C17 UNL     1      -8.315 -15.513 -49.443  1.00  0.00     0.283 C 
HETATM    4  O3  UNL     1      -8.096 -14.364 -49.956  1.00  0.00    -0.260 OA
HETATM    5  O4  UNL     1      -7.289 -16.322 -49.087  1.00  0.00    -0.307 OA
HETATM    6  C18 UNL     1      -7.625 -17.193 -47.925  1.00  0.00     0.180 C 
HETATM    7  C24 UNL     1      -8.776 -18.037 -48.367  1.00  0.00     0.014 C 
HETATM    8  C25 UNL     1      -8.325 -18.579 -49.752  1.00  0.00     0.023 C 
ENDROOT
BRANCH   1   9
HETATM    9  C14 UNL     1     -11.379 -17.453 -48.569  1.00  0.00     0.150 C 
BRANCH   9  10
HETATM   10  C13 UNL     1     -12.399 -16.495 -48.278  1.00  0.00     0.069 C 
BRANCH  10  11
HETATM   11  C12 UNL     1     -13.493 -16.042 -49.102  1.00  0.00     0.133 C 
HETATM   12  O1  UNL     1     -14.630 -15.955 -48.247  1.00  0.00    -0.379 OA
HETATM   13  C8  UNL     1     -14.667 -14.928 -47.387  1.00  0.00     0.125 C 
HETATM   14  C7  UNL     1     -14.580 -13.551 -48.053  1.00  0.00     0.038 C 
HETATM   15  C6  UNL     1     -13.324 -13.597 -48.883  1.00  0.00     0.002 C 
HETATM   16  C30 UNL     1     -13.457 -14.760 -49.826  1.00  0.00    -0.017 C 
HETATM   17  C31 UNL     1     -14.831 -14.622 -50.496  1.00  0.00     0.018 C 
HETATM   18  C32 UNL     1     -12.500 -14.653 -50.984  1.00  0.00     0.018 C 
BRANCH  13  19
HETATM   19  C9  UNL     1     -15.964 -15.035 -46.586  1.00  0.00     0.006 C 
HETATM   20  C10 UNL     1     -16.855 -13.822 -46.898  1.00  0.00     0.012 C 
HETATM   21  C11 UNL     1     -16.765 -16.250 -46.900  1.00  0.00     0.012 C 
ENDBRANCH  13  19
BRANCH  15  22
HETATM   22  C5  UNL     1     -13.027 -12.310 -49.595  1.00  0.00     0.033 C 
BRANCH  22  23
HETATM   23  C4  UNL     1     -12.319 -11.384 -48.686  1.00  0.00    -0.024 C 
HETATM   24  C2  UNL     1     -11.091 -10.947 -48.933  1.00  0.00    -0.091 C 
HETATM   25  C1  UNL     1     -10.342 -11.368 -50.160  1.00  0.00     0.042 C 
HETATM   26  C3  UNL     1     -10.439 -10.017 -47.973  1.00  0.00     0.042 C 
ENDBRANCH  22  23
ENDBRANCH  15  22
ENDBRANCH  10  11
ENDBRANCH   9  10
BRANCH   9  27
HETATM   27  O2  UNL     1     -11.752 -18.243 -49.659  1.00  0.00    -0.391 OA
ATOM     28  H2  UNL     1     -10.996 -18.693 -50.014  1.00  0.00     0.210 HD
ENDBRANCH   9  27
ENDBRANCH   1   9
BRANCH   7  29
HETATM   29  C26 UNL     1      -8.934 -19.192 -47.505  1.00  0.00     0.026 C 
BRANCH  29  30
HETATM   30  C27 UNL     1      -9.089 -20.569 -48.036  1.00  0.00     0.113 C 
BRANCH  30  31
HETATM   31  C28 UNL     1     -10.451 -21.104 -47.611  1.00  0.00     0.267 C 
HETATM   32  O7  UNL     1     -10.638 -21.594 -46.476  1.00  0.00    -0.265 OA
BRANCH  31  33
HETATM   33  O8  UNL     1     -11.505 -21.049 -48.497  1.00  0.00    -0.230 OA
BRANCH  33  34
HETATM   34  C29 UNL     1     -12.832 -21.107 -48.119  1.00  0.00     0.380 C 
HETATM   35  N1  UNL     1     -13.601 -22.299 -48.090  1.00  0.00    -0.032 NA
HETATM   36  O9  UNL     1     -13.397 -20.039 -47.778  1.00  0.00    -0.242 OA
ENDBRANCH  33  34
ENDBRANCH  31  33
ENDBRANCH  30  31
ENDBRANCH  29  30
ENDBRANCH   7  29
BRANCH   6  37
HETATM   37  C19 UNL     1      -6.366 -17.763 -47.529  1.00  0.00     0.005 A 
HETATM   38  C20 UNL     1      -5.250 -18.187 -48.140  1.00  0.00     0.155 A 
HETATM   39  O5  UNL     1      -4.322 -18.575 -47.252  1.00  0.00    -0.299 OA
HETATM   40  C21 UNL     1      -4.807 -18.411 -46.070  1.00  0.00     0.189 A 
HETATM   41  C22 UNL     1      -6.065 -17.913 -46.157  1.00  0.00     0.007 A 
HETATM   42  C23 UNL     1      -6.959 -17.587 -45.006  1.00  0.00     0.054 C 
BRANCH  40  43
HETATM   43  O6  UNL     1      -4.122 -18.709 -44.900  1.00  0.00    -0.340 OA
ATOM     44  H6  UNL     1      -3.508 -19.430 -44.812  1.00  0.00     0.220 HD
ENDBRANCH  40  43
ENDBRANCH   6  37
TORSDOF 14
ENDMDL
MODEL 5
REMARK VINA RESULT: -8.453436049      5.182     11.471
REMARK  14 active torsions:
REMARK  status: ('A' for Active; 'I' for Inactive)
REMARK    1  A    between atoms: C4_4  and  C5_5 
REMARK    2  A    between atoms: C5_5  and  C6_6 
REMARK    3  A    between atoms: C8_8  and  C9_9 
REMARK    4  A    between atoms: C12_13  and  C13_14 
REMARK    5  A    between atoms: C13_14  and  C14_15 
REMARK    6  A    between atoms: C14_15  and  O2_16 
REMARK    7  A    between atoms: C14_15  and  C15_18 
REMARK    8  A    between atoms: C18_23  and  C19_24 
REMARK    9  A    between atoms: C21_27  and  O6_28 
REMARK   10  A    between atoms: C24_32  and  C26_34 
REMARK   11  A    between atoms: C26_34  and  C27_35 
REMARK   12  A    between atoms: C27_35  and  C28_36 
REMARK   13  A    between atoms: C28_36  and  O8_38 
REMARK   14  A    between atoms: O8_38  and  C29_39 
ROOT
HETATM    1  C15 UNL     1      -9.097 -17.010 -49.654  1.00  0.00    -0.035 C 
HETATM    2  C16 UNL     1      -9.400 -16.905 -50.950  1.00  0.00     0.088 C 
HETATM    3  C17 UNL     1      -8.444 -16.862 -52.038  1.00  0.00     0.283 C 
HETATM    4  O3  UNL     1      -8.804 -16.772 -53.261  1.00  0.00    -0.260 OA
HETATM    5  O4  UNL     1      -7.134 -16.924 -51.702  1.00  0.00    -0.307 OA
HETATM    6  C18 UNL     1      -6.856 -16.311 -50.371  1.00  0.00     0.180 C 
HETATM    7  C24 UNL     1      -7.648 -17.104 -49.383  1.00  0.00     0.014 C 
HETATM    8  C25 UNL     1      -7.314 -18.578 -49.742  1.00  0.00     0.023 C 
ENDROOT
BRANCH   1   9
HETATM    9  C14 UNL     1     -10.253 -17.017 -48.779  1.00  0.00     0.150 C 
BRANCH   9  10
HETATM   10  C13 UNL     1     -11.246 -15.998 -48.645  1.00  0.00     0.069 C 
BRANCH  10  11
HETATM   11  C12 UNL     1     -12.393 -15.721 -49.473  1.00  0.00     0.133 C 
HETATM   12  O1  UNL     1     -13.539 -15.901 -48.645  1.00  0.00    -0.379 OA
HETATM   13  C8  UNL     1     -13.788 -14.947 -47.737  1.00  0.00     0.125 C 
HETATM   14  C7  UNL     1     -13.960 -13.546 -48.332  1.00  0.00     0.038 C 
HETATM   15  C6  UNL     1     -12.705 -13.305 -49.131  1.00  0.00     0.002 C 
HETATM   16  C30 UNL     1     -12.595 -14.419 -50.132  1.00  0.00    -0.017 C 
HETATM   17  C31 UNL     1     -13.959 -14.514 -50.831  1.00  0.00     0.018 C 
HETATM   18  C32 UNL     1     -11.658 -14.068 -51.259  1.00  0.00     0.018 C 
BRANCH  13  19
HETATM   19  C9  UNL     1     -15.053 -15.346 -46.977  1.00  0.00     0.006 C 
HETATM   20  C10 UNL     1     -15.993 -14.133 -46.887  1.00  0.00     0.012 C 
HETATM   21  C11 UNL     1     -15.823 -16.442 -47.624  1.00  0.00     0.012 C 
ENDBRANCH  13  19
BRANCH  15  22
HETATM   22  C5  UNL     1     -12.652 -11.948 -49.771  1.00  0.00     0.033 C 
BRANCH  22  23
HETATM   23  C4  UNL     1     -12.014 -10.983 -48.851  1.00  0.00    -0.024 C 
HETATM   24  C2  UNL     1     -10.797 -10.498 -49.064  1.00  0.00    -0.091 C 
HETATM   25  C1  UNL     1      -9.992 -10.902 -50.260  1.00  0.00     0.042 C 
HETATM   26  C3  UNL     1     -10.216  -9.530 -48.096  1.00  0.00     0.042 C 
ENDBRANCH  22  23
ENDBRANCH  15  22
ENDBRANCH  10  11
ENDBRANCH   9  10
BRANCH   9  27
HETATM   27  O2  UNL     1     -10.858 -18.268 -48.922  1.00  0.00    -0.391 OA
ATOM     28  H2  UNL     1     -10.245 -18.958 -48.702  1.00  0.00     0.210 HD
ENDBRANCH   9  27
ENDBRANCH   1   9
BRANCH   7  29
HETATM   29  C26 UNL     1      -7.160 -16.888 -48.035  1.00  0.00     0.026 C 
BRANCH  29  30
HETATM   30  C27 UNL     1      -7.172 -17.953 -47.002  1.00  0.00     0.113 C 
BRANCH  30  31
HETATM   31  C28 UNL     1      -7.742 -17.373 -45.713  1.00  0.00     0.267 C 
HETATM   32  O7  UNL     1      -8.627 -16.491 -45.726  1.00  0.00    -0.265 OA
BRANCH  31  33
HETATM   33  O8  UNL     1      -7.270 -17.829 -44.500  1.00  0.00    -0.230 OA
BRANCH  33  34
HETATM   34  C29 UNL     1      -6.419 -18.908 -44.363  1.00  0.00     0.380 C 
HETATM   35  N1  UNL     1      -6.850 -20.252 -44.221  1.00  0.00    -0.032 NA
HETATM   36  O9  UNL     1      -5.183 -18.689 -44.364  1.00  0.00    -0.242 OA
ENDBRANCH  33  34
ENDBRANCH  31  33
ENDBRANCH  30  31
ENDBRANCH  29  30
ENDBRANCH   7  29
BRANCH   6  37
HETATM   37  C19 UNL     1      -5.422 -16.225 -50.311  1.00  0.00     0.005 A 
HETATM   38  C20 UNL     1      -4.384 -17.049 -50.515  1.00  0.00     0.155 A 
HETATM   39  O5  UNL     1      -3.214 -16.406 -50.382  1.00  0.00    -0.299 OA
HETATM   40  C21 UNL     1      -3.464 -15.175 -50.097  1.00  0.00     0.189 A 
HETATM   41  C22 UNL     1      -4.805 -14.984 -50.035  1.00  0.00     0.007 A 
HETATM   42  C23 UNL     1      -5.493 -13.695 -49.729  1.00  0.00     0.054 C 
BRANCH  40  43
HETATM   43  O6  UNL     1      -2.488 -14.211 -49.888  1.00  0.00    -0.340 OA
ATOM     44  H6  UNL     1      -2.616 -13.428 -49.365  1.00  0.00     0.220 HD
ENDBRANCH  40  43
ENDBRANCH   6  37
TORSDOF 14
ENDMDL
