MODEL 1
REMARK VINA RESULT: -8.605995170      0.000      0.000
REMARK  11 active torsions:
REMARK  status: ('A' for Active; 'I' for Inactive)
REMARK    1  A    between atoms: O1_2  and  C2_3 
REMARK    2  A    between atoms: C2_3  and  O2_4 
REMARK    3  A    between atoms: C2_3  and  C4_6 
REMARK    4  A    between atoms: C4_6  and  C5_7 
REMARK    5  A    between atoms: C5_7  and  C6_8 
REMARK    6  A    between atoms: C6_8  and  O4_10 
REMARK    7  A    between atoms: O4_10  and  C7_11 
REMARK    8  A    between atoms: C7_11  and  C8_12 
REMARK    9  A    between atoms: C11_15  and  N1_16 
REMARK   10  A    between atoms: C13_18  and  C14_19 
REMARK   11  A    between atoms: C15_20  and  C16_21 
ROOT
HETATM    1  C8  UNL     1     -12.972  10.792 -11.093  1.00  0.00     0.026 C 
HETATM    2  C9  UNL     1     -11.773  11.706 -10.794  1.00  0.00     0.022 C 
HETATM    3  C10 UNL     1     -11.129  11.465  -9.501  1.00  0.00     0.006 C 
HETATM    4  C11 UNL     1     -10.734  12.512  -8.814  1.00  0.00     0.030 C 
HETATM    5  C18 UNL     1     -10.973  13.846  -9.393  1.00  0.00     0.059 C 
HETATM    6  C19 UNL     1     -12.477  13.882  -9.702  1.00  0.00     0.012 C 
HETATM    7  C20 UNL     1     -12.773  12.821 -10.665  1.00  0.00     0.002 C 
HETATM    8  C21 UNL     1     -13.822  11.808 -10.367  1.00  0.00    -0.037 C 
HETATM    9  C22 UNL     1     -14.022  11.374  -8.951  1.00  0.00     0.015 C 
HETATM   10  C23 UNL     1     -15.127  12.181 -11.029  1.00  0.00     0.015 C 
ENDROOT
BRANCH   1  11
HETATM   11  C7  UNL     1     -13.227  10.783 -12.556  1.00  0.00     0.184 C 
BRANCH  11  12
HETATM   12  O4  UNL     1     -12.074  10.585 -13.343  1.00  0.00    -0.321 OA
BRANCH  12  13
HETATM   13  C6  UNL     1     -11.841   9.312 -13.826  1.00  0.00     0.259 C 
HETATM   14  O3  UNL     1     -12.045   9.096 -15.090  1.00  0.00    -0.265 OA
BRANCH  13  15
HETATM   15  C5  UNL     1     -11.378   8.142 -13.086  1.00  0.00     0.125 C 
BRANCH  15  16
HETATM   16  C4  UNL     1     -10.028   8.229 -12.432  1.00  0.00     0.018 C 
HETATM   17  C24 UNL     1     -10.203   8.298 -10.943  1.00  0.00     0.015 C 
HETATM   18  C25 UNL     1      -8.925   8.548 -10.205  1.00  0.00     0.001 C 
HETATM   19  C26 UNL     1      -8.010   9.552 -10.798  1.00  0.00     0.000 C 
HETATM   20  C27 UNL     1      -8.673  10.300 -11.909  1.00  0.00     0.001 C 
HETATM   21  C28 UNL     1      -9.297   9.419 -12.945  1.00  0.00     0.015 C 
BRANCH  16  22
HETATM   22  C2  UNL     1      -9.325   6.917 -12.815  1.00  0.00     0.267 C 
BRANCH  22  23
HETATM   23  O1  UNL     1     -10.148   6.035 -13.480  1.00  0.00    -0.365 OA
HETATM   24  C1  UNL     1     -10.366   4.838 -12.825  1.00  0.00     0.204 C 
ENDBRANCH  22  23
BRANCH  22  25
HETATM   25  O2  UNL     1      -8.251   7.179 -13.667  1.00  0.00    -0.365 OA
HETATM   26  C3  UNL     1      -7.225   6.263 -13.542  1.00  0.00     0.204 C 
ENDBRANCH  22  25
ENDBRANCH  16  22
ENDBRANCH  15  16
ENDBRANCH  13  15
ENDBRANCH  12  13
ENDBRANCH  11  12
ENDBRANCH   1  11
BRANCH   4  27
HETATM   27  N1  UNL     1     -10.094  12.422  -7.542  1.00  0.00    -0.272 N 
HETATM   28  C12 UNL     1      -9.801  13.391  -6.688  1.00  0.00     0.129 A 
HETATM   29  C13 UNL     1      -9.155  12.882  -5.529  1.00  0.00    -0.002 A 
HETATM   30  C17 UNL     1      -9.097  11.554  -5.769  1.00  0.00     0.120 A 
HETATM   31  N2  UNL     1      -9.674  11.301  -6.998  1.00  0.00    -0.305 N 
ATOM     32  H2  UNL     1      -9.761  10.378  -7.423  1.00  0.00     0.186 HD
BRANCH  29  33
HETATM   33  C14 UNL     1      -8.737  13.690  -4.446  1.00  0.00     0.021 C 
HETATM   34  C15 UNL     1      -8.911  13.679  -3.187  1.00  0.00     0.085 C 
BRANCH  34  35
HETATM   35  C16 UNL     1      -9.582  12.896  -2.203  1.00  0.00     0.198 C 
HETATM   36  O5  UNL     1     -10.014  13.543  -1.155  1.00  0.00    -0.645 OA
HETATM   37  O6  UNL     1      -9.807  11.559  -2.262  1.00  0.00    -0.645 OA
ENDBRANCH  34  35
ENDBRANCH  29  33
ENDBRANCH   4  27
TORSDOF 11
ENDMDL
MODEL 2
REMARK VINA RESULT: -8.513890600      1.896      2.343
REMARK  11 active torsions:
REMARK  status: ('A' for Active; 'I' for Inactive)
REMARK    1  A    between atoms: O1_2  and  C2_3 
REMARK    2  A    between atoms: C2_3  and  O2_4 
REMARK    3  A    between atoms: C2_3  and  C4_6 
REMARK    4  A    between atoms: C4_6  and  C5_7 
REMARK    5  A    between atoms: C5_7  and  C6_8 
REMARK    6  A    between atoms: C6_8  and  O4_10 
REMARK    7  A    between atoms: O4_10  and  C7_11 
REMARK    8  A    between atoms: C7_11  and  C8_12 
REMARK    9  A    between atoms: C11_15  and  N1_16 
REMARK   10  A    between atoms: C13_18  and  C14_19 
REMARK   11  A    between atoms: C15_20  and  C16_21 
ROOT
HETATM    1  C8  UNL     1     -12.572  11.820 -11.178  1.00  0.00     0.026 C 
HETATM    2  C9  UNL     1     -12.690  13.351 -11.116  1.00  0.00     0.022 C 
HETATM    3  C10 UNL     1     -11.756  13.998 -10.192  1.00  0.00     0.006 C 
HETATM    4  C11 UNL     1     -12.207  15.001  -9.475  1.00  0.00     0.030 C 
HETATM    5  C18 UNL     1     -13.617  15.396  -9.651  1.00  0.00     0.059 C 
HETATM    6  C19 UNL     1     -14.421  14.106  -9.425  1.00  0.00     0.012 C 
HETATM    7  C20 UNL     1     -14.011  13.128 -10.432  1.00  0.00     0.002 C 
HETATM    8  C21 UNL     1     -13.536  11.779 -10.017  1.00  0.00    -0.037 C 
HETATM    9  C22 UNL     1     -12.774  11.646  -8.738  1.00  0.00     0.015 C 
HETATM   10  C23 UNL     1     -14.653  10.767 -10.112  1.00  0.00     0.015 C 
ENDROOT
BRANCH   1  11
HETATM   11  C7  UNL     1     -13.186  11.333 -12.441  1.00  0.00     0.184 C 
BRANCH  11  12
HETATM   12  O4  UNL     1     -12.255  10.982 -13.439  1.00  0.00    -0.321 OA
BRANCH  12  13
HETATM   13  C6  UNL     1     -11.937   9.644 -13.575  1.00  0.00     0.259 C 
HETATM   14  O3  UNL     1     -11.785   9.176 -14.777  1.00  0.00    -0.265 OA
BRANCH  13  15
HETATM   15  C5  UNL     1     -11.741   8.657 -12.518  1.00  0.00     0.125 C 
BRANCH  15  16
HETATM   16  C4  UNL     1     -10.419   8.665 -11.803  1.00  0.00     0.018 C 
HETATM   17  C24 UNL     1     -10.655   8.537 -10.326  1.00  0.00     0.015 C 
HETATM   18  C25 UNL     1      -9.411   8.695  -9.510  1.00  0.00     0.001 C 
HETATM   19  C26 UNL     1      -8.484   9.774  -9.928  1.00  0.00     0.000 C 
HETATM   20  C27 UNL     1      -9.111  10.657 -10.957  1.00  0.00     0.001 C 
HETATM   21  C28 UNL     1      -9.682   9.916 -12.125  1.00  0.00     0.015 C 
BRANCH  16  22
HETATM   22  C2  UNL     1      -9.686   7.419 -12.325  1.00  0.00     0.267 C 
BRANCH  22  23
HETATM   23  O1  UNL     1     -10.540   6.438 -12.778  1.00  0.00    -0.365 OA
HETATM   24  C1  UNL     1     -10.243   5.162 -12.339  1.00  0.00     0.204 C 
ENDBRANCH  22  23
BRANCH  22  25
HETATM   25  O2  UNL     1      -8.866   7.761 -13.402  1.00  0.00    -0.365 OA
HETATM   26  C3  UNL     1      -7.580   7.275 -13.278  1.00  0.00     0.204 C 
ENDBRANCH  22  25
ENDBRANCH  16  22
ENDBRANCH  15  16
ENDBRANCH  13  15
ENDBRANCH  12  13
ENDBRANCH  11  12
ENDBRANCH   1  11
BRANCH   4  27
HETATM   27  N1  UNL     1     -11.407  15.721  -8.538  1.00  0.00    -0.272 N 
HETATM   28  C12 UNL     1     -11.414  15.654  -7.215  1.00  0.00     0.129 A 
HETATM   29  C13 UNL     1     -10.461  16.544  -6.648  1.00  0.00    -0.002 A 
HETATM   30  C17 UNL     1      -9.903  17.127  -7.731  1.00  0.00     0.120 A 
HETATM   31  N2  UNL     1     -10.495  16.610  -8.866  1.00  0.00    -0.305 N 
ATOM     32  H2  UNL     1     -10.260  16.878  -9.821  1.00  0.00     0.186 HD
BRANCH  29  33
HETATM   33  C14 UNL     1     -10.244  16.675  -5.256  1.00  0.00     0.021 C 
HETATM   34  C15 UNL     1     -10.179  15.876  -4.271  1.00  0.00     0.085 C 
BRANCH  34  35
HETATM   35  C16 UNL     1     -10.277  14.477  -4.014  1.00  0.00     0.198 C 
HETATM   36  O5  UNL     1     -10.583  14.140  -2.791  1.00  0.00    -0.645 OA
HETATM   37  O6  UNL     1     -10.084  13.483  -4.917  1.00  0.00    -0.645 OA
ENDBRANCH  34  35
ENDBRANCH  29  33
ENDBRANCH   4  27
TORSDOF 11
ENDMDL
MODEL 3
REMARK VINA RESULT: -8.467812142      1.286      1.646
REMARK  11 active torsions:
REMARK  status: ('A' for Active; 'I' for Inactive)
REMARK    1  A    between atoms: O1_2  and  C2_3 
REMARK    2  A    between atoms: C2_3  and  O2_4 
REMARK    3  A    between atoms: C2_3  and  C4_6 
REMARK    4  A    between atoms: C4_6  and  C5_7 
REMARK    5  A    between atoms: C5_7  and  C6_8 
REMARK    6  A    between atoms: C6_8  and  O4_10 
REMARK    7  A    between atoms: O4_10  and  C7_11 
REMARK    8  A    between atoms: C7_11  and  C8_12 
REMARK    9  A    between atoms: C11_15  and  N1_16 
REMARK   10  A    between atoms: C13_18  and  C14_19 
REMARK   11  A    between atoms: C15_20  and  C16_21 
ROOT
HETATM    1  C8  UNL     1     -12.304  11.873 -10.851  1.00  0.00     0.026 C 
HETATM    2  C9  UNL     1     -12.303  13.281 -10.235  1.00  0.00     0.022 C 
HETATM    3  C10 UNL     1     -11.497  13.415  -9.020  1.00  0.00     0.006 C 
HETATM    4  C11 UNL     1     -11.982  14.151  -8.046  1.00  0.00     0.030 C 
HETATM    5  C18 UNL     1     -13.299  14.780  -8.249  1.00  0.00     0.059 C 
HETATM    6  C19 UNL     1     -14.237  13.625  -8.634  1.00  0.00     0.012 C 
HETATM    7  C20 UNL     1     -13.738  13.022  -9.869  1.00  0.00     0.002 C 
HETATM    8  C21 UNL     1     -13.460  11.560  -9.931  1.00  0.00    -0.037 C 
HETATM    9  C22 UNL     1     -12.952  10.872  -8.705  1.00  0.00     0.015 C 
HETATM   10  C23 UNL     1     -14.623  10.821 -10.548  1.00  0.00     0.015 C 
ENDROOT
BRANCH   1  11
HETATM   11  C7  UNL     1     -12.722  11.963 -12.274  1.00  0.00     0.184 C 
BRANCH  11  12
HETATM   12  O4  UNL     1     -11.840  11.336 -13.177  1.00  0.00    -0.321 OA
BRANCH  12  13
HETATM   13  C6  UNL     1     -11.993   9.978 -13.382  1.00  0.00     0.259 C 
HETATM   14  O3  UNL     1     -13.201   9.512 -13.482  1.00  0.00    -0.265 OA
BRANCH  13  15
HETATM   15  C5  UNL     1     -10.949   8.966 -13.509  1.00  0.00     0.125 C 
BRANCH  15  16
HETATM   16  C4  UNL     1     -10.120   8.673 -12.290  1.00  0.00     0.018 C 
HETATM   17  C24 UNL     1     -11.028   8.438 -11.118  1.00  0.00     0.015 C 
HETATM   18  C25 UNL     1     -10.298   8.295  -9.820  1.00  0.00     0.001 C 
HETATM   19  C26 UNL     1      -9.175   9.235  -9.592  1.00  0.00     0.000 C 
HETATM   20  C27 UNL     1      -9.152  10.313 -10.625  1.00  0.00     0.001 C 
HETATM   21  C28 UNL     1      -9.189   9.805 -12.032  1.00  0.00     0.015 C 
BRANCH  16  22
HETATM   22  C2  UNL     1      -9.365   7.379 -12.634  1.00  0.00     0.267 C 
BRANCH  22  23
HETATM   23  O1  UNL     1     -10.158   6.438 -13.254  1.00  0.00    -0.365 OA
HETATM   24  C1  UNL     1     -10.304   5.253 -12.558  1.00  0.00     0.204 C 
ENDBRANCH  22  23
BRANCH  22  25
HETATM   25  O2  UNL     1      -8.315   7.655 -13.511  1.00  0.00    -0.365 OA
HETATM   26  C3  UNL     1      -7.349   6.669 -13.525  1.00  0.00     0.204 C 
ENDBRANCH  22  25
ENDBRANCH  16  22
ENDBRANCH  15  16
ENDBRANCH  13  15
ENDBRANCH  12  13
ENDBRANCH  11  12
ENDBRANCH   1  11
BRANCH   4  27
HETATM   27  N1  UNL     1     -11.304  14.366  -6.809  1.00  0.00    -0.272 N 
HETATM   28  C12 UNL     1     -10.299  13.683  -6.282  1.00  0.00     0.129 A 
HETATM   29  C13 UNL     1      -9.913  14.220  -5.024  1.00  0.00    -0.002 A 
HETATM   30  C17 UNL     1     -10.761  15.259  -4.860  1.00  0.00     0.120 A 
HETATM   31  N2  UNL     1     -11.596  15.325  -5.958  1.00  0.00    -0.305 N 
ATOM     32  H2  UNL     1     -12.332  16.019  -6.091  1.00  0.00     0.186 HD
BRANCH  29  33
HETATM   33  C14 UNL     1      -8.859  13.696  -4.239  1.00  0.00     0.021 C 
HETATM   34  C15 UNL     1      -8.772  13.121  -3.110  1.00  0.00     0.085 C 
BRANCH  34  35
HETATM   35  C16 UNL     1      -9.627  12.696  -2.051  1.00  0.00     0.198 C 
HETATM   36  O5  UNL     1      -9.982  13.618  -1.198  1.00  0.00    -0.645 OA
HETATM   37  O6  UNL     1     -10.094  11.437  -1.858  1.00  0.00    -0.645 OA
ENDBRANCH  34  35
ENDBRANCH  29  33
ENDBRANCH   4  27
TORSDOF 11
ENDMDL
MODEL 4
REMARK VINA RESULT: -8.400079459      1.901      2.890
REMARK  11 active torsions:
REMARK  status: ('A' for Active; 'I' for Inactive)
REMARK    1  A    between atoms: O1_2  and  C2_3 
REMARK    2  A    between atoms: C2_3  and  O2_4 
REMARK    3  A    between atoms: C2_3  and  C4_6 
REMARK    4  A    between atoms: C4_6  and  C5_7 
REMARK    5  A    between atoms: C5_7  and  C6_8 
REMARK    6  A    between atoms: C6_8  and  O4_10 
REMARK    7  A    between atoms: O4_10  and  C7_11 
REMARK    8  A    between atoms: C7_11  and  C8_12 
REMARK    9  A    between atoms: C11_15  and  N1_16 
REMARK   10  A    between atoms: C13_18  and  C14_19 
REMARK   11  A    between atoms: C15_20  and  C16_21 
ROOT
HETATM    1  C8  UNL     1     -10.331  13.498 -12.043  1.00  0.00     0.026 C 
HETATM    2  C9  UNL     1     -10.071  12.721 -10.743  1.00  0.00     0.022 C 
HETATM    3  C10 UNL     1     -10.634  13.337  -9.540  1.00  0.00     0.006 C 
HETATM    4  C11 UNL     1      -9.910  13.307  -8.445  1.00  0.00     0.030 C 
HETATM    5  C18 UNL     1      -8.587  12.661  -8.512  1.00  0.00     0.059 C 
HETATM    6  C19 UNL     1      -7.862  13.357  -9.674  1.00  0.00     0.012 C 
HETATM    7  C20 UNL     1      -8.631  13.127 -10.897  1.00  0.00     0.002 C 
HETATM    8  C21 UNL     1      -9.075  14.277 -11.732  1.00  0.00    -0.037 C 
HETATM    9  C22 UNL     1      -9.435  15.561 -11.057  1.00  0.00     0.015 C 
HETATM   10  C23 UNL     1      -8.124  14.498 -12.884  1.00  0.00     0.015 C 
ENDROOT
BRANCH   1  11
HETATM   11  C7  UNL     1     -10.158  12.585 -13.202  1.00  0.00     0.184 C 
BRANCH  11  12
HETATM   12  O4  UNL     1     -11.083  11.522 -13.244  1.00  0.00    -0.321 OA
BRANCH  12  13
HETATM   13  C6  UNL     1     -10.633  10.301 -13.707  1.00  0.00     0.259 C 
HETATM   14  O3  UNL     1     -11.391   9.650 -14.537  1.00  0.00    -0.265 OA
BRANCH  13  15
HETATM   15  C5  UNL     1      -9.382   9.624 -13.383  1.00  0.00     0.125 C 
BRANCH  15  16
HETATM   16  C4  UNL     1      -9.363   8.759 -12.153  1.00  0.00     0.018 C 
HETATM   17  C24 UNL     1     -10.723   8.772 -11.519  1.00  0.00     0.015 C 
HETATM   18  C25 UNL     1     -10.768   8.069 -10.198  1.00  0.00     0.001 C 
HETATM   19  C26 UNL     1      -9.624   8.310  -9.287  1.00  0.00     0.000 C 
HETATM   20  C27 UNL     1      -8.756   9.418  -9.788  1.00  0.00     0.001 C 
HETATM   21  C28 UNL     1      -8.322   9.251 -11.210  1.00  0.00     0.015 C 
BRANCH  16  22
HETATM   22  C2  UNL     1      -9.042   7.349 -12.674  1.00  0.00     0.267 C 
BRANCH  22  23
HETATM   23  O1  UNL     1     -10.125   6.726 -13.253  1.00  0.00    -0.365 OA
HETATM   24  C1  UNL     1     -10.350   5.433 -12.821  1.00  0.00     0.204 C 
ENDBRANCH  22  23
BRANCH  22  25
HETATM   25  O2  UNL     1      -8.049   7.413 -13.653  1.00  0.00    -0.365 OA
HETATM   26  C3  UNL     1      -7.169   6.351 -13.601  1.00  0.00     0.204 C 
ENDBRANCH  22  25
ENDBRANCH  16  22
ENDBRANCH  15  16
ENDBRANCH  13  15
ENDBRANCH  12  13
ENDBRANCH  11  12
ENDBRANCH   1  11
BRANCH   4  27
HETATM   27  N1  UNL     1     -10.336  13.868  -7.205  1.00  0.00    -0.272 N 
HETATM   28  C12 UNL     1      -9.794  13.739  -6.003  1.00  0.00     0.129 A 
HETATM   29  C13 UNL     1     -10.530  14.458  -5.023  1.00  0.00    -0.002 A 
HETATM   30  C17 UNL     1     -11.533  15.013  -5.738  1.00  0.00     0.120 A 
HETATM   31  N2  UNL     1     -11.392  14.639  -7.060  1.00  0.00    -0.305 N 
ATOM     32  H2  UNL     1     -12.016  14.920  -7.816  1.00  0.00     0.186 HD
BRANCH  29  33
HETATM   33  C14 UNL     1     -10.174  14.505  -3.655  1.00  0.00     0.021 C 
HETATM   34  C15 UNL     1      -9.786  13.658  -2.791  1.00  0.00     0.085 C 
BRANCH  34  35
HETATM   35  C16 UNL     1      -9.502  12.263  -2.706  1.00  0.00     0.198 C 
HETATM   36  O5  UNL     1     -10.071  11.623  -1.722  1.00  0.00    -0.645 OA
HETATM   37  O6  UNL     1      -8.704  11.558  -3.547  1.00  0.00    -0.645 OA
ENDBRANCH  34  35
ENDBRANCH  29  33
ENDBRANCH   4  27
TORSDOF 11
ENDMDL
MODEL 5
REMARK VINA RESULT: -8.325570100      1.677      2.299
REMARK  11 active torsions:
REMARK  status: ('A' for Active; 'I' for Inactive)
REMARK    1  A    between atoms: O1_2  and  C2_3 
REMARK    2  A    between atoms: C2_3  and  O2_4 
REMARK    3  A    between atoms: C2_3  and  C4_6 
REMARK    4  A    between atoms: C4_6  and  C5_7 
REMARK    5  A    between atoms: C5_7  and  C6_8 
REMARK    6  A    between atoms: C6_8  and  O4_10 
REMARK    7  A    between atoms: O4_10  and  C7_11 
REMARK    8  A    between atoms: C7_11  and  C8_12 
REMARK    9  A    between atoms: C11_15  and  N1_16 
REMARK   10  A    between atoms: C13_18  and  C14_19 
REMARK   11  A    between atoms: C15_20  and  C16_21 
ROOT
HETATM    1  C8  UNL     1     -11.639  12.521 -10.628  1.00  0.00     0.026 C 
HETATM    2  C9  UNL     1     -11.894  13.915 -10.033  1.00  0.00     0.022 C 
HETATM    3  C10 UNL     1     -11.114  14.218  -8.832  1.00  0.00     0.006 C 
HETATM    4  C11 UNL     1     -11.716  14.868  -7.863  1.00  0.00     0.030 C 
HETATM    5  C18 UNL     1     -13.130  15.238  -8.057  1.00  0.00     0.059 C 
HETATM    6  C19 UNL     1     -13.841  13.922  -8.410  1.00  0.00     0.012 C 
HETATM    7  C20 UNL     1     -13.251  13.400  -9.643  1.00  0.00     0.002 C 
HETATM    8  C21 UNL     1     -12.706  12.015  -9.686  1.00  0.00    -0.037 C 
HETATM    9  C22 UNL     1     -12.065  11.455  -8.458  1.00  0.00     0.015 C 
HETATM   10  C23 UNL     1     -13.718  11.061 -10.275  1.00  0.00     0.015 C 
ENDROOT
BRANCH   1  11
HETATM   11  C7  UNL     1     -12.083  12.506 -12.046  1.00  0.00     0.184 C 
BRANCH  11  12
HETATM   12  O4  UNL     1     -11.150  11.939 -12.938  1.00  0.00    -0.321 OA
BRANCH  12  13
HETATM   13  C6  UNL     1     -11.335  10.619 -13.303  1.00  0.00     0.259 C 
HETATM   14  O3  UNL     1     -12.541  10.234 -13.594  1.00  0.00    -0.265 OA
BRANCH  13  15
HETATM   15  C5  UNL     1     -10.328   9.569 -13.412  1.00  0.00     0.125 C 
BRANCH  15  16
HETATM   16  C4  UNL     1      -9.868   8.918 -12.138  1.00  0.00     0.018 C 
HETATM   17  C24 UNL     1     -11.048   8.707 -11.236  1.00  0.00     0.015 C 
HETATM   18  C25 UNL     1     -10.674   8.210  -9.875  1.00  0.00     0.001 C 
HETATM   19  C26 UNL     1      -9.484   8.836  -9.252  1.00  0.00     0.000 C 
HETATM   20  C27 UNL     1      -9.032  10.031 -10.027  1.00  0.00     0.001 C 
HETATM   21  C28 UNL     1      -8.834   9.767 -11.486  1.00  0.00     0.015 C 
BRANCH  16  22
HETATM   22  C2  UNL     1      -9.297   7.560 -12.579  1.00  0.00     0.267 C 
BRANCH  22  23
HETATM   23  O1  UNL     1     -10.243   6.732 -13.143  1.00  0.00    -0.365 OA
HETATM   24  C1  UNL     1     -10.349   5.487 -12.554  1.00  0.00     0.204 C 
ENDBRANCH  22  23
BRANCH  22  25
HETATM   25  O2  UNL     1      -8.305   7.746 -13.543  1.00  0.00    -0.365 OA
HETATM   26  C3  UNL     1      -7.333   6.767 -13.514  1.00  0.00     0.204 C 
ENDBRANCH  22  25
ENDBRANCH  16  22
ENDBRANCH  15  16
ENDBRANCH  13  15
ENDBRANCH  12  13
ENDBRANCH  11  12
ENDBRANCH   1  11
BRANCH   4  27
HETATM   27  N1  UNL     1     -11.077  15.227  -6.639  1.00  0.00    -0.272 N 
HETATM   28  C12 UNL     1     -10.555  14.439  -5.711  1.00  0.00     0.129 A 
HETATM   29  C13 UNL     1     -10.014  15.195  -4.635  1.00  0.00    -0.002 A 
HETATM   30  C17 UNL     1     -10.257  16.471  -5.005  1.00  0.00     0.120 A 
HETATM   31  N2  UNL     1     -10.904  16.463  -6.225  1.00  0.00    -0.305 N 
ATOM     32  H2  UNL     1     -11.204  17.295  -6.732  1.00  0.00     0.186 HD
BRANCH  29  33
HETATM   33  C14 UNL     1      -9.385  14.615  -3.510  1.00  0.00     0.021 C 
HETATM   34  C15 UNL     1      -8.777  13.524  -3.275  1.00  0.00     0.085 C 
BRANCH  34  35
HETATM   35  C16 UNL     1      -8.401  12.333  -3.963  1.00  0.00     0.198 C 
HETATM   36  O5  UNL     1      -8.872  11.218  -3.476  1.00  0.00    -0.645 OA
HETATM   37  O6  UNL     1      -7.609  12.263  -5.063  1.00  0.00    -0.645 OA
ENDBRANCH  34  35
ENDBRANCH  29  33
ENDBRANCH   4  27
TORSDOF 11
ENDMDL
