MODEL 1
REMARK VINA RESULT: -8.635917830      0.000      0.000
REMARK  13 active torsions:
REMARK  status: ('A' for Active; 'I' for Inactive)
REMARK    1  A    between atoms: C2_2  and  O2_4 
REMARK    2  A    between atoms: O2_4  and  C3_5 
REMARK    3  A    between atoms: C5_8  and  C6_9 
REMARK    4  A    between atoms: C7_10  and  C8_11 
REMARK    5  A    between atoms: C8_11  and  C9_12 
REMARK    6  A    between atoms: C9_12  and  O5_14 
REMARK    7  A    between atoms: O5_14  and  C10_15 
REMARK    8  A    between atoms: C10_15  and  C12_17 
REMARK    9  A    between atoms: C12_17  and  O6_19 
REMARK   10  A    between atoms: C19_26  and  C21_28 
REMARK   11  A    between atoms: C21_28  and  C22_29 
REMARK   12  A    between atoms: C22_29  and  C23_31 
REMARK   13  A    between atoms: C23_31  and  C25_33 
ROOT
HETATM    1  C3  UNL     1     -11.722  15.878  -9.069  1.00  0.00     0.207 C 
HETATM    2  C4  UNL     1     -10.873  16.341 -10.250  1.00  0.00     0.164 C 
HETATM    3  O3  UNL     1     -11.028  17.287 -10.972  1.00  0.00    -0.294 OA
HETATM    4  C5  UNL     1      -9.764  15.315 -10.309  1.00  0.00     0.085 C 
HETATM    5  C14 UNL     1      -9.416  15.309  -8.805  1.00  0.00     0.008 C 
HETATM    6  C15 UNL     1      -8.933  16.673  -8.450  1.00  0.00     0.006 C 
HETATM    7  C16 UNL     1      -9.349  17.120  -7.085  1.00  0.00     0.005 C 
HETATM    8  C17 UNL     1      -9.804  15.998  -6.193  1.00  0.00    -0.010 C 
HETATM    9  C18 UNL     1     -10.220  16.660  -4.900  1.00  0.00     0.011 C 
HETATM   10  C19 UNL     1     -10.864  15.102  -6.765  1.00  0.00    -0.027 C 
HETATM   11  C20 UNL     1     -12.209  15.518  -6.217  1.00  0.00     0.016 C 
HETATM   12  C28 UNL     1     -10.840  15.058  -8.270  1.00  0.00     0.036 C 
ENDROOT
BRANCH   4  13
HETATM   13  C6  UNL     1      -8.645  15.758 -11.117  1.00  0.00    -0.018 C 
HETATM   14  C7  UNL     1      -8.143  15.049 -12.095  1.00  0.00    -0.020 C 
BRANCH  14  15
HETATM   15  C8  UNL     1      -8.620  13.721 -12.520  1.00  0.00     0.138 C 
BRANCH  15  16
HETATM   16  C9  UNL     1      -9.079  13.764 -13.954  1.00  0.00     0.262 C 
HETATM   17  O4  UNL     1      -9.243  12.684 -14.542  1.00  0.00    -0.265 OA
BRANCH  16  18
HETATM   18  O5  UNL     1      -9.316  14.946 -14.611  1.00  0.00    -0.314 OA
BRANCH  18  19
HETATM   19  C10 UNL     1     -10.559  15.340 -15.112  1.00  0.00     0.156 C 
HETATM   20  C11 UNL     1     -11.021  16.541 -14.315  1.00  0.00     0.042 C 
BRANCH  19  21
HETATM   21  C12 UNL     1     -10.491  15.724 -16.568  1.00  0.00     0.143 C 
HETATM   22  C13 UNL     1     -11.512  16.776 -16.942  1.00  0.00     0.042 C 
BRANCH  21  23
HETATM   23  O6  UNL     1     -10.739  14.616 -17.373  1.00  0.00    -0.393 OA
ATOM     24  H6  UNL     1     -10.231  14.670 -18.174  1.00  0.00     0.210 HD
ENDBRANCH  21  23
ENDBRANCH  19  21
ENDBRANCH  18  19
ENDBRANCH  16  18
ENDBRANCH  15  16
ENDBRANCH  14  15
ENDBRANCH   4  13
BRANCH   1  25
HETATM   25  O2  UNL     1     -12.312  17.023  -8.586  1.00  0.00    -0.308 OA
BRANCH  25  26
HETATM   26  C2  UNL     1     -13.578  17.424  -9.037  1.00  0.00     0.255 C 
HETATM   27  C1  UNL     1     -13.886  18.831  -9.391  1.00  0.00     0.126 C 
HETATM   28  O1  UNL     1     -14.487  16.571  -9.147  1.00  0.00    -0.266 OA
ENDBRANCH  25  26
ENDBRANCH   1  25
BRANCH  10  29
HETATM   29  C21 UNL     1     -10.629  13.669  -6.339  1.00  0.00     0.088 C 
BRANCH  29  30
HETATM   30  C22 UNL     1      -9.285  13.162  -6.236  1.00  0.00     0.131 C 
HETATM   31  O7  UNL     1      -8.725  12.688  -7.211  1.00  0.00    -0.298 OA
BRANCH  30  32
HETATM   32  C23 UNL     1      -8.476  13.165  -4.986  1.00  0.00     0.054 C 
HETATM   33  C24 UNL     1      -7.654  11.879  -4.868  1.00  0.00     0.018 C 
BRANCH  32  34
HETATM   34  C25 UNL     1      -9.340  13.219  -3.742  1.00  0.00    -0.012 C 
HETATM   35  C26 UNL     1      -8.741  14.200  -2.778  1.00  0.00     0.010 C 
HETATM   36  C27 UNL     1      -9.486  11.851  -3.142  1.00  0.00     0.010 C 
ENDBRANCH  32  34
ENDBRANCH  30  32
ENDBRANCH  29  30
ENDBRANCH  10  29
TORSDOF 13
ENDMDL
MODEL 2
REMARK VINA RESULT: -8.535836944      2.639      7.095
REMARK  13 active torsions:
REMARK  status: ('A' for Active; 'I' for Inactive)
REMARK    1  A    between atoms: C2_2  and  O2_4 
REMARK    2  A    between atoms: O2_4  and  C3_5 
REMARK    3  A    between atoms: C5_8  and  C6_9 
REMARK    4  A    between atoms: C7_10  and  C8_11 
REMARK    5  A    between atoms: C8_11  and  C9_12 
REMARK    6  A    between atoms: C9_12  and  O5_14 
REMARK    7  A    between atoms: O5_14  and  C10_15 
REMARK    8  A    between atoms: C10_15  and  C12_17 
REMARK    9  A    between atoms: C12_17  and  O6_19 
REMARK   10  A    between atoms: C19_26  and  C21_28 
REMARK   11  A    between atoms: C21_28  and  C22_29 
REMARK   12  A    between atoms: C22_29  and  C23_31 
REMARK   13  A    between atoms: C23_31  and  C25_33 
ROOT
HETATM    1  C3  UNL     1     -10.474  15.658  -9.028  1.00  0.00     0.207 C 
HETATM    2  C4  UNL     1     -10.014  16.490  -7.833  1.00  0.00     0.164 C 
HETATM    3  O3  UNL     1      -9.242  17.407  -7.799  1.00  0.00    -0.294 OA
HETATM    4  C5  UNL     1     -10.769  15.883  -6.672  1.00  0.00     0.085 C 
HETATM    5  C14 UNL     1     -12.159  15.830  -7.342  1.00  0.00     0.008 C 
HETATM    6  C15 UNL     1     -12.569  17.232  -7.637  1.00  0.00     0.006 C 
HETATM    7  C16 UNL     1     -13.329  17.376  -8.916  1.00  0.00     0.005 C 
HETATM    8  C17 UNL     1     -13.883  16.081  -9.442  1.00  0.00    -0.010 C 
HETATM    9  C18 UNL     1     -14.560  16.436 -10.745  1.00  0.00     0.011 C 
HETATM   10  C19 UNL     1     -12.895  14.959  -9.578  1.00  0.00    -0.027 C 
HETATM   11  C20 UNL     1     -12.451  14.864 -11.019  1.00  0.00     0.016 C 
HETATM   12  C28 UNL     1     -11.737  15.084  -8.622  1.00  0.00     0.036 C 
ENDROOT
BRANCH   4  13
HETATM   13  C6  UNL     1     -10.768  16.741  -5.504  1.00  0.00    -0.018 C 
HETATM   14  C7  UNL     1     -10.101  16.466  -4.413  1.00  0.00    -0.020 C 
BRANCH  14  15
HETATM   15  C8  UNL     1      -9.267  15.270  -4.201  1.00  0.00     0.138 C 
BRANCH  15  16
HETATM   16  C9  UNL     1     -10.135  14.059  -3.982  1.00  0.00     0.262 C 
HETATM   17  O4  UNL     1     -10.967  14.101  -3.062  1.00  0.00    -0.265 OA
BRANCH  16  18
HETATM   18  O5  UNL     1     -10.030  12.934  -4.761  1.00  0.00    -0.314 OA
BRANCH  18  19
HETATM   19  C10 UNL     1      -8.827  12.401  -5.229  1.00  0.00     0.156 C 
HETATM   20  C11 UNL     1      -8.404  11.305  -4.274  1.00  0.00     0.042 C 
BRANCH  19  21
HETATM   21  C12 UNL     1      -8.962  11.814  -6.610  1.00  0.00     0.143 C 
HETATM   22  C13 UNL     1      -8.904  12.864  -7.698  1.00  0.00     0.042 C 
BRANCH  21  23
HETATM   23  O6  UNL     1     -10.185  11.163  -6.742  1.00  0.00    -0.393 OA
ATOM     24  H6  UNL     1     -10.144  10.522  -7.441  1.00  0.00     0.210 HD
ENDBRANCH  21  23
ENDBRANCH  19  21
ENDBRANCH  18  19
ENDBRANCH  16  18
ENDBRANCH  15  16
ENDBRANCH  14  15
ENDBRANCH   4  13
BRANCH   1  25
HETATM   25  O2  UNL     1     -10.355  16.498 -10.111  1.00  0.00    -0.308 OA
BRANCH  25  26
HETATM   26  C2  UNL     1      -9.324  16.324 -11.045  1.00  0.00     0.255 C 
HETATM   27  C1  UNL     1      -9.539  15.653 -12.350  1.00  0.00     0.126 C 
HETATM   28  O1  UNL     1      -8.176  16.745 -10.776  1.00  0.00    -0.266 OA
ENDBRANCH  25  26
ENDBRANCH   1  25
BRANCH  10  29
HETATM   29  C21 UNL     1     -13.542  13.639  -9.220  1.00  0.00     0.088 C 
BRANCH  29  30
HETATM   30  C22 UNL     1     -12.751  12.437  -9.187  1.00  0.00     0.131 C 
HETATM   31  O7  UNL     1     -12.428  11.936  -8.122  1.00  0.00    -0.298 OA
BRANCH  30  32
HETATM   32  C23 UNL     1     -12.269  11.710 -10.394  1.00  0.00     0.054 C 
HETATM   33  C24 UNL     1     -13.070  10.424 -10.610  1.00  0.00     0.018 C 
BRANCH  32  34
HETATM   34  C25 UNL     1     -10.821  11.278 -10.265  1.00  0.00    -0.012 C 
HETATM   35  C26 UNL     1      -9.989  12.080 -11.221  1.00  0.00     0.010 C 
HETATM   36  C27 UNL     1     -10.690   9.801 -10.498  1.00  0.00     0.010 C 
ENDBRANCH  32  34
ENDBRANCH  30  32
ENDBRANCH  29  30
ENDBRANCH  10  29
TORSDOF 13
ENDMDL
MODEL 3
REMARK VINA RESULT: -8.469227175      3.367      9.213
REMARK  13 active torsions:
REMARK  status: ('A' for Active; 'I' for Inactive)
REMARK    1  A    between atoms: C2_2  and  O2_4 
REMARK    2  A    between atoms: O2_4  and  C3_5 
REMARK    3  A    between atoms: C5_8  and  C6_9 
REMARK    4  A    between atoms: C7_10  and  C8_11 
REMARK    5  A    between atoms: C8_11  and  C9_12 
REMARK    6  A    between atoms: C9_12  and  O5_14 
REMARK    7  A    between atoms: O5_14  and  C10_15 
REMARK    8  A    between atoms: C10_15  and  C12_17 
REMARK    9  A    between atoms: C12_17  and  O6_19 
REMARK   10  A    between atoms: C19_26  and  C21_28 
REMARK   11  A    between atoms: C21_28  and  C22_29 
REMARK   12  A    between atoms: C22_29  and  C23_31 
REMARK   13  A    between atoms: C23_31  and  C25_33 
ROOT
HETATM    1  C3  UNL     1     -13.438  16.106  -8.767  1.00  0.00     0.207 C 
HETATM    2  C4  UNL     1     -12.083  15.733  -8.172  1.00  0.00     0.164 C 
HETATM    3  O3  UNL     1     -11.560  14.657  -8.091  1.00  0.00    -0.294 OA
HETATM    4  C5  UNL     1     -11.533  17.058  -7.693  1.00  0.00     0.085 C 
HETATM    5  C14 UNL     1     -11.844  17.875  -8.966  1.00  0.00     0.008 C 
HETATM    6  C15 UNL     1     -11.055  17.284 -10.083  1.00  0.00     0.006 C 
HETATM    7  C16 UNL     1     -11.771  17.300 -11.395  1.00  0.00     0.005 C 
HETATM    8  C17 UNL     1     -12.938  18.248 -11.438  1.00  0.00    -0.010 C 
HETATM    9  C18 UNL     1     -13.542  18.076 -12.812  1.00  0.00     0.011 C 
HETATM   10  C19 UNL     1     -13.939  18.095 -10.330  1.00  0.00    -0.027 C 
HETATM   11  C20 UNL     1     -15.116  17.294 -10.835  1.00  0.00     0.016 C 
HETATM   12  C28 UNL     1     -13.338  17.514  -9.077  1.00  0.00     0.036 C 
ENDROOT
BRANCH   4  13
HETATM   13  C6  UNL     1     -10.110  17.001  -7.426  1.00  0.00    -0.018 C 
HETATM   14  C7  UNL     1      -9.612  16.834  -6.228  1.00  0.00    -0.020 C 
BRANCH  14  15
HETATM   15  C8  UNL     1     -10.397  16.685  -4.990  1.00  0.00     0.138 C 
BRANCH  15  16
HETATM   16  C9  UNL     1     -10.495  15.232  -4.605  1.00  0.00     0.262 C 
HETATM   17  O4  UNL     1     -11.502  14.603  -4.970  1.00  0.00    -0.265 OA
BRANCH  16  18
HETATM   18  O5  UNL     1      -9.518  14.600  -3.878  1.00  0.00    -0.314 OA
BRANCH  18  19
HETATM   19  C10 UNL     1      -9.429  13.218  -3.699  1.00  0.00     0.156 C 
HETATM   20  C11 UNL     1      -8.067  12.775  -4.189  1.00  0.00     0.042 C 
BRANCH  19  21
HETATM   21  C12 UNL     1      -9.576  12.818  -2.254  1.00  0.00     0.143 C 
HETATM   22  C13 UNL     1     -10.125  11.418  -2.089  1.00  0.00     0.042 C 
BRANCH  21  23
HETATM   23  O6  UNL     1     -10.457  13.677  -1.602  1.00  0.00    -0.393 OA
ATOM     24  H6  UNL     1     -10.013  14.480  -1.357  1.00  0.00     0.210 HD
ENDBRANCH  21  23
ENDBRANCH  19  21
ENDBRANCH  18  19
ENDBRANCH  16  18
ENDBRANCH  15  16
ENDBRANCH  14  15
ENDBRANCH   4  13
BRANCH   1  25
HETATM   25  O2  UNL     1     -13.679  15.150  -9.727  1.00  0.00    -0.308 OA
BRANCH  25  26
HETATM   26  C2  UNL     1     -14.750  14.255  -9.597  1.00  0.00     0.255 C 
HETATM   27  C1  UNL     1     -15.719  14.335  -8.477  1.00  0.00     0.126 C 
HETATM   28  O1  UNL     1     -14.901  13.352 -10.450  1.00  0.00    -0.266 OA
ENDBRANCH  25  26
ENDBRANCH   1  25
BRANCH  10  29
HETATM   29  C21 UNL     1     -14.467  19.449  -9.906  1.00  0.00     0.088 C 
BRANCH  29  30
HETATM   30  C22 UNL     1     -13.983  20.642 -10.551  1.00  0.00     0.131 C 
HETATM   31  O7  UNL     1     -12.813  20.972 -10.447  1.00  0.00    -0.298 OA
BRANCH  30  32
HETATM   32  C23 UNL     1     -14.822  21.554 -11.377  1.00  0.00     0.054 C 
HETATM   33  C24 UNL     1     -16.309  21.237 -11.195  1.00  0.00     0.018 C 
BRANCH  32  34
HETATM   34  C25 UNL     1     -14.546  21.402 -12.860  1.00  0.00    -0.012 C 
HETATM   35  C26 UNL     1     -13.966  22.685 -13.378  1.00  0.00     0.010 C 
HETATM   36  C27 UNL     1     -15.796  21.008 -13.591  1.00  0.00     0.010 C 
ENDBRANCH  32  34
ENDBRANCH  30  32
ENDBRANCH  29  30
ENDBRANCH  10  29
TORSDOF 13
ENDMDL
MODEL 4
REMARK VINA RESULT: -8.468991272      2.359      3.535
REMARK  13 active torsions:
REMARK  status: ('A' for Active; 'I' for Inactive)
REMARK    1  A    between atoms: C2_2  and  O2_4 
REMARK    2  A    between atoms: O2_4  and  C3_5 
REMARK    3  A    between atoms: C5_8  and  C6_9 
REMARK    4  A    between atoms: C7_10  and  C8_11 
REMARK    5  A    between atoms: C8_11  and  C9_12 
REMARK    6  A    between atoms: C9_12  and  O5_14 
REMARK    7  A    between atoms: O5_14  and  C10_15 
REMARK    8  A    between atoms: C10_15  and  C12_17 
REMARK    9  A    between atoms: C12_17  and  O6_19 
REMARK   10  A    between atoms: C19_26  and  C21_28 
REMARK   11  A    between atoms: C21_28  and  C22_29 
REMARK   12  A    between atoms: C22_29  and  C23_31 
REMARK   13  A    between atoms: C23_31  and  C25_33 
ROOT
HETATM    1  C3  UNL     1     -11.762  15.968  -9.020  1.00  0.00     0.207 C 
HETATM    2  C4  UNL     1     -10.937  16.415 -10.224  1.00  0.00     0.164 C 
HETATM    3  O3  UNL     1     -11.092  17.365 -10.940  1.00  0.00    -0.294 OA
HETATM    4  C5  UNL     1      -9.853  15.364 -10.317  1.00  0.00     0.085 C 
HETATM    5  C14 UNL     1      -9.463  15.348  -8.823  1.00  0.00     0.008 C 
HETATM    6  C15 UNL     1      -8.939  16.701  -8.481  1.00  0.00     0.006 C 
HETATM    7  C16 UNL     1      -9.306  17.153  -7.104  1.00  0.00     0.005 C 
HETATM    8  C17 UNL     1      -9.760  16.040  -6.201  1.00  0.00    -0.010 C 
HETATM    9  C18 UNL     1     -10.124  16.709  -4.895  1.00  0.00     0.011 C 
HETATM   10  C19 UNL     1     -10.855  15.169  -6.743  1.00  0.00    -0.027 C 
HETATM   11  C20 UNL     1     -12.175  15.613  -6.156  1.00  0.00     0.016 C 
HETATM   12  C28 UNL     1     -10.875  15.127  -8.248  1.00  0.00     0.036 C 
ENDROOT
BRANCH   4  13
HETATM   13  C6  UNL     1      -8.748  15.784 -11.156  1.00  0.00    -0.018 C 
HETATM   14  C7  UNL     1      -8.168  14.995 -12.023  1.00  0.00    -0.020 C 
BRANCH  14  15
HETATM   15  C8  UNL     1      -8.532  13.591 -12.278  1.00  0.00     0.138 C 
BRANCH  15  16
HETATM   16  C9  UNL     1      -7.780  12.678 -11.347  1.00  0.00     0.262 C 
HETATM   17  O4  UNL     1      -6.551  12.580 -11.498  1.00  0.00    -0.265 OA
BRANCH  16  18
HETATM   18  O5  UNL     1      -8.407  11.967 -10.355  1.00  0.00    -0.314 OA
BRANCH  18  19
HETATM   19  C10 UNL     1      -9.018  10.723 -10.533  1.00  0.00     0.156 C 
HETATM   20  C11 UNL     1      -8.004   9.655 -10.185  1.00  0.00     0.042 C 
BRANCH  19  21
HETATM   21  C12 UNL     1     -10.226  10.550  -9.649  1.00  0.00     0.143 C 
HETATM   22  C13 UNL     1     -11.124  11.768  -9.644  1.00  0.00     0.042 C 
BRANCH  21  23
HETATM   23  O6  UNL     1      -9.834  10.331  -8.332  1.00  0.00    -0.393 OA
ATOM     24  H6  UNL     1     -10.269   9.561  -7.982  1.00  0.00     0.210 HD
ENDBRANCH  21  23
ENDBRANCH  19  21
ENDBRANCH  18  19
ENDBRANCH  16  18
ENDBRANCH  15  16
ENDBRANCH  14  15
ENDBRANCH   4  13
BRANCH   1  25
HETATM   25  O2  UNL     1     -12.313  17.124  -8.519  1.00  0.00    -0.308 OA
BRANCH  25  26
HETATM   26  C2  UNL     1     -13.576  17.560  -8.941  1.00  0.00     0.255 C 
HETATM   27  C1  UNL     1     -14.607  16.626  -9.456  1.00  0.00     0.126 C 
HETATM   28  O1  UNL     1     -13.854  18.780  -8.887  1.00  0.00    -0.266 OA
ENDBRANCH  25  26
ENDBRANCH   1  25
BRANCH  10  29
HETATM   29  C21 UNL     1     -10.639  13.730  -6.326  1.00  0.00     0.088 C 
BRANCH  29  30
HETATM   30  C22 UNL     1      -9.302  13.205  -6.223  1.00  0.00     0.131 C 
HETATM   31  O7  UNL     1      -8.745  12.731  -7.199  1.00  0.00    -0.298 OA
BRANCH  30  32
HETATM   32  C23 UNL     1      -8.496  13.190  -4.971  1.00  0.00     0.054 C 
HETATM   33  C24 UNL     1      -7.679  11.900  -4.866  1.00  0.00     0.018 C 
BRANCH  32  34
HETATM   34  C25 UNL     1      -9.364  13.232  -3.728  1.00  0.00    -0.012 C 
HETATM   35  C26 UNL     1      -8.770  14.206  -2.754  1.00  0.00     0.010 C 
HETATM   36  C27 UNL     1      -9.509  11.858  -3.140  1.00  0.00     0.010 C 
ENDBRANCH  32  34
ENDBRANCH  30  32
ENDBRANCH  29  30
ENDBRANCH  10  29
TORSDOF 13
ENDMDL
MODEL 5
REMARK VINA RESULT: -8.280297349      1.764      3.335
REMARK  13 active torsions:
REMARK  status: ('A' for Active; 'I' for Inactive)
REMARK    1  A    between atoms: C2_2  and  O2_4 
REMARK    2  A    between atoms: O2_4  and  C3_5 
REMARK    3  A    between atoms: C5_8  and  C6_9 
REMARK    4  A    between atoms: C7_10  and  C8_11 
REMARK    5  A    between atoms: C8_11  and  C9_12 
REMARK    6  A    between atoms: C9_12  and  O5_14 
REMARK    7  A    between atoms: O5_14  and  C10_15 
REMARK    8  A    between atoms: C10_15  and  C12_17 
REMARK    9  A    between atoms: C12_17  and  O6_19 
REMARK   10  A    between atoms: C19_26  and  C21_28 
REMARK   11  A    between atoms: C21_28  and  C22_29 
REMARK   12  A    between atoms: C22_29  and  C23_31 
REMARK   13  A    between atoms: C23_31  and  C25_33 
ROOT
HETATM    1  C3  UNL     1     -11.693  15.872  -9.071  1.00  0.00     0.207 C 
HETATM    2  C4  UNL     1     -10.838  16.310 -10.257  1.00  0.00     0.164 C 
HETATM    3  O3  UNL     1     -10.982  17.247 -10.992  1.00  0.00    -0.294 OA
HETATM    4  C5  UNL     1      -9.740  15.271 -10.301  1.00  0.00     0.085 C 
HETATM    5  C14 UNL     1      -9.394  15.282  -8.796  1.00  0.00     0.008 C 
HETATM    6  C15 UNL     1      -8.896  16.646  -8.460  1.00  0.00     0.006 C 
HETATM    7  C16 UNL     1      -9.308  17.116  -7.102  1.00  0.00     0.005 C 
HETATM    8  C17 UNL     1      -9.776  16.011  -6.195  1.00  0.00    -0.010 C 
HETATM    9  C18 UNL     1     -10.187  16.696  -4.912  1.00  0.00     0.011 C 
HETATM   10  C19 UNL     1     -10.845  15.119  -6.755  1.00  0.00    -0.027 C 
HETATM   11  C20 UNL     1     -12.186  15.557  -6.214  1.00  0.00     0.016 C 
HETATM   12  C28 UNL     1     -10.820  15.054  -8.260  1.00  0.00     0.036 C 
ENDROOT
BRANCH   4  13
HETATM   13  C6  UNL     1      -8.615  15.690 -11.114  1.00  0.00    -0.018 C 
HETATM   14  C7  UNL     1      -8.335  15.161 -12.277  1.00  0.00    -0.020 C 
BRANCH  14  15
HETATM   15  C8  UNL     1      -9.096  14.080 -12.929  1.00  0.00     0.138 C 
BRANCH  15  16
HETATM   16  C9  UNL     1      -8.350  12.776 -12.821  1.00  0.00     0.262 C 
HETATM   17  O4  UNL     1      -7.689  12.404 -13.803  1.00  0.00    -0.265 OA
BRANCH  16  18
HETATM   18  O5  UNL     1      -8.382  12.008 -11.684  1.00  0.00    -0.314 OA
BRANCH  18  19
HETATM   19  C10 UNL     1      -7.253  11.509 -11.030  1.00  0.00     0.156 C 
HETATM   20  C11 UNL     1      -6.757  12.580 -10.082  1.00  0.00     0.042 C 
BRANCH  19  21
HETATM   21  C12 UNL     1      -7.556  10.264 -10.238  1.00  0.00     0.143 C 
HETATM   22  C13 UNL     1      -8.329   9.238 -11.038  1.00  0.00     0.042 C 
BRANCH  21  23
HETATM   23  O6  UNL     1      -8.331  10.576  -9.125  1.00  0.00    -0.393 OA
ATOM     24  H6  UNL     1      -9.077  11.106  -9.381  1.00  0.00     0.210 HD
ENDBRANCH  21  23
ENDBRANCH  19  21
ENDBRANCH  18  19
ENDBRANCH  16  18
ENDBRANCH  15  16
ENDBRANCH  14  15
ENDBRANCH   4  13
BRANCH   1  25
HETATM   25  O2  UNL     1     -12.271  17.030  -8.604  1.00  0.00    -0.308 OA
BRANCH  25  26
HETATM   26  C2  UNL     1     -13.538  17.431  -9.051  1.00  0.00     0.255 C 
HETATM   27  C1  UNL     1     -13.914  18.858  -9.196  1.00  0.00     0.126 C 
HETATM   28  O1  UNL     1     -14.390  16.560  -9.339  1.00  0.00    -0.266 OA
ENDBRANCH  25  26
ENDBRANCH   1  25
BRANCH  10  29
HETATM   29  C21 UNL     1     -10.626  13.690  -6.309  1.00  0.00     0.088 C 
BRANCH  29  30
HETATM   30  C22 UNL     1      -9.289  13.166  -6.208  1.00  0.00     0.131 C 
HETATM   31  O7  UNL     1      -8.734  12.687  -7.183  1.00  0.00    -0.298 OA
BRANCH  30  32
HETATM   32  C23 UNL     1      -8.478  13.159  -4.958  1.00  0.00     0.054 C 
HETATM   33  C24 UNL     1      -7.688  11.854  -4.831  1.00  0.00     0.018 C 
BRANCH  32  34
HETATM   34  C25 UNL     1      -9.341  13.242  -3.713  1.00  0.00    -0.012 C 
HETATM   35  C26 UNL     1      -8.748  14.256  -2.780  1.00  0.00     0.010 C 
HETATM   36  C27 UNL     1      -9.474  11.890  -3.074  1.00  0.00     0.010 C 
ENDBRANCH  32  34
ENDBRANCH  30  32
ENDBRANCH  29  30
ENDBRANCH  10  29
TORSDOF 13
ENDMDL
