MODEL 1
REMARK VINA RESULT: -7.768089356      0.000      0.000
REMARK  11 active torsions:
REMARK  status: ('A' for Active; 'I' for Inactive)
REMARK    1  A    between atoms: C2_2  and  O1_3 
REMARK    2  A    between atoms: O1_3  and  C3_4 
REMARK    3  A    between atoms: C4_5  and  C5_6 
REMARK    4  A    between atoms: C5_6  and  C6_7 
REMARK    5  A    between atoms: C10_11  and  O2_13 
REMARK    6  A    between atoms: C15_19  and  C16_20 
REMARK    7  A    between atoms: C16_20  and  O4_21 
REMARK    8  A    between atoms: O4_21  and  C17_22 
REMARK    9  A    between atoms: C21_28  and  C22_29 
REMARK   10  A    between atoms: C21_28  and  C28_35 
REMARK   11  A    between atoms: C23_30  and  C24_31 
ROOT
HETATM    1  C3  UNL     1     -11.695  13.796  -9.418  1.00  0.00     0.161 C 
HETATM    2  C4  UNL     1     -10.510  14.722  -9.146  1.00  0.00     0.055 C 
HETATM    3  C10 UNL     1     -10.440  15.851 -10.065  1.00  0.00     0.065 C 
HETATM    4  C11 UNL     1      -9.172  16.386 -10.579  1.00  0.00     0.046 C 
HETATM    5  C12 UNL     1     -11.126  17.038  -9.305  1.00  0.00     0.083 C 
HETATM    6  C13 UNL     1     -12.575  16.824  -9.485  1.00  0.00     0.026 A 
HETATM    7  C14 UNL     1     -13.333  15.710  -9.340  1.00  0.00     0.086 A 
HETATM    8  O3  UNL     1     -14.612  15.818  -9.577  1.00  0.00    -0.315 OA
HETATM    9  C15 UNL     1     -15.198  16.929  -9.943  1.00  0.00     0.081 A 
HETATM   10  C19 UNL     1     -14.482  18.067 -10.101  1.00  0.00     0.090 A 
HETATM   11  C20 UNL     1     -13.126  18.054  -9.875  1.00  0.00     0.183 A 
HETATM   12  O6  UNL     1     -12.406  19.059 -10.000  1.00  0.00    -0.288 OA
HETATM   13  C21 UNL     1     -13.008  14.314  -8.946  1.00  0.00     0.114 C 
ENDROOT
BRANCH  13  14
HETATM   14  C22 UNL     1     -13.197  14.247  -7.485  1.00  0.00     0.000 C 
HETATM   15  C23 UNL     1     -12.222  14.472  -6.446  1.00  0.00    -0.002 C 
BRANCH  15  16
HETATM   16  C24 UNL     1     -11.468  15.683  -6.247  1.00  0.00     0.002 C 
HETATM   17  C25 UNL     1     -10.646  15.839  -5.225  1.00  0.00    -0.088 C 
HETATM   18  C26 UNL     1     -10.479  14.749  -4.237  1.00  0.00     0.043 C 
HETATM   19  C27 UNL     1      -9.873  17.093  -5.059  1.00  0.00     0.043 C 
ENDBRANCH  15  16
ENDBRANCH  13  14
BRANCH  13  20
HETATM   20  C28 UNL     1     -14.051  13.492  -9.677  1.00  0.00     0.144 C 
HETATM   21  C29 UNL     1     -14.759  12.357  -9.065  1.00  0.00     0.092 C 
HETATM   22  O7  UNL     1     -14.325  13.765 -10.809  1.00  0.00    -0.297 OA
ENDBRANCH  13  20
BRANCH   1  23
HETATM   23  O1  UNL     1     -11.706  13.291 -10.710  1.00  0.00    -0.356 OA
BRANCH  23  24
HETATM   24  C2  UNL     1     -11.235  12.122 -11.224  1.00  0.00     0.125 C 
HETATM   25  C1  UNL     1     -11.705  10.903 -11.042  1.00  0.00     0.037 C 
ENDBRANCH  23  24
ENDBRANCH   1  23
BRANCH   2  26
HETATM   26  C5  UNL     1      -9.318  13.905  -8.824  1.00  0.00     0.037 C 
BRANCH  26  27
HETATM   27  C6  UNL     1      -9.130  13.417  -7.458  1.00  0.00    -0.024 C 
HETATM   28  C7  UNL     1      -9.156  12.130  -7.135  1.00  0.00    -0.091 C 
HETATM   29  C8  UNL     1      -9.384  11.119  -8.186  1.00  0.00     0.042 C 
HETATM   30  C9  UNL     1      -8.956  11.723  -5.729  1.00  0.00     0.042 C 
ENDBRANCH  26  27
ENDBRANCH   2  26
BRANCH   3  31
HETATM   31  O2  UNL     1     -11.285  15.658 -11.195  1.00  0.00    -0.389 OA
ATOM     32  H2  UNL     1     -11.110  16.298 -11.875  1.00  0.00     0.210 HD
ENDBRANCH   3  31
BRANCH   9  33
HETATM   33  C16 UNL     1     -16.665  16.903 -10.178  1.00  0.00     0.243 C 
BRANCH  33  34
HETATM   34  O4  UNL     1     -17.235  15.673  -9.777  1.00  0.00    -0.315 OA
BRANCH  34  35
HETATM   35  C17 UNL     1     -17.837  15.538  -8.551  1.00  0.00     0.255 C 
HETATM   36  C18 UNL     1     -17.422  14.484  -7.566  1.00  0.00     0.126 C 
HETATM   37  O5  UNL     1     -18.777  16.350  -8.268  1.00  0.00    -0.266 OA
ENDBRANCH  34  35
ENDBRANCH  33  34
ENDBRANCH   9  33
TORSDOF 11
ENDMDL
MODEL 2
REMARK VINA RESULT: -7.739568421      3.165      6.395
REMARK  11 active torsions:
REMARK  status: ('A' for Active; 'I' for Inactive)
REMARK    1  A    between atoms: C2_2  and  O1_3 
REMARK    2  A    between atoms: O1_3  and  C3_4 
REMARK    3  A    between atoms: C4_5  and  C5_6 
REMARK    4  A    between atoms: C5_6  and  C6_7 
REMARK    5  A    between atoms: C10_11  and  O2_13 
REMARK    6  A    between atoms: C15_19  and  C16_20 
REMARK    7  A    between atoms: C16_20  and  O4_21 
REMARK    8  A    between atoms: O4_21  and  C17_22 
REMARK    9  A    between atoms: C21_28  and  C22_29 
REMARK   10  A    between atoms: C21_28  and  C28_35 
REMARK   11  A    between atoms: C23_30  and  C24_31 
ROOT
HETATM    1  C3  UNL     1      -9.254  15.237 -11.813  1.00  0.00     0.161 C 
HETATM    2  C4  UNL     1     -10.692  15.323 -12.325  1.00  0.00     0.055 C 
HETATM    3  C10 UNL     1     -11.491  14.150 -11.994  1.00  0.00     0.065 C 
HETATM    4  C11 UNL     1     -12.493  13.582 -12.906  1.00  0.00     0.046 C 
HETATM    5  C12 UNL     1     -12.273  14.543 -10.693  1.00  0.00     0.083 C 
HETATM    6  C13 UNL     1     -11.310  14.349  -9.592  1.00  0.00     0.026 A 
HETATM    7  C14 UNL     1     -10.018  14.735  -9.463  1.00  0.00     0.086 A 
HETATM    8  O3  UNL     1      -9.400  14.413  -8.360  1.00  0.00    -0.315 OA
HETATM    9  C15 UNL     1      -9.952  13.743  -7.381  1.00  0.00     0.081 A 
HETATM   10  C19 UNL     1     -11.240  13.336  -7.463  1.00  0.00     0.090 A 
HETATM   11  C20 UNL     1     -11.975  13.628  -8.588  1.00  0.00     0.183 A 
HETATM   12  O6  UNL     1     -13.160  13.287  -8.734  1.00  0.00    -0.288 OA
HETATM   13  C21 UNL     1      -9.099  15.491 -10.355  1.00  0.00     0.114 C 
ENDROOT
BRANCH  13  14
HETATM   14  C22 UNL     1      -9.229  16.908  -9.969  1.00  0.00     0.000 C 
HETATM   15  C23 UNL     1      -9.875  17.462  -8.805  1.00  0.00    -0.002 C 
BRANCH  15  16
HETATM   16  C24 UNL     1      -9.540  17.167  -7.436  1.00  0.00     0.002 C 
HETATM   17  C25 UNL     1     -10.463  16.951  -6.517  1.00  0.00    -0.088 C 
HETATM   18  C26 UNL     1     -11.897  17.009  -6.881  1.00  0.00     0.043 C 
HETATM   19  C27 UNL     1     -10.083  16.635  -5.119  1.00  0.00     0.043 C 
ENDBRANCH  15  16
ENDBRANCH  13  14
BRANCH  13  20
HETATM   20  C28 UNL     1      -7.732  14.943  -9.995  1.00  0.00     0.144 C 
HETATM   21  C29 UNL     1      -7.453  13.506  -9.845  1.00  0.00     0.092 C 
HETATM   22  O7  UNL     1      -6.823  15.701  -9.818  1.00  0.00    -0.297 OA
ENDBRANCH  13  20
BRANCH   1  23
HETATM   23  O1  UNL     1      -8.577  14.119 -12.278  1.00  0.00    -0.356 OA
BRANCH  23  24
HETATM   24  C2  UNL     1      -7.900  13.894 -13.437  1.00  0.00     0.125 C 
HETATM   25  C1  UNL     1      -8.308  13.236 -14.505  1.00  0.00     0.037 C 
ENDBRANCH  23  24
ENDBRANCH   1  23
BRANCH   2  26
HETATM   26  C5  UNL     1     -10.691  15.906 -13.686  1.00  0.00     0.037 C 
BRANCH  26  27
HETATM   27  C6  UNL     1     -11.380  17.173 -13.925  1.00  0.00    -0.024 C 
HETATM   28  C7  UNL     1     -11.358  17.806 -15.092  1.00  0.00    -0.091 C 
HETATM   29  C8  UNL     1     -10.606  17.224 -16.222  1.00  0.00     0.042 C 
HETATM   30  C9  UNL     1     -12.083  19.083 -15.247  1.00  0.00     0.042 C 
ENDBRANCH  26  27
ENDBRANCH   2  26
BRANCH   3  31
HETATM   31  O2  UNL     1     -10.674  13.065 -11.565  1.00  0.00    -0.389 OA
ATOM     32  H2  UNL     1     -10.476  13.122 -10.638  1.00  0.00     0.210 HD
ENDBRANCH   3  31
BRANCH   9  33
HETATM   33  C16 UNL     1      -9.126  13.447  -6.182  1.00  0.00     0.243 C 
BRANCH  33  34
HETATM   34  O4  UNL     1      -9.891  12.843  -5.158  1.00  0.00    -0.315 OA
BRANCH  34  35
HETATM   35  C17 UNL     1      -9.908  13.360  -3.888  1.00  0.00     0.255 C 
HETATM   36  C18 UNL     1      -8.650  13.615  -3.109  1.00  0.00     0.126 C 
HETATM   37  O5  UNL     1     -11.045  13.624  -3.377  1.00  0.00    -0.266 OA
ENDBRANCH  34  35
ENDBRANCH  33  34
ENDBRANCH   9  33
TORSDOF 11
ENDMDL
MODEL 3
REMARK VINA RESULT: -7.727413768      2.798      6.981
REMARK  11 active torsions:
REMARK  status: ('A' for Active; 'I' for Inactive)
REMARK    1  A    between atoms: C2_2  and  O1_3 
REMARK    2  A    between atoms: O1_3  and  C3_4 
REMARK    3  A    between atoms: C4_5  and  C5_6 
REMARK    4  A    between atoms: C5_6  and  C6_7 
REMARK    5  A    between atoms: C10_11  and  O2_13 
REMARK    6  A    between atoms: C15_19  and  C16_20 
REMARK    7  A    between atoms: C16_20  and  O4_21 
REMARK    8  A    between atoms: O4_21  and  C17_22 
REMARK    9  A    between atoms: C21_28  and  C22_29 
REMARK   10  A    between atoms: C21_28  and  C28_35 
REMARK   11  A    between atoms: C23_30  and  C24_31 
ROOT
HETATM    1  C3  UNL     1     -10.489  13.526  -8.077  1.00  0.00     0.161 C 
HETATM    2  C4  UNL     1     -11.997  13.504  -7.828  1.00  0.00     0.055 C 
HETATM    3  C10 UNL     1     -12.775  13.249  -9.034  1.00  0.00     0.065 C 
HETATM    4  C11 UNL     1     -14.062  13.903  -9.307  1.00  0.00     0.046 C 
HETATM    5  C12 UNL     1     -13.076  11.711  -9.007  1.00  0.00     0.083 C 
HETATM    6  C13 UNL     1     -11.848  11.071  -9.517  1.00  0.00     0.026 A 
HETATM    7  C14 UNL     1     -10.545  11.271  -9.203  1.00  0.00     0.086 A 
HETATM    8  O3  UNL     1      -9.657  10.550  -9.831  1.00  0.00    -0.315 OA
HETATM    9  C15 UNL     1      -9.950   9.654 -10.738  1.00  0.00     0.081 A 
HETATM   10  C19 UNL     1     -11.236   9.419 -11.085  1.00  0.00     0.090 A 
HETATM   11  C20 UNL     1     -12.245  10.129 -10.479  1.00  0.00     0.183 A 
HETATM   12  O6  UNL     1     -13.448   9.967 -10.747  1.00  0.00    -0.288 OA
HETATM   13  C21 UNL     1      -9.869  12.183  -8.243  1.00  0.00     0.114 C 
ENDROOT
BRANCH  13  14
HETATM   14  C22 UNL     1      -9.725  11.422  -6.989  1.00  0.00     0.000 C 
HETATM   15  C23 UNL     1      -8.806  11.654  -5.902  1.00  0.00    -0.002 C 
BRANCH  15  16
HETATM   16  C24 UNL     1      -8.709  12.863  -5.125  1.00  0.00     0.002 C 
HETATM   17  C25 UNL     1      -8.901  12.877  -3.819  1.00  0.00    -0.088 C 
HETATM   18  C26 UNL     1      -9.230  11.621  -3.106  1.00  0.00     0.043 C 
HETATM   19  C27 UNL     1      -8.779  14.136  -3.047  1.00  0.00     0.043 C 
ENDBRANCH  15  16
ENDBRANCH  13  14
BRANCH  13  20
HETATM   20  C28 UNL     1      -8.523  12.439  -8.893  1.00  0.00     0.144 C 
HETATM   21  C29 UNL     1      -8.367  12.800 -10.310  1.00  0.00     0.092 C 
HETATM   22  O7  UNL     1      -7.527  12.346  -8.235  1.00  0.00    -0.297 OA
ENDBRANCH  13  20
BRANCH   1  23
HETATM   23  O1  UNL     1     -10.108  14.458  -9.031  1.00  0.00    -0.356 OA
BRANCH  23  24
HETATM   24  C2  UNL     1      -9.435  15.636  -8.921  1.00  0.00     0.125 C 
HETATM   25  C1  UNL     1      -9.489  16.684  -9.720  1.00  0.00     0.037 C 
ENDBRANCH  23  24
ENDBRANCH   1  23
BRANCH   2  26
HETATM   26  C5  UNL     1     -12.351  14.592  -6.888  1.00  0.00     0.037 C 
BRANCH  26  27
HETATM   27  C6  UNL     1     -11.347  15.077  -5.941  1.00  0.00    -0.024 C 
HETATM   28  C7  UNL     1     -10.988  16.352  -5.850  1.00  0.00    -0.091 C 
HETATM   29  C8  UNL     1     -11.616  17.351  -6.737  1.00  0.00     0.042 C 
HETATM   30  C9  UNL     1      -9.966  16.756  -4.864  1.00  0.00     0.042 C 
ENDBRANCH  26  27
ENDBRANCH   2  26
BRANCH   3  31
HETATM   31  O2  UNL     1     -11.985  13.405 -10.208  1.00  0.00    -0.389 OA
ATOM     32  H2  UNL     1     -12.486  13.218 -10.993  1.00  0.00     0.210 HD
ENDBRANCH   3  31
BRANCH   9  33
HETATM   33  C16 UNL     1      -8.832   8.907 -11.372  1.00  0.00     0.243 C 
BRANCH  33  34
HETATM   34  O4  UNL     1      -9.230   8.308 -12.589  1.00  0.00    -0.315 OA
BRANCH  34  35
HETATM   35  C17 UNL     1      -9.127   6.953 -12.778  1.00  0.00     0.255 C 
HETATM   36  C18 UNL     1     -10.081   5.980 -12.148  1.00  0.00     0.126 C 
HETATM   37  O5  UNL     1      -8.178   6.536 -13.519  1.00  0.00    -0.266 OA
ENDBRANCH  34  35
ENDBRANCH  33  34
ENDBRANCH   9  33
TORSDOF 11
ENDMDL
MODEL 4
REMARK VINA RESULT: -7.719208537      2.668      5.565
REMARK  11 active torsions:
REMARK  status: ('A' for Active; 'I' for Inactive)
REMARK    1  A    between atoms: C2_2  and  O1_3 
REMARK    2  A    between atoms: O1_3  and  C3_4 
REMARK    3  A    between atoms: C4_5  and  C5_6 
REMARK    4  A    between atoms: C5_6  and  C6_7 
REMARK    5  A    between atoms: C10_11  and  O2_13 
REMARK    6  A    between atoms: C15_19  and  C16_20 
REMARK    7  A    between atoms: C16_20  and  O4_21 
REMARK    8  A    between atoms: O4_21  and  C17_22 
REMARK    9  A    between atoms: C21_28  and  C22_29 
REMARK   10  A    between atoms: C21_28  and  C28_35 
REMARK   11  A    between atoms: C23_30  and  C24_31 
ROOT
HETATM    1  C3  UNL     1     -11.150  11.041 -10.100  1.00  0.00     0.161 C 
HETATM    2  C4  UNL     1     -12.195  11.169 -11.208  1.00  0.00     0.055 C 
HETATM    3  C10 UNL     1     -13.552  11.332 -10.702  1.00  0.00     0.065 C 
HETATM    4  C11 UNL     1     -14.723  10.721 -11.347  1.00  0.00     0.046 C 
HETATM    5  C12 UNL     1     -13.812  12.878 -10.725  1.00  0.00     0.083 C 
HETATM    6  C13 UNL     1     -13.165  13.393  -9.502  1.00  0.00     0.026 A 
HETATM    7  C14 UNL     1     -11.936  13.160  -8.982  1.00  0.00     0.086 A 
HETATM    8  O3  UNL     1     -11.632  13.760  -7.864  1.00  0.00    -0.315 OA
HETATM    9  C15 UNL     1     -12.439  14.567  -7.223  1.00  0.00     0.081 A 
HETATM   10  C19 UNL     1     -13.676  14.830  -7.704  1.00  0.00     0.090 A 
HETATM   11  C20 UNL     1     -14.089  14.245  -8.877  1.00  0.00     0.183 A 
HETATM   12  O6  UNL     1     -15.209  14.440  -9.378  1.00  0.00    -0.288 OA
HETATM   13  C21 UNL     1     -10.792  12.323  -9.434  1.00  0.00     0.114 C 
ENDROOT
BRANCH  13  14
HETATM   14  C22 UNL     1      -9.933  13.207 -10.241  1.00  0.00     0.000 C 
HETATM   15  C23 UNL     1      -9.775  14.637 -10.140  1.00  0.00    -0.002 C 
BRANCH  15  16
HETATM   16  C24 UNL     1      -9.336  15.355  -8.971  1.00  0.00     0.002 C 
HETATM   17  C25 UNL     1      -9.745  16.581  -8.704  1.00  0.00    -0.088 C 
HETATM   18  C26 UNL     1     -10.687  17.263  -9.622  1.00  0.00     0.043 C 
HETATM   19  C27 UNL     1      -9.285  17.285  -7.484  1.00  0.00     0.043 C 
ENDBRANCH  15  16
ENDBRANCH  13  14
BRANCH  13  20
HETATM   20  C28 UNL     1     -10.115  11.927  -8.136  1.00  0.00     0.144 C 
HETATM   21  C29 UNL     1      -8.656  11.938  -7.952  1.00  0.00     0.092 C 
HETATM   22  O7  UNL     1     -10.785  11.586  -7.205  1.00  0.00    -0.297 OA
ENDBRANCH  13  20
BRANCH   1  23
HETATM   23  O1  UNL     1     -11.407   9.992  -9.228  1.00  0.00    -0.356 OA
BRANCH  23  24
HETATM   24  C2  UNL     1     -11.154   8.658  -9.326  1.00  0.00     0.125 C 
HETATM   25  C1  UNL     1      -9.994   8.038  -9.228  1.00  0.00     0.037 C 
ENDBRANCH  23  24
ENDBRANCH   1  23
BRANCH   2  26
HETATM   26  C5  UNL     1     -11.876  10.209 -12.290  1.00  0.00     0.037 C 
BRANCH  26  27
HETATM   27  C6  UNL     1     -10.478   9.971 -12.649  1.00  0.00    -0.024 C 
HETATM   28  C7  UNL     1      -9.986   8.763 -12.895  1.00  0.00    -0.091 C 
HETATM   29  C8  UNL     1     -10.870   7.584 -12.809  1.00  0.00     0.042 C 
HETATM   30  C9  UNL     1      -8.561   8.611 -13.252  1.00  0.00     0.042 C 
ENDBRANCH  26  27
ENDBRANCH   2  26
BRANCH   3  31
HETATM   31  O2  UNL     1     -13.637  11.008  -9.319  1.00  0.00    -0.389 OA
ATOM     32  H2  UNL     1     -14.490  10.653  -9.095  1.00  0.00     0.210 HD
ENDBRANCH   3  31
BRANCH   9  33
HETATM   33  C16 UNL     1     -11.957  15.181  -5.959  1.00  0.00     0.243 C 
BRANCH  33  34
HETATM   34  O4  UNL     1     -11.620  14.200  -4.998  1.00  0.00    -0.315 OA
BRANCH  34  35
HETATM   35  C17 UNL     1     -10.438  14.263  -4.306  1.00  0.00     0.255 C 
HETATM   36  C18 UNL     1      -9.214  13.508  -4.737  1.00  0.00     0.126 C 
HETATM   37  O5  UNL     1     -10.408  14.996  -3.264  1.00  0.00    -0.266 OA
ENDBRANCH  34  35
ENDBRANCH  33  34
ENDBRANCH   9  33
TORSDOF 11
ENDMDL
MODEL 5
REMARK VINA RESULT: -7.698173440      2.671      5.827
REMARK  11 active torsions:
REMARK  status: ('A' for Active; 'I' for Inactive)
REMARK    1  A    between atoms: C2_2  and  O1_3 
REMARK    2  A    between atoms: O1_3  and  C3_4 
REMARK    3  A    between atoms: C4_5  and  C5_6 
REMARK    4  A    between atoms: C5_6  and  C6_7 
REMARK    5  A    between atoms: C10_11  and  O2_13 
REMARK    6  A    between atoms: C15_19  and  C16_20 
REMARK    7  A    between atoms: C16_20  and  O4_21 
REMARK    8  A    between atoms: O4_21  and  C17_22 
REMARK    9  A    between atoms: C21_28  and  C22_29 
REMARK   10  A    between atoms: C21_28  and  C28_35 
REMARK   11  A    between atoms: C23_30  and  C24_31 
ROOT
HETATM    1  C3  UNL     1     -11.312  12.732  -9.402  1.00  0.00     0.161 C 
HETATM    2  C4  UNL     1     -12.236  13.477 -10.365  1.00  0.00     0.055 C 
HETATM    3  C10 UNL     1     -13.317  14.184  -9.693  1.00  0.00     0.065 C 
HETATM    4  C11 UNL     1     -14.675  14.279 -10.246  1.00  0.00     0.046 C 
HETATM    5  C12 UNL     1     -12.811  15.661  -9.549  1.00  0.00     0.083 C 
HETATM    6  C13 UNL     1     -11.923  15.649  -8.371  1.00  0.00     0.026 A 
HETATM    7  C14 UNL     1     -10.924  14.804  -8.020  1.00  0.00     0.086 A 
HETATM    8  O3  UNL     1     -10.302  15.041  -6.897  1.00  0.00    -0.315 OA
HETATM    9  C15 UNL     1     -10.587  16.037  -6.098  1.00  0.00     0.081 A 
HETATM   10  C19 UNL     1     -11.577  16.908  -6.406  1.00  0.00     0.090 A 
HETATM   11  C20 UNL     1     -12.290  16.742  -7.570  1.00  0.00     0.183 A 
HETATM   12  O6  UNL     1     -13.211  17.500  -7.917  1.00  0.00    -0.288 OA
HETATM   13  C21 UNL     1     -10.347  13.599  -8.673  1.00  0.00     0.114 C 
ENDROOT
BRANCH  13  14
HETATM   14  C22 UNL     1      -9.222  14.080  -9.495  1.00  0.00     0.000 C 
HETATM   15  C23 UNL     1      -9.230  14.464 -10.885  1.00  0.00    -0.002 C 
BRANCH  15  16
HETATM   16  C24 UNL     1     -10.039  15.505 -11.466  1.00  0.00     0.002 C 
HETATM   17  C25 UNL     1     -10.202  15.623 -12.771  1.00  0.00    -0.088 C 
HETATM   18  C26 UNL     1      -9.540  14.668 -13.689  1.00  0.00     0.043 C 
HETATM   19  C27 UNL     1     -11.054  16.697 -13.335  1.00  0.00     0.043 C 
ENDBRANCH  15  16
ENDBRANCH  13  14
BRANCH  13  20
HETATM   20  C28 UNL     1      -9.860  12.766  -7.503  1.00  0.00     0.144 C 
HETATM   21  C29 UNL     1      -8.546  12.108  -7.472  1.00  0.00     0.092 C 
HETATM   22  O7  UNL     1     -10.569  12.626  -6.549  1.00  0.00    -0.297 OA
ENDBRANCH  13  20
BRANCH   1  23
HETATM   23  O1  UNL     1     -11.982  11.818  -8.601  1.00  0.00    -0.356 OA
BRANCH  23  24
HETATM   24  C2  UNL     1     -12.260  10.498  -8.781  1.00  0.00     0.125 C 
HETATM   25  C1  UNL     1     -11.457   9.547  -9.218  1.00  0.00     0.037 C 
ENDBRANCH  23  24
ENDBRANCH   1  23
BRANCH   2  26
HETATM   26  C5  UNL     1     -12.479  12.631 -11.556  1.00  0.00     0.037 C 
BRANCH  26  27
HETATM   27  C6  UNL     1     -11.359  11.924 -12.176  1.00  0.00    -0.024 C 
HETATM   28  C7  UNL     1     -11.480  10.739 -12.762  1.00  0.00    -0.091 C 
HETATM   29  C8  UNL     1     -12.801  10.079 -12.805  1.00  0.00     0.042 C 
HETATM   30  C9  UNL     1     -10.296  10.094 -13.364  1.00  0.00     0.042 C 
ENDBRANCH  26  27
ENDBRANCH   2  26
BRANCH   3  31
HETATM   31  O2  UNL     1     -13.461  13.758  -8.342  1.00  0.00    -0.389 OA
ATOM     32  H2  UNL     1     -13.542  14.496  -7.750  1.00  0.00     0.210 HD
ENDBRANCH   3  31
BRANCH   9  33
HETATM   33  C16 UNL     1      -9.794  16.183  -4.850  1.00  0.00     0.243 C 
BRANCH  33  34
HETATM   34  O4  UNL     1     -10.412  15.528  -3.760  1.00  0.00    -0.315 OA
BRANCH  34  35
HETATM   35  C17 UNL     1     -10.170  14.203  -3.500  1.00  0.00     0.255 C 
HETATM   36  C18 UNL     1      -8.780  13.647  -3.397  1.00  0.00     0.126 C 
HETATM   37  O5  UNL     1     -11.181  13.443  -3.346  1.00  0.00    -0.266 OA
ENDBRANCH  34  35
ENDBRANCH  33  34
ENDBRANCH   9  33
TORSDOF 11
ENDMDL
