MODEL 1
REMARK VINA RESULT: -7.058611203      0.000      0.000
REMARK  7 active torsions:
REMARK  status: ('A' for Active; 'I' for Inactive)
REMARK    1  A    between atoms: C5_7  and  S2_8 
REMARK    2  A    between atoms: S2_8  and  N1_11 
REMARK    3  A    between atoms: N1_11  and  C6_13 
REMARK    4  A    between atoms: C12_22  and  O3_23 
REMARK    5  A    between atoms: O3_23  and  C13_24 
REMARK    6  A    between atoms: C16_28  and  C17_29 
REMARK    7  A    between atoms: C17_29  and  O4_30 
ROOT
HETATM    1  C1  UNL     1     -11.450   6.304 -19.764  1.00  0.00     0.018 C 
HETATM    2  C2  UNL     1     -11.487   5.702 -18.722  1.00  0.00    -0.067 C 
HETATM    3  C3  UNL     1     -11.533   4.987 -17.446  1.00  0.00     0.094 A 
HETATM    4  S1  UNL     1     -12.844   4.737 -16.403  1.00  0.00    -0.064 SA
HETATM    5  C4  UNL     1     -12.070   3.852 -15.184  1.00  0.00     0.102 A 
HETATM    6 CL1  UNL     1     -12.742   3.180 -13.682  1.00  0.00    -0.074 Cl
HETATM    7  C5  UNL     1     -10.768   3.764 -15.620  1.00  0.00     0.144 A 
HETATM    8  C12 UNL     1     -10.488   4.360 -16.811  1.00  0.00     0.127 A 
ENDROOT
BRANCH   8   9
HETATM    9  O3  UNL     1      -9.195   4.366 -17.396  1.00  0.00    -0.305 OA
BRANCH   9  10
HETATM   10  C13 UNL     1      -8.465   5.483 -17.673  1.00  0.00     0.099 A 
HETATM   11  C14 UNL     1      -8.361   6.585 -16.842  1.00  0.00     0.063 A 
HETATM   12  C15 UNL     1      -7.602   7.681 -17.177  1.00  0.00     0.045 A 
HETATM   13 CL2  UNL     1      -7.437   9.063 -16.112  1.00  0.00    -0.084 Cl
HETATM   14  C16 UNL     1      -6.918   7.713 -18.367  1.00  0.00    -0.011 A 
HETATM   15  C18 UNL     1      -7.020   6.620 -19.195  1.00  0.00     0.037 A 
HETATM   16  C19 UNL     1      -7.767   5.517 -18.884  1.00  0.00     0.068 A 
HETATM   17 CL3  UNL     1      -7.869   4.136 -19.977  1.00  0.00    -0.081 Cl
BRANCH  14  18
HETATM   18  C17 UNL     1      -6.096   8.896 -18.734  1.00  0.00     0.204 C 
BRANCH  18  19
HETATM   19  O4  UNL     1      -4.782   8.754 -18.307  1.00  0.00    -0.396 OA
ATOM     20  H4  UNL     1      -4.443   9.567 -17.949  1.00  0.00     0.209 HD
ENDBRANCH  18  19
ENDBRANCH  14  18
ENDBRANCH   9  10
ENDBRANCH   8   9
BRANCH   7  21
HETATM   21  S2  UNL     1      -9.506   3.009 -14.594  1.00  0.00     0.268 S 
HETATM   22  O1  UNL     1     -10.158   1.832 -13.858  1.00  0.00    -0.200 OA
HETATM   23  O2  UNL     1      -9.133   3.975 -13.490  1.00  0.00    -0.200 OA
BRANCH  21  24
HETATM   24  N1  UNL     1      -8.185   2.483 -15.455  1.00  0.00    -0.276 N 
ATOM     25  H1  UNL     1      -8.321   2.371 -16.460  1.00  0.00     0.179 HD
BRANCH  24  26
HETATM   26  C6  UNL     1      -6.910   2.174 -14.969  1.00  0.00     0.090 A 
HETATM   27  C7  UNL     1      -5.737   2.894 -15.240  1.00  0.00     0.051 A 
HETATM   28  C8  UNL     1      -5.614   4.105 -16.116  1.00  0.00     0.072 C 
HETATM   29  N2  UNL     1      -4.750   2.290 -14.566  1.00  0.00    -0.301 N 
HETATM   30  N3  UNL     1      -5.176   1.245 -13.883  1.00  0.00    -0.299 N 
ATOM     31  H2  UNL     1      -3.779   2.603 -14.580  1.00  0.00     0.187 HD
HETATM   32  C9  UNL     1      -4.384   0.362 -13.018  1.00  0.00     0.177 C 
HETATM   33  C10 UNL     1      -6.500   1.165 -14.125  1.00  0.00     0.053 A 
HETATM   34  C11 UNL     1      -7.377   0.110 -13.535  1.00  0.00     0.072 C 
ENDBRANCH  24  26
ENDBRANCH  21  24
ENDBRANCH   7  21
TORSDOF 7
ENDMDL
MODEL 2
REMARK VINA RESULT: -6.980816863      2.985      5.777
REMARK  7 active torsions:
REMARK  status: ('A' for Active; 'I' for Inactive)
REMARK    1  A    between atoms: C5_7  and  S2_8 
REMARK    2  A    between atoms: S2_8  and  N1_11 
REMARK    3  A    between atoms: N1_11  and  C6_13 
REMARK    4  A    between atoms: C12_22  and  O3_23 
REMARK    5  A    between atoms: O3_23  and  C13_24 
REMARK    6  A    between atoms: C16_28  and  C17_29 
REMARK    7  A    between atoms: C17_29  and  O4_30 
ROOT
HETATM    1  C1  UNL     1     -12.696   3.413 -19.433  1.00  0.00     0.018 C 
HETATM    2  C2  UNL     1     -11.687   3.529 -18.787  1.00  0.00    -0.067 C 
HETATM    3  C3  UNL     1     -10.451   3.661 -18.014  1.00  0.00     0.094 A 
HETATM    4  S1  UNL     1      -9.181   4.766 -18.204  1.00  0.00    -0.064 SA
HETATM    5  C4  UNL     1      -8.167   4.248 -16.951  1.00  0.00     0.102 A 
HETATM    6 CL1  UNL     1      -6.586   4.884 -16.446  1.00  0.00    -0.074 Cl
HETATM    7  C5  UNL     1      -8.851   3.193 -16.390  1.00  0.00     0.144 A 
HETATM    8  C12 UNL     1     -10.053   2.887 -16.950  1.00  0.00     0.127 A 
ENDROOT
BRANCH   8   9
HETATM    9  O3  UNL     1     -10.879   1.826 -16.496  1.00  0.00    -0.305 OA
BRANCH   9  10
HETATM   10  C13 UNL     1     -12.068   1.980 -15.849  1.00  0.00     0.099 A 
HETATM   11  C14 UNL     1     -12.279   2.828 -14.776  1.00  0.00     0.063 A 
HETATM   12  C15 UNL     1     -13.506   2.944 -14.168  1.00  0.00     0.045 A 
HETATM   13 CL2  UNL     1     -13.789   4.044 -12.834  1.00  0.00    -0.084 Cl
HETATM   14  C16 UNL     1     -14.574   2.204 -14.617  1.00  0.00    -0.011 A 
HETATM   15  C18 UNL     1     -14.367   1.360 -15.682  1.00  0.00     0.037 A 
HETATM   16  C19 UNL     1     -13.155   1.229 -16.304  1.00  0.00     0.068 A 
HETATM   17 CL3  UNL     1     -12.935   0.133 -17.669  1.00  0.00    -0.081 Cl
BRANCH  14  18
HETATM   18  C17 UNL     1     -15.903   2.325 -13.964  1.00  0.00     0.204 C 
BRANCH  18  19
HETATM   19  O4  UNL     1     -16.112   1.305 -13.044  1.00  0.00    -0.396 OA
ATOM     20  H4  UNL     1     -16.828   1.510 -12.453  1.00  0.00     0.209 HD
ENDBRANCH  18  19
ENDBRANCH  14  18
ENDBRANCH   9  10
ENDBRANCH   8   9
BRANCH   7  21
HETATM   21  S2  UNL     1      -8.116   2.216 -15.079  1.00  0.00     0.268 S 
HETATM   22  O1  UNL     1      -8.212   0.744 -15.495  1.00  0.00    -0.200 OA
HETATM   23  O2  UNL     1      -8.993   2.312 -13.849  1.00  0.00    -0.200 OA
BRANCH  21  24
HETATM   24  N1  UNL     1      -6.534   2.619 -14.767  1.00  0.00    -0.276 N 
ATOM     25  H1  UNL     1      -6.327   3.616 -14.711  1.00  0.00     0.179 HD
BRANCH  24  26
HETATM   26  C6  UNL     1      -5.449   1.755 -14.573  1.00  0.00     0.090 A 
HETATM   27  C7  UNL     1      -4.177   1.903 -15.146  1.00  0.00     0.051 A 
HETATM   28  C8  UNL     1      -3.740   2.984 -16.089  1.00  0.00     0.072 C 
HETATM   29  N2  UNL     1      -3.429   0.891 -14.688  1.00  0.00    -0.301 N 
HETATM   30  N3  UNL     1      -4.100   0.103 -13.871  1.00  0.00    -0.299 N 
ATOM     31  H2  UNL     1      -2.452   0.747 -14.941  1.00  0.00     0.187 HD
HETATM   32  C9  UNL     1      -3.600  -1.086 -13.166  1.00  0.00     0.177 C 
HETATM   33  C10 UNL     1      -5.341   0.625 -13.796  1.00  0.00     0.053 A 
HETATM   34  C11 UNL     1      -6.430   0.029 -12.964  1.00  0.00     0.072 C 
ENDBRANCH  24  26
ENDBRANCH  21  24
ENDBRANCH   7  21
TORSDOF 7
ENDMDL
MODEL 3
REMARK VINA RESULT: -6.976164761      0.466      1.545
REMARK  7 active torsions:
REMARK  status: ('A' for Active; 'I' for Inactive)
REMARK    1  A    between atoms: C5_7  and  S2_8 
REMARK    2  A    between atoms: S2_8  and  N1_11 
REMARK    3  A    between atoms: N1_11  and  C6_13 
REMARK    4  A    between atoms: C12_22  and  O3_23 
REMARK    5  A    between atoms: O3_23  and  C13_24 
REMARK    6  A    between atoms: C16_28  and  C17_29 
REMARK    7  A    between atoms: C17_29  and  O4_30 
ROOT
HETATM    1  C1  UNL     1     -11.459   6.340 -19.759  1.00  0.00     0.018 C 
HETATM    2  C2  UNL     1     -11.502   5.735 -18.719  1.00  0.00    -0.067 C 
HETATM    3  C3  UNL     1     -11.554   5.014 -17.446  1.00  0.00     0.094 A 
HETATM    4  S1  UNL     1     -12.869   4.765 -16.408  1.00  0.00    -0.064 SA
HETATM    5  C4  UNL     1     -12.102   3.872 -15.191  1.00  0.00     0.102 A 
HETATM    6 CL1  UNL     1     -12.781   3.196 -13.694  1.00  0.00    -0.074 Cl
HETATM    7  C5  UNL     1     -10.799   3.780 -15.624  1.00  0.00     0.144 A 
HETATM    8  C12 UNL     1     -10.513   4.380 -16.811  1.00  0.00     0.127 A 
ENDROOT
BRANCH   8   9
HETATM    9  O3  UNL     1      -9.219   4.383 -17.393  1.00  0.00    -0.305 OA
BRANCH   9  10
HETATM   10  C13 UNL     1      -8.485   5.498 -17.667  1.00  0.00     0.099 A 
HETATM   11  C14 UNL     1      -8.390   6.603 -16.839  1.00  0.00     0.063 A 
HETATM   12  C15 UNL     1      -7.626   7.697 -17.170  1.00  0.00     0.045 A 
HETATM   13 CL2  UNL     1      -7.471   9.083 -16.109  1.00  0.00    -0.084 Cl
HETATM   14  C16 UNL     1      -6.928   7.723 -18.354  1.00  0.00    -0.011 A 
HETATM   15  C18 UNL     1      -7.023   6.627 -19.177  1.00  0.00     0.037 A 
HETATM   16  C19 UNL     1      -7.774   5.526 -18.870  1.00  0.00     0.068 A 
HETATM   17 CL3  UNL     1      -7.866   4.140 -19.958  1.00  0.00    -0.081 Cl
BRANCH  14  18
HETATM   18  C17 UNL     1      -6.101   8.904 -18.717  1.00  0.00     0.204 C 
BRANCH  18  19
HETATM   19  O4  UNL     1      -4.791   8.761 -18.279  1.00  0.00    -0.396 OA
ATOM     20  H4  UNL     1      -4.450   9.575 -17.927  1.00  0.00     0.209 HD
ENDBRANCH  18  19
ENDBRANCH  14  18
ENDBRANCH   9  10
ENDBRANCH   8   9
BRANCH   7  21
HETATM   21  S2  UNL     1      -9.544   3.015 -14.597  1.00  0.00     0.268 S 
HETATM   22  O1  UNL     1     -10.213   1.865 -13.835  1.00  0.00    -0.200 OA
HETATM   23  O2  UNL     1      -9.139   3.991 -13.514  1.00  0.00    -0.200 OA
BRANCH  21  24
HETATM   24  N1  UNL     1      -8.244   2.445 -15.463  1.00  0.00    -0.276 N 
ATOM     25  H1  UNL     1      -8.413   2.248 -16.449  1.00  0.00     0.179 HD
BRANCH  24  26
HETATM   26  C6  UNL     1      -6.944   2.204 -15.002  1.00  0.00     0.090 A 
HETATM   27  C7  UNL     1      -6.561   1.150 -14.159  1.00  0.00     0.051 A 
HETATM   28  C8  UNL     1      -7.459   0.104 -13.569  1.00  0.00     0.072 C 
HETATM   29  N2  UNL     1      -5.238   1.260 -13.984  1.00  0.00    -0.301 N 
HETATM   30  N3  UNL     1      -4.730   2.288 -14.636  1.00  0.00    -0.299 N 
ATOM     31  H2  UNL     1      -4.686   0.621 -13.411  1.00  0.00     0.187 HD
HETATM   32  C9  UNL     1      -3.321   2.701 -14.692  1.00  0.00     0.177 C 
HETATM   33  C10 UNL     1      -5.770   2.874 -15.262  1.00  0.00     0.053 A 
HETATM   34  C11 UNL     1      -5.628   4.087 -16.122  1.00  0.00     0.072 C 
ENDBRANCH  24  26
ENDBRANCH  21  24
ENDBRANCH   7  21
TORSDOF 7
ENDMDL
MODEL 4
REMARK VINA RESULT: -6.915398927      2.807      6.304
REMARK  7 active torsions:
REMARK  status: ('A' for Active; 'I' for Inactive)
REMARK    1  A    between atoms: C5_7  and  S2_8 
REMARK    2  A    between atoms: S2_8  and  N1_11 
REMARK    3  A    between atoms: N1_11  and  C6_13 
REMARK    4  A    between atoms: C12_22  and  O3_23 
REMARK    5  A    between atoms: O3_23  and  C13_24 
REMARK    6  A    between atoms: C16_28  and  C17_29 
REMARK    7  A    between atoms: C17_29  and  O4_30 
ROOT
HETATM    1  C1  UNL     1     -14.247   3.950 -18.801  1.00  0.00     0.018 C 
HETATM    2  C2  UNL     1     -13.217   4.124 -18.203  1.00  0.00    -0.067 C 
HETATM    3  C3  UNL     1     -11.956   4.330 -17.489  1.00  0.00     0.094 A 
HETATM    4  S1  UNL     1     -10.825   5.581 -17.650  1.00  0.00    -0.064 SA
HETATM    5  C4  UNL     1      -9.684   5.078 -16.503  1.00  0.00     0.102 A 
HETATM    6 CL1  UNL     1      -8.151   5.844 -16.031  1.00  0.00    -0.074 Cl
HETATM    7  C5  UNL     1     -10.217   3.913 -16.000  1.00  0.00     0.144 A 
HETATM    8  C12 UNL     1     -11.412   3.522 -16.519  1.00  0.00     0.127 A 
ENDROOT
BRANCH   8   9
HETATM    9  O3  UNL     1     -12.091   2.343 -16.115  1.00  0.00    -0.305 OA
BRANCH   9  10
HETATM   10  C13 UNL     1     -13.234   2.311 -15.374  1.00  0.00     0.099 A 
HETATM   11  C14 UNL     1     -13.503   3.144 -14.301  1.00  0.00     0.063 A 
HETATM   12  C15 UNL     1     -14.681   3.066 -13.597  1.00  0.00     0.045 A 
HETATM   13 CL2  UNL     1     -15.043   4.142 -12.262  1.00  0.00    -0.084 Cl
HETATM   14  C16 UNL     1     -15.637   2.142 -13.943  1.00  0.00    -0.011 A 
HETATM   15  C18 UNL     1     -15.371   1.314 -15.007  1.00  0.00     0.037 A 
HETATM   16  C19 UNL     1     -14.208   1.372 -15.726  1.00  0.00     0.068 A 
HETATM   17 CL3  UNL     1     -13.909   0.289 -17.086  1.00  0.00    -0.081 Cl
BRANCH  14  18
HETATM   18  C17 UNL     1     -16.912   2.054 -13.185  1.00  0.00     0.204 C 
BRANCH  18  19
HETATM   19  O4  UNL     1     -16.971   0.893 -12.424  1.00  0.00    -0.396 OA
ATOM     20  H4  UNL     1     -17.860   0.561 -12.365  1.00  0.00     0.209 HD
ENDBRANCH  18  19
ENDBRANCH  14  18
ENDBRANCH   9  10
ENDBRANCH   8   9
BRANCH   7  21
HETATM   21  S2  UNL     1      -9.301   2.921 -14.820  1.00  0.00     0.268 S 
HETATM   22  O1  UNL     1     -10.239   1.813 -14.327  1.00  0.00    -0.200 OA
HETATM   23  O2  UNL     1      -9.033   3.756 -13.586  1.00  0.00    -0.200 OA
BRANCH  21  24
HETATM   24  N1  UNL     1      -7.916   2.256 -15.454  1.00  0.00    -0.276 N 
ATOM     25  H1  UNL     1      -7.938   2.042 -16.451  1.00  0.00     0.179 HD
BRANCH  24  26
HETATM   26  C6  UNL     1      -6.723   1.955 -14.786  1.00  0.00     0.090 A 
HETATM   27  C7  UNL     1      -6.540   0.897 -13.883  1.00  0.00     0.051 A 
HETATM   28  C8  UNL     1      -7.578  -0.089 -13.437  1.00  0.00     0.072 C 
HETATM   29  N2  UNL     1      -5.259   0.941 -13.495  1.00  0.00    -0.301 N 
HETATM   30  N3  UNL     1      -4.597   1.929 -14.065  1.00  0.00    -0.299 N 
ATOM     31  H2  UNL     1      -4.843   0.284 -12.834  1.00  0.00     0.187 HD
HETATM   32  C9  UNL     1      -3.177   2.267 -13.895  1.00  0.00     0.177 C 
HETATM   33  C10 UNL     1      -5.488   2.558 -14.858  1.00  0.00     0.053 A 
HETATM   34  C11 UNL     1      -5.143   3.747 -15.694  1.00  0.00     0.072 C 
ENDBRANCH  24  26
ENDBRANCH  21  24
ENDBRANCH   7  21
TORSDOF 7
ENDMDL
MODEL 5
REMARK VINA RESULT: -6.870318603      1.727      2.236
REMARK  7 active torsions:
REMARK  status: ('A' for Active; 'I' for Inactive)
REMARK    1  A    between atoms: C5_7  and  S2_8 
REMARK    2  A    between atoms: S2_8  and  N1_11 
REMARK    3  A    between atoms: N1_11  and  C6_13 
REMARK    4  A    between atoms: C12_22  and  O3_23 
REMARK    5  A    between atoms: O3_23  and  C13_24 
REMARK    6  A    between atoms: C16_28  and  C17_29 
REMARK    7  A    between atoms: C17_29  and  O4_30 
ROOT
HETATM    1  C1  UNL     1      -9.325   4.936 -20.671  1.00  0.00     0.018 C 
HETATM    2  C2  UNL     1      -9.675   4.464 -19.620  1.00  0.00    -0.067 C 
HETATM    3  C3  UNL     1     -10.107   3.906 -18.338  1.00  0.00     0.094 A 
HETATM    4  S1  UNL     1     -11.658   3.439 -17.841  1.00  0.00    -0.064 SA
HETATM    5  C4  UNL     1     -11.305   2.926 -16.266  1.00  0.00     0.102 A 
HETATM    6 CL1  UNL     1     -12.397   2.271 -15.025  1.00  0.00    -0.074 Cl
HETATM    7  C5  UNL     1      -9.950   3.133 -16.150  1.00  0.00     0.144 A 
HETATM    8  C12 UNL     1      -9.321   3.647 -17.241  1.00  0.00     0.127 A 
ENDROOT
BRANCH   8   9
HETATM    9  O3  UNL     1      -7.930   3.926 -17.282  1.00  0.00    -0.305 OA
BRANCH   9  10
HETATM   10  C13 UNL     1      -7.379   5.171 -17.227  1.00  0.00     0.099 A 
HETATM   11  C14 UNL     1      -8.061   6.349 -17.478  1.00  0.00     0.063 A 
HETATM   12  C15 UNL     1      -7.447   7.577 -17.399  1.00  0.00     0.045 A 
HETATM   13 CL2  UNL     1      -8.314   9.074 -17.679  1.00  0.00    -0.084 Cl
HETATM   14  C16 UNL     1      -6.118   7.667 -17.065  1.00  0.00    -0.011 A 
HETATM   15  C18 UNL     1      -5.439   6.499 -16.816  1.00  0.00     0.037 A 
HETATM   16  C19 UNL     1      -6.026   5.265 -16.886  1.00  0.00     0.068 A 
HETATM   17 CL3  UNL     1      -5.115   3.791 -16.558  1.00  0.00    -0.081 Cl
BRANCH  14  18
HETATM   18  C17 UNL     1      -5.450   8.992 -16.979  1.00  0.00     0.204 C 
BRANCH  18  19
HETATM   19  O4  UNL     1      -4.854   9.341 -18.184  1.00  0.00    -0.396 OA
ATOM     20  H4  UNL     1      -4.866  10.282 -18.319  1.00  0.00     0.209 HD
ENDBRANCH  18  19
ENDBRANCH  14  18
ENDBRANCH   9  10
ENDBRANCH   8   9
BRANCH   7  21
HETATM   21  S2  UNL     1      -9.110   2.851 -14.591  1.00  0.00     0.268 S 
HETATM   22  O1  UNL     1      -9.911   1.793 -13.823  1.00  0.00    -0.200 OA
HETATM   23  O2  UNL     1      -9.229   4.096 -13.739  1.00  0.00    -0.200 OA
BRANCH  21  24
HETATM   24  N1  UNL     1      -7.535   2.351 -14.774  1.00  0.00    -0.276 N 
ATOM     25  H1  UNL     1      -6.909   3.005 -15.246  1.00  0.00     0.179 HD
BRANCH  24  26
HETATM   26  C6  UNL     1      -6.962   1.144 -14.358  1.00  0.00     0.090 A 
HETATM   27  C7  UNL     1      -7.458  -0.136 -14.650  1.00  0.00     0.051 A 
HETATM   28  C8  UNL     1      -8.698  -0.460 -15.428  1.00  0.00     0.072 C 
HETATM   29  N2  UNL     1      -6.609  -1.012 -14.097  1.00  0.00    -0.301 N 
HETATM   30  N3  UNL     1      -5.610  -0.417 -13.474  1.00  0.00    -0.299 N 
ATOM     31  H2  UNL     1      -6.723  -2.024 -14.151  1.00  0.00     0.187 HD
HETATM   32  C9  UNL     1      -4.486  -1.056 -12.777  1.00  0.00     0.177 C 
HETATM   33  C10 UNL     1      -5.819   0.906 -13.629  1.00  0.00     0.053 A 
HETATM   34  C11 UNL     1      -4.906   1.949 -13.071  1.00  0.00     0.072 C 
ENDBRANCH  24  26
ENDBRANCH  21  24
ENDBRANCH   7  21
TORSDOF 7
ENDMDL
