MODEL 1
REMARK VINA RESULT: -8.308147157      0.000      0.000
REMARK  7 active torsions:
REMARK  status: ('A' for Active; 'I' for Inactive)
REMARK    1  A    between atoms: O1_1  and  C1_3 
REMARK    2  A    between atoms: C1_3  and  C2_4 
REMARK    3  A    between atoms: C1_3  and  C9_15 
REMARK    4  A    between atoms: C2_4  and  O2_5 
REMARK    5  A    between atoms: O2_5  and  C3_6 
REMARK    6  A    between atoms: C9_15  and  N1_16 
REMARK    7  A    between atoms: C10_17  and  C11_18 
ROOT
HETATM    1  N1  UNL     1      -7.577   3.391 -15.273  1.00  0.00    -0.326 N 
HETATM    2  C10 UNL     1      -7.349   4.271 -16.263  1.00  0.00     0.089 A 
HETATM    3  N3  UNL     1      -6.048   4.160 -16.590  1.00  0.00    -0.343 N 
ATOM      4  H3  UNL     1      -5.596   4.714 -17.318  1.00  0.00     0.167 HD
HETATM    5  C16 UNL     1      -5.410   3.229 -15.844  1.00  0.00     0.075 A 
HETATM    6  C17 UNL     1      -4.170   2.700 -15.717  1.00  0.00    -0.015 A 
HETATM    7  C18 UNL     1      -4.002   1.726 -14.766  1.00  0.00    -0.007 A 
HETATM    8  S1  UNL     1      -5.562   1.589 -14.092  1.00  0.00    -0.074 SA
HETATM    9  C19 UNL     1      -6.384   2.757 -15.022  1.00  0.00     0.105 A 
HETATM   10  C20 UNL     1      -2.660   1.069 -14.544  1.00  0.00     0.047 C 
HETATM   11  C21 UNL     1      -1.517   2.010 -14.682  1.00  0.00     0.005 C 
HETATM   12  C22 UNL     1      -1.802   3.247 -15.460  1.00  0.00     0.005 C 
HETATM   13  C23 UNL     1      -2.887   3.018 -16.483  1.00  0.00     0.042 C 
ENDROOT
BRANCH   1  14
HETATM   14  C9  UNL     1      -8.767   3.088 -14.562  1.00  0.00     0.165 C 
BRANCH  14  15
HETATM   15  C1  UNL     1      -9.403   1.757 -14.911  1.00  0.00     0.160 C 
BRANCH  15  16
HETATM   16  O1  UNL     1      -9.259   0.838 -13.873  1.00  0.00    -0.392 OA
ATOM     17  H1  UNL     1      -8.391   0.453 -13.870  1.00  0.00     0.210 HD
ENDBRANCH  15  16
BRANCH  15  18
HETATM   18  C2  UNL     1     -10.837   1.899 -15.320  1.00  0.00     0.209 C 
BRANCH  18  19
HETATM   19  O2  UNL     1     -11.254   3.239 -15.161  1.00  0.00    -0.345 OA
BRANCH  19  20
HETATM   20  C3  UNL     1     -12.569   3.548 -14.821  1.00  0.00     0.112 A 
HETATM   21  C4  UNL     1     -13.481   3.926 -15.784  1.00  0.00     0.070 A 
HETATM   22 CL1  UNL     1     -12.899   3.998 -17.454  1.00  0.00    -0.081 Cl
HETATM   23  C5  UNL     1     -14.789   4.239 -15.485  1.00  0.00     0.050 A 
HETATM   24  C6  UNL     1     -15.240   4.181 -14.177  1.00  0.00     0.037 A 
HETATM   25 CL2  UNL     1     -16.888   4.569 -13.768  1.00  0.00    -0.084 Cl
HETATM   26  C7  UNL     1     -14.328   3.801 -13.211  1.00  0.00     0.050 A 
HETATM   27  C8  UNL     1     -13.019   3.490 -13.517  1.00  0.00     0.070 A 
HETATM   28 CL3  UNL     1     -11.882   3.012 -12.278  1.00  0.00    -0.081 Cl
ENDBRANCH  19  20
ENDBRANCH  18  19
ENDBRANCH  15  18
ENDBRANCH  14  15
ENDBRANCH   1  14
BRANCH   2  29
HETATM   29  C11 UNL     1      -8.267   5.197 -16.907  1.00  0.00     0.057 C 
HETATM   30  C12 UNL     1      -8.131   6.654 -16.527  1.00  0.00     0.031 C 
HETATM   31  C13 UNL     1      -9.332   7.352 -17.185  1.00  0.00     0.114 C 
HETATM   32  N2  UNL     1     -10.302   6.421 -17.695  1.00  0.00    -0.421 N 
HETATM   33  C14 UNL     1      -9.829   5.574 -18.738  1.00  0.00     0.114 C 
ATOM     34  H2  UNL     1     -11.256   6.372 -17.337  1.00  0.00     0.153 HD
HETATM   35  C15 UNL     1      -8.409   5.085 -18.392  1.00  0.00     0.031 C 
ENDBRANCH   2  29
TORSDOF 7
ENDMDL
MODEL 2
REMARK VINA RESULT: -8.300576660      0.063      1.581
REMARK  7 active torsions:
REMARK  status: ('A' for Active; 'I' for Inactive)
REMARK    1  A    between atoms: O1_1  and  C1_3 
REMARK    2  A    between atoms: C1_3  and  C2_4 
REMARK    3  A    between atoms: C1_3  and  C9_15 
REMARK    4  A    between atoms: C2_4  and  O2_5 
REMARK    5  A    between atoms: O2_5  and  C3_6 
REMARK    6  A    between atoms: C9_15  and  N1_16 
REMARK    7  A    between atoms: C10_17  and  C11_18 
ROOT
HETATM    1  N1  UNL     1      -7.560   3.368 -15.251  1.00  0.00    -0.326 N 
HETATM    2  C10 UNL     1      -7.320   4.259 -16.228  1.00  0.00     0.089 A 
HETATM    3  N3  UNL     1      -6.020   4.138 -16.556  1.00  0.00    -0.343 N 
ATOM      4  H3  UNL     1      -5.560   4.696 -17.275  1.00  0.00     0.167 HD
HETATM    5  C16 UNL     1      -5.393   3.190 -15.821  1.00  0.00     0.075 A 
HETATM    6  C17 UNL     1      -4.160   2.645 -15.699  1.00  0.00    -0.015 A 
HETATM    7  C18 UNL     1      -4.005   1.657 -14.761  1.00  0.00    -0.007 A 
HETATM    8  S1  UNL     1      -5.567   1.528 -14.091  1.00  0.00    -0.074 SA
HETATM    9  C19 UNL     1      -6.374   2.717 -15.006  1.00  0.00     0.105 A 
HETATM   10  C20 UNL     1      -2.670   0.982 -14.546  1.00  0.00     0.047 C 
HETATM   11  C21 UNL     1      -1.516   1.912 -14.670  1.00  0.00     0.005 C 
HETATM   12  C22 UNL     1      -1.786   3.162 -15.431  1.00  0.00     0.005 C 
HETATM   13  C23 UNL     1      -2.872   2.959 -16.459  1.00  0.00     0.042 C 
ENDROOT
BRANCH   1  14
HETATM   14  C9  UNL     1      -8.754   3.069 -14.546  1.00  0.00     0.165 C 
BRANCH  14  15
HETATM   15  C1  UNL     1      -9.402   1.749 -14.911  1.00  0.00     0.160 C 
BRANCH  15  16
HETATM   16  O1  UNL     1      -9.277   0.819 -13.879  1.00  0.00    -0.392 OA
ATOM     17  H1  UNL     1      -8.522   1.007 -13.334  1.00  0.00     0.210 HD
ENDBRANCH  15  16
BRANCH  15  18
HETATM   18  C2  UNL     1     -10.831   1.910 -15.329  1.00  0.00     0.209 C 
BRANCH  18  19
HETATM   19  O2  UNL     1     -11.247   3.244 -15.123  1.00  0.00    -0.345 OA
BRANCH  19  20
HETATM   20  C3  UNL     1     -12.576   3.548 -14.840  1.00  0.00     0.112 A 
HETATM   21  C4  UNL     1     -13.059   3.485 -13.550  1.00  0.00     0.070 A 
HETATM   22 CL1  UNL     1     -11.914   3.005 -12.289  1.00  0.00    -0.081 Cl
HETATM   23  C5  UNL     1     -14.368   3.777 -13.233  1.00  0.00     0.050 A 
HETATM   24  C6  UNL     1     -15.260   4.153 -14.223  1.00  0.00     0.037 A 
HETATM   25 CL2  UNL     1     -16.920   4.529 -13.853  1.00  0.00    -0.084 Cl
HETATM   26  C7  UNL     1     -14.778   4.217 -15.517  1.00  0.00     0.050 A 
HETATM   27  C8  UNL     1     -13.467   3.922 -15.828  1.00  0.00     0.070 A 
HETATM   28 CL3  UNL     1     -12.878   4.009 -17.471  1.00  0.00    -0.081 Cl
ENDBRANCH  19  20
ENDBRANCH  18  19
ENDBRANCH  15  18
ENDBRANCH  14  15
ENDBRANCH   1  14
BRANCH   2  29
HETATM   29  C11 UNL     1      -8.227   5.203 -16.861  1.00  0.00     0.057 C 
HETATM   30  C12 UNL     1      -8.044   6.659 -16.498  1.00  0.00     0.031 C 
HETATM   31  C13 UNL     1      -9.240   7.384 -17.137  1.00  0.00     0.114 C 
HETATM   32  N2  UNL     1     -10.245   6.475 -17.618  1.00  0.00    -0.421 N 
HETATM   33  C14 UNL     1      -9.817   5.607 -18.663  1.00  0.00     0.114 C 
ATOM     34  H2  UNL     1     -11.192   6.454 -17.239  1.00  0.00     0.153 HD
HETATM   35  C15 UNL     1      -8.404   5.082 -18.343  1.00  0.00     0.031 C 
ENDBRANCH   2  29
TORSDOF 7
ENDMDL
MODEL 3
REMARK VINA RESULT: -8.021285720      3.475      7.687
REMARK  7 active torsions:
REMARK  status: ('A' for Active; 'I' for Inactive)
REMARK    1  A    between atoms: O1_1  and  C1_3 
REMARK    2  A    between atoms: C1_3  and  C2_4 
REMARK    3  A    between atoms: C1_3  and  C9_15 
REMARK    4  A    between atoms: C2_4  and  O2_5 
REMARK    5  A    between atoms: O2_5  and  C3_6 
REMARK    6  A    between atoms: C9_15  and  N1_16 
REMARK    7  A    between atoms: C10_17  and  C11_18 
ROOT
HETATM    1  N1  UNL     1     -10.118   4.226 -16.018  1.00  0.00    -0.326 N 
HETATM    2  C10 UNL     1     -11.362   4.722 -15.906  1.00  0.00     0.089 A 
HETATM    3  N3  UNL     1     -11.259   6.060 -16.015  1.00  0.00    -0.343 N 
ATOM      4  H3  UNL     1     -12.053   6.698 -15.966  1.00  0.00     0.167 HD
HETATM    5  C16 UNL     1      -9.979   6.461 -16.197  1.00  0.00     0.075 A 
HETATM    6  C17 UNL     1      -9.286   7.613 -16.363  1.00  0.00    -0.015 A 
HETATM    7  C18 UNL     1      -7.928   7.506 -16.518  1.00  0.00    -0.007 A 
HETATM    8  S1  UNL     1      -7.672   5.822 -16.426  1.00  0.00    -0.074 SA
HETATM    9  C19 UNL     1      -9.276   5.298 -16.196  1.00  0.00     0.105 A 
HETATM   10  C20 UNL     1      -7.062   8.729 -16.712  1.00  0.00     0.047 C 
HETATM   11  C21 UNL     1      -7.507   9.896 -15.907  1.00  0.00     0.005 C 
HETATM   12  C22 UNL     1      -8.926   9.853 -15.456  1.00  0.00     0.005 C 
HETATM   13  C23 UNL     1      -9.783   9.056 -16.408  1.00  0.00     0.042 C 
ENDROOT
BRANCH   1  14
HETATM   14  C9  UNL     1      -9.651   2.886 -15.983  1.00  0.00     0.165 C 
BRANCH  14  15
HETATM   15  C1  UNL     1      -8.914   2.497 -14.718  1.00  0.00     0.160 C 
BRANCH  15  16
HETATM   16  O1  UNL     1      -9.742   1.794 -13.843  1.00  0.00    -0.392 OA
ATOM     17  H1  UNL     1      -9.774   2.208 -12.989  1.00  0.00     0.210 HD
ENDBRANCH  15  16
BRANCH  15  18
HETATM   18  C2  UNL     1      -7.653   1.739 -15.001  1.00  0.00     0.209 C 
BRANCH  18  19
HETATM   19  O2  UNL     1      -6.597   2.246 -14.211  1.00  0.00    -0.345 OA
BRANCH  19  20
HETATM   20  C3  UNL     1      -5.313   1.714 -14.300  1.00  0.00     0.112 A 
HETATM   21  C4  UNL     1      -4.343   2.326 -15.066  1.00  0.00     0.070 A 
HETATM   22 CL1  UNL     1      -4.810   3.804 -15.919  1.00  0.00    -0.081 Cl
HETATM   23  C5  UNL     1      -3.063   1.828 -15.178  1.00  0.00     0.050 A 
HETATM   24  C6  UNL     1      -2.702   0.670 -14.508  1.00  0.00     0.037 A 
HETATM   25 CL2  UNL     1      -1.092   0.018 -14.630  1.00  0.00    -0.084 Cl
HETATM   26  C7  UNL     1      -3.673   0.056 -13.740  1.00  0.00     0.050 A 
HETATM   27  C8  UNL     1      -4.953   0.559 -13.633  1.00  0.00     0.070 A 
HETATM   28 CL3  UNL     1      -6.166  -0.234 -12.655  1.00  0.00    -0.081 Cl
ENDBRANCH  19  20
ENDBRANCH  18  19
ENDBRANCH  15  18
ENDBRANCH  14  15
ENDBRANCH   1  14
BRANCH   2  29
HETATM   29  C11 UNL     1     -12.622   4.025 -15.703  1.00  0.00     0.057 C 
HETATM   30  C12 UNL     1     -12.868   3.468 -14.319  1.00  0.00     0.031 C 
HETATM   31  C13 UNL     1     -14.148   2.626 -14.449  1.00  0.00     0.114 C 
HETATM   32  N2  UNL     1     -14.536   2.416 -15.818  1.00  0.00    -0.421 N 
HETATM   33  C14 UNL     1     -14.873   3.601 -16.533  1.00  0.00     0.114 C 
ATOM     34  H2  UNL     1     -14.567   1.490 -16.244  1.00  0.00     0.153 HD
HETATM   35  C15 UNL     1     -13.860   4.711 -16.187  1.00  0.00     0.031 C 
ENDBRANCH   2  29
TORSDOF 7
ENDMDL
MODEL 4
REMARK VINA RESULT: -7.945913309      3.440      7.838
REMARK  7 active torsions:
REMARK  status: ('A' for Active; 'I' for Inactive)
REMARK    1  A    between atoms: O1_1  and  C1_3 
REMARK    2  A    between atoms: C1_3  and  C2_4 
REMARK    3  A    between atoms: C1_3  and  C9_15 
REMARK    4  A    between atoms: C2_4  and  O2_5 
REMARK    5  A    between atoms: O2_5  and  C3_6 
REMARK    6  A    between atoms: C9_15  and  N1_16 
REMARK    7  A    between atoms: C10_17  and  C11_18 
ROOT
HETATM    1  N1  UNL     1     -10.422   3.770 -15.793  1.00  0.00    -0.326 N 
HETATM    2  C10 UNL     1     -11.634   4.323 -15.612  1.00  0.00     0.089 A 
HETATM    3  N3  UNL     1     -11.493   5.646 -15.817  1.00  0.00    -0.343 N 
ATOM      4  H3  UNL     1     -12.258   6.317 -15.746  1.00  0.00     0.167 HD
HETATM    5  C16 UNL     1     -10.221   5.983 -16.130  1.00  0.00     0.075 A 
HETATM    6  C17 UNL     1      -9.504   7.092 -16.429  1.00  0.00    -0.015 A 
HETATM    7  C18 UNL     1      -8.168   6.921 -16.687  1.00  0.00    -0.007 A 
HETATM    8  S1  UNL     1      -7.964   5.238 -16.505  1.00  0.00    -0.074 SA
HETATM    9  C19 UNL     1      -9.561   4.794 -16.110  1.00  0.00     0.105 A 
HETATM   10  C20 UNL     1      -7.279   8.093 -17.032  1.00  0.00     0.047 C 
HETATM   11  C21 UNL     1      -7.614   9.326 -16.272  1.00  0.00     0.005 C 
HETATM   12  C22 UNL     1      -8.990   9.369 -15.705  1.00  0.00     0.005 C 
HETATM   13  C23 UNL     1      -9.952   8.549 -16.529  1.00  0.00     0.042 C 
ENDROOT
BRANCH   1  14
HETATM   14  C9  UNL     1     -10.002   2.418 -15.707  1.00  0.00     0.165 C 
BRANCH  14  15
HETATM   15  C1  UNL     1      -8.980   2.131 -14.626  1.00  0.00     0.160 C 
BRANCH  15  16
HETATM   16  O1  UNL     1      -9.419   1.126 -13.765  1.00  0.00    -0.392 OA
ATOM     17  H1  UNL     1      -9.435   0.281 -14.199  1.00  0.00     0.210 HD
ENDBRANCH  15  16
BRANCH  15  18
HETATM   18  C2  UNL     1      -7.627   1.815 -15.187  1.00  0.00     0.209 C 
BRANCH  18  19
HETATM   19  O2  UNL     1      -6.621   2.258 -14.299  1.00  0.00    -0.345 OA
BRANCH  19  20
HETATM   20  C3  UNL     1      -5.326   1.750 -14.370  1.00  0.00     0.112 A 
HETATM   21  C4  UNL     1      -4.984   0.584 -13.717  1.00  0.00     0.070 A 
HETATM   22 CL1  UNL     1      -6.263  -0.223 -12.798  1.00  0.00    -0.081 Cl
HETATM   23  C5  UNL     1      -3.713   0.053 -13.764  1.00  0.00     0.050 A 
HETATM   24  C6  UNL     1      -2.717   0.689 -14.486  1.00  0.00     0.037 A 
HETATM   25 CL2  UNL     1      -1.102   0.041 -14.564  1.00  0.00    -0.084 Cl
HETATM   26  C7  UNL     1      -3.057   1.857 -15.140  1.00  0.00     0.050 A 
HETATM   27  C8  UNL     1      -4.331   2.384 -15.089  1.00  0.00     0.070 A 
HETATM   28 CL3  UNL     1      -4.740   3.864 -15.924  1.00  0.00    -0.081 Cl
ENDBRANCH  19  20
ENDBRANCH  18  19
ENDBRANCH  15  18
ENDBRANCH  14  15
ENDBRANCH   1  14
BRANCH   2  29
HETATM   29  C11 UNL     1     -12.896   3.692 -15.260  1.00  0.00     0.057 C 
HETATM   30  C12 UNL     1     -13.351   2.555 -16.146  1.00  0.00     0.031 C 
HETATM   31  C13 UNL     1     -14.776   2.225 -15.674  1.00  0.00     0.114 C 
HETATM   32  N2  UNL     1     -15.305   3.218 -14.778  1.00  0.00    -0.421 N 
HETATM   33  C14 UNL     1     -14.598   3.354 -13.549  1.00  0.00     0.114 C 
ATOM     34  H2  UNL     1     -16.125   3.781 -15.006  1.00  0.00     0.153 HD
HETATM   35  C15 UNL     1     -13.082   3.306 -13.826  1.00  0.00     0.031 C 
ENDBRANCH   2  29
TORSDOF 7
ENDMDL
MODEL 5
REMARK VINA RESULT: -7.898796926      3.579      6.596
REMARK  7 active torsions:
REMARK  status: ('A' for Active; 'I' for Inactive)
REMARK    1  A    between atoms: O1_1  and  C1_3 
REMARK    2  A    between atoms: C1_3  and  C2_4 
REMARK    3  A    between atoms: C1_3  and  C9_15 
REMARK    4  A    between atoms: C2_4  and  O2_5 
REMARK    5  A    between atoms: O2_5  and  C3_6 
REMARK    6  A    between atoms: C9_15  and  N1_16 
REMARK    7  A    between atoms: C10_17  and  C11_18 
ROOT
HETATM    1  N1  UNL     1      -7.955   3.126 -15.734  1.00  0.00    -0.326 N 
HETATM    2  C10 UNL     1      -8.846   2.317 -15.137  1.00  0.00     0.089 A 
HETATM    3  N3  UNL     1      -8.141   1.431 -14.408  1.00  0.00    -0.343 N 
ATOM      4  H3  UNL     1      -8.564   0.692 -13.846  1.00  0.00     0.167 HD
HETATM    5  C16 UNL     1      -6.807   1.634 -14.507  1.00  0.00     0.075 A 
HETATM    6  C17 UNL     1      -5.657   1.098 -14.033  1.00  0.00    -0.015 A 
HETATM    7  C18 UNL     1      -4.485   1.682 -14.439  1.00  0.00    -0.007 A 
HETATM    8  S1  UNL     1      -5.024   2.940 -15.455  1.00  0.00    -0.074 SA
HETATM    9  C19 UNL     1      -6.708   2.701 -15.344  1.00  0.00     0.105 A 
HETATM   10  C20 UNL     1      -3.146   1.163 -13.968  1.00  0.00     0.047 C 
HETATM   11  C21 UNL     1      -3.099  -0.319 -13.855  1.00  0.00     0.005 C 
HETATM   12  C22 UNL     1      -4.423  -0.990 -13.737  1.00  0.00     0.005 C 
HETATM   13  C23 UNL     1      -5.444  -0.085 -13.092  1.00  0.00     0.042 C 
ENDROOT
BRANCH   1  14
HETATM   14  C9  UNL     1      -8.147   4.230 -16.605  1.00  0.00     0.165 C 
BRANCH  14  15
HETATM   15  C1  UNL     1      -7.923   3.936 -18.074  1.00  0.00     0.160 C 
BRANCH  15  16
HETATM   16  O1  UNL     1      -8.848   3.010 -18.553  1.00  0.00    -0.392 OA
ATOM     17  H1  UNL     1      -8.422   2.210 -18.837  1.00  0.00     0.210 HD
ENDBRANCH  15  16
BRANCH  15  18
HETATM   18  C2  UNL     1      -7.912   5.178 -18.911  1.00  0.00     0.209 C 
BRANCH  18  19
HETATM   19  O2  UNL     1      -7.961   6.320 -18.080  1.00  0.00    -0.345 OA
BRANCH  19  20
HETATM   20  C3  UNL     1      -7.189   7.445 -18.357  1.00  0.00     0.112 A 
HETATM   21  C4  UNL     1      -5.943   7.609 -17.788  1.00  0.00     0.070 A 
HETATM   22 CL1  UNL     1      -5.386   6.330 -16.699  1.00  0.00    -0.081 Cl
HETATM   23  C5  UNL     1      -5.152   8.710 -18.039  1.00  0.00     0.050 A 
HETATM   24  C6  UNL     1      -5.593   9.707 -18.891  1.00  0.00     0.037 A 
HETATM   25 CL2  UNL     1      -4.615  11.109 -19.228  1.00  0.00    -0.084 Cl
HETATM   26  C7  UNL     1      -6.841   9.545 -19.463  1.00  0.00     0.050 A 
HETATM   27  C8  UNL     1      -7.628   8.441 -19.208  1.00  0.00     0.070 A 
HETATM   28 CL3  UNL     1      -9.204   8.256 -19.941  1.00  0.00    -0.081 Cl
ENDBRANCH  19  20
ENDBRANCH  18  19
ENDBRANCH  15  18
ENDBRANCH  14  15
ENDBRANCH   1  14
BRANCH   2  29
HETATM   29  C11 UNL     1     -10.299   2.325 -15.212  1.00  0.00     0.057 C 
HETATM   30  C12 UNL     1     -10.947   1.122 -15.859  1.00  0.00     0.031 C 
HETATM   31  C13 UNL     1     -12.435   1.489 -15.984  1.00  0.00     0.114 C 
HETATM   32  N2  UNL     1     -12.686   2.879 -15.718  1.00  0.00    -0.421 N 
HETATM   33  C14 UNL     1     -12.376   3.302 -14.393  1.00  0.00     0.114 C 
ATOM     34  H2  UNL     1     -13.059   3.514 -16.424  1.00  0.00     0.153 HD
HETATM   35  C15 UNL     1     -11.039   2.670 -13.958  1.00  0.00     0.031 C 
ENDBRANCH   2  29
TORSDOF 7
ENDMDL
