MODEL 1
REMARK VINA RESULT: -9.176335615      0.000      0.000
REMARK  7 active torsions:
REMARK  status: ('A' for Active; 'I' for Inactive)
REMARK    1  A    between atoms: C2_3  and  C3_4 
REMARK    2  A    between atoms: C3_4  and  N2_5 
REMARK    3  A    between atoms: C6_8  and  N3_9 
REMARK    4  A    between atoms: C7_12  and  N5_13 
REMARK    5  A    between atoms: N5_13  and  C8_15 
REMARK    6  A    between atoms: C14_24  and  C15_25 
REMARK    7  A    between atoms: C16_28  and  C17_29 
ROOT
HETATM    1  N1  UNL     1      -3.725   9.982 -19.745  1.00  0.00    -0.197 NA
HETATM    2  C1  UNL     1      -4.585   9.681 -19.021  1.00  0.00     0.060 C 
HETATM    3  C2  UNL     1      -5.674   9.298 -18.123  1.00  0.00     0.154 C 
ENDROOT
BRANCH   3   4
HETATM    4  C3  UNL     1      -6.028   7.830 -18.238  1.00  0.00     0.286 C 
BRANCH   4   5
HETATM    5  N2  UNL     1      -5.985   7.280 -16.891  1.00  0.00     0.089 N 
HETATM    6  C4  UNL     1      -7.031   6.339 -16.634  1.00  0.00     0.274 C 
HETATM    7  C5  UNL     1      -6.671   4.969 -17.059  1.00  0.00     0.057 C 
HETATM    8  C6  UNL     1      -5.402   4.416 -16.366  1.00  0.00     0.111 C 
HETATM    9  C22 UNL     1      -4.833   5.642 -15.619  1.00  0.00     0.057 C 
HETATM   10  C23 UNL     1      -4.653   6.780 -16.640  1.00  0.00     0.274 C 
BRANCH   8  11
HETATM   11  N3  UNL     1      -5.757   3.385 -15.444  1.00  0.00    -0.288 N 
HETATM   12  N4  UNL     1      -7.073   3.076 -15.318  1.00  0.00    -0.282 N 
HETATM   13  C7  UNL     1      -7.207   2.064 -14.473  1.00  0.00     0.138 A 
ATOM     14  H4  UNL     1      -7.838   3.549 -15.800  1.00  0.00     0.189 HD
HETATM   15  C14 UNL     1      -5.915   1.710 -14.039  1.00  0.00     0.099 A 
HETATM   16  C16 UNL     1      -5.019   2.581 -14.683  1.00  0.00     0.052 A 
BRANCH  13  17
HETATM   17  N5  UNL     1      -8.262   1.468 -14.044  1.00  0.00    -0.336 N 
ATOM     18  H5  UNL     1      -8.216   1.081 -13.101  1.00  0.00     0.168 HD
BRANCH  17  19
HETATM   19  C8  UNL     1      -9.463   1.294 -14.733  1.00  0.00     0.112 A 
HETATM   20  C9  UNL     1      -9.661   0.258 -15.615  1.00  0.00     0.147 A 
HETATM   21  F1  UNL     1      -8.657  -0.616 -15.816  1.00  0.00    -0.204 F 
HETATM   22  C10 UNL     1     -10.891   0.158 -16.261  1.00  0.00     0.064 A 
HETATM   23  C11 UNL     1     -11.905   1.081 -16.025  1.00  0.00     0.017 A 
HETATM   24 BR1  UNL     1     -13.537   0.866 -16.948  1.00  0.00    -0.051 Br
HETATM   25  C12 UNL     1     -11.714   2.124 -15.140  1.00  0.00     0.064 A 
HETATM   26  C13 UNL     1     -10.488   2.206 -14.510  1.00  0.00     0.147 A 
HETATM   27  F2  UNL     1     -10.267   3.206 -13.644  1.00  0.00    -0.204 F 
ENDBRANCH  17  19
ENDBRANCH  13  17
BRANCH  15  28
HETATM   28  C15 UNL     1      -5.638   0.641 -13.102  1.00  0.00     0.270 C 
HETATM   29  N6  UNL     1      -6.263  -0.655 -13.273  1.00  0.00    -0.057 NA
HETATM   30  O1  UNL     1      -4.891   0.745 -12.140  1.00  0.00    -0.271 OA
ENDBRANCH  15  28
BRANCH  16  31
HETATM   31  C17 UNL     1      -3.566   2.482 -14.535  1.00  0.00     0.038 C 
HETATM   32  C18 UNL     1      -2.794   3.597 -13.972  1.00  0.00     0.011 C 
HETATM   33  C19 UNL     1      -1.832   4.043 -15.084  1.00  0.00     0.001 C 
HETATM   34  C20 UNL     1      -1.488   2.634 -15.641  1.00  0.00     0.001 C 
HETATM   35  C21 UNL     1      -2.907   2.187 -15.890  1.00  0.00     0.011 C 
ENDBRANCH  16  31
ENDBRANCH   8  11
ENDBRANCH   4   5
ENDBRANCH   3   4
TORSDOF 7
ENDMDL
MODEL 2
REMARK VINA RESULT: -9.048599534      1.102      1.865
REMARK  7 active torsions:
REMARK  status: ('A' for Active; 'I' for Inactive)
REMARK    1  A    between atoms: C2_3  and  C3_4 
REMARK    2  A    between atoms: C3_4  and  N2_5 
REMARK    3  A    between atoms: C6_8  and  N3_9 
REMARK    4  A    between atoms: C7_12  and  N5_13 
REMARK    5  A    between atoms: N5_13  and  C8_15 
REMARK    6  A    between atoms: C14_24  and  C15_25 
REMARK    7  A    between atoms: C16_28  and  C17_29 
ROOT
HETATM    1  N1  UNL     1      -4.113   9.506 -19.265  1.00  0.00    -0.197 NA
HETATM    2  C1  UNL     1      -5.205   9.204 -18.999  1.00  0.00     0.060 C 
HETATM    3  C2  UNL     1      -6.581   8.824 -18.681  1.00  0.00     0.154 C 
ENDROOT
BRANCH   3   4
HETATM    4  C3  UNL     1      -6.937   7.449 -19.208  1.00  0.00     0.286 C 
BRANCH   4   5
HETATM    5  N2  UNL     1      -7.616   6.747 -18.128  1.00  0.00     0.089 N 
HETATM    6  C4  UNL     1      -7.592   5.326 -18.280  1.00  0.00     0.274 C 
HETATM    7  C5  UNL     1      -6.365   4.721 -17.720  1.00  0.00     0.057 C 
HETATM    8  C6  UNL     1      -6.164   5.005 -16.212  1.00  0.00     0.111 C 
HETATM    9  C22 UNL     1      -7.256   6.048 -15.890  1.00  0.00     0.057 C 
HETATM   10  C23 UNL     1      -7.093   7.225 -16.869  1.00  0.00     0.274 C 
BRANCH   8  11
HETATM   11  N3  UNL     1      -6.370   3.811 -15.456  1.00  0.00    -0.288 N 
HETATM   12  N4  UNL     1      -7.636   3.331 -15.367  1.00  0.00    -0.282 N 
HETATM   13  C7  UNL     1      -7.628   2.194 -14.687  1.00  0.00     0.138 A 
ATOM     14  H4  UNL     1      -8.465   3.776 -15.762  1.00  0.00     0.189 HD
HETATM   15  C14 UNL     1      -6.291   1.935 -14.325  1.00  0.00     0.099 A 
HETATM   16  C16 UNL     1      -5.522   2.995 -14.836  1.00  0.00     0.052 A 
BRANCH  13  17
HETATM   17  N5  UNL     1      -8.593   1.416 -14.344  1.00  0.00    -0.336 N 
ATOM     18  H5  UNL     1      -8.519   0.973 -13.428  1.00  0.00     0.168 HD
BRANCH  17  19
HETATM   19  C8  UNL     1      -9.730   1.115 -15.095  1.00  0.00     0.112 A 
HETATM   20  C9  UNL     1     -10.849   1.914 -15.085  1.00  0.00     0.147 A 
HETATM   21  F1  UNL     1     -10.842   3.023 -14.324  1.00  0.00    -0.204 F 
HETATM   22  C10 UNL     1     -11.942   1.539 -15.864  1.00  0.00     0.064 A 
HETATM   23  C11 UNL     1     -11.911   0.384 -16.640  1.00  0.00     0.017 A 
HETATM   24 BR1  UNL     1     -13.440  -0.044 -17.662  1.00  0.00    -0.051 Br
HETATM   25  C12 UNL     1     -10.790  -0.423 -16.655  1.00  0.00     0.064 A 
HETATM   26  C13 UNL     1      -9.718  -0.035 -15.876  1.00  0.00     0.147 A 
HETATM   27  F2  UNL     1      -8.613  -0.794 -15.866  1.00  0.00    -0.204 F 
ENDBRANCH  17  19
ENDBRANCH  13  17
BRANCH  15  28
HETATM   28  C15 UNL     1      -5.865   0.777 -13.567  1.00  0.00     0.270 C 
HETATM   29  N6  UNL     1      -4.886   0.923 -12.508  1.00  0.00    -0.057 NA
HETATM   30  O1  UNL     1      -6.279  -0.358 -13.752  1.00  0.00    -0.271 OA
ENDBRANCH  15  28
BRANCH  16  31
HETATM   31  C17 UNL     1      -4.063   3.049 -14.719  1.00  0.00     0.038 C 
HETATM   32  C18 UNL     1      -3.371   4.339 -14.597  1.00  0.00     0.011 C 
HETATM   33  C19 UNL     1      -2.461   4.442 -15.831  1.00  0.00     0.001 C 
HETATM   34  C20 UNL     1      -2.018   2.953 -15.890  1.00  0.00     0.001 C 
HETATM   35  C21 UNL     1      -3.402   2.355 -15.918  1.00  0.00     0.011 C 
ENDBRANCH  16  31
ENDBRANCH   8  11
ENDBRANCH   4   5
ENDBRANCH   3   4
TORSDOF 7
ENDMDL
MODEL 3
REMARK VINA RESULT: -9.046232332      0.785      1.659
REMARK  7 active torsions:
REMARK  status: ('A' for Active; 'I' for Inactive)
REMARK    1  A    between atoms: C2_3  and  C3_4 
REMARK    2  A    between atoms: C3_4  and  N2_5 
REMARK    3  A    between atoms: C6_8  and  N3_9 
REMARK    4  A    between atoms: C7_12  and  N5_13 
REMARK    5  A    between atoms: N5_13  and  C8_15 
REMARK    6  A    between atoms: C14_24  and  C15_25 
REMARK    7  A    between atoms: C16_28  and  C17_29 
ROOT
HETATM    1  N1  UNL     1      -5.991  10.731 -16.170  1.00  0.00    -0.197 NA
HETATM    2  C1  UNL     1      -5.641  10.043 -17.041  1.00  0.00     0.060 C 
HETATM    3  C2  UNL     1      -5.196   9.166 -18.124  1.00  0.00     0.154 C 
ENDROOT
BRANCH   3   4
HETATM    4  C3  UNL     1      -5.961   7.859 -18.160  1.00  0.00     0.286 C 
BRANCH   4   5
HETATM    5  N2  UNL     1      -5.882   7.288 -16.823  1.00  0.00     0.089 N 
HETATM    6  C4  UNL     1      -6.954   6.388 -16.532  1.00  0.00     0.274 C 
HETATM    7  C5  UNL     1      -6.671   5.010 -16.991  1.00  0.00     0.057 C 
HETATM    8  C6  UNL     1      -5.397   4.395 -16.364  1.00  0.00     0.111 C 
HETATM    9  C22 UNL     1      -4.744   5.584 -15.627  1.00  0.00     0.057 C 
HETATM   10  C23 UNL     1      -4.562   6.729 -16.640  1.00  0.00     0.274 C 
BRANCH   8  11
HETATM   11  N3  UNL     1      -5.755   3.365 -15.440  1.00  0.00    -0.288 N 
HETATM   12  N4  UNL     1      -7.071   3.064 -15.309  1.00  0.00    -0.282 N 
HETATM   13  C7  UNL     1      -7.208   2.053 -14.463  1.00  0.00     0.138 A 
ATOM     14  H4  UNL     1      -7.836   3.541 -15.787  1.00  0.00     0.189 HD
HETATM   15  C14 UNL     1      -5.916   1.691 -14.034  1.00  0.00     0.099 A 
HETATM   16  C16 UNL     1      -5.018   2.558 -14.682  1.00  0.00     0.052 A 
BRANCH  13  17
HETATM   17  N5  UNL     1      -8.264   1.462 -14.029  1.00  0.00    -0.336 N 
ATOM     18  H5  UNL     1      -8.191   1.006 -13.119  1.00  0.00     0.168 HD
BRANCH  17  19
HETATM   19  C8  UNL     1      -9.500   1.378 -14.673  1.00  0.00     0.112 A 
HETATM   20  C9  UNL     1     -10.510   2.283 -14.444  1.00  0.00     0.147 A 
HETATM   21  F1  UNL     1     -10.294   3.281 -13.568  1.00  0.00    -0.204 F 
HETATM   22  C10 UNL     1     -11.712   2.126 -15.129  1.00  0.00     0.064 A 
HETATM   23  C11 UNL     1     -11.897   1.081 -16.029  1.00  0.00     0.017 A 
HETATM   24 BR1  UNL     1     -13.562   0.947 -16.910  1.00  0.00    -0.051 Br
HETATM   25  C12 UNL     1     -10.888   0.169 -16.265  1.00  0.00     0.064 A 
HETATM   26  C13 UNL     1      -9.703   0.341 -15.576  1.00  0.00     0.147 A 
HETATM   27  F2  UNL     1      -8.700  -0.525 -15.779  1.00  0.00    -0.204 F 
ENDBRANCH  17  19
ENDBRANCH  13  17
BRANCH  15  28
HETATM   28  C15 UNL     1      -5.641   0.622 -13.098  1.00  0.00     0.270 C 
HETATM   29  N6  UNL     1      -6.276  -0.671 -13.265  1.00  0.00    -0.057 NA
HETATM   30  O1  UNL     1      -4.888   0.721 -12.140  1.00  0.00    -0.271 OA
ENDBRANCH  15  28
BRANCH  16  31
HETATM   31  C17 UNL     1      -3.564   2.451 -14.539  1.00  0.00     0.038 C 
HETATM   32  C18 UNL     1      -2.791   3.543 -13.936  1.00  0.00     0.011 C 
HETATM   33  C19 UNL     1      -1.829   4.029 -15.032  1.00  0.00     0.001 C 
HETATM   34  C20 UNL     1      -1.488   2.640 -15.642  1.00  0.00     0.001 C 
HETATM   35  C21 UNL     1      -2.908   2.206 -15.905  1.00  0.00     0.011 C 
ENDBRANCH  16  31
ENDBRANCH   8  11
ENDBRANCH   4   5
ENDBRANCH   3   4
TORSDOF 7
ENDMDL
MODEL 4
REMARK VINA RESULT: -8.986031843      1.572      1.786
REMARK  7 active torsions:
REMARK  status: ('A' for Active; 'I' for Inactive)
REMARK    1  A    between atoms: C2_3  and  C3_4 
REMARK    2  A    between atoms: C3_4  and  N2_5 
REMARK    3  A    between atoms: C6_8  and  N3_9 
REMARK    4  A    between atoms: C7_12  and  N5_13 
REMARK    5  A    between atoms: N5_13  and  C8_15 
REMARK    6  A    between atoms: C14_24  and  C15_25 
REMARK    7  A    between atoms: C16_28  and  C17_29 
ROOT
HETATM    1  N1  UNL     1      -7.308   7.485 -22.998  1.00  0.00    -0.197 NA
HETATM    2  C1  UNL     1      -7.609   7.130 -21.932  1.00  0.00     0.060 C 
HETATM    3  C2  UNL     1      -7.973   6.676 -20.590  1.00  0.00     0.154 C 
ENDROOT
BRANCH   3   4
HETATM    4  C3  UNL     1      -7.085   7.274 -19.518  1.00  0.00     0.286 C 
BRANCH   4   5
HETATM    5  N2  UNL     1      -7.590   6.796 -18.238  1.00  0.00     0.089 N 
HETATM    6  C4  UNL     1      -7.916   5.405 -18.247  1.00  0.00     0.274 C 
HETATM    7  C5  UNL     1      -6.746   4.551 -17.951  1.00  0.00     0.057 C 
HETATM    8  C6  UNL     1      -6.095   4.842 -16.576  1.00  0.00     0.111 C 
HETATM    9  C22 UNL     1      -6.810   6.124 -16.101  1.00  0.00     0.057 C 
HETATM   10  C23 UNL     1      -6.661   7.189 -17.203  1.00  0.00     0.274 C 
BRANCH   8  11
HETATM   11  N3  UNL     1      -6.349   3.761 -15.676  1.00  0.00    -0.288 N 
HETATM   12  N4  UNL     1      -7.628   3.326 -15.556  1.00  0.00    -0.282 N 
HETATM   13  C7  UNL     1      -7.663   2.288 -14.733  1.00  0.00     0.138 A 
ATOM     14  H4  UNL     1      -8.437   3.735 -16.026  1.00  0.00     0.189 HD
HETATM   15  C14 UNL     1      -6.342   2.048 -14.309  1.00  0.00     0.099 A 
HETATM   16  C16 UNL     1      -5.535   3.014 -14.935  1.00  0.00     0.052 A 
BRANCH  13  17
HETATM   17  N5  UNL     1      -8.655   1.585 -14.316  1.00  0.00    -0.336 N 
ATOM     18  H5  UNL     1      -8.615   1.268 -13.347  1.00  0.00     0.168 HD
BRANCH  17  19
HETATM   19  C8  UNL     1      -9.782   1.210 -15.050  1.00  0.00     0.112 A 
HETATM   20  C9  UNL     1      -9.795   0.095 -15.856  1.00  0.00     0.147 A 
HETATM   21  F1  UNL     1      -8.681  -0.656 -15.935  1.00  0.00    -0.204 F 
HETATM   22  C10 UNL     1     -10.962  -0.207 -16.554  1.00  0.00     0.064 A 
HETATM   23  C11 UNL     1     -12.095   0.593 -16.445  1.00  0.00     0.017 A 
HETATM   24 BR1  UNL     1     -13.629   0.105 -17.431  1.00  0.00    -0.051 Br
HETATM   25  C12 UNL     1     -12.089   1.714 -15.637  1.00  0.00     0.064 A 
HETATM   26  C13 UNL     1     -10.923   1.997 -14.953  1.00  0.00     0.147 A 
HETATM   27  F2  UNL     1     -10.880   3.077 -14.160  1.00  0.00    -0.204 F 
ENDBRANCH  17  19
ENDBRANCH  13  17
BRANCH  15  28
HETATM   28  C15 UNL     1      -5.962   0.991 -13.396  1.00  0.00     0.270 C 
HETATM   29  N6  UNL     1      -6.551  -0.327 -13.526  1.00  0.00    -0.057 NA
HETATM   30  O1  UNL     1      -5.153   1.121 -12.489  1.00  0.00    -0.271 OA
ENDBRANCH  15  28
BRANCH  16  31
HETATM   31  C17 UNL     1      -4.078   3.050 -14.791  1.00  0.00     0.038 C 
HETATM   32  C18 UNL     1      -3.368   4.332 -14.696  1.00  0.00     0.011 C 
HETATM   33  C19 UNL     1      -2.433   4.382 -15.914  1.00  0.00     0.001 C 
HETATM   34  C20 UNL     1      -2.012   2.885 -15.918  1.00  0.00     0.001 C 
HETATM   35  C21 UNL     1      -3.405   2.308 -15.954  1.00  0.00     0.011 C 
ENDBRANCH  16  31
ENDBRANCH   8  11
ENDBRANCH   4   5
ENDBRANCH   3   4
TORSDOF 7
ENDMDL
MODEL 5
REMARK VINA RESULT: -8.965993434      1.649      2.344
REMARK  7 active torsions:
REMARK  status: ('A' for Active; 'I' for Inactive)
REMARK    1  A    between atoms: C2_3  and  C3_4 
REMARK    2  A    between atoms: C3_4  and  N2_5 
REMARK    3  A    between atoms: C6_8  and  N3_9 
REMARK    4  A    between atoms: C7_12  and  N5_13 
REMARK    5  A    between atoms: N5_13  and  C8_15 
REMARK    6  A    between atoms: C14_24  and  C15_25 
REMARK    7  A    between atoms: C16_28  and  C17_29 
ROOT
HETATM    1  N1  UNL     1      -7.126   7.832 -22.880  1.00  0.00    -0.197 NA
HETATM    2  C1  UNL     1      -7.480   7.378 -21.869  1.00  0.00     0.060 C 
HETATM    3  C2  UNL     1      -7.910   6.802 -20.595  1.00  0.00     0.154 C 
ENDROOT
BRANCH   3   4
HETATM    4  C3  UNL     1      -7.175   7.400 -19.413  1.00  0.00     0.286 C 
BRANCH   4   5
HETATM    5  N2  UNL     1      -7.754   6.810 -18.215  1.00  0.00     0.089 N 
HETATM    6  C4  UNL     1      -7.907   5.392 -18.304  1.00  0.00     0.274 C 
HETATM    7  C5  UNL     1      -6.681   4.668 -17.905  1.00  0.00     0.057 C 
HETATM    8  C6  UNL     1      -6.223   4.970 -16.457  1.00  0.00     0.111 C 
HETATM    9  C22 UNL     1      -7.135   6.139 -16.025  1.00  0.00     0.057 C 
HETATM   10  C23 UNL     1      -6.998   7.261 -17.069  1.00  0.00     0.274 C 
BRANCH   8  11
HETATM   11  N3  UNL     1      -6.440   3.829 -15.626  1.00  0.00    -0.288 N 
HETATM   12  N4  UNL     1      -7.710   3.363 -15.512  1.00  0.00    -0.282 N 
HETATM   13  C7  UNL     1      -7.710   2.272 -14.759  1.00  0.00     0.138 A 
ATOM     14  H4  UNL     1      -8.534   3.786 -15.939  1.00  0.00     0.189 HD
HETATM   15  C14 UNL     1      -6.377   2.030 -14.375  1.00  0.00     0.099 A 
HETATM   16  C16 UNL     1      -5.599   3.050 -14.951  1.00  0.00     0.052 A 
BRANCH  13  17
HETATM   17  N5  UNL     1      -8.682   1.524 -14.372  1.00  0.00    -0.336 N 
ATOM     18  H5  UNL     1      -8.613   1.138 -13.430  1.00  0.00     0.168 HD
BRANCH  17  19
HETATM   19  C8  UNL     1      -9.820   1.185 -15.105  1.00  0.00     0.112 A 
HETATM   20  C9  UNL     1     -10.974   1.931 -15.057  1.00  0.00     0.147 A 
HETATM   21  F1  UNL     1     -11.000   3.026 -14.275  1.00  0.00    -0.204 F 
HETATM   22  C10 UNL     1     -12.064   1.521 -15.821  1.00  0.00     0.064 A 
HETATM   23  C11 UNL     1     -11.998   0.383 -16.619  1.00  0.00     0.017 A 
HETATM   24 BR1  UNL     1     -13.527  -0.096 -17.617  1.00  0.00    -0.051 Br
HETATM   25  C12 UNL     1     -10.842  -0.371 -16.672  1.00  0.00     0.064 A 
HETATM   26  C13 UNL     1      -9.772   0.051 -15.908  1.00  0.00     0.147 A 
HETATM   27  F2  UNL     1      -8.634  -0.657 -15.934  1.00  0.00    -0.204 F 
ENDBRANCH  17  19
ENDBRANCH  13  17
BRANCH  15  28
HETATM   28  C15 UNL     1      -5.961   0.922 -13.541  1.00  0.00     0.270 C 
HETATM   29  N6  UNL     1      -4.977   1.129 -12.498  1.00  0.00    -0.057 NA
HETATM   30  O1  UNL     1      -6.388  -0.218 -13.648  1.00  0.00    -0.271 OA
ENDBRANCH  15  28
BRANCH  16  31
HETATM   31  C17 UNL     1      -4.141   3.104 -14.830  1.00  0.00     0.038 C 
HETATM   32  C18 UNL     1      -3.445   4.395 -14.758  1.00  0.00     0.011 C 
HETATM   33  C19 UNL     1      -2.530   4.446 -15.991  1.00  0.00     0.001 C 
HETATM   34  C20 UNL     1      -2.092   2.954 -15.990  1.00  0.00     0.001 C 
HETATM   35  C21 UNL     1      -3.479   2.360 -15.998  1.00  0.00     0.011 C 
ENDBRANCH  16  31
ENDBRANCH   8  11
ENDBRANCH   4   5
ENDBRANCH   3   4
TORSDOF 7
ENDMDL
