MODEL 1
REMARK VINA RESULT: -8.429881048      0.000      0.000
REMARK  11 active torsions:
REMARK  status: ('A' for Active; 'I' for Inactive)
REMARK    1  A    between atoms: C3_5  and  N2_6 
REMARK    2  A    between atoms: N2_6  and  C4_8 
REMARK    3  A    between atoms: C4_8  and  O1_9 
REMARK    4  A    between atoms: C4_8  and  C5_11 
REMARK    5  A    between atoms: C8_15  and  S1_16 
REMARK    6  A    between atoms: S1_16  and  C9_17 
REMARK    7  A    between atoms: C9_17  and  C10_18 
REMARK    8  A    between atoms: C10_18  and  O2_19 
REMARK    9  A    between atoms: C10_18  and  C11_21 
REMARK   10  A    between atoms: C11_21  and  N3_22 
REMARK   11  A    between atoms: N4_28  and  C16_29 
ROOT
HETATM    1  C5  UNL     1     -11.348   1.613 -16.120  1.00  0.00     0.109 A 
HETATM    2  C6  UNL     1     -10.920   0.294 -16.405  1.00  0.00     0.068 A 
HETATM    3 CL1  UNL     1     -11.731  -0.916 -17.415  1.00  0.00    -0.082 Cl
HETATM    4  C7  UNL     1      -9.747   0.078 -15.761  1.00  0.00     0.063 A 
HETATM    5  C8  UNL     1      -9.405   1.215 -15.071  1.00  0.00     0.075 A 
HETATM    6  N4  UNL     1     -10.400   2.130 -15.306  1.00  0.00    -0.328 N 
ENDROOT
BRANCH   1   7
HETATM    7  C4  UNL     1     -12.563   2.121 -16.713  1.00  0.00     0.171 C 
BRANCH   7   8
HETATM    8  N2  UNL     1     -13.729   2.649 -16.199  1.00  0.00    -0.321 N 
ATOM      9  H2  UNL     1     -14.025   3.550 -16.574  1.00  0.00     0.169 HD
BRANCH   8  10
HETATM   10  C3  UNL     1     -14.469   2.136 -15.316  1.00  0.00     0.116 A 
HETATM   11  N1  UNL     1     -14.879   0.866 -15.374  1.00  0.00    -0.344 N 
HETATM   12  C2  UNL     1     -15.696   0.301 -14.438  1.00  0.00     0.032 A 
ATOM     13  H1  UNL     1     -14.566   0.291 -16.156  1.00  0.00     0.167 HD
HETATM   14  C1  UNL     1     -16.124  -1.104 -14.526  1.00  0.00     0.070 C 
HETATM   15  C23 UNL     1     -16.126   1.078 -13.374  1.00  0.00     0.095 A 
HETATM   16  C22 UNL     1     -15.719   2.397 -13.284  1.00  0.00     0.149 A 
HETATM   17 CL2  UNL     1     -17.171   0.353 -12.186  1.00  0.00    -0.079 Cl
HETATM   18  C20 UNL     1     -14.893   2.923 -14.254  1.00  0.00     0.022 A 
HETATM   19  F1  UNL     1     -16.154   3.153 -12.225  1.00  0.00    -0.204 F 
HETATM   20  C21 UNL     1     -14.451   4.325 -14.193  1.00  0.00     0.056 C 
ENDBRANCH   8  10
ENDBRANCH   7   8
BRANCH   7  21
HETATM   21  O1  UNL     1     -12.576   2.086 -18.042  1.00  0.00    -0.344 OA
ATOM     22  H1  UNL     1     -11.907   1.508 -18.389  1.00  0.00     0.219 HD
ENDBRANCH   7  21
ENDBRANCH   1   7
BRANCH   6  23
HETATM   23  C16 UNL     1     -10.454   3.432 -14.729  1.00  0.00     0.027 C 
HETATM   24  C17 UNL     1     -11.075   4.455 -15.645  1.00  0.00     0.038 C 
HETATM   25  C18 UNL     1      -9.111   4.041 -14.345  1.00  0.00     0.038 C 
HETATM   26  C19 UNL     1     -11.222   3.322 -13.400  1.00  0.00     0.038 C 
ENDBRANCH   6  23
BRANCH   5  27
HETATM   27  S1  UNL     1      -7.944   1.431 -14.071  1.00  0.00    -0.110 SA
BRANCH  27  28
HETATM   28  C9  UNL     1      -7.215  -0.048 -13.462  1.00  0.00     0.114 C 
BRANCH  28  29
HETATM   29  C10 UNL     1      -5.735  -0.038 -13.136  1.00  0.00     0.156 C 
BRANCH  29  30
HETATM   30  O2  UNL     1      -5.437  -0.429 -11.899  1.00  0.00    -0.393 OA
ATOM     31  H2  UNL     1      -4.519  -0.346 -11.668  1.00  0.00     0.210 HD
ENDBRANCH  29  30
BRANCH  29  32
HETATM   32  C11 UNL     1      -5.014   1.052 -13.821  1.00  0.00     0.305 C 
BRANCH  32  33
HETATM   33  N3  UNL     1      -3.668   1.379 -13.423  1.00  0.00     0.095 N 
HETATM   34  C12 UNL     1      -3.471   2.815 -13.509  1.00  0.00     0.298 C 
HETATM   35  C13 UNL     1      -2.234   3.316 -14.112  1.00  0.00     0.198 C 
HETATM   36  O3  UNL     1      -1.156   2.404 -13.995  1.00  0.00    -0.388 OA
HETATM   37  C14 UNL     1      -1.568   1.344 -14.795  1.00  0.00     0.198 C 
HETATM   38  C15 UNL     1      -2.679   0.625 -14.140  1.00  0.00     0.298 C 
ENDBRANCH  32  33
ENDBRANCH  29  32
ENDBRANCH  28  29
ENDBRANCH  27  28
ENDBRANCH   5  27
TORSDOF 11
ENDMDL
MODEL 2
REMARK VINA RESULT: -8.302631012      2.662      4.190
REMARK  11 active torsions:
REMARK  status: ('A' for Active; 'I' for Inactive)
REMARK    1  A    between atoms: C3_5  and  N2_6 
REMARK    2  A    between atoms: N2_6  and  C4_8 
REMARK    3  A    between atoms: C4_8  and  O1_9 
REMARK    4  A    between atoms: C4_8  and  C5_11 
REMARK    5  A    between atoms: C8_15  and  S1_16 
REMARK    6  A    between atoms: S1_16  and  C9_17 
REMARK    7  A    between atoms: C9_17  and  C10_18 
REMARK    8  A    between atoms: C10_18  and  O2_19 
REMARK    9  A    between atoms: C10_18  and  C11_21 
REMARK   10  A    between atoms: C11_21  and  N3_22 
REMARK   11  A    between atoms: N4_28  and  C16_29 
ROOT
HETATM    1  C5  UNL     1      -8.482   3.582 -15.027  1.00  0.00     0.109 A 
HETATM    2  C6  UNL     1      -7.723   2.451 -14.644  1.00  0.00     0.068 A 
HETATM    3 CL1  UNL     1      -8.252   1.069 -13.667  1.00  0.00    -0.082 Cl
HETATM    4  C7  UNL     1      -6.475   2.583 -15.154  1.00  0.00     0.063 A 
HETATM    5  C8  UNL     1      -6.405   3.764 -15.852  1.00  0.00     0.075 A 
HETATM    6  N4  UNL     1      -7.641   4.350 -15.754  1.00  0.00    -0.328 N 
ENDROOT
BRANCH   1   7
HETATM    7  C4  UNL     1      -9.872   3.682 -14.645  1.00  0.00     0.171 C 
BRANCH   7   8
HETATM    8  N2  UNL     1     -11.062   3.598 -15.338  1.00  0.00    -0.321 N 
ATOM      9  H2  UNL     1     -11.024   3.805 -16.336  1.00  0.00     0.169 HD
BRANCH   8  10
HETATM   10  C3  UNL     1     -12.193   3.293 -14.869  1.00  0.00     0.116 A 
HETATM   11  N1  UNL     1     -12.800   4.025 -13.931  1.00  0.00    -0.344 N 
HETATM   12  C2  UNL     1     -14.013   3.698 -13.398  1.00  0.00     0.032 A 
ATOM     13  H1  UNL     1     -12.334   4.868 -13.597  1.00  0.00     0.167 HD
HETATM   14  C1  UNL     1     -14.661   4.530 -12.371  1.00  0.00     0.070 C 
HETATM   15  C23 UNL     1     -14.651   2.553 -13.847  1.00  0.00     0.095 A 
HETATM   16  C22 UNL     1     -14.050   1.773 -14.818  1.00  0.00     0.149 A 
HETATM   17 CL2  UNL     1     -16.196   2.140 -13.160  1.00  0.00    -0.079 Cl
HETATM   18  C20 UNL     1     -12.823   2.145 -15.327  1.00  0.00     0.022 A 
HETATM   19  F1  UNL     1     -14.693   0.642 -15.251  1.00  0.00    -0.204 F 
HETATM   20  C21 UNL     1     -12.152   1.331 -16.353  1.00  0.00     0.056 C 
ENDBRANCH   8  10
ENDBRANCH   7   8
BRANCH   7  21
HETATM   21  O1  UNL     1     -10.067   3.896 -13.347  1.00  0.00    -0.344 OA
ATOM     22  H1  UNL     1     -10.436   4.755 -13.181  1.00  0.00     0.219 HD
ENDBRANCH   7  21
ENDBRANCH   1   7
BRANCH   6  23
HETATM   23  C16 UNL     1      -7.977   5.622 -16.301  1.00  0.00     0.027 C 
HETATM   24  C17 UNL     1      -6.802   6.563 -16.366  1.00  0.00     0.038 C 
HETATM   25  C18 UNL     1      -9.043   6.407 -15.546  1.00  0.00     0.038 C 
HETATM   26  C19 UNL     1      -8.588   5.384 -17.694  1.00  0.00     0.038 C 
ENDBRANCH   6  23
BRANCH   5  27
HETATM   27  S1  UNL     1      -4.971   4.385 -16.711  1.00  0.00    -0.110 SA
BRANCH  27  28
HETATM   28  C9  UNL     1      -3.637   4.900 -15.689  1.00  0.00     0.114 C 
BRANCH  28  29
HETATM   29  C10 UNL     1      -2.410   4.013 -15.609  1.00  0.00     0.156 C 
BRANCH  29  30
HETATM   30  O2  UNL     1      -1.320   4.522 -16.179  1.00  0.00    -0.393 OA
ATOM     31  H2  UNL     1      -1.388   4.650 -17.118  1.00  0.00     0.210 HD
ENDBRANCH  29  30
BRANCH  29  32
HETATM   32  C11 UNL     1      -2.746   2.578 -15.675  1.00  0.00     0.305 C 
BRANCH  32  33
HETATM   33  N3  UNL     1      -2.580   1.751 -14.506  1.00  0.00     0.095 N 
HETATM   34  C12 UNL     1      -2.802   0.360 -14.859  1.00  0.00     0.298 C 
HETATM   35  C13 UNL     1      -3.620  -0.466 -13.968  1.00  0.00     0.198 C 
HETATM   36  O3  UNL     1      -3.599  -0.014 -12.626  1.00  0.00    -0.388 OA
HETATM   37  C14 UNL     1      -4.246   1.214 -12.709  1.00  0.00     0.198 C 
HETATM   38  C15 UNL     1      -3.380   2.190 -13.398  1.00  0.00     0.298 C 
ENDBRANCH  32  33
ENDBRANCH  29  32
ENDBRANCH  28  29
ENDBRANCH  27  28
ENDBRANCH   5  27
TORSDOF 11
ENDMDL
MODEL 3
REMARK VINA RESULT: -8.280882991      1.119      1.791
REMARK  11 active torsions:
REMARK  status: ('A' for Active; 'I' for Inactive)
REMARK    1  A    between atoms: C3_5  and  N2_6 
REMARK    2  A    between atoms: N2_6  and  C4_8 
REMARK    3  A    between atoms: C4_8  and  O1_9 
REMARK    4  A    between atoms: C4_8  and  C5_11 
REMARK    5  A    between atoms: C8_15  and  S1_16 
REMARK    6  A    between atoms: S1_16  and  C9_17 
REMARK    7  A    between atoms: C9_17  and  C10_18 
REMARK    8  A    between atoms: C10_18  and  O2_19 
REMARK    9  A    between atoms: C10_18  and  C11_21 
REMARK   10  A    between atoms: C11_21  and  N3_22 
REMARK   11  A    between atoms: N4_28  and  C16_29 
ROOT
HETATM    1  C5  UNL     1     -11.255   1.287 -16.376  1.00  0.00     0.109 A 
HETATM    2  C6  UNL     1     -10.801  -0.035 -16.600  1.00  0.00     0.068 A 
HETATM    3 CL1  UNL     1     -11.470  -1.238 -17.718  1.00  0.00    -0.082 Cl
HETATM    4  C7  UNL     1      -9.734  -0.260 -15.796  1.00  0.00     0.063 A 
HETATM    5  C8  UNL     1      -9.485   0.873 -15.061  1.00  0.00     0.075 A 
HETATM    6  N4  UNL     1     -10.429   1.796 -15.435  1.00  0.00    -0.328 N 
ENDROOT
BRANCH   1   7
HETATM    7  C4  UNL     1     -12.368   1.807 -17.136  1.00  0.00     0.171 C 
BRANCH   7   8
HETATM    8  N2  UNL     1     -13.736   1.648 -17.058  1.00  0.00    -0.321 N 
ATOM      9  H2  UNL     1     -14.248   1.659 -17.940  1.00  0.00     0.169 HD
BRANCH   8  10
HETATM   10  C3  UNL     1     -14.422   1.489 -16.011  1.00  0.00     0.116 A 
HETATM   11  N1  UNL     1     -14.482   2.412 -15.047  1.00  0.00    -0.344 N 
HETATM   12  C2  UNL     1     -15.202   2.248 -13.900  1.00  0.00     0.032 A 
ATOM     13  H1  UNL     1     -13.963   3.280 -15.175  1.00  0.00     0.167 HD
HETATM   14  C1  UNL     1     -15.255   3.287 -12.860  1.00  0.00     0.070 C 
HETATM   15  C23 UNL     1     -15.908   1.069 -13.720  1.00  0.00     0.095 A 
HETATM   16  C22 UNL     1     -15.868   0.093 -14.699  1.00  0.00     0.149 A 
HETATM   17 CL2  UNL     1     -16.821   0.865 -12.252  1.00  0.00    -0.079 Cl
HETATM   18  C20 UNL     1     -15.127   0.305 -15.842  1.00  0.00     0.022 A 
HETATM   19  F1  UNL     1     -16.571  -1.069 -14.505  1.00  0.00    -0.204 F 
HETATM   20  C21 UNL     1     -15.054  -0.718 -16.897  1.00  0.00     0.056 C 
ENDBRANCH   8  10
ENDBRANCH   7   8
BRANCH   7  21
HETATM   21  O1  UNL     1     -12.019   2.620 -18.128  1.00  0.00    -0.344 OA
ATOM     22  H1  UNL     1     -11.464   3.330 -17.827  1.00  0.00     0.219 HD
ENDBRANCH   7  21
ENDBRANCH   1   7
BRANCH   6  23
HETATM   23  C16 UNL     1     -10.554   3.098 -14.870  1.00  0.00     0.027 C 
HETATM   24  C17 UNL     1     -11.190   4.089 -15.811  1.00  0.00     0.038 C 
HETATM   25  C18 UNL     1      -9.249   3.765 -14.451  1.00  0.00     0.038 C 
HETATM   26  C19 UNL     1     -11.355   2.965 -13.563  1.00  0.00     0.038 C 
ENDBRANCH   6  23
BRANCH   5  27
HETATM   27  S1  UNL     1      -8.180   1.076 -13.864  1.00  0.00    -0.110 SA
BRANCH  27  28
HETATM   28  C9  UNL     1      -7.073  -0.281 -13.708  1.00  0.00     0.114 C 
BRANCH  28  29
HETATM   29  C10 UNL     1      -5.703  -0.026 -13.112  1.00  0.00     0.156 C 
BRANCH  29  30
HETATM   30  O2  UNL     1      -5.568  -0.417 -11.847  1.00  0.00    -0.393 OA
ATOM     31  H2  UNL     1      -6.356  -0.778 -11.458  1.00  0.00     0.210 HD
ENDBRANCH  29  30
BRANCH  29  32
HETATM   32  C11 UNL     1      -5.082   1.206 -13.635  1.00  0.00     0.305 C 
BRANCH  32  33
HETATM   33  N3  UNL     1      -3.707   1.503 -13.317  1.00  0.00     0.095 N 
HETATM   34  C12 UNL     1      -3.475   2.930 -13.448  1.00  0.00     0.298 C 
HETATM   35  C13 UNL     1      -2.259   3.381 -14.128  1.00  0.00     0.198 C 
HETATM   36  O3  UNL     1      -1.202   2.441 -14.047  1.00  0.00    -0.388 OA
HETATM   37  C14 UNL     1      -1.686   1.375 -14.799  1.00  0.00     0.198 C 
HETATM   38  C15 UNL     1      -2.780   0.705 -14.068  1.00  0.00     0.298 C 
ENDBRANCH  32  33
ENDBRANCH  29  32
ENDBRANCH  28  29
ENDBRANCH  27  28
ENDBRANCH   5  27
TORSDOF 11
ENDMDL
MODEL 4
REMARK VINA RESULT: -8.209503030      1.460      2.297
REMARK  11 active torsions:
REMARK  status: ('A' for Active; 'I' for Inactive)
REMARK    1  A    between atoms: C3_5  and  N2_6 
REMARK    2  A    between atoms: N2_6  and  C4_8 
REMARK    3  A    between atoms: C4_8  and  O1_9 
REMARK    4  A    between atoms: C4_8  and  C5_11 
REMARK    5  A    between atoms: C8_15  and  S1_16 
REMARK    6  A    between atoms: S1_16  and  C9_17 
REMARK    7  A    between atoms: C9_17  and  C10_18 
REMARK    8  A    between atoms: C10_18  and  O2_19 
REMARK    9  A    between atoms: C10_18  and  C11_21 
REMARK   10  A    between atoms: C11_21  and  N3_22 
REMARK   11  A    between atoms: N4_28  and  C16_29 
ROOT
HETATM    1  C5  UNL     1     -11.234   1.238 -16.144  1.00  0.00     0.109 A 
HETATM    2  C6  UNL     1     -10.686  -0.034 -16.436  1.00  0.00     0.068 A 
HETATM    3 CL1  UNL     1     -11.366  -1.296 -17.479  1.00  0.00    -0.082 Cl
HETATM    4  C7  UNL     1      -9.512  -0.154 -15.771  1.00  0.00     0.063 A 
HETATM    5  C8  UNL     1      -9.286   0.998 -15.058  1.00  0.00     0.075 A 
HETATM    6  N4  UNL     1     -10.353   1.825 -15.304  1.00  0.00    -0.328 N 
ENDROOT
BRANCH   1   7
HETATM    7  C4  UNL     1     -12.477   1.647 -16.758  1.00  0.00     0.171 C 
BRANCH   7   8
HETATM    8  N2  UNL     1     -13.781   1.724 -16.315  1.00  0.00    -0.321 N 
ATOM      9  H2  UNL     1     -14.309   0.851 -16.298  1.00  0.00     0.169 HD
BRANCH   8  10
HETATM   10  C3  UNL     1     -14.391   2.759 -15.930  1.00  0.00     0.116 A 
HETATM   11  N1  UNL     1     -14.284   3.930 -16.562  1.00  0.00    -0.344 N 
HETATM   12  C2  UNL     1     -14.920   5.064 -16.147  1.00  0.00     0.032 A 
ATOM     13  H1  UNL     1     -13.697   3.980 -17.394  1.00  0.00     0.167 HD
HETATM   14  C1  UNL     1     -14.789   6.339 -16.870  1.00  0.00     0.070 C 
HETATM   15  C23 UNL     1     -15.717   5.003 -15.015  1.00  0.00     0.095 A 
HETATM   16  C22 UNL     1     -15.851   3.805 -14.337  1.00  0.00     0.149 A 
HETATM   17 CL2  UNL     1     -16.523   6.454 -14.488  1.00  0.00    -0.079 Cl
HETATM   18  C20 UNL     1     -15.188   2.686 -14.796  1.00  0.00     0.022 A 
HETATM   19  F1  UNL     1     -16.642   3.761 -13.218  1.00  0.00    -0.204 F 
HETATM   20  C21 UNL     1     -15.300   1.399 -14.091  1.00  0.00     0.056 C 
ENDBRANCH   8  10
ENDBRANCH   7   8
BRANCH   7  21
HETATM   21  O1  UNL     1     -12.357   2.042 -18.022  1.00  0.00    -0.344 OA
ATOM     22  H1  UNL     1     -11.452   2.033 -18.312  1.00  0.00     0.219 HD
ENDBRANCH   7  21
ENDBRANCH   1   7
BRANCH   6  23
HETATM   23  C16 UNL     1     -10.533   3.109 -14.713  1.00  0.00     0.027 C 
HETATM   24  C17 UNL     1     -10.924   4.167 -15.712  1.00  0.00     0.038 C 
HETATM   25  C18 UNL     1      -9.312   3.691 -14.011  1.00  0.00     0.038 C 
HETATM   26  C19 UNL     1     -11.586   2.966 -13.600  1.00  0.00     0.038 C 
ENDBRANCH   6  23
BRANCH   5  27
HETATM   27  S1  UNL     1      -7.870   1.327 -14.025  1.00  0.00    -0.110 SA
BRANCH  27  28
HETATM   28  C9  UNL     1      -7.147  -0.079 -13.257  1.00  0.00     0.114 C 
BRANCH  28  29
HETATM   29  C10 UNL     1      -5.656  -0.063 -12.987  1.00  0.00     0.156 C 
BRANCH  29  30
HETATM   30  O2  UNL     1      -5.313  -0.406 -11.748  1.00  0.00    -0.393 OA
ATOM     31  H2  UNL     1      -5.766  -1.170 -11.409  1.00  0.00     0.210 HD
ENDBRANCH  29  30
BRANCH  29  32
HETATM   32  C11 UNL     1      -4.958   0.997 -13.741  1.00  0.00     0.305 C 
BRANCH  32  33
HETATM   33  N3  UNL     1      -3.611   1.361 -13.380  1.00  0.00     0.095 N 
HETATM   34  C12 UNL     1      -3.440   2.796 -13.523  1.00  0.00     0.298 C 
HETATM   35  C13 UNL     1      -2.222   3.294 -14.168  1.00  0.00     0.198 C 
HETATM   36  O3  UNL     1      -1.127   2.404 -14.037  1.00  0.00    -0.388 OA
HETATM   37  C14 UNL     1      -1.536   1.308 -14.789  1.00  0.00     0.198 C 
HETATM   38  C15 UNL     1      -2.623   0.597 -14.086  1.00  0.00     0.298 C 
ENDBRANCH  32  33
ENDBRANCH  29  32
ENDBRANCH  28  29
ENDBRANCH  27  28
ENDBRANCH   5  27
TORSDOF 11
ENDMDL
MODEL 5
REMARK VINA RESULT: -8.142448578      2.941      3.900
REMARK  11 active torsions:
REMARK  status: ('A' for Active; 'I' for Inactive)
REMARK    1  A    between atoms: C3_5  and  N2_6 
REMARK    2  A    between atoms: N2_6  and  C4_8 
REMARK    3  A    between atoms: C4_8  and  O1_9 
REMARK    4  A    between atoms: C4_8  and  C5_11 
REMARK    5  A    between atoms: C8_15  and  S1_16 
REMARK    6  A    between atoms: S1_16  and  C9_17 
REMARK    7  A    between atoms: C9_17  and  C10_18 
REMARK    8  A    between atoms: C10_18  and  O2_19 
REMARK    9  A    between atoms: C10_18  and  C11_21 
REMARK   10  A    between atoms: C11_21  and  N3_22 
REMARK   11  A    between atoms: N4_28  and  C16_29 
ROOT
HETATM    1  C5  UNL     1     -11.233   0.378 -16.558  1.00  0.00     0.109 A 
HETATM    2  C6  UNL     1     -10.418  -0.753 -16.803  1.00  0.00     0.068 A 
HETATM    3 CL1  UNL     1     -10.751  -2.119 -17.884  1.00  0.00    -0.082 Cl
HETATM    4  C7  UNL     1      -9.294  -0.638 -16.055  1.00  0.00     0.063 A 
HETATM    5  C8  UNL     1      -9.358   0.531 -15.336  1.00  0.00     0.075 A 
HETATM    6  N4  UNL     1     -10.551   1.124 -15.662  1.00  0.00    -0.328 N 
ENDROOT
BRANCH   1   7
HETATM    7  C4  UNL     1     -12.486   0.530 -17.260  1.00  0.00     0.171 C 
BRANCH   7   8
HETATM    8  N2  UNL     1     -13.728  -0.059 -17.138  1.00  0.00    -0.321 N 
ATOM      9  H2  UNL     1     -14.319   0.278 -16.379  1.00  0.00     0.169 HD
BRANCH   8  10
HETATM   10  C3  UNL     1     -14.211  -0.969 -17.866  1.00  0.00     0.116 A 
HETATM   11  N1  UNL     1     -13.736  -1.239 -19.085  1.00  0.00    -0.344 N 
HETATM   12  C2  UNL     1     -14.260  -2.206 -19.893  1.00  0.00     0.032 A 
ATOM     13  H1  UNL     1     -12.945  -0.695 -19.428  1.00  0.00     0.167 HD
HETATM   14  C1  UNL     1     -13.709  -2.485 -21.229  1.00  0.00     0.070 C 
HETATM   15  C23 UNL     1     -15.336  -2.947 -19.434  1.00  0.00     0.095 A 
HETATM   16  C22 UNL     1     -15.851  -2.694 -18.175  1.00  0.00     0.149 A 
HETATM   17 CL2  UNL     1     -16.001  -4.176 -20.471  1.00  0.00    -0.079 Cl
HETATM   18  C20 UNL     1     -15.288  -1.707 -17.395  1.00  0.00     0.022 A 
HETATM   19  F1  UNL     1     -16.918  -3.436 -17.735  1.00  0.00    -0.204 F 
HETATM   20  C21 UNL     1     -15.820  -1.405 -16.056  1.00  0.00     0.056 C 
ENDBRANCH   8  10
ENDBRANCH   7   8
BRANCH   7  21
HETATM   21  O1  UNL     1     -12.458   1.432 -18.237  1.00  0.00    -0.344 OA
ATOM     22  H1  UNL     1     -11.663   1.951 -18.218  1.00  0.00     0.219 HD
ENDBRANCH   7  21
ENDBRANCH   1   7
BRANCH   6  23
HETATM   23  C16 UNL     1     -11.031   2.339 -15.092  1.00  0.00     0.027 C 
HETATM   24  C17 UNL     1     -10.532   2.566 -13.688  1.00  0.00     0.038 C 
HETATM   25  C18 UNL     1     -12.545   2.463 -14.975  1.00  0.00     0.038 C 
HETATM   26  C19 UNL     1     -10.620   3.488 -16.029  1.00  0.00     0.038 C 
ENDBRANCH   6  23
BRANCH   5  27
HETATM   27  S1  UNL     1      -8.116   1.132 -14.207  1.00  0.00    -0.110 SA
BRANCH  27  28
HETATM   28  C9  UNL     1      -7.368  -0.084 -13.182  1.00  0.00     0.114 C 
BRANCH  28  29
HETATM   29  C10 UNL     1      -5.873  -0.006 -12.949  1.00  0.00     0.156 C 
BRANCH  29  30
HETATM   30  O2  UNL     1      -5.471  -0.468 -11.767  1.00  0.00    -0.393 OA
ATOM     31  H2  UNL     1      -4.700  -0.038 -11.415  1.00  0.00     0.210 HD
ENDBRANCH  29  30
BRANCH  29  32
HETATM   32  C11 UNL     1      -5.263   1.174 -13.591  1.00  0.00     0.305 C 
BRANCH  32  33
HETATM   33  N3  UNL     1      -3.894   1.519 -13.297  1.00  0.00     0.095 N 
HETATM   34  C12 UNL     1      -3.757   2.964 -13.250  1.00  0.00     0.298 C 
HETATM   35  C13 UNL     1      -2.608   3.580 -13.917  1.00  0.00     0.198 C 
HETATM   36  O3  UNL     1      -1.493   2.711 -14.007  1.00  0.00    -0.388 OA
HETATM   37  C14 UNL     1      -1.950   1.720 -14.870  1.00  0.00     0.198 C 
HETATM   38  C15 UNL     1      -2.961   0.889 -14.186  1.00  0.00     0.298 C 
ENDBRANCH  32  33
ENDBRANCH  29  32
ENDBRANCH  28  29
ENDBRANCH  27  28
ENDBRANCH   5  27
TORSDOF 11
ENDMDL
