MODEL 1
REMARK VINA RESULT: -8.851472318      0.000      0.000
REMARK  9 active torsions:
REMARK  status: ('A' for Active; 'I' for Inactive)
REMARK    1  A    between atoms: N2_5  and  C4_6 
REMARK    2  A    between atoms: C7_9  and  N3_10 
REMARK    3  A    between atoms: N3_10  and  C8_12 
REMARK    4  A    between atoms: C10_18  and  N6_19 
REMARK    5  A    between atoms: N6_19  and  C11_21 
REMARK    6  A    between atoms: N7_24  and  C14_25 
REMARK    7  A    between atoms: C14_25  and  C15_26 
REMARK    8  A    between atoms: C15_26  and  C16_27 
REMARK    9  A    between atoms: C19_30  and  C20_31 
ROOT
HETATM    1  C8  UNL     1     -10.618   0.401 -16.608  1.00  0.00     0.679 A 
HETATM    2  N4  UNL     1      -9.823  -0.411 -15.885  1.00  0.00    -0.174 N 
ATOM      3  H4  UNL     1      -9.995  -1.416 -15.912  1.00  0.00     0.186 HD
HETATM    4  C9  UNL     1      -8.801   0.055 -15.123  1.00  0.00     0.165 A 
HETATM    5  N5  UNL     1      -7.889  -0.536 -14.332  1.00  0.00    -0.174 N 
ATOM      6  H5  UNL     1      -7.809  -1.538 -14.157  1.00  0.00     0.186 HD
HETATM    7  C10 UNL     1      -7.103   0.414 -13.813  1.00  0.00     0.682 A 
HETATM    8  N7  UNL     1      -7.509   1.588 -14.266  1.00  0.00    -0.178 N 
HETATM    9  C22 UNL     1      -8.554   1.401 -15.077  1.00  0.00     0.112 A 
HETATM   10  C23 UNL     1      -9.375   2.231 -15.823  1.00  0.00     0.140 A 
HETATM   11  N8  UNL     1     -10.385   1.720 -16.570  1.00  0.00    -0.200 N 
ATOM     12  H8  UNL     1     -10.975   2.350 -17.112  1.00  0.00     0.183 HD
ENDROOT
BRANCH   1  13
HETATM   13  N3  UNL     1     -11.558  -0.064 -17.307  1.00  0.00    -0.221 N 
ATOM     14  H3  UNL     1     -12.089   0.622 -17.844  1.00  0.00     0.178 HD
BRANCH  13  15
HETATM   15  C7  UNL     1     -11.983  -1.429 -17.451  1.00  0.00     0.099 C 
HETATM   16  C6  UNL     1     -13.340  -1.407 -18.125  1.00  0.00     0.028 C 
HETATM   17  C5  UNL     1     -13.242  -1.888 -19.536  1.00  0.00     0.027 C 
HETATM   18  C4  UNL     1     -12.699  -3.299 -19.656  1.00  0.00     0.079 C 
HETATM   19  C25 UNL     1     -11.466  -3.477 -18.824  1.00  0.00     0.027 C 
HETATM   20  C24 UNL     1     -10.954  -2.165 -18.247  1.00  0.00     0.028 C 
BRANCH  18  21
HETATM   21  N2  UNL     1     -13.666  -4.321 -19.537  1.00  0.00    -0.405 N 
HETATM   22  C3  UNL     1     -13.423  -5.199 -18.429  1.00  0.00     0.147 C 
HETATM   23  C2  UNL     1     -14.609  -6.100 -18.163  1.00  0.00     0.291 C 
HETATM   24  N1  UNL     1     -15.174  -6.637 -19.362  1.00  0.00     0.087 N 
HETATM   25  C1  UNL     1     -16.278  -7.517 -19.143  1.00  0.00     0.310 C 
HETATM   26  C27 UNL     1     -15.545  -5.557 -20.285  1.00  0.00     0.291 C 
HETATM   27  C26 UNL     1     -14.200  -4.927 -20.681  1.00  0.00     0.147 C 
ENDBRANCH  18  21
ENDBRANCH  13  15
ENDBRANCH   1  13
BRANCH   7  28
HETATM   28  N6  UNL     1      -6.138   0.140 -13.001  1.00  0.00    -0.221 N 
ATOM     29  H6  UNL     1      -6.089   0.666 -12.128  1.00  0.00     0.178 HD
BRANCH  28  30
HETATM   30  C11 UNL     1      -5.137  -0.848 -13.240  1.00  0.00     0.099 A 
HETATM   31  C12 UNL     1      -3.694  -0.297 -13.203  1.00  0.00     0.028 A 
HETATM   32  C13 UNL     1      -4.174  -1.256 -12.185  1.00  0.00     0.028 A 
ENDBRANCH  28  30
ENDBRANCH   7  28
BRANCH   8  33
HETATM   33  C14 UNL     1      -6.969   2.910 -14.008  1.00  0.00     0.148 C 
BRANCH  33  34
HETATM   34  C15 UNL     1      -6.345   3.587 -15.164  1.00  0.00     0.025 C 
BRANCH  34  35
HETATM   35  C16 UNL     1      -5.177   2.978 -15.818  1.00  0.00    -0.012 C 
HETATM   36  C17 UNL     1      -4.477   4.101 -16.602  1.00  0.00     0.005 C 
HETATM   37  C18 UNL     1      -3.717   4.816 -15.531  1.00  0.00     0.014 C 
HETATM   38  C19 UNL     1      -3.121   3.706 -14.720  1.00  0.00     0.094 C 
HETATM   39  C21 UNL     1      -4.063   2.572 -14.893  1.00  0.00     0.018 C 
BRANCH  38  40
HETATM   40  C20 UNL     1      -1.698   3.397 -15.131  1.00  0.00     0.391 C 
HETATM   41  F1  UNL     1      -0.984   4.490 -15.509  1.00  0.00    -0.171 F 
HETATM   42  F2  UNL     1      -1.081   2.800 -14.033  1.00  0.00    -0.171 F 
HETATM   43  F3  UNL     1      -1.666   2.467 -16.151  1.00  0.00    -0.171 F 
ENDBRANCH  38  40
ENDBRANCH  34  35
ENDBRANCH  33  34
ENDBRANCH   8  33
TORSDOF 9
ENDMDL
MODEL 2
REMARK VINA RESULT: -8.603393457      4.906      6.746
REMARK  9 active torsions:
REMARK  status: ('A' for Active; 'I' for Inactive)
REMARK    1  A    between atoms: N2_5  and  C4_6 
REMARK    2  A    between atoms: C7_9  and  N3_10 
REMARK    3  A    between atoms: N3_10  and  C8_12 
REMARK    4  A    between atoms: C10_18  and  N6_19 
REMARK    5  A    between atoms: N6_19  and  C11_21 
REMARK    6  A    between atoms: N7_24  and  C14_25 
REMARK    7  A    between atoms: C14_25  and  C15_26 
REMARK    8  A    between atoms: C15_26  and  C16_27 
REMARK    9  A    between atoms: C19_30  and  C20_31 
ROOT
HETATM    1  C8  UNL     1     -10.199   4.893 -15.363  1.00  0.00     0.679 A 
HETATM    2  N4  UNL     1      -9.643   6.078 -15.685  1.00  0.00    -0.174 N 
ATOM      3  H4  UNL     1     -10.219   6.919 -15.632  1.00  0.00     0.186 HD
HETATM    4  C9  UNL     1      -8.349   6.198 -16.076  1.00  0.00     0.165 A 
HETATM    5  N5  UNL     1      -7.582   7.239 -16.440  1.00  0.00    -0.174 N 
ATOM      6  H5  UNL     1      -7.880   8.214 -16.486  1.00  0.00     0.186 HD
HETATM    7  C10 UNL     1      -6.359   6.781 -16.730  1.00  0.00     0.682 A 
HETATM    8  N7  UNL     1      -6.350   5.470 -16.555  1.00  0.00    -0.178 N 
HETATM    9  C22 UNL     1      -7.562   5.079 -16.151  1.00  0.00     0.112 A 
HETATM   10  C23 UNL     1      -8.139   3.864 -15.818  1.00  0.00     0.140 A 
HETATM   11  N8  UNL     1      -9.437   3.794 -15.433  1.00  0.00    -0.200 N 
ATOM     12  H8  UNL     1      -9.839   2.888 -15.192  1.00  0.00     0.183 HD
ENDROOT
BRANCH   1  13
HETATM   13  N3  UNL     1     -11.403   4.817 -15.002  1.00  0.00    -0.221 N 
ATOM     14  H3  UNL     1     -11.808   5.678 -14.633  1.00  0.00     0.178 HD
BRANCH  13  15
HETATM   15  C7  UNL     1     -12.286   3.683 -15.038  1.00  0.00     0.099 C 
HETATM   16  C6  UNL     1     -13.028   3.650 -13.718  1.00  0.00     0.028 C 
HETATM   17  C5  UNL     1     -14.457   4.046 -13.901  1.00  0.00     0.027 C 
HETATM   18  C4  UNL     1     -15.211   3.153 -14.868  1.00  0.00     0.079 C 
HETATM   19  C25 UNL     1     -14.431   2.941 -16.129  1.00  0.00     0.027 C 
HETATM   20  C24 UNL     1     -13.198   3.830 -16.212  1.00  0.00     0.028 C 
BRANCH  18  21
HETATM   21  N2  UNL     1     -15.767   1.989 -14.293  1.00  0.00    -0.405 N 
HETATM   22  C3  UNL     1     -16.234   2.193 -12.952  1.00  0.00     0.147 C 
HETATM   23  C2  UNL     1     -17.063   1.023 -12.468  1.00  0.00     0.291 C 
HETATM   24  N1  UNL     1     -16.494  -0.240 -12.820  1.00  0.00     0.087 N 
HETATM   25  C1  UNL     1     -17.238  -1.366 -12.352  1.00  0.00     0.310 C 
HETATM   26  C27 UNL     1     -16.282  -0.324 -14.271  1.00  0.00     0.291 C 
HETATM   27  C26 UNL     1     -15.203   0.734 -14.552  1.00  0.00     0.147 C 
ENDBRANCH  18  21
ENDBRANCH  13  15
ENDBRANCH   1  13
BRANCH   7  28
HETATM   28  N6  UNL     1      -5.408   7.559 -17.123  1.00  0.00    -0.221 N 
ATOM     29  H6  UNL     1      -4.452   7.210 -17.059  1.00  0.00     0.178 HD
BRANCH  28  30
HETATM   30  C11 UNL     1      -5.603   8.875 -17.641  1.00  0.00     0.099 A 
HETATM   31  C12 UNL     1      -4.571   9.282 -18.717  1.00  0.00     0.028 A 
HETATM   32  C13 UNL     1      -6.001   9.108 -19.053  1.00  0.00     0.028 A 
ENDBRANCH  28  30
ENDBRANCH   7  28
BRANCH   8  33
HETATM   33  C14 UNL     1      -5.260   4.527 -16.722  1.00  0.00     0.148 C 
BRANCH  33  34
HETATM   34  C15 UNL     1      -4.047   4.799 -15.923  1.00  0.00     0.025 C 
BRANCH  34  35
HETATM   35  C16 UNL     1      -2.907   3.873 -15.997  1.00  0.00    -0.012 C 
HETATM   36  C17 UNL     1      -2.246   3.877 -14.608  1.00  0.00     0.005 C 
HETATM   37  C18 UNL     1      -3.144   2.977 -13.821  1.00  0.00     0.014 C 
HETATM   38  C19 UNL     1      -3.397   1.830 -14.751  1.00  0.00     0.094 C 
HETATM   39  C21 UNL     1      -3.269   2.417 -16.108  1.00  0.00     0.018 C 
BRANCH  38  40
HETATM   40  C20 UNL     1      -2.468   0.665 -14.490  1.00  0.00     0.391 C 
HETATM   41  F1  UNL     1      -1.160   1.018 -14.377  1.00  0.00    -0.171 F 
HETATM   42  F2  UNL     1      -2.890   0.071 -13.302  1.00  0.00    -0.171 F 
HETATM   43  F3  UNL     1      -2.589  -0.296 -15.472  1.00  0.00    -0.171 F 
ENDBRANCH  38  40
ENDBRANCH  34  35
ENDBRANCH  33  34
ENDBRANCH   8  33
TORSDOF 9
ENDMDL
MODEL 3
REMARK VINA RESULT: -8.551268113      4.348      6.355
REMARK  9 active torsions:
REMARK  status: ('A' for Active; 'I' for Inactive)
REMARK    1  A    between atoms: N2_5  and  C4_6 
REMARK    2  A    between atoms: C7_9  and  N3_10 
REMARK    3  A    between atoms: N3_10  and  C8_12 
REMARK    4  A    between atoms: C10_18  and  N6_19 
REMARK    5  A    between atoms: N6_19  and  C11_21 
REMARK    6  A    between atoms: N7_24  and  C14_25 
REMARK    7  A    between atoms: C14_25  and  C15_26 
REMARK    8  A    between atoms: C15_26  and  C16_27 
REMARK    9  A    between atoms: C19_30  and  C20_31 
ROOT
HETATM    1  C8  UNL     1     -10.065   4.493 -15.269  1.00  0.00     0.679 A 
HETATM    2  N4  UNL     1      -9.623   5.741 -15.522  1.00  0.00    -0.174 N 
ATOM      3  H4  UNL     1     -10.264   6.523 -15.390  1.00  0.00     0.186 HD
HETATM    4  C9  UNL     1      -8.360   5.998 -15.945  1.00  0.00     0.165 A 
HETATM    5  N5  UNL     1      -7.696   7.124 -16.257  1.00  0.00    -0.174 N 
ATOM      6  H5  UNL     1      -8.076   8.070 -16.223  1.00  0.00     0.186 HD
HETATM    7  C10 UNL     1      -6.452   6.794 -16.620  1.00  0.00     0.682 A 
HETATM    8  N7  UNL     1      -6.327   5.479 -16.539  1.00  0.00    -0.178 N 
HETATM    9  C22 UNL     1      -7.485   4.959 -16.126  1.00  0.00     0.112 A 
HETATM   10  C23 UNL     1      -7.946   3.678 -15.863  1.00  0.00     0.140 A 
HETATM   11  N8  UNL     1      -9.217   3.471 -15.443  1.00  0.00    -0.200 N 
ATOM     12  H8  UNL     1      -9.533   2.520 -15.255  1.00  0.00     0.183 HD
ENDROOT
BRANCH   1  13
HETATM   13  N3  UNL     1     -11.244   4.289 -14.875  1.00  0.00    -0.221 N 
ATOM     14  H3  UNL     1     -11.668   5.047 -14.339  1.00  0.00     0.178 HD
BRANCH  13  15
HETATM   15  C7  UNL     1     -12.075   3.134 -15.078  1.00  0.00     0.099 C 
HETATM   16  C6  UNL     1     -12.850   2.908 -13.796  1.00  0.00     0.028 C 
HETATM   17  C5  UNL     1     -14.289   3.266 -13.973  1.00  0.00     0.027 C 
HETATM   18  C4  UNL     1     -14.979   2.471 -15.066  1.00  0.00     0.079 C 
HETATM   19  C25 UNL     1     -14.158   2.448 -16.318  1.00  0.00     0.027 C 
HETATM   20  C24 UNL     1     -12.963   3.389 -16.253  1.00  0.00     0.028 C 
BRANCH  18  21
HETATM   21  N2  UNL     1     -15.498   1.223 -14.655  1.00  0.00    -0.405 N 
HETATM   22  C3  UNL     1     -15.822   0.360 -15.754  1.00  0.00     0.147 C 
HETATM   23  C2  UNL     1     -16.110  -1.050 -15.288  1.00  0.00     0.291 C 
HETATM   24  N1  UNL     1     -16.923  -1.088 -14.113  1.00  0.00     0.087 N 
HETATM   25  C1  UNL     1     -17.238  -2.407 -13.664  1.00  0.00     0.310 C 
HETATM   26  C27 UNL     1     -16.309  -0.304 -13.035  1.00  0.00     0.291 C 
HETATM   27  C26 UNL     1     -16.355   1.143 -13.552  1.00  0.00     0.147 C 
ENDBRANCH  18  21
ENDBRANCH  13  15
ENDBRANCH   1  13
BRANCH   7  28
HETATM   28  N6  UNL     1      -5.585   7.676 -16.985  1.00  0.00    -0.221 N 
ATOM     29  H6  UNL     1      -4.604   7.494 -16.774  1.00  0.00     0.178 HD
BRANCH  28  30
HETATM   30  C11 UNL     1      -5.904   8.889 -17.666  1.00  0.00     0.099 A 
HETATM   31  C12 UNL     1      -4.808   9.364 -18.646  1.00  0.00     0.028 A 
HETATM   32  C13 UNL     1      -6.134   8.925 -19.133  1.00  0.00     0.028 A 
ENDBRANCH  28  30
ENDBRANCH   7  28
BRANCH   8  33
HETATM   33  C14 UNL     1      -5.169   4.648 -16.809  1.00  0.00     0.148 C 
BRANCH  33  34
HETATM   34  C15 UNL     1      -4.047   4.778 -15.856  1.00  0.00     0.025 C 
BRANCH  34  35
HETATM   35  C16 UNL     1      -2.907   3.853 -15.945  1.00  0.00    -0.012 C 
HETATM   36  C17 UNL     1      -2.235   3.848 -14.562  1.00  0.00     0.005 C 
HETATM   37  C18 UNL     1      -3.126   2.943 -13.773  1.00  0.00     0.014 C 
HETATM   38  C19 UNL     1      -3.387   1.802 -14.709  1.00  0.00     0.094 C 
HETATM   39  C21 UNL     1      -3.270   2.398 -16.063  1.00  0.00     0.018 C 
BRANCH  38  40
HETATM   40  C20 UNL     1      -2.455   0.636 -14.464  1.00  0.00     0.391 C 
HETATM   41  F1  UNL     1      -1.145   0.988 -14.364  1.00  0.00    -0.171 F 
HETATM   42  F2  UNL     1      -2.863   0.037 -13.273  1.00  0.00    -0.171 F 
HETATM   43  F3  UNL     1      -2.587  -0.322 -15.448  1.00  0.00    -0.171 F 
ENDBRANCH  38  40
ENDBRANCH  34  35
ENDBRANCH  33  34
ENDBRANCH   8  33
TORSDOF 9
ENDMDL
MODEL 4
REMARK VINA RESULT: -8.544114144      3.801      9.585
REMARK  9 active torsions:
REMARK  status: ('A' for Active; 'I' for Inactive)
REMARK    1  A    between atoms: N2_5  and  C4_6 
REMARK    2  A    between atoms: C7_9  and  N3_10 
REMARK    3  A    between atoms: N3_10  and  C8_12 
REMARK    4  A    between atoms: C10_18  and  N6_19 
REMARK    5  A    between atoms: N6_19  and  C11_21 
REMARK    6  A    between atoms: N7_24  and  C14_25 
REMARK    7  A    between atoms: C14_25  and  C15_26 
REMARK    8  A    between atoms: C15_26  and  C16_27 
REMARK    9  A    between atoms: C19_30  and  C20_31 
ROOT
HETATM    1  C8  UNL     1     -10.083   4.616 -15.467  1.00  0.00     0.679 A 
HETATM    2  N4  UNL     1     -10.423   3.631 -16.322  1.00  0.00    -0.174 N 
ATOM      3  H4  UNL     1     -10.942   3.873 -17.166  1.00  0.00     0.186 HD
HETATM    4  C9  UNL     1     -10.102   2.331 -16.105  1.00  0.00     0.165 A 
HETATM    5  N5  UNL     1     -10.320   1.194 -16.789  1.00  0.00    -0.174 N 
ATOM      6  H5  UNL     1     -10.816   1.117 -17.676  1.00  0.00     0.186 HD
HETATM    7  C10 UNL     1      -9.774   0.181 -16.107  1.00  0.00     0.682 A 
HETATM    8  N7  UNL     1      -9.219   0.666 -15.008  1.00  0.00    -0.178 N 
HETATM    9  C22 UNL     1      -9.403   1.988 -14.978  1.00  0.00     0.112 A 
HETATM   10  C23 UNL     1      -9.056   3.006 -14.103  1.00  0.00     0.140 A 
HETATM   11  N8  UNL     1      -9.400   4.291 -14.362  1.00  0.00    -0.200 N 
ATOM     12  H8  UNL     1      -9.133   5.023 -13.704  1.00  0.00     0.183 HD
ENDROOT
BRANCH   1  13
HETATM   13  N3  UNL     1     -10.396   5.814 -15.700  1.00  0.00    -0.221 N 
ATOM     14  H3  UNL     1     -11.247   6.144 -15.245  1.00  0.00     0.178 HD
BRANCH  13  15
HETATM   15  C7  UNL     1      -9.716   6.781 -16.519  1.00  0.00     0.099 C 
HETATM   16  C6  UNL     1      -8.455   7.183 -15.784  1.00  0.00     0.028 C 
HETATM   17  C5  UNL     1      -7.245   6.614 -16.451  1.00  0.00     0.027 C 
HETATM   18  C4  UNL     1      -7.089   7.054 -17.894  1.00  0.00     0.079 C 
HETATM   19  C25 UNL     1      -8.375   6.903 -18.647  1.00  0.00     0.027 C 
HETATM   20  C24 UNL     1      -9.438   6.161 -17.850  1.00  0.00     0.028 C 
BRANCH  18  21
HETATM   21  N2  UNL     1      -6.419   8.284 -18.072  1.00  0.00    -0.405 N 
HETATM   22  C3  UNL     1      -6.399   8.721 -19.438  1.00  0.00     0.147 C 
HETATM   23  C2  UNL     1      -5.927  10.153 -19.557  1.00  0.00     0.291 C 
HETATM   24  N1  UNL     1      -4.801  10.435 -18.722  1.00  0.00     0.087 N 
HETATM   25  C1  UNL     1      -4.312  11.773 -18.833  1.00  0.00     0.310 C 
HETATM   26  C27 UNL     1      -5.102  10.106 -17.323  1.00  0.00     0.291 C 
HETATM   27  C26 UNL     1      -5.271   8.578 -17.327  1.00  0.00     0.147 C 
ENDBRANCH  18  21
ENDBRANCH  13  15
ENDBRANCH   1  13
BRANCH   7  28
HETATM   28  N6  UNL     1      -9.838  -1.040 -16.520  1.00  0.00    -0.221 N 
ATOM     29  H6  UNL     1      -9.558  -1.776 -15.872  1.00  0.00     0.178 HD
BRANCH  28  30
HETATM   30  C11 UNL     1     -10.275  -1.430 -17.821  1.00  0.00     0.099 A 
HETATM   31  C12 UNL     1     -10.916  -2.835 -17.870  1.00  0.00     0.028 A 
HETATM   32  C13 UNL     1     -11.713  -1.619 -18.139  1.00  0.00     0.028 A 
ENDBRANCH  28  30
ENDBRANCH   7  28
BRANCH   8  33
HETATM   33  C14 UNL     1      -8.492  -0.029 -13.962  1.00  0.00     0.148 C 
BRANCH  33  34
HETATM   34  C15 UNL     1      -7.018  -0.012 -14.083  1.00  0.00     0.025 C 
BRANCH  34  35
HETATM   35  C16 UNL     1      -6.231   0.893 -13.232  1.00  0.00    -0.012 C 
HETATM   36  C17 UNL     1      -4.968   0.119 -12.819  1.00  0.00     0.005 C 
HETATM   37  C18 UNL     1      -4.105   0.238 -14.035  1.00  0.00     0.014 C 
HETATM   38  C19 UNL     1      -4.255   1.675 -14.434  1.00  0.00     0.094 C 
HETATM   39  C21 UNL     1      -5.602   2.058 -13.944  1.00  0.00     0.018 C 
BRANCH  38  40
HETATM   40  C20 UNL     1      -3.132   2.537 -13.899  1.00  0.00     0.391 C 
HETATM   41  F1  UNL     1      -1.915   1.932 -13.918  1.00  0.00    -0.171 F 
HETATM   42  F2  UNL     1      -3.090   3.683 -14.692  1.00  0.00    -0.171 F 
HETATM   43  F3  UNL     1      -3.401   2.961 -12.613  1.00  0.00    -0.171 F 
ENDBRANCH  38  40
ENDBRANCH  34  35
ENDBRANCH  33  34
ENDBRANCH   8  33
TORSDOF 9
ENDMDL
MODEL 5
REMARK VINA RESULT: -8.446933312      4.635     10.028
REMARK  9 active torsions:
REMARK  status: ('A' for Active; 'I' for Inactive)
REMARK    1  A    between atoms: N2_5  and  C4_6 
REMARK    2  A    between atoms: C7_9  and  N3_10 
REMARK    3  A    between atoms: N3_10  and  C8_12 
REMARK    4  A    between atoms: C10_18  and  N6_19 
REMARK    5  A    between atoms: N6_19  and  C11_21 
REMARK    6  A    between atoms: N7_24  and  C14_25 
REMARK    7  A    between atoms: C14_25  and  C15_26 
REMARK    8  A    between atoms: C15_26  and  C16_27 
REMARK    9  A    between atoms: C19_30  and  C20_31 
ROOT
HETATM    1  C8  UNL     1      -9.829   4.680 -15.362  1.00  0.00     0.679 A 
HETATM    2  N4  UNL     1     -10.179   3.719 -16.239  1.00  0.00    -0.174 N 
ATOM      3  H4  UNL     1     -10.657   3.991 -17.099  1.00  0.00     0.186 HD
HETATM    4  C9  UNL     1      -9.923   2.404 -16.026  1.00  0.00     0.165 A 
HETATM    5  N5  UNL     1     -10.165   1.284 -16.729  1.00  0.00    -0.174 N 
ATOM      6  H5  UNL     1     -10.632   1.237 -17.635  1.00  0.00     0.186 HD
HETATM    7  C10 UNL     1      -9.689   0.242 -16.039  1.00  0.00     0.682 A 
HETATM    8  N7  UNL     1      -9.153   0.691 -14.916  1.00  0.00    -0.178 N 
HETATM    9  C22 UNL     1      -9.280   2.020 -14.878  1.00  0.00     0.112 A 
HETATM   10  C23 UNL     1      -8.922   3.013 -13.980  1.00  0.00     0.140 A 
HETATM   11  N8  UNL     1      -9.200   4.315 -14.237  1.00  0.00    -0.200 N 
ATOM     12  H8  UNL     1      -8.926   5.028 -13.562  1.00  0.00     0.183 HD
ENDROOT
BRANCH   1  13
HETATM   13  N3  UNL     1     -10.081   5.893 -15.592  1.00  0.00    -0.221 N 
ATOM     14  H3  UNL     1     -10.888   6.276 -15.101  1.00  0.00     0.178 HD
BRANCH  13  15
HETATM   15  C7  UNL     1      -9.385   6.810 -16.453  1.00  0.00     0.099 C 
HETATM   16  C6  UNL     1     -10.052   8.161 -16.300  1.00  0.00     0.028 C 
HETATM   17  C5  UNL     1      -9.178   9.104 -15.539  1.00  0.00     0.027 C 
HETATM   18  C4  UNL     1      -7.828   9.336 -16.192  1.00  0.00     0.079 C 
HETATM   19  C25 UNL     1      -7.191   8.040 -16.592  1.00  0.00     0.027 C 
HETATM   20  C24 UNL     1      -7.943   6.829 -16.060  1.00  0.00     0.028 C 
BRANCH  18  21
HETATM   21  N2  UNL     1      -7.809  10.352 -17.173  1.00  0.00    -0.405 N 
HETATM   22  C3  UNL     1      -7.261   9.915 -18.425  1.00  0.00     0.147 C 
HETATM   23  C2  UNL     1      -7.506  10.926 -19.522  1.00  0.00     0.291 C 
HETATM   24  N1  UNL     1      -7.274  12.271 -19.096  1.00  0.00     0.087 N 
HETATM   25  C1  UNL     1      -7.468  13.249 -20.119  1.00  0.00     0.310 C 
HETATM   26  C27 UNL     1      -8.088  12.585 -17.915  1.00  0.00     0.291 C 
HETATM   27  C26 UNL     1      -7.518  11.674 -16.816  1.00  0.00     0.147 C 
ENDBRANCH  18  21
ENDBRANCH  13  15
ENDBRANCH   1  13
BRANCH   7  28
HETATM   28  N6  UNL     1      -9.790  -0.971 -16.468  1.00  0.00    -0.221 N 
ATOM     29  H6  UNL     1      -9.544  -1.724 -15.825  1.00  0.00     0.178 HD
BRANCH  28  30
HETATM   30  C11 UNL     1     -10.224  -1.331 -17.779  1.00  0.00     0.099 A 
HETATM   31  C12 UNL     1     -10.797  -2.762 -17.877  1.00  0.00     0.028 A 
HETATM   32  C13 UNL     1     -11.655  -1.576 -18.089  1.00  0.00     0.028 A 
ENDBRANCH  28  30
ENDBRANCH   7  28
BRANCH   8  33
HETATM   33  C14 UNL     1      -8.495  -0.044 -13.853  1.00  0.00     0.148 C 
BRANCH  33  34
HETATM   34  C15 UNL     1      -7.027  -0.170 -13.971  1.00  0.00     0.025 C 
BRANCH  34  35
HETATM   35  C16 UNL     1      -6.157   0.709 -13.175  1.00  0.00    -0.012 C 
HETATM   36  C17 UNL     1      -4.928  -0.128 -12.781  1.00  0.00     0.005 C 
HETATM   37  C18 UNL     1      -4.104  -0.098 -14.028  1.00  0.00     0.014 C 
HETATM   38  C19 UNL     1      -4.180   1.333 -14.466  1.00  0.00     0.094 C 
HETATM   39  C21 UNL     1      -5.484   1.813 -13.944  1.00  0.00     0.018 C 
BRANCH  38  40
HETATM   40  C20 UNL     1      -2.990   2.140 -13.996  1.00  0.00     0.391 C 
HETATM   41  F1  UNL     1      -1.824   1.439 -13.970  1.00  0.00    -0.171 F 
HETATM   42  F2  UNL     1      -2.860   3.217 -14.872  1.00  0.00    -0.171 F 
HETATM   43  F3  UNL     1      -3.217   2.678 -12.746  1.00  0.00    -0.171 F 
ENDBRANCH  38  40
ENDBRANCH  34  35
ENDBRANCH  33  34
ENDBRANCH   8  33
TORSDOF 9
ENDMDL
