MODEL 1
REMARK VINA RESULT: -7.001030082      0.000      0.000
REMARK  7 active torsions:
REMARK  status: ('A' for Active; 'I' for Inactive)
REMARK    1  A    between atoms: N1_1  and  C1_5 
REMARK    2  A    between atoms: C1_5  and  O1_6 
REMARK    3  A    between atoms: O1_6  and  C2_7 
REMARK    4  A    between atoms: C2_7  and  C3_9 
REMARK    5  A    between atoms: C3_9  and  N2_10 
REMARK    6  A    between atoms: C4_17  and  N4_18 
REMARK    7  A    between atoms: N4_18  and  N5_20 
REMARK       I    between atoms: C5_22  and  N7_24 
REMARK       I    between atoms: N7_24  and  C6_26 
ROOT
HETATM    1  C3  UNL     1      15.321  24.449  12.671  1.00  0.00     0.424 C 
HETATM    2  N3  UNL     1      16.600  25.107  12.453  1.00  0.00     0.006 N 
ATOM      3  H31 UNL     1      17.292  24.839  13.154  1.00  0.00     0.284 HD
ATOM      4  H32 UNL     1      16.556  26.105  12.660  1.00  0.00     0.284 HD
HETATM    5  C4  UNL     1      17.063  24.855  11.121  1.00  0.00     0.395 C 
HETATM    6  C7  UNL     1      16.868  23.427  10.748  1.00  0.00     0.276 C 
HETATM    7  O3  UNL     1      17.129  23.021   9.588  1.00  0.00    -0.269 OA
HETATM    8  N9  UNL     1      16.380  22.476  11.687  1.00  0.00    -0.290 N 
ATOM      9  H9  UNL     1      16.544  21.476  11.571  1.00  0.00     0.172 HD
HETATM   10  C8  UNL     1      15.653  22.990  12.797  1.00  0.00     0.297 C 
HETATM   11  O4  UNL     1      15.325  22.285  13.780  1.00  0.00    -0.268 OA
ENDROOT
BRANCH   1  12
HETATM   12  C2  UNL     1      14.664  24.908  13.891  1.00  0.00     0.189 C 
HETATM   13  S1  UNL     1      13.035  25.013  13.881  1.00  0.00    -0.052 SA
BRANCH  12  14
HETATM   14  O1  UNL     1      15.319  25.258  15.039  1.00  0.00    -0.313 OA
BRANCH  14  15
HETATM   15  C1  UNL     1      15.567  26.569  15.471  1.00  0.00     0.405 C 
BRANCH  15  16
HETATM   16  N1  UNL     1      15.370  26.604  16.914  1.00  0.00    -0.058 N 
ATOM     17  H13 UNL     1      14.469  26.999  17.182  1.00  0.00     0.276 HD
ATOM     18  H12 UNL     1      15.235  25.677  17.318  1.00  0.00     0.276 HD
ATOM     19  H11 UNL     1      16.160  27.104  17.322  1.00  0.00     0.276 HD
ENDBRANCH  15  16
ENDBRANCH  14  15
ENDBRANCH  12  14
ENDBRANCH   1  12
BRANCH   1  20
HETATM   20  N2  UNL     1      14.557  24.588  11.479  1.00  0.00    -0.029 N 
ATOM     21  H23 UNL     1      13.564  24.640  11.703  1.00  0.00     0.278 HD
ATOM     22  H22 UNL     1      14.701  25.515  11.078  1.00  0.00     0.278 HD
ATOM     23  H21 UNL     1      14.718  23.872  10.770  1.00  0.00     0.278 HD
ENDBRANCH   1  20
BRANCH   5  24
HETATM   24  N4  UNL     1      18.475  25.148  10.990  1.00  0.00    -0.296 N 
ATOM     25  H4  UNL     1      19.150  24.391  11.091  1.00  0.00     0.183 HD
BRANCH  24  26
HETATM   26  N5  UNL     1      18.937  26.443  10.729  1.00  0.00    -0.275 N 
HETATM   27  C5  UNL     1      19.228  27.278  11.653  1.00  0.00     0.210 C 
HETATM   28  N6  UNL     1      19.078  26.880  13.007  1.00  0.00    -0.062 NA
HETATM   29  N7  UNL     1      19.691  28.578  11.336  1.00  0.00    -0.284 N 
HETATM   30  C6  UNL     1      20.016  29.508  12.357  1.00  0.00     0.335 C 
ATOM     31  H7  UNL     1      19.793  28.849  10.358  1.00  0.00     0.172 HD
HETATM   32  N8  UNL     1      20.479  30.809  12.083  1.00  0.00    -0.040 NA
HETATM   33  O2  UNL     1      19.885  29.164  13.549  1.00  0.00    -0.251 OA
ATOM     34  H5  UNL     1      19.046  26.734   9.758  1.00  0.00     0.189 HD
ENDBRANCH  24  26
ENDBRANCH   5  24
TORSDOF 7
ENDMDL
MODEL 2
REMARK VINA RESULT: -6.678645049      2.506      3.320
REMARK  7 active torsions:
REMARK  status: ('A' for Active; 'I' for Inactive)
REMARK    1  A    between atoms: N1_1  and  C1_5 
REMARK    2  A    between atoms: C1_5  and  O1_6 
REMARK    3  A    between atoms: O1_6  and  C2_7 
REMARK    4  A    between atoms: C2_7  and  C3_9 
REMARK    5  A    between atoms: C3_9  and  N2_10 
REMARK    6  A    between atoms: C4_17  and  N4_18 
REMARK    7  A    between atoms: N4_18  and  N5_20 
REMARK       I    between atoms: C5_22  and  N7_24 
REMARK       I    between atoms: N7_24  and  C6_26 
ROOT
HETATM    1  C3  UNL     1      15.310  24.429  12.662  1.00  0.00     0.424 C 
HETATM    2  N3  UNL     1      16.581  25.100  12.435  1.00  0.00     0.006 N 
ATOM      3  H31 UNL     1      17.280  24.839  13.131  1.00  0.00     0.284 HD
ATOM      4  H32 UNL     1      16.528  26.098  12.642  1.00  0.00     0.284 HD
HETATM    5  C4  UNL     1      17.038  24.853  11.100  1.00  0.00     0.395 C 
HETATM    6  C7  UNL     1      16.854  23.423  10.728  1.00  0.00     0.276 C 
HETATM    7  O3  UNL     1      17.112  23.020   9.566  1.00  0.00    -0.269 OA
HETATM    8  N9  UNL     1      16.383  22.467  11.670  1.00  0.00    -0.290 N 
ATOM      9  H9  UNL     1      16.556  21.469  11.553  1.00  0.00     0.172 HD
HETATM   10  C8  UNL     1      15.657  22.974  12.785  1.00  0.00     0.297 C 
HETATM   11  O4  UNL     1      15.343  22.265  13.770  1.00  0.00    -0.268 OA
ENDROOT
BRANCH   1  12
HETATM   12  C2  UNL     1      14.657  24.882  13.886  1.00  0.00     0.189 C 
HETATM   13  S1  UNL     1      13.026  24.954  13.892  1.00  0.00    -0.052 SA
BRANCH  12  14
HETATM   14  O1  UNL     1      15.316  25.250  15.025  1.00  0.00    -0.313 OA
BRANCH  14  15
HETATM   15  C1  UNL     1      15.537  26.568  15.451  1.00  0.00     0.405 C 
BRANCH  15  16
HETATM   16  N1  UNL     1      15.240  26.628  16.876  1.00  0.00    -0.058 N 
ATOM     17  H13 UNL     1      14.243  26.555  17.076  1.00  0.00     0.276 HD
ATOM     18  H12 UNL     1      15.539  25.792  17.378  1.00  0.00     0.276 HD
ATOM     19  H11 UNL     1      15.657  27.483  17.243  1.00  0.00     0.276 HD
ENDBRANCH  15  16
ENDBRANCH  14  15
ENDBRANCH  12  14
ENDBRANCH   1  12
BRANCH   1  20
HETATM   20  N2  UNL     1      14.537  24.561  11.474  1.00  0.00    -0.029 N 
ATOM     21  H23 UNL     1      14.794  23.832  10.808  1.00  0.00     0.278 HD
ATOM     22  H22 UNL     1      13.567  24.304  11.658  1.00  0.00     0.278 HD
ATOM     23  H21 UNL     1      14.578  25.475  11.024  1.00  0.00     0.278 HD
ENDBRANCH   1  20
BRANCH   5  24
HETATM   24  N4  UNL     1      18.445  25.160  10.960  1.00  0.00    -0.296 N 
ATOM     25  H4  UNL     1      18.779  26.088  11.221  1.00  0.00     0.183 HD
BRANCH  24  26
HETATM   26  N5  UNL     1      19.360  24.219  10.475  1.00  0.00    -0.275 N 
HETATM   27  C5  UNL     1      20.511  24.538  10.017  1.00  0.00     0.210 C 
HETATM   28  N6  UNL     1      20.883  25.907   9.997  1.00  0.00    -0.062 NA
HETATM   29  N7  UNL     1      21.400  23.547   9.537  1.00  0.00    -0.284 N 
HETATM   30  C6  UNL     1      22.678  23.895   9.028  1.00  0.00     0.335 C 
ATOM     31  H7  UNL     1      21.118  22.567   9.557  1.00  0.00     0.172 HD
HETATM   32  N8  UNL     1      23.591  22.940   8.541  1.00  0.00    -0.040 NA
HETATM   33  O2  UNL     1      23.011  25.098   9.008  1.00  0.00    -0.251 OA
ATOM     34  H5  UNL     1      19.097  23.234  10.487  1.00  0.00     0.189 HD
ENDBRANCH  24  26
ENDBRANCH   5  24
TORSDOF 7
ENDMDL
MODEL 3
REMARK VINA RESULT: -6.596389689      5.316      8.891
REMARK  7 active torsions:
REMARK  status: ('A' for Active; 'I' for Inactive)
REMARK    1  A    between atoms: N1_1  and  C1_5 
REMARK    2  A    between atoms: C1_5  and  O1_6 
REMARK    3  A    between atoms: O1_6  and  C2_7 
REMARK    4  A    between atoms: C2_7  and  C3_9 
REMARK    5  A    between atoms: C3_9  and  N2_10 
REMARK    6  A    between atoms: C4_17  and  N4_18 
REMARK    7  A    between atoms: N4_18  and  N5_20 
REMARK       I    between atoms: C5_22  and  N7_24 
REMARK       I    between atoms: N7_24  and  C6_26 
ROOT
HETATM    1  C3  UNL     1      13.750  23.696  13.924  1.00  0.00     0.424 C 
HETATM    2  N3  UNL     1      13.486  23.043  15.197  1.00  0.00     0.006 N 
ATOM      3  H31 UNL     1      13.259  23.715  15.931  1.00  0.00     0.284 HD
ATOM      4  H32 UNL     1      14.333  22.652  15.608  1.00  0.00     0.284 HD
HETATM    5  C4  UNL     1      12.460  22.055  15.040  1.00  0.00     0.395 C 
HETATM    6  C7  UNL     1      11.343  22.571  14.203  1.00  0.00     0.276 C 
HETATM    7  O3  UNL     1      10.385  21.829  13.874  1.00  0.00    -0.269 OA
HETATM    8  N9  UNL     1      11.321  23.919  13.748  1.00  0.00    -0.290 N 
ATOM      9  H9  UNL     1      10.452  24.376  13.470  1.00  0.00     0.172 HD
HETATM   10  C8  UNL     1      12.571  24.598  13.700  1.00  0.00     0.297 C 
HETATM   11  O4  UNL     1      12.668  25.830  13.489  1.00  0.00    -0.268 OA
ENDROOT
BRANCH   1  12
HETATM   12  C2  UNL     1      14.974  24.490  13.954  1.00  0.00     0.189 C 
HETATM   13  S1  UNL     1      15.780  24.693  12.549  1.00  0.00    -0.052 SA
BRANCH  12  14
HETATM   14  O1  UNL     1      15.492  25.074  15.076  1.00  0.00    -0.313 OA
BRANCH  14  15
HETATM   15  C1  UNL     1      15.393  26.432  15.411  1.00  0.00     0.405 C 
BRANCH  15  16
HETATM   16  N1  UNL     1      15.352  26.528  16.864  1.00  0.00    -0.058 N 
ATOM     17  H13 UNL     1      15.186  27.478  17.194  1.00  0.00     0.276 HD
ATOM     18  H12 UNL     1      14.519  26.099  17.266  1.00  0.00     0.276 HD
ATOM     19  H11 UNL     1      16.219  26.128  17.224  1.00  0.00     0.276 HD
ENDBRANCH  15  16
ENDBRANCH  14  15
ENDBRANCH  12  14
ENDBRANCH   1  12
BRANCH   1  20
HETATM   20  N2  UNL     1      13.695  22.699  12.910  1.00  0.00    -0.029 N 
ATOM     21  H23 UNL     1      14.407  22.880  12.203  1.00  0.00     0.278 HD
ATOM     22  H22 UNL     1      14.027  21.808  13.278  1.00  0.00     0.278 HD
ATOM     23  H21 UNL     1      12.784  22.577  12.466  1.00  0.00     0.278 HD
ENDBRANCH   1  20
BRANCH   5  24
HETATM   24  N4  UNL     1      11.902  21.670  16.319  1.00  0.00    -0.296 N 
ATOM     25  H4  UNL     1      12.218  20.805  16.758  1.00  0.00     0.183 HD
BRANCH  24  26
HETATM   26  N5  UNL     1      10.940  22.451  16.969  1.00  0.00    -0.275 N 
HETATM   27  C5  UNL     1       9.809  21.990  17.349  1.00  0.00     0.210 C 
HETATM   28  N6  UNL     1       9.511  20.624  17.105  1.00  0.00    -0.062 NA
HETATM   29  N7  UNL     1       8.869  22.823  18.002  1.00  0.00    -0.284 N 
HETATM   30  C6  UNL     1       7.614  22.317  18.427  1.00  0.00     0.335 C 
ATOM     31  H7  UNL     1       9.099  23.802  18.170  1.00  0.00     0.172 HD
HETATM   32  N8  UNL     1       6.652  23.112  19.079  1.00  0.00    -0.040 NA
HETATM   33  O2  UNL     1       7.345  21.116  18.214  1.00  0.00    -0.251 OA
ATOM     34  H5  UNL     1      11.150  23.433  17.146  1.00  0.00     0.189 HD
ENDBRANCH  24  26
ENDBRANCH   5  24
TORSDOF 7
ENDMDL
MODEL 4
REMARK VINA RESULT: -6.581270297      3.456      5.405
REMARK  7 active torsions:
REMARK  status: ('A' for Active; 'I' for Inactive)
REMARK    1  A    between atoms: N1_1  and  C1_5 
REMARK    2  A    between atoms: C1_5  and  O1_6 
REMARK    3  A    between atoms: O1_6  and  C2_7 
REMARK    4  A    between atoms: C2_7  and  C3_9 
REMARK    5  A    between atoms: C3_9  and  N2_10 
REMARK    6  A    between atoms: C4_17  and  N4_18 
REMARK    7  A    between atoms: N4_18  and  N5_20 
REMARK       I    between atoms: C5_22  and  N7_24 
REMARK       I    between atoms: N7_24  and  C6_26 
ROOT
HETATM    1  C3  UNL     1      18.924  25.102  10.056  1.00  0.00     0.424 C 
HETATM    2  N3  UNL     1      19.508  26.385   9.694  1.00  0.00     0.006 N 
ATOM      3  H31 UNL     1      18.825  27.007   9.260  1.00  0.00     0.284 HD
ATOM      4  H32 UNL     1      20.155  26.302   8.909  1.00  0.00     0.284 HD
HETATM    5  C4  UNL     1      20.127  26.984  10.838  1.00  0.00     0.395 C 
HETATM    6  C7  UNL     1      19.264  26.854  12.044  1.00  0.00     0.276 C 
HETATM    7  O3  UNL     1      19.665  27.238  13.171  1.00  0.00    -0.269 OA
HETATM    8  N9  UNL     1      17.959  26.291  11.963  1.00  0.00    -0.290 N 
ATOM      9  H9  UNL     1      17.248  26.484  12.669  1.00  0.00     0.172 HD
HETATM   10  C8  UNL     1      17.697  25.445  10.849  1.00  0.00     0.297 C 
HETATM   11  O4  UNL     1      16.548  25.032  10.565  1.00  0.00    -0.268 OA
ENDROOT
BRANCH   1  12
HETATM   12  C2  UNL     1      18.546  24.317   8.885  1.00  0.00     0.189 C 
HETATM   13  S1  UNL     1      18.612  22.691   9.009  1.00  0.00    -0.052 SA
BRANCH  12  14
HETATM   14  O1  UNL     1      18.144  24.850   7.692  1.00  0.00    -0.313 OA
BRANCH  14  15
HETATM   15  C1  UNL     1      16.897  24.640   7.083  1.00  0.00     0.405 C 
BRANCH  15  16
HETATM   16  N1  UNL     1      16.029  25.747   7.462  1.00  0.00    -0.058 N 
ATOM     17  H13 UNL     1      16.436  26.340   8.186  1.00  0.00     0.276 HD
ATOM     18  H12 UNL     1      15.951  26.457   6.735  1.00  0.00     0.276 HD
ATOM     19  H11 UNL     1      15.127  25.353   7.732  1.00  0.00     0.276 HD
ENDBRANCH  15  16
ENDBRANCH  14  15
ENDBRANCH  12  14
ENDBRANCH   1  12
BRANCH   1  20
HETATM   20  N2  UNL     1      19.820  24.461  10.956  1.00  0.00    -0.029 N 
ATOM     21  H23 UNL     1      20.748  24.391  10.536  1.00  0.00     0.278 HD
ATOM     22  H22 UNL     1      20.025  25.077  11.743  1.00  0.00     0.278 HD
ATOM     23  H21 UNL     1      19.520  23.546  11.295  1.00  0.00     0.278 HD
ENDBRANCH   1  20
BRANCH   5  24
HETATM   24  N4  UNL     1      20.366  28.396  10.627  1.00  0.00    -0.296 N 
ATOM     25  H4  UNL     1      21.043  28.685   9.921  1.00  0.00     0.183 HD
BRANCH  24  26
HETATM   26  N5  UNL     1      19.694  29.376  11.367  1.00  0.00    -0.275 N 
HETATM   27  C5  UNL     1      19.777  30.625  11.105  1.00  0.00     0.210 C 
HETATM   28  N6  UNL     1      20.586  31.044  10.017  1.00  0.00    -0.062 NA
HETATM   29  N7  UNL     1      19.077  31.577  11.885  1.00  0.00    -0.284 N 
HETATM   30  C6  UNL     1      19.165  32.964  11.600  1.00  0.00     0.335 C 
ATOM     31  H7  UNL     1      18.499  31.261  12.664  1.00  0.00     0.172 HD
HETATM   32  N8  UNL     1      18.485  33.942  12.350  1.00  0.00    -0.040 NA
HETATM   33  O2  UNL     1      19.876  33.338  10.644  1.00  0.00    -0.251 OA
ATOM     34  H5  UNL     1      19.111  29.080  12.149  1.00  0.00     0.189 HD
ENDBRANCH  24  26
ENDBRANCH   5  24
TORSDOF 7
ENDMDL
MODEL 5
REMARK VINA RESULT: -6.550247723      1.308      1.369
REMARK  7 active torsions:
REMARK  status: ('A' for Active; 'I' for Inactive)
REMARK    1  A    between atoms: N1_1  and  C1_5 
REMARK    2  A    between atoms: C1_5  and  O1_6 
REMARK    3  A    between atoms: O1_6  and  C2_7 
REMARK    4  A    between atoms: C2_7  and  C3_9 
REMARK    5  A    between atoms: C3_9  and  N2_10 
REMARK    6  A    between atoms: C4_17  and  N4_18 
REMARK    7  A    between atoms: N4_18  and  N5_20 
REMARK       I    between atoms: C5_22  and  N7_24 
REMARK       I    between atoms: N7_24  and  C6_26 
ROOT
HETATM    1  C3  UNL     1      15.033  24.547  13.017  1.00  0.00     0.424 C 
HETATM    2  N3  UNL     1      16.318  25.156  12.708  1.00  0.00     0.006 N 
ATOM      3  H31 UNL     1      17.014  24.966  13.429  1.00  0.00     0.284 HD
ATOM      4  H32 UNL     1      16.288  26.172  12.792  1.00  0.00     0.284 HD
HETATM    5  C4  UNL     1      16.761  24.738  11.412  1.00  0.00     0.395 C 
HETATM    6  C7  UNL     1      16.544  23.278  11.216  1.00  0.00     0.276 C 
HETATM    7  O3  UNL     1      16.786  22.731  10.112  1.00  0.00    -0.269 OA
HETATM    8  N9  UNL     1      16.056  22.455  12.269  1.00  0.00    -0.290 N 
ATOM      9  H9  UNL     1      16.207  21.446  12.274  1.00  0.00     0.172 HD
HETATM   10  C8  UNL     1      15.348  23.110  13.316  1.00  0.00     0.297 C 
HETATM   11  O4  UNL     1      15.023  22.534  14.381  1.00  0.00    -0.268 OA
ENDROOT
BRANCH   1  12
HETATM   12  C2  UNL     1      14.397  25.160  14.179  1.00  0.00     0.189 C 
HETATM   13  S1  UNL     1      15.284  26.206  15.065  1.00  0.00    -0.052 SA
BRANCH  12  14
HETATM   14  O1  UNL     1      13.112  24.918  14.577  1.00  0.00    -0.313 OA
BRANCH  14  15
HETATM   15  C1  UNL     1      12.674  24.814  15.905  1.00  0.00     0.405 C 
BRANCH  15  16
HETATM   16  N1  UNL     1      13.354  23.675  16.507  1.00  0.00    -0.058 N 
ATOM     17  H13 UNL     1      13.684  23.865  17.453  1.00  0.00     0.276 HD
ATOM     18  H12 UNL     1      12.719  22.911  16.738  1.00  0.00     0.276 HD
ATOM     19  H11 UNL     1      14.102  23.393  15.874  1.00  0.00     0.276 HD
ENDBRANCH  15  16
ENDBRANCH  14  15
ENDBRANCH  12  14
ENDBRANCH   1  12
BRANCH   1  20
HETATM   20  N2  UNL     1      14.257  24.551  11.825  1.00  0.00    -0.029 N 
ATOM     21  H23 UNL     1      14.422  23.693  11.298  1.00  0.00     0.278 HD
ATOM     22  H22 UNL     1      13.269  24.437  12.050  1.00  0.00     0.278 HD
ATOM     23  H21 UNL     1      14.388  25.362  11.220  1.00  0.00     0.278 HD
ENDBRANCH   1  20
BRANCH   5  24
HETATM   24  N4  UNL     1      18.175  24.994  11.231  1.00  0.00    -0.296 N 
ATOM     25  H4  UNL     1      18.838  24.232  11.370  1.00  0.00     0.183 HD
BRANCH  24  26
HETATM   26  N5  UNL     1      18.654  26.259  10.872  1.00  0.00    -0.275 N 
HETATM   27  C5  UNL     1      19.038  27.127  11.730  1.00  0.00     0.210 C 
HETATM   28  N6  UNL     1      18.978  26.799  13.109  1.00  0.00    -0.062 NA
HETATM   29  N7  UNL     1      19.515  28.393  11.314  1.00  0.00    -0.284 N 
HETATM   30  C6  UNL     1      19.943  29.360  12.260  1.00  0.00     0.335 C 
ATOM     31  H7  UNL     1      19.552  28.614  10.319  1.00  0.00     0.172 HD
HETATM   32  N8  UNL     1      20.423  30.630  11.889  1.00  0.00    -0.040 NA
HETATM   33  O2  UNL     1      19.892  29.078  13.475  1.00  0.00    -0.251 OA
ATOM     34  H5  UNL     1      18.699  26.499   9.883  1.00  0.00     0.189 HD
ENDBRANCH  24  26
ENDBRANCH   5  24
TORSDOF 7
ENDMDL
