MODEL 1
REMARK VINA RESULT: -6.761612376      0.000      0.000
REMARK  6 active torsions:
REMARK  status: ('A' for Active; 'I' for Inactive)
REMARK    1  A    between atoms: N1_1  and  O1_4 
REMARK    2  A    between atoms: O1_4  and  C1_5 
REMARK    3  A    between atoms: C8_22  and  N5_23 
REMARK       I    between atoms: N5_23  and  C9_25 
REMARK    4  A    between atoms: C9_25  and  C10_27 
REMARK    5  A    between atoms: C10_27  and  N6_28 
REMARK    6  A    between atoms: C10_27  and  C11_32 
ROOT
HETATM    1  C1  UNL     1      18.459  25.709  10.424  1.00  0.00     0.379 C 
HETATM    2  N2  UNL     1      18.634  24.287  10.476  1.00  0.00    -0.042 N 
ATOM      3  H21 UNL     1      18.863  23.987  11.423  1.00  0.00     0.280 HD
ATOM      4  H22 UNL     1      19.492  24.013   9.998  1.00  0.00     0.280 HD
HETATM    5  C2  UNL     1      17.508  23.546   9.965  1.00  0.00     0.263 C 
HETATM    6  C3  UNL     1      17.559  23.348   8.474  1.00  0.00     0.260 C 
HETATM    7  N3  UNL     1      18.193  24.421   7.773  1.00  0.00    -0.072 N 
ATOM      8  H31 UNL     1      18.692  25.026   8.425  1.00  0.00     0.277 HD
ATOM      9  H32 UNL     1      17.496  25.079   7.423  1.00  0.00     0.277 HD
HETATM   10  C4  UNL     1      19.061  24.002   6.714  1.00  0.00     0.252 C 
HETATM   11  C5  UNL     1      20.362  23.544   7.332  1.00  0.00     0.150 C 
HETATM   12  N4  UNL     1      21.292  24.588   7.607  1.00  0.00    -0.353 N 
ATOM     13  H4  UNL     1      21.664  25.084   6.797  1.00  0.00     0.162 HD
HETATM   14  C6  UNL     1      21.763  25.019   8.879  1.00  0.00     0.289 C 
HETATM   15  O2  UNL     1      23.037  25.110   9.089  1.00  0.00    -0.264 OA
HETATM   16  C7  UNL     1      20.905  25.379  10.001  1.00  0.00     0.243 C 
HETATM   17  O3  UNL     1      21.147  24.831  11.134  1.00  0.00    -0.285 OA
HETATM   18  C8  UNL     1      19.770  26.319   9.978  1.00  0.00     0.223 C 
ENDROOT
BRANCH  18  19
HETATM   19  N5  UNL     1      20.124  27.382  10.930  1.00  0.00    -0.343 N 
HETATM   20  C9  UNL     1      19.943  28.740  10.643  1.00  0.00     0.260 C 
HETATM   21  O4  UNL     1      19.460  29.073   9.532  1.00  0.00    -0.271 OA
ATOM     22  H5  UNL     1      20.516  27.120  11.834  1.00  0.00     0.163 HD
BRANCH  20  23
HETATM   23  C10 UNL     1      20.310  29.806  11.625  1.00  0.00     0.374 C 
BRANCH  23  24
HETATM   24  N6  UNL     1      19.728  29.567  12.913  1.00  0.00    -0.056 N 
ATOM     25  H63 UNL     1      20.055  30.248  13.600  1.00  0.00     0.275 HD
ATOM     26  H62 UNL     1      18.734  29.798  12.920  1.00  0.00     0.275 HD
ATOM     27  H61 UNL     1      19.889  28.612  13.232  1.00  0.00     0.275 HD
ENDBRANCH  23  24
BRANCH  23  28
HETATM   28  C11 UNL     1      19.883  31.127  11.143  1.00  0.00     0.214 C 
HETATM   29  O5  UNL     1      20.665  31.839  10.490  1.00  0.00    -0.646 OA
HETATM   30  O6  UNL     1      18.612  31.574  11.418  1.00  0.00    -0.646 OA
ENDBRANCH  23  28
ENDBRANCH  20  23
ENDBRANCH  18  19
BRANCH   1  31
HETATM   31  O1  UNL     1      18.087  26.228  11.680  1.00  0.00    -0.251 OA
BRANCH  31  32
HETATM   32  N1  UNL     1      18.334  25.390  12.690  1.00  0.00    -0.309 N 
ATOM     33  H12 UNL     1      17.705  24.627  12.937  1.00  0.00     0.184 HD
ATOM     34  H11 UNL     1      19.207  25.595  13.177  1.00  0.00     0.184 HD
ENDBRANCH  31  32
ENDBRANCH   1  31
TORSDOF 6
ENDMDL
MODEL 2
REMARK VINA RESULT: -6.551057855      1.270      1.417
REMARK  6 active torsions:
REMARK  status: ('A' for Active; 'I' for Inactive)
REMARK    1  A    between atoms: N1_1  and  O1_4 
REMARK    2  A    between atoms: O1_4  and  C1_5 
REMARK    3  A    between atoms: C8_22  and  N5_23 
REMARK       I    between atoms: N5_23  and  C9_25 
REMARK    4  A    between atoms: C9_25  and  C10_27 
REMARK    5  A    between atoms: C10_27  and  N6_28 
REMARK    6  A    between atoms: C10_27  and  C11_32 
ROOT
HETATM    1  C1  UNL     1      18.450  25.366  10.133  1.00  0.00     0.379 C 
HETATM    2  N2  UNL     1      18.748  23.971  10.269  1.00  0.00    -0.042 N 
ATOM      3  H21 UNL     1      18.928  23.735  11.244  1.00  0.00     0.280 HD
ATOM      4  H22 UNL     1      19.661  23.757   9.869  1.00  0.00     0.280 HD
HETATM    5  C2  UNL     1      17.736  23.106   9.715  1.00  0.00     0.263 C 
HETATM    6  C3  UNL     1      17.920  22.849   8.243  1.00  0.00     0.260 C 
HETATM    7  N3  UNL     1      18.506  23.945   7.538  1.00  0.00    -0.072 N 
ATOM      8  H31 UNL     1      18.897  24.622   8.192  1.00  0.00     0.277 HD
ATOM      9  H32 UNL     1      17.783  24.519   7.105  1.00  0.00     0.277 HD
HETATM   10  C4  UNL     1      19.488  23.563   6.568  1.00  0.00     0.252 C 
HETATM   11  C5  UNL     1      20.773  23.256   7.301  1.00  0.00     0.150 C 
HETATM   12  N4  UNL     1      21.582  24.393   7.590  1.00  0.00    -0.353 N 
ATOM     13  H4  UNL     1      21.970  24.886   6.786  1.00  0.00     0.162 HD
HETATM   14  C6  UNL     1      21.912  24.921   8.870  1.00  0.00     0.289 C 
HETATM   15  O2  UNL     1      23.152  25.140   9.168  1.00  0.00    -0.264 OA
HETATM   16  C7  UNL     1      20.941  25.248   9.907  1.00  0.00     0.243 C 
HETATM   17  O3  UNL     1      21.142  24.775  11.081  1.00  0.00    -0.285 OA
HETATM   18  C8  UNL     1      19.732  26.077   9.753  1.00  0.00     0.223 C 
ENDROOT
BRANCH  18  19
HETATM   19  N5  UNL     1      19.914  27.208  10.674  1.00  0.00    -0.343 N 
HETATM   20  C9  UNL     1      19.451  28.497  10.383  1.00  0.00     0.260 C 
HETATM   21  O4  UNL     1      18.856  28.703   9.296  1.00  0.00    -0.271 OA
ATOM     22  H5  UNL     1      20.395  27.049  11.559  1.00  0.00     0.163 HD
BRANCH  20  23
HETATM   23  C10 UNL     1      19.647  29.634  11.333  1.00  0.00     0.374 C 
BRANCH  23  24
HETATM   24  N6  UNL     1      20.758  30.458  10.959  1.00  0.00    -0.056 N 
ATOM     25  H63 UNL     1      21.176  30.142  10.083  1.00  0.00     0.275 HD
ATOM     26  H62 UNL     1      20.451  31.385  10.664  1.00  0.00     0.275 HD
ATOM     27  H61 UNL     1      21.454  30.517  11.701  1.00  0.00     0.275 HD
ENDBRANCH  23  24
BRANCH  23  28
HETATM   28  C11 UNL     1      19.855  29.139  12.701  1.00  0.00     0.214 C 
HETATM   29  O5  UNL     1      20.555  29.782  13.502  1.00  0.00    -0.646 OA
HETATM   30  O6  UNL     1      19.272  27.957  13.093  1.00  0.00    -0.646 OA
ENDBRANCH  23  28
ENDBRANCH  20  23
ENDBRANCH  18  19
BRANCH   1  31
HETATM   31  O1  UNL     1      17.936  25.902  11.331  1.00  0.00    -0.251 OA
BRANCH  31  32
HETATM   32  N1  UNL     1      18.249  25.178  12.408  1.00  0.00    -0.309 N 
ATOM     33  H12 UNL     1      18.764  25.566  13.198  1.00  0.00     0.184 HD
ATOM     34  H11 UNL     1      17.923  24.213  12.352  1.00  0.00     0.184 HD
ENDBRANCH  31  32
ENDBRANCH   1  31
TORSDOF 6
ENDMDL
MODEL 3
REMARK VINA RESULT: -6.512533302      7.869      9.961
REMARK  6 active torsions:
REMARK  status: ('A' for Active; 'I' for Inactive)
REMARK    1  A    between atoms: N1_1  and  O1_4 
REMARK    2  A    between atoms: O1_4  and  C1_5 
REMARK    3  A    between atoms: C8_22  and  N5_23 
REMARK       I    between atoms: N5_23  and  C9_25 
REMARK    4  A    between atoms: C9_25  and  C10_27 
REMARK    5  A    between atoms: C10_27  and  N6_28 
REMARK    6  A    between atoms: C10_27  and  C11_32 
ROOT
HETATM    1  C1  UNL     1      10.895  22.808  16.105  1.00  0.00     0.379 C 
HETATM    2  N2  UNL     1      10.402  21.463  16.053  1.00  0.00    -0.042 N 
ATOM      3  H21 UNL     1      10.931  20.862  16.684  1.00  0.00     0.280 HD
ATOM      4  H22 UNL     1      10.639  21.026  15.163  1.00  0.00     0.280 HD
HETATM    5  C2  UNL     1       8.988  21.354  16.313  1.00  0.00     0.263 C 
HETATM    6  C3  UNL     1       8.145  21.550  15.082  1.00  0.00     0.260 C 
HETATM    7  N3  UNL     1       8.715  22.456  14.135  1.00  0.00    -0.072 N 
ATOM      8  H31 UNL     1       9.692  22.640  14.360  1.00  0.00     0.277 HD
ATOM      9  H32 UNL     1       8.329  23.392  14.259  1.00  0.00     0.277 HD
HETATM   10  C4  UNL     1       8.585  22.040  12.770  1.00  0.00     0.252 C 
HETATM   11  C5  UNL     1       9.637  20.988  12.502  1.00  0.00     0.150 C 
HETATM   12  N4  UNL     1      10.923  21.502  12.166  1.00  0.00    -0.353 N 
ATOM     13  H4  UNL     1      10.986  22.019  11.290  1.00  0.00     0.162 HD
HETATM   14  C6  UNL     1      12.130  21.377  12.911  1.00  0.00     0.289 C 
HETATM   15  O2  UNL     1      13.195  20.932  12.326  1.00  0.00    -0.264 OA
HETATM   16  C7  UNL     1      12.273  21.720  14.320  1.00  0.00     0.243 C 
HETATM   17  O3  UNL     1      12.798  20.845  15.095  1.00  0.00    -0.285 OA
HETATM   18  C8  UNL     1      11.875  22.984  14.965  1.00  0.00     0.223 C 
ENDROOT
BRANCH  18  19
HETATM   19  N5  UNL     1      13.115  23.550  15.515  1.00  0.00    -0.343 N 
HETATM   20  C9  UNL     1      13.592  24.814  15.150  1.00  0.00     0.260 C 
HETATM   21  O4  UNL     1      12.941  25.499  14.322  1.00  0.00    -0.271 OA
ATOM     22  H5  UNL     1      13.648  23.001  16.189  1.00  0.00     0.163 HD
BRANCH  20  23
HETATM   23  C10 UNL     1      14.856  25.371  15.722  1.00  0.00     0.374 C 
BRANCH  23  24
HETATM   24  N6  UNL     1      14.600  26.442  16.640  1.00  0.00    -0.056 N 
ATOM     25  H63 UNL     1      15.386  27.092  16.679  1.00  0.00     0.275 HD
ATOM     26  H62 UNL     1      13.885  27.075  16.282  1.00  0.00     0.275 HD
ATOM     27  H61 UNL     1      14.358  26.097  17.568  1.00  0.00     0.275 HD
ENDBRANCH  23  24
BRANCH  23  28
HETATM   28  C11 UNL     1      15.741  25.856  14.653  1.00  0.00     0.214 C 
HETATM   29  O5  UNL     1      16.207  27.007  14.698  1.00  0.00    -0.646 OA
HETATM   30  O6  UNL     1      16.050  25.029  13.599  1.00  0.00    -0.646 OA
ENDBRANCH  23  28
ENDBRANCH  20  23
ENDBRANCH  18  19
BRANCH   1  31
HETATM   31  O1  UNL     1      11.529  23.078  17.334  1.00  0.00    -0.251 OA
BRANCH  31  32
HETATM   32  N1  UNL     1      10.831  23.906  18.115  1.00  0.00    -0.309 N 
ATOM     33  H12 UNL     1       9.977  23.619  18.594  1.00  0.00     0.184 HD
ATOM     34  H11 UNL     1      11.239  24.839  18.178  1.00  0.00     0.184 HD
ENDBRANCH  31  32
ENDBRANCH   1  31
TORSDOF 6
ENDMDL
MODEL 4
REMARK VINA RESULT: -6.453087027      5.158      7.449
REMARK  6 active torsions:
REMARK  status: ('A' for Active; 'I' for Inactive)
REMARK    1  A    between atoms: N1_1  and  O1_4 
REMARK    2  A    between atoms: O1_4  and  C1_5 
REMARK    3  A    between atoms: C8_22  and  N5_23 
REMARK       I    between atoms: N5_23  and  C9_25 
REMARK    4  A    between atoms: C9_25  and  C10_27 
REMARK    5  A    between atoms: C10_27  and  N6_28 
REMARK    6  A    between atoms: C10_27  and  C11_32 
ROOT
HETATM    1  C1  UNL     1      14.317  24.417  14.643  1.00  0.00     0.379 C 
HETATM    2  N2  UNL     1      13.905  23.370  15.531  1.00  0.00    -0.042 N 
ATOM      3  H21 UNL     1      14.665  23.113  16.161  1.00  0.00     0.280 HD
ATOM      4  H22 UNL     1      13.797  22.491  15.026  1.00  0.00     0.280 HD
HETATM    5  C2  UNL     1      12.710  23.679  16.275  1.00  0.00     0.263 C 
HETATM    6  C3  UNL     1      11.446  23.339  15.531  1.00  0.00     0.260 C 
HETATM    7  N3  UNL     1      11.561  23.477  14.113  1.00  0.00    -0.072 N 
ATOM      8  H31 UNL     1      12.540  23.569  13.842  1.00  0.00     0.277 HD
ATOM      9  H32 UNL     1      11.212  24.387  13.813  1.00  0.00     0.277 HD
HETATM   10  C4  UNL     1      10.932  22.429  13.366  1.00  0.00     0.252 C 
HETATM   11  C5  UNL     1      11.844  21.225  13.394  1.00  0.00     0.150 C 
HETATM   12  N4  UNL     1      12.874  21.233  12.408  1.00  0.00    -0.353 N 
ATOM     13  H4  UNL     1      12.568  21.180  11.437  1.00  0.00     0.162 HD
HETATM   14  C6  UNL     1      14.279  21.305  12.622  1.00  0.00     0.289 C 
HETATM   15  O2  UNL     1      15.053  20.429  12.065  1.00  0.00    -0.264 OA
HETATM   16  C7  UNL     1      14.942  22.313  13.438  1.00  0.00     0.243 C 
HETATM   17  O3  UNL     1      15.766  21.908  14.332  1.00  0.00    -0.285 OA
HETATM   18  C8  UNL     1      14.768  23.774  13.349  1.00  0.00     0.223 C 
ENDROOT
BRANCH  18  19
HETATM   19  N5  UNL     1      16.097  24.307  13.017  1.00  0.00    -0.343 N 
HETATM   20  C9  UNL     1      16.354  25.001  11.829  1.00  0.00     0.260 C 
HETATM   21  O4  UNL     1      15.419  25.182  11.011  1.00  0.00    -0.271 OA
ATOM     22  H5  UNL     1      16.862  24.166  13.677  1.00  0.00     0.163 HD
BRANCH  20  23
HETATM   23  C10 UNL     1      17.714  25.535  11.510  1.00  0.00     0.374 C 
BRANCH  23  24
HETATM   24  N6  UNL     1      18.574  24.521  10.976  1.00  0.00    -0.056 N 
ATOM     25  H63 UNL     1      19.373  24.930  10.491  1.00  0.00     0.275 HD
ATOM     26  H62 UNL     1      19.072  24.028  11.718  1.00  0.00     0.275 HD
ATOM     27  H61 UNL     1      18.068  23.871  10.375  1.00  0.00     0.275 HD
ENDBRANCH  23  24
BRANCH  23  28
HETATM   28  C11 UNL     1      18.339  26.114  12.708  1.00  0.00     0.214 C 
HETATM   29  O5  UNL     1      17.636  26.581  13.620  1.00  0.00    -0.646 OA
HETATM   30  O6  UNL     1      19.711  26.138  12.815  1.00  0.00    -0.646 OA
ENDBRANCH  23  28
ENDBRANCH  20  23
ENDBRANCH  18  19
BRANCH   1  31
HETATM   31  O1  UNL     1      15.365  25.180  15.196  1.00  0.00    -0.251 OA
BRANCH  31  32
HETATM   32  N1  UNL     1      15.020  26.445  15.446  1.00  0.00    -0.309 N 
ATOM     33  H12 UNL     1      14.298  26.931  14.916  1.00  0.00     0.184 HD
ATOM     34  H11 UNL     1      15.550  26.862  16.212  1.00  0.00     0.184 HD
ENDBRANCH  31  32
ENDBRANCH   1  31
TORSDOF 6
ENDMDL
MODEL 5
REMARK VINA RESULT: -6.406294841      3.823      5.873
REMARK  6 active torsions:
REMARK  status: ('A' for Active; 'I' for Inactive)
REMARK    1  A    between atoms: N1_1  and  O1_4 
REMARK    2  A    between atoms: O1_4  and  C1_5 
REMARK    3  A    between atoms: C8_22  and  N5_23 
REMARK       I    between atoms: N5_23  and  C9_25 
REMARK    4  A    between atoms: C9_25  and  C10_27 
REMARK    5  A    between atoms: C10_27  and  N6_28 
REMARK    6  A    between atoms: C10_27  and  C11_32 
ROOT
HETATM    1  C1  UNL     1      17.448  24.689  11.069  1.00  0.00     0.379 C 
HETATM    2  N2  UNL     1      17.679  24.966   9.682  1.00  0.00    -0.042 N 
ATOM      3  H21 UNL     1      17.553  25.959   9.488  1.00  0.00     0.280 HD
ATOM      4  H22 UNL     1      16.929  24.583   9.108  1.00  0.00     0.280 HD
HETATM    5  C2  UNL     1      18.963  24.514   9.208  1.00  0.00     0.263 C 
HETATM    6  C3  UNL     1      18.957  23.075   8.765  1.00  0.00     0.260 C 
HETATM    7  N3  UNL     1      18.041  22.255   9.494  1.00  0.00    -0.072 N 
ATOM      8  H31 UNL     1      17.398  22.832  10.036  1.00  0.00     0.277 HD
ATOM      9  H32 UNL     1      18.522  21.772  10.253  1.00  0.00     0.277 HD
HETATM   10  C4  UNL     1      17.316  21.321   8.687  1.00  0.00     0.252 C 
HETATM   11  C5  UNL     1      16.202  22.070   7.994  1.00  0.00     0.150 C 
HETATM   12  N4  UNL     1      15.018  22.232   8.771  1.00  0.00    -0.353 N 
ATOM     13  H4  UNL     1      14.514  21.378   9.008  1.00  0.00     0.162 HD
HETATM   14  C6  UNL     1      14.457  23.448   9.256  1.00  0.00     0.289 C 
HETATM   15  O2  UNL     1      13.211  23.709   9.024  1.00  0.00    -0.264 OA
HETATM   16  C7  UNL     1      15.189  24.453  10.014  1.00  0.00     0.243 C 
HETATM   17  O3  UNL     1      15.122  25.669   9.612  1.00  0.00    -0.285 OA
HETATM   18  C8  UNL     1      16.014  24.226  11.214  1.00  0.00     0.223 C 
ENDROOT
BRANCH  18  19
HETATM   19  N5  UNL     1      15.385  25.022  12.278  1.00  0.00    -0.343 N 
HETATM   20  C9  UNL     1      15.126  24.505  13.552  1.00  0.00     0.260 C 
HETATM   21  O4  UNL     1      15.441  23.315  13.806  1.00  0.00    -0.271 OA
ATOM     22  H5  UNL     1      15.128  25.989  12.080  1.00  0.00     0.163 HD
BRANCH  20  23
HETATM   23  C10 UNL     1      14.485  25.332  14.620  1.00  0.00     0.374 C 
BRANCH  23  24
HETATM   24  N6  UNL     1      13.392  26.107  14.111  1.00  0.00    -0.056 N 
ATOM     25  H63 UNL     1      12.645  26.194  14.801  1.00  0.00     0.275 HD
ATOM     26  H62 UNL     1      13.645  27.092  14.024  1.00  0.00     0.275 HD
ATOM     27  H61 UNL     1      13.041  25.736  13.229  1.00  0.00     0.275 HD
ENDBRANCH  23  24
BRANCH  23  28
HETATM   28  C11 UNL     1      15.467  26.234  15.239  1.00  0.00     0.214 C 
HETATM   29  O5  UNL     1      16.424  26.669  14.576  1.00  0.00    -0.646 OA
HETATM   30  O6  UNL     1      15.323  26.595  16.558  1.00  0.00    -0.646 OA
ENDBRANCH  23  28
ENDBRANCH  20  23
ENDBRANCH  18  19
BRANCH   1  31
HETATM   31  O1  UNL     1      17.671  25.829  11.867  1.00  0.00    -0.251 OA
BRANCH  31  32
HETATM   32  N1  UNL     1      18.726  25.707  12.676  1.00  0.00    -0.309 N 
ATOM     33  H12 UNL     1      18.990  26.428  13.346  1.00  0.00     0.184 HD
ATOM     34  H11 UNL     1      19.228  24.827  12.551  1.00  0.00     0.184 HD
ENDBRANCH  31  32
ENDBRANCH   1  31
TORSDOF 6
ENDMDL
