MODEL 1
REMARK VINA RESULT: -6.725808132      0.000      0.000
REMARK  8 active torsions:
REMARK  status: ('A' for Active; 'I' for Inactive)
REMARK    1  A    between atoms: N1_1  and  N2_4 
REMARK    2  A    between atoms: N2_4  and  C1_5 
REMARK    3  A    between atoms: C1_5  and  O1_6 
REMARK    4  A    between atoms: C1_5  and  C2_8 
REMARK    5  A    between atoms: C2_8  and  O2_9 
REMARK    6  A    between atoms: C2_8  and  C3_11 
REMARK    7  A    between atoms: C3_11  and  N3_12 
REMARK    8  A    between atoms: C5_14  and  N4_15 
ROOT
HETATM    1  N3  UNL     1      19.794  28.020  11.130  1.00  0.00    -0.305 N 
HETATM    2  C4  UNL     1      19.900  27.501   9.902  1.00  0.00     0.131 A 
HETATM    3  C5  UNL     1      19.577  26.181   9.658  1.00  0.00     0.118 A 
HETATM    4  C10 UNL     1      19.141  25.429  10.750  1.00  0.00     0.277 A 
HETATM    5  O4  UNL     1      18.824  24.213  10.620  1.00  0.00    -0.266 OA
HETATM    6  N7  UNL     1      19.056  26.008  11.961  1.00  0.00    -0.273 N 
ATOM      7  H7  UNL     1      18.736  25.444  12.748  1.00  0.00     0.173 HD
HETATM    8  C11 UNL     1      19.374  27.296  12.184  1.00  0.00     0.329 A 
HETATM    9  O5  UNL     1      19.276  27.795  13.346  1.00  0.00    -0.246 OA
ENDROOT
BRANCH   1  10
HETATM   10  C3  UNL     1      20.135  29.401  11.369  1.00  0.00     0.168 C 
BRANCH  10  11
HETATM   11  C2  UNL     1      19.386  30.349  10.467  1.00  0.00     0.182 C 
BRANCH  11  12
HETATM   12  C1  UNL     1      19.147  31.627  11.252  1.00  0.00     0.261 C 
BRANCH  12  13
HETATM   13  N2  UNL     1      19.394  32.793  10.415  1.00  0.00    -0.114 NA
BRANCH  13  14
HETATM   14  N1  UNL     1      18.243  33.132   9.734  1.00  0.00    -0.346 N 
ATOM     15  H12 UNL     1      17.521  32.466   9.459  1.00  0.00     0.172 HD
ATOM     16  H11 UNL     1      18.231  34.135   9.554  1.00  0.00     0.172 HD
ENDBRANCH  13  14
ENDBRANCH  12  13
BRANCH  12  17
HETATM   17  O1  UNL     1      19.985  31.720  12.352  1.00  0.00    -0.375 OA
ATOM     18  H1  UNL     1      19.700  32.466  12.865  1.00  0.00     0.211 HD
ENDBRANCH  12  17
ENDBRANCH  11  12
BRANCH  11  19
HETATM   19  O2  UNL     1      20.074  30.626   9.300  1.00  0.00    -0.390 OA
ATOM     20  H2  UNL     1      20.495  29.840   8.972  1.00  0.00     0.210 HD
ENDBRANCH  11  19
ENDBRANCH  10  11
ENDBRANCH   1  10
BRANCH   3  21
HETATM   21  N4  UNL     1      19.671  25.578   8.384  1.00  0.00    -0.333 N 
HETATM   22  C6  UNL     1      20.732  25.033   7.891  1.00  0.00     0.171 C 
HETATM   23  N5  UNL     1      20.709  24.447   6.578  1.00  0.00    -0.370 N 
HETATM   24  C9  UNL     1      22.011  24.965   8.605  1.00  0.00     0.285 C 
HETATM   25  C7  UNL     1      21.925  24.514   5.793  1.00  0.00     0.141 C 
ATOM     26  H5  UNL     1      19.867  24.000   6.212  1.00  0.00     0.161 HD
HETATM   27  C8  UNL     1      23.047  23.882   6.565  1.00  0.00     0.142 C 
HETATM   28  N6  UNL     1      23.093  24.325   7.920  1.00  0.00    -0.353 N 
ATOM     29  H6  UNL     1      23.959  24.176   8.438  1.00  0.00     0.162 HD
HETATM   30  O3  UNL     1      22.124  25.445   9.743  1.00  0.00    -0.264 OA
ATOM     31  H4  UNL     1      18.831  25.573   7.805  1.00  0.00     0.168 HD
ENDBRANCH   3  21
TORSDOF 8
ENDMDL
MODEL 2
REMARK VINA RESULT: -6.665367259      6.061      9.267
REMARK  8 active torsions:
REMARK  status: ('A' for Active; 'I' for Inactive)
REMARK    1  A    between atoms: N1_1  and  N2_4 
REMARK    2  A    between atoms: N2_4  and  C1_5 
REMARK    3  A    between atoms: C1_5  and  O1_6 
REMARK    4  A    between atoms: C1_5  and  C2_8 
REMARK    5  A    between atoms: C2_8  and  O2_9 
REMARK    6  A    between atoms: C2_8  and  C3_11 
REMARK    7  A    between atoms: C3_11  and  N3_12 
REMARK    8  A    between atoms: C5_14  and  N4_15 
ROOT
HETATM    1  N3  UNL     1      15.573  24.653  11.959  1.00  0.00    -0.305 N 
HETATM    2  C4  UNL     1      14.509  24.684  12.769  1.00  0.00     0.131 A 
HETATM    3  C5  UNL     1      14.557  25.340  13.982  1.00  0.00     0.118 A 
HETATM    4  C10 UNL     1      15.763  25.962  14.311  1.00  0.00     0.277 A 
HETATM    5  O4  UNL     1      15.898  26.587  15.401  1.00  0.00    -0.266 OA
HETATM    6  N7  UNL     1      16.798  25.895  13.455  1.00  0.00    -0.273 N 
ATOM      7  H7  UNL     1      17.672  26.355  13.711  1.00  0.00     0.173 HD
HETATM    8  C11 UNL     1      16.736  25.251  12.276  1.00  0.00     0.329 A 
HETATM    9  O5  UNL     1      17.740  25.218  11.503  1.00  0.00    -0.246 OA
ENDROOT
BRANCH   1  10
HETATM   10  C3  UNL     1      15.506  23.962  10.695  1.00  0.00     0.168 C 
BRANCH  10  11
HETATM   11  C2  UNL     1      14.260  24.297   9.915  1.00  0.00     0.182 C 
BRANCH  11  12
HETATM   12  C1  UNL     1      14.702  24.805   8.553  1.00  0.00     0.261 C 
BRANCH  12  13
HETATM   13  N2  UNL     1      15.220  26.161   8.658  1.00  0.00    -0.114 NA
BRANCH  13  14
HETATM   14  N1  UNL     1      15.220  26.759   7.414  1.00  0.00    -0.346 N 
ATOM     15  H12 UNL     1      14.383  26.922   6.855  1.00  0.00     0.172 HD
ATOM     16  H11 UNL     1      16.174  27.007   7.150  1.00  0.00     0.172 HD
ENDBRANCH  13  14
ENDBRANCH  12  13
BRANCH  12  17
HETATM   17  O1  UNL     1      13.652  24.830   7.648  1.00  0.00    -0.375 OA
ATOM     18  H1  UNL     1      13.120  24.060   7.808  1.00  0.00     0.211 HD
ENDBRANCH  12  17
ENDBRANCH  11  12
BRANCH  11  19
HETATM   19  O2  UNL     1      13.417  23.211   9.768  1.00  0.00    -0.390 OA
ATOM     20  H2  UNL     1      13.313  22.761  10.599  1.00  0.00     0.210 HD
ENDBRANCH  11  19
ENDBRANCH  10  11
ENDBRANCH   1  10
BRANCH   3  21
HETATM   21  N4  UNL     1      13.467  25.404  14.879  1.00  0.00    -0.333 N 
HETATM   22  C6  UNL     1      13.170  24.508  15.759  1.00  0.00     0.171 C 
HETATM   23  N5  UNL     1      12.032  24.682  16.621  1.00  0.00    -0.370 N 
HETATM   24  C9  UNL     1      13.941  23.276  15.950  1.00  0.00     0.285 C 
HETATM   25  C7  UNL     1      11.314  23.493  17.031  1.00  0.00     0.141 C 
ATOM     26  H5  UNL     1      11.741  25.609  16.933  1.00  0.00     0.161 HD
HETATM   27  C8  UNL     1      12.268  22.547  17.703  1.00  0.00     0.142 C 
HETATM   28  N6  UNL     1      13.481  22.384  16.970  1.00  0.00    -0.353 N 
ATOM     29  H6  UNL     1      14.061  21.575  17.188  1.00  0.00     0.162 HD
HETATM   30  O3  UNL     1      14.939  23.042  15.250  1.00  0.00    -0.264 OA
ATOM     31  H4  UNL     1      12.865  26.226  14.826  1.00  0.00     0.168 HD
ENDBRANCH   3  21
TORSDOF 8
ENDMDL
MODEL 3
REMARK VINA RESULT: -6.662216293      2.021      2.719
REMARK  8 active torsions:
REMARK  status: ('A' for Active; 'I' for Inactive)
REMARK    1  A    between atoms: N1_1  and  N2_4 
REMARK    2  A    between atoms: N2_4  and  C1_5 
REMARK    3  A    between atoms: C1_5  and  O1_6 
REMARK    4  A    between atoms: C1_5  and  C2_8 
REMARK    5  A    between atoms: C2_8  and  O2_9 
REMARK    6  A    between atoms: C2_8  and  C3_11 
REMARK    7  A    between atoms: C3_11  and  N3_12 
REMARK    8  A    between atoms: C5_14  and  N4_15 
ROOT
HETATM    1  N3  UNL     1      19.683  29.442  10.630  1.00  0.00    -0.305 N 
HETATM    2  C4  UNL     1      19.166  28.289  10.194  1.00  0.00     0.131 A 
HETATM    3  C5  UNL     1      18.923  27.245  11.064  1.00  0.00     0.118 A 
HETATM    4  C10 UNL     1      19.244  27.460  12.406  1.00  0.00     0.277 A 
HETATM    5  O4  UNL     1      19.055  26.560  13.273  1.00  0.00    -0.266 OA
HETATM    6  N7  UNL     1      19.762  28.642  12.782  1.00  0.00    -0.273 N 
ATOM      7  H7  UNL     1      19.991  28.781  13.767  1.00  0.00     0.173 HD
HETATM    8  C11 UNL     1      19.994  29.650  11.923  1.00  0.00     0.329 A 
HETATM    9  O5  UNL     1      20.484  30.747  12.328  1.00  0.00    -0.246 OA
ENDROOT
BRANCH   1  10
HETATM   10  C3  UNL     1      19.932  30.524   9.707  1.00  0.00     0.168 C 
BRANCH  10  11
HETATM   11  C2  UNL     1      18.662  31.173   9.218  1.00  0.00     0.182 C 
BRANCH  11  12
HETATM   12  C1  UNL     1      18.591  32.556   9.842  1.00  0.00     0.261 C 
BRANCH  12  13
HETATM   13  N2  UNL     1      17.529  32.614  10.835  1.00  0.00    -0.114 NA
BRANCH  13  14
HETATM   14  N1  UNL     1      18.072  32.791  12.091  1.00  0.00    -0.346 N 
ATOM     15  H12 UNL     1      17.955  32.137  12.865  1.00  0.00     0.172 HD
ATOM     16  H11 UNL     1      18.600  33.663  12.120  1.00  0.00     0.172 HD
ENDBRANCH  13  14
ENDBRANCH  12  13
BRANCH  12  17
HETATM   17  O1  UNL     1      18.330  33.534   8.895  1.00  0.00    -0.375 OA
ATOM     18  H1  UNL     1      19.111  33.634   8.365  1.00  0.00     0.211 HD
ENDBRANCH  12  17
ENDBRANCH  11  12
BRANCH  11  19
HETATM   19  O2  UNL     1      18.611  31.268   7.839  1.00  0.00    -0.390 OA
ATOM     20  H2  UNL     1      17.709  31.343   7.548  1.00  0.00     0.210 HD
ENDBRANCH  11  19
ENDBRANCH  10  11
ENDBRANCH   1  10
BRANCH   3  21
HETATM   21  N4  UNL     1      18.381  26.004  10.662  1.00  0.00    -0.333 N 
HETATM   22  C6  UNL     1      19.052  25.024  10.159  1.00  0.00     0.171 C 
HETATM   23  N5  UNL     1      18.389  23.802   9.785  1.00  0.00    -0.370 N 
HETATM   24  C9  UNL     1      20.499  25.067   9.932  1.00  0.00     0.285 C 
HETATM   25  C7  UNL     1      18.917  23.075   8.649  1.00  0.00     0.141 C 
ATOM     26  H5  UNL     1      17.578  23.461  10.301  1.00  0.00     0.161 HD
HETATM   27  C8  UNL     1      20.366  22.764   8.892  1.00  0.00     0.142 C 
HETATM   28  N6  UNL     1      21.094  23.895   9.366  1.00  0.00    -0.353 N 
ATOM     29  H6  UNL     1      22.111  23.867   9.297  1.00  0.00     0.162 HD
HETATM   30  O3  UNL     1      21.153  26.081  10.223  1.00  0.00    -0.264 OA
ATOM     31  H4  UNL     1      17.376  25.872  10.779  1.00  0.00     0.168 HD
ENDBRANCH   3  21
TORSDOF 8
ENDMDL
MODEL 4
REMARK VINA RESULT: -6.543409060     10.065     12.972
REMARK  8 active torsions:
REMARK  status: ('A' for Active; 'I' for Inactive)
REMARK    1  A    between atoms: N1_1  and  N2_4 
REMARK    2  A    between atoms: N2_4  and  C1_5 
REMARK    3  A    between atoms: C1_5  and  O1_6 
REMARK    4  A    between atoms: C1_5  and  C2_8 
REMARK    5  A    between atoms: C2_8  and  O2_9 
REMARK    6  A    between atoms: C2_8  and  C3_11 
REMARK    7  A    between atoms: C3_11  and  N3_12 
REMARK    8  A    between atoms: C5_14  and  N4_15 
ROOT
HETATM    1  N3  UNL     1      10.279  20.956  15.405  1.00  0.00    -0.305 N 
HETATM    2  C4  UNL     1      11.455  21.582  15.518  1.00  0.00     0.131 A 
HETATM    3  C5  UNL     1      11.655  22.552  16.479  1.00  0.00     0.118 A 
HETATM    4  C10 UNL     1      10.575  22.837  17.316  1.00  0.00     0.277 A 
HETATM    5  O4  UNL     1      10.667  23.711  18.225  1.00  0.00    -0.266 OA
HETATM    6  N7  UNL     1       9.417  22.173  17.153  1.00  0.00    -0.273 N 
ATOM      7  H7  UNL     1       8.638  22.395  17.773  1.00  0.00     0.173 HD
HETATM    8  C11 UNL     1       9.237  21.231  16.211  1.00  0.00     0.329 A 
HETATM    9  O5  UNL     1       8.125  20.632  16.098  1.00  0.00    -0.246 OA
ENDROOT
BRANCH   1  10
HETATM   10  C3  UNL     1      10.086  19.945  14.394  1.00  0.00     0.168 C 
BRANCH  10  11
HETATM   11  C2  UNL     1       9.817  20.530  13.031  1.00  0.00     0.182 C 
BRANCH  11  12
HETATM   12  C1  UNL     1       8.447  20.044  12.592  1.00  0.00     0.261 C 
BRANCH  12  13
HETATM   13  N2  UNL     1       7.582  21.172  12.278  1.00  0.00    -0.114 NA
BRANCH  13  14
HETATM   14  N1  UNL     1       7.056  21.696  13.442  1.00  0.00    -0.346 N 
ATOM     15  H12 UNL     1       6.127  22.110  13.517  1.00  0.00     0.172 HD
ATOM     16  H11 UNL     1       7.734  21.604  14.199  1.00  0.00     0.172 HD
ENDBRANCH  13  14
ENDBRANCH  12  13
BRANCH  12  17
HETATM   17  O1  UNL     1       7.822  19.304  13.583  1.00  0.00    -0.375 OA
ATOM     18  H1  UNL     1       8.293  19.458  14.394  1.00  0.00     0.211 HD
ENDBRANCH  12  17
ENDBRANCH  11  12
BRANCH  11  19
HETATM   19  O2  UNL     1       9.857  21.912  13.029  1.00  0.00    -0.390 OA
ATOM     20  H2  UNL     1       9.258  22.259  13.681  1.00  0.00     0.210 HD
ENDBRANCH  11  19
ENDBRANCH  10  11
ENDBRANCH   1  10
BRANCH   3  21
HETATM   21  N4  UNL     1      12.873  23.248  16.644  1.00  0.00    -0.333 N 
HETATM   22  C6  UNL     1      13.294  24.207  15.889  1.00  0.00     0.171 C 
HETATM   23  N5  UNL     1      14.555  24.845  16.155  1.00  0.00    -0.370 N 
HETATM   24  C9  UNL     1      12.546  24.714  14.734  1.00  0.00     0.285 C 
HETATM   25  C7  UNL     1      15.313  25.329  15.020  1.00  0.00     0.141 C 
ATOM     26  H5  UNL     1      14.904  24.952  17.108  1.00  0.00     0.161 HD
HETATM   27  C8  UNL     1      14.465  26.285  14.231  1.00  0.00     0.142 C 
HETATM   28  N6  UNL     1      13.150  25.783  14.000  1.00  0.00    -0.353 N 
ATOM     29  H6  UNL     1      12.601  26.218  13.259  1.00  0.00     0.162 HD
HETATM   30  O3  UNL     1      11.448  24.223  14.430  1.00  0.00    -0.264 OA
ATOM     31  H4  UNL     1      13.470  22.970  17.423  1.00  0.00     0.168 HD
ENDBRANCH   3  21
TORSDOF 8
ENDMDL
MODEL 5
REMARK VINA RESULT: -6.503487576      1.601      1.614
REMARK  8 active torsions:
REMARK  status: ('A' for Active; 'I' for Inactive)
REMARK    1  A    between atoms: N1_1  and  N2_4 
REMARK    2  A    between atoms: N2_4  and  C1_5 
REMARK    3  A    between atoms: C1_5  and  O1_6 
REMARK    4  A    between atoms: C1_5  and  C2_8 
REMARK    5  A    between atoms: C2_8  and  O2_9 
REMARK    6  A    between atoms: C2_8  and  C3_11 
REMARK    7  A    between atoms: C3_11  and  N3_12 
REMARK    8  A    between atoms: C5_14  and  N4_15 
ROOT
HETATM    1  N3  UNL     1      19.778  28.315  11.328  1.00  0.00    -0.305 N 
HETATM    2  C4  UNL     1      19.517  27.500  10.300  1.00  0.00     0.131 A 
HETATM    3  C5  UNL     1      18.841  26.312  10.487  1.00  0.00     0.118 A 
HETATM    4  C10 UNL     1      18.452  26.012  11.794  1.00  0.00     0.277 A 
HETATM    5  O4  UNL     1      17.828  24.945  12.060  1.00  0.00    -0.266 OA
HETATM    6  N7  UNL     1      18.744  26.871  12.787  1.00  0.00    -0.273 N 
ATOM      7  H7  UNL     1      18.452  26.635  13.735  1.00  0.00     0.173 HD
HETATM    8  C11 UNL     1      19.403  28.026  12.588  1.00  0.00     0.329 A 
HETATM    9  O5  UNL     1      19.655  28.803  13.558  1.00  0.00    -0.246 OA
ENDROOT
BRANCH   1  10
HETATM   10  C3  UNL     1      20.485  29.554  11.115  1.00  0.00     0.168 C 
BRANCH  10  11
HETATM   11  C2  UNL     1      19.573  30.678  10.695  1.00  0.00     0.182 C 
BRANCH  11  12
HETATM   12  C1  UNL     1      19.792  31.825  11.668  1.00  0.00     0.261 C 
BRANCH  12  13
HETATM   13  N2  UNL     1      20.417  32.953  10.994  1.00  0.00    -0.114 NA
BRANCH  13  14
HETATM   14  N1  UNL     1      19.474  33.928  10.740  1.00  0.00    -0.346 N 
ATOM     15  H12 UNL     1      19.222  34.669  11.395  1.00  0.00     0.172 HD
ATOM     16  H11 UNL     1      19.076  33.790   9.811  1.00  0.00     0.172 HD
ENDBRANCH  13  14
ENDBRANCH  12  13
BRANCH  12  17
HETATM   17  O1  UNL     1      20.617  31.458  12.719  1.00  0.00    -0.375 OA
ATOM     18  H1  UNL     1      20.070  31.060  13.386  1.00  0.00     0.211 HD
ENDBRANCH  12  17
ENDBRANCH  11  12
BRANCH  11  19
HETATM   19  O2  UNL     1      19.811  31.100   9.400  1.00  0.00    -0.390 OA
ATOM     20  H2  UNL     1      20.124  31.997   9.398  1.00  0.00     0.210 HD
ENDBRANCH  11  19
ENDBRANCH  10  11
ENDBRANCH   1  10
BRANCH   3  21
HETATM   21  N4  UNL     1      18.539  25.412   9.441  1.00  0.00    -0.333 N 
HETATM   22  C6  UNL     1      19.285  24.429   9.063  1.00  0.00     0.171 C 
HETATM   23  N5  UNL     1      18.872  23.574   7.982  1.00  0.00    -0.370 N 
HETATM   24  C9  UNL     1      20.574  24.107   9.683  1.00  0.00     0.285 C 
HETATM   25  C7  UNL     1      19.908  23.018   7.136  1.00  0.00     0.141 C 
ATOM     26  H5  UNL     1      17.887  23.369   7.816  1.00  0.00     0.161 HD
HETATM   27  C8  UNL     1      20.883  22.255   7.986  1.00  0.00     0.142 C 
HETATM   28  N6  UNL     1      21.279  22.983   9.147  1.00  0.00    -0.353 N 
ATOM     29  H6  UNL     1      22.125  22.680   9.630  1.00  0.00     0.162 HD
HETATM   30  O3  UNL     1      21.009  24.790  10.623  1.00  0.00    -0.264 OA
ATOM     31  H4  UNL     1      17.660  25.550   8.944  1.00  0.00     0.168 HD
ENDBRANCH   3  21
TORSDOF 8
ENDMDL
