MODEL 1
REMARK VINA RESULT: -7.092832433      0.000      0.000
REMARK  4 active torsions:
REMARK  status: ('A' for Active; 'I' for Inactive)
REMARK    1  A    between atoms: C5_5  and  O1_6 
REMARK    2  A    between atoms: O1_6  and  C6_7 
REMARK    3  A    between atoms: C9_10  and  C10_11 
REMARK    4  A    between atoms: C11_12  and  C12_13 
ROOT
HETATM    1  C10 UNL     1       2.930  18.271   9.292  1.00  0.00     0.075 A 
HETATM    2  C11 UNL     1       3.415  19.458   8.967  1.00  0.00     0.062 A 
HETATM    3  C20 UNL     1       4.398  19.333   7.885  1.00  0.00     0.260 A 
HETATM    4  O2  UNL     1       5.075  20.237   7.309  1.00  0.00    -0.267 OA
HETATM    5  N2  UNL     1       4.492  17.958   7.552  1.00  0.00    -0.289 N 
ATOM      6  H2  UNL     1       5.088  17.540   6.838  1.00  0.00     0.172 HD
HETATM    7  C21 UNL     1       3.597  17.289   8.406  1.00  0.00     0.261 A 
HETATM    8  O3  UNL     1       3.392  16.031   8.415  1.00  0.00    -0.267 OA
ENDROOT
BRANCH   1   9
HETATM    9  C9  UNL     1       1.937  17.928  10.303  1.00  0.00     0.051 A 
HETATM   10  C8  UNL     1       0.660  17.488  10.110  1.00  0.00     0.035 A 
HETATM   11  C7  UNL     1       0.034  17.339  11.361  1.00  0.00     0.059 A 
HETATM   12  C6  UNL     1       0.974  17.704  12.282  1.00  0.00     0.148 A 
HETATM   13  N3  UNL     1       2.096  18.048  11.627  1.00  0.00    -0.336 N 
ATOM     14  H3  UNL     1       2.956  18.360  12.079  1.00  0.00     0.168 HD
BRANCH  12  15
HETATM   15  O1  UNL     1       0.764  17.708  13.658  1.00  0.00    -0.294 OA
BRANCH  15  16
HETATM   16  C5  UNL     1       1.196  18.757  14.445  1.00  0.00     0.077 A 
HETATM   17  C4  UNL     1       2.413  18.594  15.085  1.00  0.00     0.038 A 
HETATM   18  C3  UNL     1       2.918  19.602  15.893  1.00  0.00     0.009 A 
HETATM   19  C2  UNL     1       2.224  20.794  16.079  1.00  0.00    -0.062 A 
HETATM   20  C1  UNL     1       2.820  21.836  16.954  1.00  0.00     0.048 C 
HETATM   21  C23 UNL     1       1.018  20.928  15.432  1.00  0.00     0.009 A 
HETATM   22  C22 UNL     1       0.504  19.926  14.622  1.00  0.00     0.038 A 
ENDBRANCH  15  16
ENDBRANCH  12  15
ENDBRANCH   1   9
BRANCH   2  23
HETATM   23  C12 UNL     1       3.044  20.704   9.585  1.00  0.00     0.009 A 
HETATM   24  C13 UNL     1       2.215  21.667   9.011  1.00  0.00     0.101 A 
HETATM   25  N1  UNL     1       2.098  22.707   9.847  1.00  0.00    -0.364 N 
HETATM   26  C14 UNL     1       2.846  22.423  10.958  1.00  0.00     0.043 A 
ATOM     27  H1  UNL     1       1.553  23.554   9.686  1.00  0.00     0.165 HD
HETATM   28  C15 UNL     1       3.084  23.133  12.106  1.00  0.00     0.030 A 
HETATM   29  C19 UNL     1       3.439  21.183  10.808  1.00  0.00     0.003 A 
HETATM   30  C16 UNL     1       3.897  22.637  13.106  1.00  0.00     0.002 A 
HETATM   31  C17 UNL     1       4.482  21.405  12.950  1.00  0.00     0.001 A 
HETATM   32  C18 UNL     1       4.265  20.680  11.824  1.00  0.00     0.014 A 
ENDBRANCH   2  23
TORSDOF 4
ENDMDL
MODEL 2
REMARK VINA RESULT: -6.929324471      5.325      8.726
REMARK  4 active torsions:
REMARK  status: ('A' for Active; 'I' for Inactive)
REMARK    1  A    between atoms: C5_5  and  O1_6 
REMARK    2  A    between atoms: O1_6  and  C6_7 
REMARK    3  A    between atoms: C9_10  and  C10_11 
REMARK    4  A    between atoms: C11_12  and  C12_13 
ROOT
HETATM    1  C10 UNL     1       6.666  14.582   5.929  1.00  0.00     0.075 A 
HETATM    2  C11 UNL     1       5.452  15.073   6.116  1.00  0.00     0.062 A 
HETATM    3  C20 UNL     1       4.568  14.692   5.009  1.00  0.00     0.260 A 
HETATM    4  O2  UNL     1       3.344  14.970   4.829  1.00  0.00    -0.267 OA
HETATM    5  N2  UNL     1       5.331  13.914   4.103  1.00  0.00    -0.289 N 
ATOM      6  H2  UNL     1       5.008  13.496   3.230  1.00  0.00     0.172 HD
HETATM    7  C21 UNL     1       6.624  13.835   4.651  1.00  0.00     0.261 A 
HETATM    8  O3  UNL     1       7.607  13.216   4.127  1.00  0.00    -0.267 OA
ENDROOT
BRANCH   1   9
HETATM    9  C9  UNL     1       7.850  14.708   6.771  1.00  0.00     0.051 A 
HETATM   10  C8  UNL     1       8.274  13.865   7.755  1.00  0.00     0.035 A 
HETATM   11  C7  UNL     1       9.428  14.404   8.354  1.00  0.00     0.059 A 
HETATM   12  C6  UNL     1       9.662  15.577   7.696  1.00  0.00     0.148 A 
HETATM   13  N3  UNL     1       8.711  15.734   6.759  1.00  0.00    -0.336 N 
ATOM     14  H3  UNL     1       8.652  16.530   6.123  1.00  0.00     0.168 HD
BRANCH  12  15
HETATM   15  O1  UNL     1      10.718  16.438   7.980  1.00  0.00    -0.294 OA
BRANCH  15  16
HETATM   16  C5  UNL     1      10.749  17.723   7.475  1.00  0.00     0.077 A 
HETATM   17  C4  UNL     1       9.978  18.667   8.131  1.00  0.00     0.038 A 
HETATM   18  C3  UNL     1       9.955  19.981   7.688  1.00  0.00     0.009 A 
HETATM   19  C2  UNL     1      10.699  20.384   6.583  1.00  0.00    -0.062 A 
HETATM   20  C1  UNL     1      10.635  21.806   6.160  1.00  0.00     0.048 C 
HETATM   21  C23 UNL     1      11.455  19.425   5.950  1.00  0.00     0.009 A 
HETATM   22  C22 UNL     1      11.485  18.108   6.385  1.00  0.00     0.038 A 
ENDBRANCH  15  16
ENDBRANCH  12  15
ENDBRANCH   1   9
BRANCH   2  23
HETATM   23  C12 UNL     1       5.044  15.874   7.240  1.00  0.00     0.009 A 
HETATM   24  C13 UNL     1       4.184  15.454   8.254  1.00  0.00     0.101 A 
HETATM   25  N1  UNL     1       4.004  16.455   9.125  1.00  0.00    -0.364 N 
HETATM   26  C14 UNL     1       4.742  17.520   8.682  1.00  0.00     0.043 A 
ATOM     27  H1  UNL     1       3.423  16.429   9.964  1.00  0.00     0.165 HD
HETATM   28  C15 UNL     1       4.913  18.785   9.182  1.00  0.00     0.030 A 
HETATM   29  C19 UNL     1       5.393  17.173   7.513  1.00  0.00     0.003 A 
HETATM   30  C16 UNL     1       5.716  19.710   8.545  1.00  0.00     0.002 A 
HETATM   31  C17 UNL     1       6.359  19.358   7.385  1.00  0.00     0.001 A 
HETATM   32  C18 UNL     1       6.207  18.113   6.866  1.00  0.00     0.014 A 
ENDBRANCH   2  23
TORSDOF 4
ENDMDL
MODEL 3
REMARK VINA RESULT: -6.844309963      2.492      3.397
REMARK  4 active torsions:
REMARK  status: ('A' for Active; 'I' for Inactive)
REMARK    1  A    between atoms: C5_5  and  O1_6 
REMARK    2  A    between atoms: O1_6  and  C6_7 
REMARK    3  A    between atoms: C9_10  and  C10_11 
REMARK    4  A    between atoms: C11_12  and  C12_13 
ROOT
HETATM    1  C10 UNL     1       2.538  18.850  11.438  1.00  0.00     0.075 A 
HETATM    2  C11 UNL     1       3.256  19.930  11.702  1.00  0.00     0.062 A 
HETATM    3  C20 UNL     1       4.535  19.885  10.984  1.00  0.00     0.260 A 
HETATM    4  O2  UNL     1       5.483  20.727  10.983  1.00  0.00    -0.267 OA
HETATM    5  N2  UNL     1       4.563  18.679  10.240  1.00  0.00    -0.289 N 
ATOM      6  H2  UNL     1       5.315  18.350   9.635  1.00  0.00     0.172 HD
HETATM    7  C21 UNL     1       3.344  18.029  10.506  1.00  0.00     0.261 A 
HETATM    8  O3  UNL     1       2.990  16.905  10.018  1.00  0.00    -0.267 OA
ENDROOT
BRANCH   1   9
HETATM    9  C9  UNL     1       1.214  18.482  11.927  1.00  0.00     0.051 A 
HETATM   10  C8  UNL     1       0.014  18.639  11.299  1.00  0.00     0.035 A 
HETATM   11  C7  UNL     1      -1.012  18.206  12.159  1.00  0.00     0.059 A 
HETATM   12  C6  UNL     1      -0.380  17.796  13.298  1.00  0.00     0.148 A 
HETATM   13  N3  UNL     1       0.943  17.970  13.134  1.00  0.00    -0.336 N 
ATOM     14  H3  UNL     1       1.647  17.740  13.836  1.00  0.00     0.168 HD
BRANCH  12  15
HETATM   15  O1  UNL     1      -1.033  17.291  14.419  1.00  0.00    -0.294 OA
BRANCH  15  16
HETATM   16  C5  UNL     1      -1.693  18.126  15.298  1.00  0.00     0.077 A 
HETATM   17  C4  UNL     1      -0.961  19.175  15.828  1.00  0.00     0.038 A 
HETATM   18  C3  UNL     1      -1.552  20.060  16.717  1.00  0.00     0.009 A 
HETATM   19  C2  UNL     1      -2.883  19.922  17.099  1.00  0.00    -0.062 A 
HETATM   20  C1  UNL     1      -3.458  20.904  18.053  1.00  0.00     0.048 C 
HETATM   21  C23 UNL     1      -3.586  18.870  16.557  1.00  0.00     0.009 A 
HETATM   22  C22 UNL     1      -3.005  17.979  15.667  1.00  0.00     0.038 A 
ENDBRANCH  15  16
ENDBRANCH  12  15
ENDBRANCH   1   9
BRANCH   2  23
HETATM   23  C12 UNL     1       2.853  21.002  12.573  1.00  0.00     0.009 A 
HETATM   24  C13 UNL     1       2.408  22.254  12.151  1.00  0.00     0.101 A 
HETATM   25  N1  UNL     1       2.137  23.013  13.221  1.00  0.00    -0.364 N 
HETATM   26  C14 UNL     1       2.405  22.260  14.333  1.00  0.00     0.043 A 
ATOM     27  H1  UNL     1       1.796  23.975  13.209  1.00  0.00     0.165 HD
HETATM   28  C15 UNL     1       2.312  22.542  15.671  1.00  0.00     0.030 A 
HETATM   29  C19 UNL     1       2.849  21.010  13.945  1.00  0.00     0.003 A 
HETATM   30  C16 UNL     1       2.652  21.608  16.630  1.00  0.00     0.002 A 
HETATM   31  C17 UNL     1       3.092  20.369  16.238  1.00  0.00     0.001 A 
HETATM   32  C18 UNL     1       3.195  20.063  14.920  1.00  0.00     0.014 A 
ENDBRANCH   2  23
TORSDOF 4
ENDMDL
MODEL 4
REMARK VINA RESULT: -6.797601451      3.528      4.724
REMARK  4 active torsions:
REMARK  status: ('A' for Active; 'I' for Inactive)
REMARK    1  A    between atoms: C5_5  and  O1_6 
REMARK    2  A    between atoms: O1_6  and  C6_7 
REMARK    3  A    between atoms: C9_10  and  C10_11 
REMARK    4  A    between atoms: C11_12  and  C12_13 
ROOT
HETATM    1  C10 UNL     1       1.714  18.852  12.113  1.00  0.00     0.075 A 
HETATM    2  C11 UNL     1       2.643  19.793  12.142  1.00  0.00     0.062 A 
HETATM    3  C20 UNL     1       3.765  19.435  11.268  1.00  0.00     0.260 A 
HETATM    4  O2  UNL     1       4.834  20.075  11.033  1.00  0.00    -0.267 OA
HETATM    5  N2  UNL     1       3.463  18.181  10.680  1.00  0.00    -0.289 N 
ATOM      6  H2  UNL     1       4.041  17.657  10.022  1.00  0.00     0.172 HD
HETATM    7  C21 UNL     1       2.206  17.806  11.188  1.00  0.00     0.261 A 
HETATM    8  O3  UNL     1       1.587  16.730  10.895  1.00  0.00    -0.267 OA
ENDROOT
BRANCH   1   9
HETATM    9  C9  UNL     1       0.440  18.793  12.820  1.00  0.00     0.051 A 
HETATM   10  C8  UNL     1      -0.801  19.096  12.341  1.00  0.00     0.035 A 
HETATM   11  C7  UNL     1      -1.738  18.962  13.382  1.00  0.00     0.059 A 
HETATM   12  C6  UNL     1      -1.014  18.576  14.473  1.00  0.00     0.148 A 
HETATM   13  N3  UNL     1       0.278  18.482  14.113  1.00  0.00    -0.336 N 
ATOM     14  H3  UNL     1       1.034  18.209  14.740  1.00  0.00     0.168 HD
BRANCH  12  15
HETATM   15  O1  UNL     1      -1.559  18.333  15.731  1.00  0.00    -0.294 OA
BRANCH  15  16
HETATM   16  C5  UNL     1      -2.720  17.600  15.878  1.00  0.00     0.077 A 
HETATM   17  C4  UNL     1      -2.604  16.224  15.770  1.00  0.00     0.038 A 
HETATM   18  C3  UNL     1      -3.722  15.416  15.908  1.00  0.00     0.009 A 
HETATM   19  C2  UNL     1      -4.980  15.958  16.156  1.00  0.00    -0.062 A 
HETATM   20  C1  UNL     1      -6.138  15.039  16.295  1.00  0.00     0.048 C 
HETATM   21  C23 UNL     1      -5.066  17.327  16.257  1.00  0.00     0.009 A 
HETATM   22  C22 UNL     1      -3.953  18.145  16.121  1.00  0.00     0.038 A 
ENDBRANCH  15  16
ENDBRANCH  12  15
ENDBRANCH   1   9
BRANCH   2  23
HETATM   23  C12 UNL     1       2.577  21.001  12.922  1.00  0.00     0.009 A 
HETATM   24  C13 UNL     1       2.374  22.280  12.405  1.00  0.00     0.101 A 
HETATM   25  N1  UNL     1       2.390  23.171  13.404  1.00  0.00    -0.364 N 
HETATM   26  C14 UNL     1       2.601  22.477  14.566  1.00  0.00     0.043 A 
ATOM     27  H1  UNL     1       2.267  24.180  13.317  1.00  0.00     0.165 HD
HETATM   28  C15 UNL     1       2.713  22.888  15.869  1.00  0.00     0.030 A 
HETATM   29  C19 UNL     1       2.719  21.129  14.281  1.00  0.00     0.003 A 
HETATM   30  C16 UNL     1       2.939  21.989  16.892  1.00  0.00     0.002 A 
HETATM   31  C17 UNL     1       3.055  20.653  16.601  1.00  0.00     0.001 A 
HETATM   32  C18 UNL     1       2.950  20.217  15.321  1.00  0.00     0.014 A 
ENDBRANCH   2  23
TORSDOF 4
ENDMDL
MODEL 5
REMARK VINA RESULT: -6.784172855      2.991      5.492
REMARK  4 active torsions:
REMARK  status: ('A' for Active; 'I' for Inactive)
REMARK    1  A    between atoms: C5_5  and  O1_6 
REMARK    2  A    between atoms: O1_6  and  C6_7 
REMARK    3  A    between atoms: C9_10  and  C10_11 
REMARK    4  A    between atoms: C11_12  and  C12_13 
ROOT
HETATM    1  C10 UNL     1       5.443  19.455   8.127  1.00  0.00     0.075 A 
HETATM    2  C11 UNL     1       6.593  19.196   7.528  1.00  0.00     0.062 A 
HETATM    3  C20 UNL     1       6.941  20.274   6.596  1.00  0.00     0.260 A 
HETATM    4  O2  UNL     1       7.955  20.388   5.844  1.00  0.00    -0.267 OA
HETATM    5  N2  UNL     1       5.906  21.241   6.659  1.00  0.00    -0.289 N 
ATOM      6  H2  UNL     1       5.849  22.113   6.132  1.00  0.00     0.172 HD
HETATM    7  C21 UNL     1       4.976  20.755   7.595  1.00  0.00     0.261 A 
HETATM    8  O3  UNL     1       3.896  21.344   7.932  1.00  0.00    -0.267 OA
ENDROOT
BRANCH   1   9
HETATM    9  C9  UNL     1       4.725  18.665   9.122  1.00  0.00     0.051 A 
HETATM   10  C8  UNL     1       3.624  17.882   8.937  1.00  0.00     0.035 A 
HETATM   11  C7  UNL     1       3.224  17.354  10.178  1.00  0.00     0.059 A 
HETATM   12  C6  UNL     1       4.116  17.848  11.086  1.00  0.00     0.148 A 
HETATM   13  N3  UNL     1       4.999  18.624  10.432  1.00  0.00    -0.336 N 
ATOM     14  H3  UNL     1       5.775  19.116  10.876  1.00  0.00     0.168 HD
BRANCH  12  15
HETATM   15  O1  UNL     1       4.082  17.574  12.450  1.00  0.00    -0.294 OA
BRANCH  15  16
HETATM   16  C5  UNL     1       3.663  18.523  13.360  1.00  0.00     0.077 A 
HETATM   17  C4  UNL     1       2.723  18.118  14.293  1.00  0.00     0.038 A 
HETATM   18  C3  UNL     1       2.252  19.010  15.244  1.00  0.00     0.009 A 
HETATM   19  C2  UNL     1       2.705  20.326  15.287  1.00  0.00    -0.062 A 
HETATM   20  C1  UNL     1       2.163  21.232  16.332  1.00  0.00     0.048 C 
HETATM   21  C23 UNL     1       3.637  20.701  14.348  1.00  0.00     0.009 A 
HETATM   22  C22 UNL     1       4.115  19.816  13.393  1.00  0.00     0.038 A 
ENDBRANCH  15  16
ENDBRANCH  12  15
ENDBRANCH   1   9
BRANCH   2  23
HETATM   23  C12 UNL     1       7.398  18.023   7.747  1.00  0.00     0.009 A 
HETATM   24  C13 UNL     1       8.650  18.013   8.362  1.00  0.00     0.101 A 
HETATM   25  N1  UNL     1       9.124  16.761   8.381  1.00  0.00    -0.364 N 
HETATM   26  C14 UNL     1       8.188  15.960   7.783  1.00  0.00     0.043 A 
ATOM     27  H1  UNL     1      10.018  16.459   8.770  1.00  0.00     0.165 HD
HETATM   28  C15 UNL     1       8.164  14.613   7.531  1.00  0.00     0.030 A 
HETATM   29  C19 UNL     1       7.112  16.731   7.384  1.00  0.00     0.003 A 
HETATM   30  C16 UNL     1       7.094  14.018   6.893  1.00  0.00     0.002 A 
HETATM   31  C17 UNL     1       6.029  14.789   6.501  1.00  0.00     0.001 A 
HETATM   32  C18 UNL     1       6.026  16.126   6.736  1.00  0.00     0.014 A 
ENDBRANCH   2  23
TORSDOF 4
ENDMDL
