MODEL 1
REMARK VINA RESULT: -6.960597955      0.000      0.000
REMARK  4 active torsions:
REMARK  status: ('A' for Active; 'I' for Inactive)
REMARK    1  A    between atoms: S1_2  and  N1_4 
REMARK    2  A    between atoms: S1_2  and  C15_22 
REMARK    3  A    between atoms: N1_4  and  C1_6 
REMARK    4  A    between atoms: C6_11  and  C7_12 
ROOT
HETATM    1  C1  UNL     1       2.135  20.720  14.977  1.00  0.00     0.053 A 
HETATM    2  C2  UNL     1       1.580  21.439  16.028  1.00  0.00     0.031 A 
HETATM    3  C3  UNL     1       0.424  20.946  16.590  1.00  0.00     0.002 A 
HETATM    4  C4  UNL     1      -0.156  19.783  16.128  1.00  0.00     0.001 A 
HETATM    5  C5  UNL     1       0.412  19.088  15.086  1.00  0.00     0.014 A 
HETATM    6  C6  UNL     1       1.591  19.554  14.482  1.00  0.00     0.001 A 
ENDROOT
BRANCH   1   7
HETATM    7  N1  UNL     1       3.313  21.218  14.357  1.00  0.00    -0.280 N 
ATOM      8  H1  UNL     1       4.204  20.828  14.663  1.00  0.00     0.179 HD
BRANCH   7   9
HETATM    9  S1  UNL     1       3.360  22.421  13.136  1.00  0.00     0.263 S 
HETATM   10  O1  UNL     1       2.076  23.252  13.223  1.00  0.00    -0.200 OA
HETATM   11  O2  UNL     1       4.506  23.379  13.272  1.00  0.00    -0.200 OA
BRANCH   9  12
HETATM   12  C15 UNL     1       3.408  21.735  11.524  1.00  0.00     0.080 A 
HETATM   13  C16 UNL     1       2.402  22.022  10.636  1.00  0.00     0.027 A 
HETATM   14  C17 UNL     1       2.456  21.479   9.369  1.00  0.00     0.033 A 
HETATM   15  C18 UNL     1       3.469  20.649   8.928  1.00  0.00     0.059 A 
HETATM   16  N3  UNL     1       3.743  20.013   7.779  1.00  0.00    -0.300 N 
HETATM   17  C20 UNL     1       4.472  20.373   9.838  1.00  0.00     0.010 A 
HETATM   18  N4  UNL     1       4.876  19.339   7.916  1.00  0.00    -0.311 N 
ATOM     19  H3  UNL     1       3.171  20.043   6.935  1.00  0.00     0.187 HD
HETATM   20  C19 UNL     1       5.344  19.538   9.155  1.00  0.00     0.120 A 
ATOM     21  H4  UNL     1       5.318  18.765   7.197  1.00  0.00     0.186 HD
HETATM   22  C21 UNL     1       4.429  20.913  11.110  1.00  0.00     0.040 A 
ENDBRANCH   9  12
ENDBRANCH   7   9
ENDBRANCH   1   7
BRANCH   6  23
HETATM   23  C7  UNL     1       2.184  18.775  13.392  1.00  0.00    -0.023 A 
HETATM   24  C8  UNL     1       3.382  18.112  13.497  1.00  0.00     0.014 A 
HETATM   25  C9  UNL     1       3.892  17.387  12.429  1.00  0.00     0.031 A 
HETATM   26  C10 UNL     1       3.228  17.301  11.220  1.00  0.00     0.042 A 
HETATM   27  N2  UNL     1       3.487  16.682  10.048  1.00  0.00    -0.365 N 
HETATM   28  C13 UNL     1       2.026  17.965  11.111  1.00  0.00    -0.007 A 
HETATM   29  C11 UNL     1       2.500  16.914   9.170  1.00  0.00     0.089 A 
ATOM     30  H2  UNL     1       4.316  16.118   9.857  1.00  0.00     0.165 HD
HETATM   31  C12 UNL     1       1.585  17.712   9.821  1.00  0.00     0.030 A 
HETATM   32  C14 UNL     1       1.523  18.686  12.186  1.00  0.00     0.026 A 
ENDBRANCH   6  23
TORSDOF 4
ENDMDL
MODEL 2
REMARK VINA RESULT: -6.949632192      2.220      5.789
REMARK  4 active torsions:
REMARK  status: ('A' for Active; 'I' for Inactive)
REMARK    1  A    between atoms: S1_2  and  N1_4 
REMARK    2  A    between atoms: S1_2  and  C15_22 
REMARK    3  A    between atoms: N1_4  and  C1_6 
REMARK    4  A    between atoms: C6_11  and  C7_12 
ROOT
HETATM    1  C1  UNL     1       3.515  20.274  10.439  1.00  0.00     0.053 A 
HETATM    2  C2  UNL     1       4.355  20.567   9.373  1.00  0.00     0.031 A 
HETATM    3  C3  UNL     1       5.080  19.527   8.836  1.00  0.00     0.002 A 
HETATM    4  C4  UNL     1       4.972  18.247   9.337  1.00  0.00     0.001 A 
HETATM    5  C5  UNL     1       4.133  17.981  10.394  1.00  0.00     0.014 A 
HETATM    6  C6  UNL     1       3.375  19.011  10.973  1.00  0.00     0.001 A 
ENDROOT
BRANCH   1   7
HETATM    7  N1  UNL     1       2.774  21.331  11.035  1.00  0.00    -0.280 N 
ATOM      8  H1  UNL     1       1.875  21.567  10.614  1.00  0.00     0.179 HD
BRANCH   7   9
HETATM    9  S1  UNL     1       3.266  22.243  12.401  1.00  0.00     0.263 S 
HETATM   10  O1  UNL     1       4.698  21.838  12.764  1.00  0.00    -0.200 OA
HETATM   11  O2  UNL     1       3.281  23.724  12.168  1.00  0.00    -0.200 OA
BRANCH   9  12
HETATM   12  C15 UNL     1       2.278  21.919  13.811  1.00  0.00     0.080 A 
HETATM   13  C16 UNL     1       2.874  21.779  15.039  1.00  0.00     0.027 A 
HETATM   14  C17 UNL     1       2.082  21.529  16.140  1.00  0.00     0.033 A 
HETATM   15  C18 UNL     1       0.706  21.406  16.090  1.00  0.00     0.059 A 
HETATM   16  N3  UNL     1      -0.260  21.172  16.991  1.00  0.00    -0.300 N 
HETATM   17  C20 UNL     1       0.126  21.550  14.844  1.00  0.00     0.010 A 
HETATM   18  N4  UNL     1      -1.433  21.158  16.374  1.00  0.00    -0.311 N 
ATOM     19  H3  UNL     1      -0.115  21.028  17.990  1.00  0.00     0.187 HD
HETATM   20  C19 UNL     1      -1.233  21.385  15.069  1.00  0.00     0.120 A 
ATOM     21  H4  UNL     1      -2.338  21.000  16.819  1.00  0.00     0.186 HD
HETATM   22  C21 UNL     1       0.910  21.802  13.733  1.00  0.00     0.040 A 
ENDBRANCH   9  12
ENDBRANCH   7   9
ENDBRANCH   1   7
BRANCH   6  23
HETATM   23  C7  UNL     1       2.471  18.688  12.080  1.00  0.00    -0.023 A 
HETATM   24  C8  UNL     1       2.891  18.510  13.376  1.00  0.00     0.014 A 
HETATM   25  C9  UNL     1       1.985  18.207  14.384  1.00  0.00     0.031 A 
HETATM   26  C10 UNL     1       0.633  18.069  14.134  1.00  0.00     0.042 A 
HETATM   27  N2  UNL     1      -0.440  17.786  14.904  1.00  0.00    -0.365 N 
HETATM   28  C13 UNL     1       0.209  18.246  12.835  1.00  0.00    -0.007 A 
HETATM   29  C11 UNL     1      -1.556  17.771  14.161  1.00  0.00     0.089 A 
ATOM     30  H2  UNL     1      -0.407  17.610  15.909  1.00  0.00     0.165 HD
HETATM   31  C12 UNL     1      -1.164  18.056  12.871  1.00  0.00     0.030 A 
HETATM   32  C14 UNL     1       1.122  18.550  11.835  1.00  0.00     0.026 A 
ENDBRANCH   6  23
TORSDOF 4
ENDMDL
MODEL 3
REMARK VINA RESULT: -6.926384771      2.997      6.595
REMARK  4 active torsions:
REMARK  status: ('A' for Active; 'I' for Inactive)
REMARK    1  A    between atoms: S1_2  and  N1_4 
REMARK    2  A    between atoms: S1_2  and  C15_22 
REMARK    3  A    between atoms: N1_4  and  C1_6 
REMARK    4  A    between atoms: C6_11  and  C7_12 
ROOT
HETATM    1  C1  UNL     1       2.276  17.575  10.784  1.00  0.00     0.053 A 
HETATM    2  C2  UNL     1       2.458  17.009   9.528  1.00  0.00     0.031 A 
HETATM    3  C3  UNL     1       3.670  17.222   8.909  1.00  0.00     0.002 A 
HETATM    4  C4  UNL     1       4.661  17.965   9.514  1.00  0.00     0.001 A 
HETATM    5  C5  UNL     1       4.457  18.516  10.759  1.00  0.00     0.014 A 
HETATM    6  C6  UNL     1       3.237  18.326  11.427  1.00  0.00     0.001 A 
ENDROOT
BRANCH   1   7
HETATM    7  N1  UNL     1       1.026  17.397  11.437  1.00  0.00    -0.280 N 
ATOM      8  H1  UNL     1       0.929  16.587  12.049  1.00  0.00     0.179 HD
BRANCH   7   9
HETATM    9  S1  UNL     1      -0.332  18.432  11.283  1.00  0.00     0.263 S 
HETATM   10  O1  UNL     1      -0.102  19.359  10.084  1.00  0.00    -0.200 OA
HETATM   11  O2  UNL     1      -1.620  17.709  11.028  1.00  0.00    -0.200 OA
BRANCH   9  12
HETATM   12  C15 UNL     1      -0.549  19.463  12.682  1.00  0.00     0.080 A 
HETATM   13  C16 UNL     1      -0.641  20.822  12.515  1.00  0.00     0.027 A 
HETATM   14  C17 UNL     1      -0.816  21.620  13.627  1.00  0.00     0.033 A 
HETATM   15  C18 UNL     1      -0.905  21.136  14.918  1.00  0.00     0.059 A 
HETATM   16  N3  UNL     1      -1.071  21.688  16.130  1.00  0.00    -0.300 N 
HETATM   17  C20 UNL     1      -0.809  19.765  15.064  1.00  0.00     0.010 A 
HETATM   18  N4  UNL     1      -1.084  20.729  17.045  1.00  0.00    -0.311 N 
ATOM     19  H3  UNL     1      -1.172  22.686  16.317  1.00  0.00     0.187 HD
HETATM   20  C19 UNL     1      -0.928  19.549  16.429  1.00  0.00     0.120 A 
ATOM     21  H4  UNL     1      -1.194  20.866  18.050  1.00  0.00     0.186 HD
HETATM   22  C21 UNL     1      -0.634  18.956  13.957  1.00  0.00     0.040 A 
ENDBRANCH   9  12
ENDBRANCH   7   9
ENDBRANCH   1   7
BRANCH   6  23
HETATM   23  C7  UNL     1       3.063  18.904  12.762  1.00  0.00    -0.023 A 
HETATM   24  C8  UNL     1       2.966  18.153  13.907  1.00  0.00     0.014 A 
HETATM   25  C9  UNL     1       2.804  18.759  15.146  1.00  0.00     0.031 A 
HETATM   26  C10 UNL     1       2.732  20.133  15.284  1.00  0.00     0.042 A 
HETATM   27  N2  UNL     1       2.582  20.964  16.338  1.00  0.00    -0.365 N 
HETATM   28  C13 UNL     1       2.829  20.888  14.136  1.00  0.00    -0.007 A 
HETATM   29  C11 UNL     1       2.576  22.240  15.927  1.00  0.00     0.089 A 
ATOM     30  H2  UNL     1       2.487  20.664  17.308  1.00  0.00     0.165 HD
HETATM   31  C12 UNL     1       2.729  22.206  14.558  1.00  0.00     0.030 A 
HETATM   32  C14 UNL     1       2.991  20.273  12.903  1.00  0.00     0.026 A 
ENDBRANCH   6  23
TORSDOF 4
ENDMDL
MODEL 4
REMARK VINA RESULT: -6.878644591      2.643      4.038
REMARK  4 active torsions:
REMARK  status: ('A' for Active; 'I' for Inactive)
REMARK    1  A    between atoms: S1_2  and  N1_4 
REMARK    2  A    between atoms: S1_2  and  C15_22 
REMARK    3  A    between atoms: N1_4  and  C1_6 
REMARK    4  A    between atoms: C6_11  and  C7_12 
ROOT
HETATM    1  C1  UNL     1      -0.745  17.987  14.278  1.00  0.00     0.053 A 
HETATM    2  C2  UNL     1      -2.029  17.721  14.735  1.00  0.00     0.031 A 
HETATM    3  C3  UNL     1      -2.423  18.332  15.904  1.00  0.00     0.002 A 
HETATM    4  C4  UNL     1      -1.575  19.176  16.590  1.00  0.00     0.001 A 
HETATM    5  C5  UNL     1      -0.307  19.424  16.117  1.00  0.00     0.014 A 
HETATM    6  C6  UNL     1       0.137  18.822  14.929  1.00  0.00     0.001 A 
ENDROOT
BRANCH   1   7
HETATM    7  N1  UNL     1      -0.298  17.349  13.089  1.00  0.00    -0.280 N 
ATOM      8  H1  UNL     1       0.018  16.382  13.166  1.00  0.00     0.179 HD
BRANCH   7   9
HETATM    9  S1  UNL     1      -0.246  18.069  11.534  1.00  0.00     0.263 S 
HETATM   10  O1  UNL     1      -0.988  17.157  10.551  1.00  0.00    -0.200 OA
HETATM   11  O2  UNL     1      -0.912  19.411  11.464  1.00  0.00    -0.200 OA
BRANCH   9  12
HETATM   12  C15 UNL     1       1.390  18.236  10.929  1.00  0.00     0.080 A 
HETATM   13  C16 UNL     1       2.266  17.186  11.047  1.00  0.00     0.027 A 
HETATM   14  C17 UNL     1       3.549  17.331  10.562  1.00  0.00     0.033 A 
HETATM   15  C18 UNL     1       4.020  18.481   9.957  1.00  0.00     0.059 A 
HETATM   16  N3  UNL     1       5.189  18.861   9.418  1.00  0.00    -0.300 N 
HETATM   17  C20 UNL     1       3.122  19.526   9.849  1.00  0.00     0.010 A 
HETATM   18  N4  UNL     1       5.078  20.104   8.972  1.00  0.00    -0.311 N 
ATOM     19  H3  UNL     1       6.029  18.285   9.361  1.00  0.00     0.187 HD
HETATM   20  C19 UNL     1       3.833  20.536   9.218  1.00  0.00     0.120 A 
ATOM     21  H4  UNL     1       5.816  20.642   8.517  1.00  0.00     0.186 HD
HETATM   22  C21 UNL     1       1.833  19.391  10.331  1.00  0.00     0.040 A 
ENDBRANCH   9  12
ENDBRANCH   7   9
ENDBRANCH   1   7
BRANCH   6  23
HETATM   23  C7  UNL     1       1.484  19.129  14.440  1.00  0.00    -0.023 A 
HETATM   24  C8  UNL     1       2.531  18.242  14.493  1.00  0.00     0.014 A 
HETATM   25  C9  UNL     1       3.786  18.591  14.011  1.00  0.00     0.031 A 
HETATM   26  C10 UNL     1       4.039  19.835  13.463  1.00  0.00     0.042 A 
HETATM   27  N2  UNL     1       5.134  20.422  12.933  1.00  0.00    -0.365 N 
HETATM   28  C13 UNL     1       2.990  20.726  13.410  1.00  0.00    -0.007 A 
HETATM   29  C11 UNL     1       4.845  21.668  12.532  1.00  0.00     0.089 A 
ATOM     30  H2  UNL     1       6.049  19.980  12.849  1.00  0.00     0.165 HD
HETATM   31  C12 UNL     1       3.514  21.869  12.824  1.00  0.00     0.030 A 
HETATM   32  C14 UNL     1       1.740  20.368  13.893  1.00  0.00     0.026 A 
ENDBRANCH   6  23
TORSDOF 4
ENDMDL
MODEL 5
REMARK VINA RESULT: -6.865230195      2.523      6.097
REMARK  4 active torsions:
REMARK  status: ('A' for Active; 'I' for Inactive)
REMARK    1  A    between atoms: S1_2  and  N1_4 
REMARK    2  A    between atoms: S1_2  and  C15_22 
REMARK    3  A    between atoms: N1_4  and  C1_6 
REMARK    4  A    between atoms: C6_11  and  C7_12 
ROOT
HETATM    1  C1  UNL     1       3.425  18.875  10.206  1.00  0.00     0.053 A 
HETATM    2  C2  UNL     1       4.498  18.539   9.389  1.00  0.00     0.031 A 
HETATM    3  C3  UNL     1       4.361  17.425   8.592  1.00  0.00     0.002 A 
HETATM    4  C4  UNL     1       3.203  16.676   8.605  1.00  0.00     0.001 A 
HETATM    5  C5  UNL     1       2.154  17.028   9.422  1.00  0.00     0.014 A 
HETATM    6  C6  UNL     1       2.250  18.156  10.252  1.00  0.00     0.001 A 
ENDROOT
BRANCH   1   7
HETATM    7  N1  UNL     1       3.546  20.003  11.061  1.00  0.00    -0.280 N 
ATOM      8  H1  UNL     1       3.226  20.901  10.700  1.00  0.00     0.179 HD
BRANCH   7   9
HETATM    9  S1  UNL     1       4.186  19.980  12.652  1.00  0.00     0.263 S 
HETATM   10  O1  UNL     1       4.847  18.619  12.890  1.00  0.00    -0.200 OA
HETATM   11  O2  UNL     1       5.238  21.021  12.898  1.00  0.00    -0.200 OA
BRANCH   9  12
HETATM   12  C15 UNL     1       2.943  20.157  13.874  1.00  0.00     0.080 A 
HETATM   13  C16 UNL     1       2.911  19.290  14.938  1.00  0.00     0.027 A 
HETATM   14  C17 UNL     1       1.929  19.445  15.895  1.00  0.00     0.033 A 
HETATM   15  C18 UNL     1       0.959  20.429  15.853  1.00  0.00     0.059 A 
HETATM   16  N3  UNL     1      -0.072  20.780  16.636  1.00  0.00    -0.300 N 
HETATM   17  C20 UNL     1       1.010  21.291  14.774  1.00  0.00     0.010 A 
HETATM   18  N4  UNL     1      -0.685  21.827  16.104  1.00  0.00    -0.311 N 
ATOM     19  H3  UNL     1      -0.342  20.315  17.503  1.00  0.00     0.187 HD
HETATM   20  C19 UNL     1      -0.051  22.163  14.972  1.00  0.00     0.120 A 
ATOM     21  H4  UNL     1      -1.502  22.300  16.491  1.00  0.00     0.186 HD
HETATM   22  C21 UNL     1       1.990  21.146  13.809  1.00  0.00     0.040 A 
ENDBRANCH   9  12
ENDBRANCH   7   9
ENDBRANCH   1   7
BRANCH   6  23
HETATM   23  C7  UNL     1       1.104  18.518  11.090  1.00  0.00    -0.023 A 
HETATM   24  C8  UNL     1       0.264  19.568  10.815  1.00  0.00     0.014 A 
HETATM   25  C9  UNL     1      -0.809  19.861  11.647  1.00  0.00     0.031 A 
HETATM   26  C10 UNL     1      -1.078  19.119  12.781  1.00  0.00     0.042 A 
HETATM   27  N2  UNL     1      -2.027  19.180  13.740  1.00  0.00    -0.365 N 
HETATM   28  C13 UNL     1      -0.237  18.064  13.060  1.00  0.00    -0.007 A 
HETATM   29  C11 UNL     1      -1.842  18.205  14.641  1.00  0.00     0.089 A 
ATOM     30  H2  UNL     1      -2.778  19.870  13.774  1.00  0.00     0.165 HD
HETATM   31  C12 UNL     1      -0.730  17.504  14.229  1.00  0.00     0.030 A 
HETATM   32  C14 UNL     1       0.832  17.779  12.222  1.00  0.00     0.026 A 
ENDBRANCH   6  23
TORSDOF 4
ENDMDL
