MODEL 1
REMARK VINA RESULT: -7.332983905      0.000      0.000
REMARK  6 active torsions:
REMARK  status: ('A' for Active; 'I' for Inactive)
REMARK    1  A    between atoms: O1_1  and  C1_3 
REMARK    2  A    between atoms: C8_12  and  N2_13 
REMARK    3  A    between atoms: N2_13  and  N3_15 
REMARK    4  A    between atoms: C9_17  and  C10_18 
REMARK    5  A    between atoms: N4_20  and  C12_21 
REMARK    6  A    between atoms: C12_21  and  C13_22 
ROOT
HETATM    1  C10 UNL     1       1.895  17.547  11.278  1.00  0.00     0.007 A 
HETATM    2  C11 UNL     1       1.284  17.531  12.499  1.00  0.00     0.104 A 
HETATM    3  N4  UNL     1      -0.043  17.786  12.678  1.00  0.00    -0.361 N 
HETATM    4  C19 UNL     1      -0.796  18.066  11.621  1.00  0.00     0.103 A 
HETATM    5  C20 UNL     1      -0.259  18.104  10.335  1.00  0.00    -0.009 A 
HETATM    6  C21 UNL     1      -1.058  18.393   9.253  1.00  0.00     0.013 A 
HETATM    7  C22 UNL     1      -0.579  18.440   7.968  1.00  0.00     0.001 A 
HETATM    8  C23 UNL     1       0.757  18.183   7.801  1.00  0.00     0.001 A 
HETATM    9  C24 UNL     1       1.573  17.889   8.890  1.00  0.00     0.013 A 
HETATM   10  C25 UNL     1       1.074  17.846  10.172  1.00  0.00    -0.012 A 
ENDROOT
BRANCH   1  11
HETATM   11  C9  UNL     1       3.291  17.301  11.095  1.00  0.00     0.120 C 
HETATM   12  N3  UNL     1       4.261  17.658  11.787  1.00  0.00    -0.310 N 
ATOM     13  H3  UNL     1       5.131  17.318  11.380  1.00  0.00     0.186 HD
BRANCH  12  14
HETATM   14  N2  UNL     1       4.511  18.353  12.908  1.00  0.00    -0.296 N 
ATOM     15  H2  UNL     1       4.964  17.874  13.685  1.00  0.00     0.187 HD
BRANCH  14  16
HETATM   16  C8  UNL     1       4.176  19.718  13.063  1.00  0.00     0.111 A 
HETATM   17  C1  UNL     1       4.374  20.701  12.086  1.00  0.00     0.170 A 
HETATM   18  N1  UNL     1       3.938  21.867  12.575  1.00  0.00    -0.334 N 
HETATM   19  C2  UNL     1       3.464  21.704  13.822  1.00  0.00     0.046 A 
ATOM     20  H1  UNL     1       3.961  22.754  12.073  1.00  0.00     0.168 HD
HETATM   21  C3  UNL     1       2.917  22.577  14.726  1.00  0.00     0.030 A 
HETATM   22  C7  UNL     1       3.608  20.361  14.135  1.00  0.00     0.023 A 
HETATM   23  C4  UNL     1       2.498  22.148  15.960  1.00  0.00     0.002 A 
HETATM   24  C5  UNL     1       2.647  20.817  16.256  1.00  0.00     0.001 A 
HETATM   25  C6  UNL     1       3.189  19.921  15.376  1.00  0.00     0.016 A 
BRANCH  17  26
HETATM   26  O1  UNL     1       4.928  20.519  10.812  1.00  0.00    -0.344 OA
ATOM     27  H1  UNL     1       5.110  19.677  10.411  1.00  0.00     0.219 HD
ENDBRANCH  17  26
ENDBRANCH  14  16
ENDBRANCH  12  14
ENDBRANCH   1  11
BRANCH   3  28
HETATM   28  C12 UNL     1      -0.579  17.750  14.005  1.00  0.00     0.166 C 
BRANCH  28  29
HETATM   29  C13 UNL     1      -0.698  19.117  14.545  1.00  0.00    -0.040 A 
HETATM   30  C14 UNL     1      -0.968  19.260  15.889  1.00  0.00     0.009 A 
HETATM   31  C15 UNL     1      -1.095  20.518  16.455  1.00  0.00     0.001 A 
HETATM   32  C16 UNL     1      -0.959  21.672  15.714  1.00  0.00     0.000 A 
HETATM   33  C17 UNL     1      -0.689  21.510  14.374  1.00  0.00     0.001 A 
HETATM   34  C18 UNL     1      -0.560  20.254  13.793  1.00  0.00     0.009 A 
ENDBRANCH  28  29
ENDBRANCH   3  28
TORSDOF 6
ENDMDL
MODEL 2
REMARK VINA RESULT: -7.187040829      2.194      4.468
REMARK  6 active torsions:
REMARK  status: ('A' for Active; 'I' for Inactive)
REMARK    1  A    between atoms: O1_1  and  C1_3 
REMARK    2  A    between atoms: C8_12  and  N2_13 
REMARK    3  A    between atoms: N2_13  and  N3_15 
REMARK    4  A    between atoms: C9_17  and  C10_18 
REMARK    5  A    between atoms: N4_20  and  C12_21 
REMARK    6  A    between atoms: C12_21  and  C13_22 
ROOT
HETATM    1  C10 UNL     1      -0.152  17.875  10.532  1.00  0.00     0.007 A 
HETATM    2  C11 UNL     1       1.127  17.661  10.960  1.00  0.00     0.104 A 
HETATM    3  N4  UNL     1       2.204  17.645  10.126  1.00  0.00    -0.361 N 
HETATM    4  C19 UNL     1       2.021  17.847   8.827  1.00  0.00     0.103 A 
HETATM    5  C20 UNL     1       0.750  18.074   8.299  1.00  0.00    -0.009 A 
HETATM    6  C21 UNL     1       0.583  18.284   6.951  1.00  0.00     0.013 A 
HETATM    7  C22 UNL     1      -0.645  18.514   6.382  1.00  0.00     0.001 A 
HETATM    8  C23 UNL     1      -1.721  18.527   7.230  1.00  0.00     0.001 A 
HETATM    9  C24 UNL     1      -1.560  18.316   8.597  1.00  0.00     0.013 A 
HETATM   10  C25 UNL     1      -0.321  18.087   9.149  1.00  0.00    -0.012 A 
ENDROOT
BRANCH   1  11
HETATM   11  C9  UNL     1      -1.284  17.869  11.404  1.00  0.00     0.120 C 
HETATM   12  N3  UNL     1      -1.576  18.638  12.337  1.00  0.00    -0.310 N 
ATOM     13  H3  UNL     1      -2.457  18.357  12.765  1.00  0.00     0.186 HD
BRANCH  12  14
HETATM   14  N2  UNL     1      -1.084  19.725  12.952  1.00  0.00    -0.296 N 
ATOM     15  H2  UNL     1      -1.392  20.643  12.634  1.00  0.00     0.187 HD
BRANCH  14  16
HETATM   16  C8  UNL     1      -0.158  19.659  14.019  1.00  0.00     0.111 A 
HETATM   17  C1  UNL     1       0.031  18.539  14.838  1.00  0.00     0.170 A 
HETATM   18  N1  UNL     1       0.984  18.834  15.730  1.00  0.00    -0.334 N 
HETATM   19  C2  UNL     1       1.430  20.088  15.542  1.00  0.00     0.046 A 
ATOM     20  H1  UNL     1       1.323  18.197  16.451  1.00  0.00     0.168 HD
HETATM   21  C3  UNL     1       2.381  20.838  16.184  1.00  0.00     0.030 A 
HETATM   22  C7  UNL     1       0.721  20.611  14.472  1.00  0.00     0.023 A 
HETATM   23  C4  UNL     1       2.657  22.121  15.786  1.00  0.00     0.002 A 
HETATM   24  C5  UNL     1       1.948  22.626  14.726  1.00  0.00     0.001 A 
HETATM   25  C6  UNL     1       0.992  21.903  14.065  1.00  0.00     0.016 A 
BRANCH  17  26
HETATM   26  O1  UNL     1      -0.643  17.314  14.756  1.00  0.00    -0.344 OA
ATOM     27  H1  UNL     1      -1.345  17.117  14.145  1.00  0.00     0.219 HD
ENDBRANCH  17  26
ENDBRANCH  14  16
ENDBRANCH  12  14
ENDBRANCH   1  11
BRANCH   3  28
HETATM   28  C12 UNL     1       3.503  17.405  10.682  1.00  0.00     0.166 C 
BRANCH  28  29
HETATM   29  C13 UNL     1       3.923  18.550  11.510  1.00  0.00    -0.040 A 
HETATM   30  C14 UNL     1       4.084  19.771  10.891  1.00  0.00     0.009 A 
HETATM   31  C15 UNL     1       4.481  20.884  11.614  1.00  0.00     0.001 A 
HETATM   32  C16 UNL     1       4.729  20.827  12.968  1.00  0.00     0.000 A 
HETATM   33  C17 UNL     1       4.563  19.600  13.570  1.00  0.00     0.001 A 
HETATM   34  C18 UNL     1       4.166  18.475  12.857  1.00  0.00     0.009 A 
ENDBRANCH  28  29
ENDBRANCH   3  28
TORSDOF 6
ENDMDL
MODEL 3
REMARK VINA RESULT: -7.184029615      2.154      4.504
REMARK  6 active torsions:
REMARK  status: ('A' for Active; 'I' for Inactive)
REMARK    1  A    between atoms: O1_1  and  C1_3 
REMARK    2  A    between atoms: C8_12  and  N2_13 
REMARK    3  A    between atoms: N2_13  and  N3_15 
REMARK    4  A    between atoms: C9_17  and  C10_18 
REMARK    5  A    between atoms: N4_20  and  C12_21 
REMARK    6  A    between atoms: C12_21  and  C13_22 
ROOT
HETATM    1  C10 UNL     1       1.479  17.518  11.726  1.00  0.00     0.007 A 
HETATM    2  C11 UNL     1       1.854  17.848  12.997  1.00  0.00     0.104 A 
HETATM    3  N4  UNL     1       3.065  18.391  13.306  1.00  0.00    -0.361 N 
HETATM    4  C19 UNL     1       3.939  18.618  12.332  1.00  0.00     0.103 A 
HETATM    5  C20 UNL     1       3.644  18.313  11.005  1.00  0.00    -0.009 A 
HETATM    6  C21 UNL     1       4.563  18.559  10.012  1.00  0.00     0.013 A 
HETATM    7  C22 UNL     1       4.321  18.280   8.690  1.00  0.00     0.001 A 
HETATM    8  C23 UNL     1       3.100  17.735   8.391  1.00  0.00     0.001 A 
HETATM    9  C24 UNL     1       2.164  17.483   9.391  1.00  0.00     0.013 A 
HETATM   10  C25 UNL     1       2.424  17.769  10.711  1.00  0.00    -0.012 A 
ENDROOT
BRANCH   1  11
HETATM   11  C9  UNL     1       0.217  16.929  11.407  1.00  0.00     0.120 C 
HETATM   12  N3  UNL     1      -0.934  17.340  11.633  1.00  0.00    -0.310 N 
ATOM     13  H3  UNL     1      -1.623  16.678  11.275  1.00  0.00     0.186 HD
BRANCH  12  14
HETATM   14  N2  UNL     1      -1.547  18.388  12.204  1.00  0.00    -0.296 N 
ATOM     15  H2  UNL     1      -2.211  18.925  11.646  1.00  0.00     0.187 HD
BRANCH  14  16
HETATM   16  C8  UNL     1      -1.317  18.786  13.541  1.00  0.00     0.111 A 
HETATM   17  C1  UNL     1      -1.207  17.905  14.624  1.00  0.00     0.170 A 
HETATM   18  N1  UNL     1      -0.986  18.629  15.727  1.00  0.00    -0.334 N 
HETATM   19  C2  UNL     1      -0.947  19.939  15.427  1.00  0.00     0.046 A 
ATOM     20  H1  UNL     1      -0.865  18.242  16.663  1.00  0.00     0.168 HD
HETATM   21  C3  UNL     1      -0.751  21.059  16.195  1.00  0.00     0.030 A 
HETATM   22  C7  UNL     1      -1.152  20.046  14.061  1.00  0.00     0.023 A 
HETATM   23  C4  UNL     1      -0.752  22.310  15.633  1.00  0.00     0.002 A 
HETATM   24  C5  UNL     1      -0.957  22.400  14.280  1.00  0.00     0.001 A 
HETATM   25  C6  UNL     1      -1.155  21.302  13.487  1.00  0.00     0.016 A 
BRANCH  17  26
HETATM   26  O1  UNL     1      -1.304  16.508  14.584  1.00  0.00    -0.344 OA
ATOM     27  H1  UNL     1      -1.964  16.020  14.105  1.00  0.00     0.219 HD
ENDBRANCH  17  26
ENDBRANCH  14  16
ENDBRANCH  12  14
ENDBRANCH   1  11
BRANCH   3  28
HETATM   28  C12 UNL     1       3.357  18.693  14.675  1.00  0.00     0.166 C 
BRANCH  28  29
HETATM   29  C13 UNL     1       3.120  20.124  14.943  1.00  0.00    -0.040 A 
HETATM   30  C14 UNL     1       3.007  20.525  16.257  1.00  0.00     0.009 A 
HETATM   31  C15 UNL     1       2.781  21.854  16.574  1.00  0.00     0.001 A 
HETATM   32  C16 UNL     1       2.661  22.828  15.605  1.00  0.00     0.000 A 
HETATM   33  C17 UNL     1       2.776  22.409  14.298  1.00  0.00     0.001 A 
HETATM   34  C18 UNL     1       3.002  21.078  13.967  1.00  0.00     0.009 A 
ENDBRANCH  28  29
ENDBRANCH   3  28
TORSDOF 6
ENDMDL
MODEL 4
REMARK VINA RESULT: -7.160974277      2.183      4.499
REMARK  6 active torsions:
REMARK  status: ('A' for Active; 'I' for Inactive)
REMARK    1  A    between atoms: O1_1  and  C1_3 
REMARK    2  A    between atoms: C8_12  and  N2_13 
REMARK    3  A    between atoms: N2_13  and  N3_15 
REMARK    4  A    between atoms: C9_17  and  C10_18 
REMARK    5  A    between atoms: N4_20  and  C12_21 
REMARK    6  A    between atoms: C12_21  and  C13_22 
ROOT
HETATM    1  C10 UNL     1       1.220  18.116  11.802  1.00  0.00     0.007 A 
HETATM    2  C11 UNL     1       2.180  18.537  12.677  1.00  0.00     0.104 A 
HETATM    3  N4  UNL     1       3.405  18.989  12.287  1.00  0.00    -0.361 N 
HETATM    4  C19 UNL     1       3.698  19.029  10.993  1.00  0.00     0.103 A 
HETATM    5  C20 UNL     1       2.780  18.619  10.027  1.00  0.00    -0.009 A 
HETATM    6  C21 UNL     1       3.103  18.673   8.691  1.00  0.00     0.013 A 
HETATM    7  C22 UNL     1       2.235  18.284   7.701  1.00  0.00     0.001 A 
HETATM    8  C23 UNL     1       1.007  17.831   8.105  1.00  0.00     0.001 A 
HETATM    9  C24 UNL     1       0.671  17.775   9.456  1.00  0.00     0.013 A 
HETATM   10  C25 UNL     1       1.555  18.169  10.434  1.00  0.00    -0.012 A 
ENDROOT
BRANCH   1  11
HETATM   11  C9  UNL     1      -0.056  17.621  12.214  1.00  0.00     0.120 C 
HETATM   12  N3  UNL     1      -0.560  17.565  13.349  1.00  0.00    -0.310 N 
ATOM     13  H3  UNL     1      -1.491  17.153  13.303  1.00  0.00     0.186 HD
BRANCH  12  14
HETATM   14  N2  UNL     1      -0.253  17.882  14.616  1.00  0.00    -0.296 N 
ATOM     15  H2  UNL     1       0.237  17.191  15.184  1.00  0.00     0.187 HD
BRANCH  14  16
HETATM   16  C8  UNL     1      -0.576  19.127  15.204  1.00  0.00     0.111 A 
HETATM   17  C1  UNL     1      -0.941  19.301  16.545  1.00  0.00     0.170 A 
HETATM   18  N1  UNL     1      -1.168  20.604  16.747  1.00  0.00    -0.334 N 
HETATM   19  C2  UNL     1      -0.973  21.295  15.610  1.00  0.00     0.046 A 
ATOM     20  H1  UNL     1      -1.449  21.015  17.637  1.00  0.00     0.168 HD
HETATM   21  C3  UNL     1      -1.075  22.629  15.309  1.00  0.00     0.030 A 
HETATM   22  C7  UNL     1      -0.602  20.378  14.640  1.00  0.00     0.023 A 
HETATM   23  C4  UNL     1      -0.812  23.091  14.044  1.00  0.00     0.002 A 
HETATM   24  C5  UNL     1      -0.446  22.171  13.094  1.00  0.00     0.001 A 
HETATM   25  C6  UNL     1      -0.336  20.834  13.364  1.00  0.00     0.016 A 
BRANCH  17  26
HETATM   26  O1  UNL     1      -1.053  18.304  17.522  1.00  0.00    -0.344 OA
ATOM     27  H1  UNL     1      -0.426  17.603  17.660  1.00  0.00     0.219 HD
ENDBRANCH  17  26
ENDBRANCH  14  16
ENDBRANCH  12  14
ENDBRANCH   1  11
BRANCH   3  28
HETATM   28  C12 UNL     1       4.340  19.400  13.291  1.00  0.00     0.166 C 
BRANCH  28  29
HETATM   29  C13 UNL     1       3.704  20.352  14.222  1.00  0.00    -0.040 A 
HETATM   30  C14 UNL     1       3.484  21.638  13.779  1.00  0.00     0.009 A 
HETATM   31  C15 UNL     1       2.893  22.579  14.607  1.00  0.00     0.001 A 
HETATM   32  C16 UNL     1       2.501  22.280  15.894  1.00  0.00     0.000 A 
HETATM   33  C17 UNL     1       2.729  20.990  16.319  1.00  0.00     0.001 A 
HETATM   34  C18 UNL     1       3.321  20.036  15.499  1.00  0.00     0.009 A 
ENDBRANCH  28  29
ENDBRANCH   3  28
TORSDOF 6
ENDMDL
MODEL 5
REMARK VINA RESULT: -7.141363541      2.344      4.379
REMARK  6 active torsions:
REMARK  status: ('A' for Active; 'I' for Inactive)
REMARK    1  A    between atoms: O1_1  and  C1_3 
REMARK    2  A    between atoms: C8_12  and  N2_13 
REMARK    3  A    between atoms: N2_13  and  N3_15 
REMARK    4  A    between atoms: C9_17  and  C10_18 
REMARK    5  A    between atoms: N4_20  and  C12_21 
REMARK    6  A    between atoms: C12_21  and  C13_22 
ROOT
HETATM    1  C10 UNL     1      -0.498  18.061  11.834  1.00  0.00     0.007 A 
HETATM    2  C11 UNL     1       0.796  18.257  12.224  1.00  0.00     0.104 A 
HETATM    3  N4  UNL     1       1.802  18.567  11.358  1.00  0.00    -0.361 N 
HETATM    4  C19 UNL     1       1.528  18.690  10.065  1.00  0.00     0.103 A 
HETATM    5  C20 UNL     1       0.235  18.508   9.575  1.00  0.00    -0.009 A 
HETATM    6  C21 UNL     1      -0.027  18.643   8.232  1.00  0.00     0.013 A 
HETATM    7  C22 UNL     1      -1.281  18.478   7.700  1.00  0.00     0.001 A 
HETATM    8  C23 UNL     1      -2.285  18.166   8.580  1.00  0.00     0.001 A 
HETATM    9  C24 UNL     1      -2.028  18.027   9.941  1.00  0.00     0.013 A 
HETATM   10  C25 UNL     1      -0.763  18.197  10.457  1.00  0.00    -0.012 A 
ENDROOT
BRANCH   1  11
HETATM   11  C9  UNL     1      -1.547  17.713  12.740  1.00  0.00     0.120 C 
HETATM   12  N3  UNL     1      -1.537  17.640  13.981  1.00  0.00    -0.310 N 
ATOM     13  H3  UNL     1      -2.455  17.362  14.327  1.00  0.00     0.186 HD
BRANCH  12  14
HETATM   14  N2  UNL     1      -0.687  17.816  15.004  1.00  0.00    -0.296 N 
ATOM     15  H2  UNL     1      -0.244  16.994  15.413  1.00  0.00     0.187 HD
BRANCH  14  16
HETATM   16  C8  UNL     1      -0.375  19.086  15.543  1.00  0.00     0.111 A 
HETATM   17  C1  UNL     1      -1.325  20.034  15.944  1.00  0.00     0.170 A 
HETATM   18  N1  UNL     1      -0.672  21.106  16.405  1.00  0.00    -0.334 N 
HETATM   19  C2  UNL     1       0.656  20.915  16.329  1.00  0.00     0.046 A 
ATOM     20  H1  UNL     1      -1.119  21.949  16.765  1.00  0.00     0.168 HD
HETATM   21  C3  UNL     1       1.726  21.702  16.672  1.00  0.00     0.030 A 
HETATM   22  C7  UNL     1       0.851  19.653  15.791  1.00  0.00     0.023 A 
HETATM   23  C4  UNL     1       3.013  21.261  16.493  1.00  0.00     0.002 A 
HETATM   24  C5  UNL     1       3.190  20.010  15.959  1.00  0.00     0.001 A 
HETATM   25  C6  UNL     1       2.143  19.202  15.607  1.00  0.00     0.016 A 
BRANCH  17  26
HETATM   26  O1  UNL     1      -2.719  19.904  15.884  1.00  0.00    -0.344 OA
ATOM     27  H1  UNL     1      -3.332  20.626  15.813  1.00  0.00     0.219 HD
ENDBRANCH  17  26
ENDBRANCH  14  16
ENDBRANCH  12  14
ENDBRANCH   1  11
BRANCH   3  28
HETATM   28  C12 UNL     1       3.126  18.744  11.875  1.00  0.00     0.166 C 
BRANCH  28  29
HETATM   29  C13 UNL     1       3.336  20.151  12.266  1.00  0.00    -0.040 A 
HETATM   30  C14 UNL     1       4.633  20.587  12.435  1.00  0.00     0.009 A 
HETATM   31  C15 UNL     1       4.896  21.896  12.805  1.00  0.00     0.001 A 
HETATM   32  C16 UNL     1       3.890  22.813  13.018  1.00  0.00     0.000 A 
HETATM   33  C17 UNL     1       2.601  22.360  12.845  1.00  0.00     0.001 A 
HETATM   34  C18 UNL     1       2.323  21.049  12.474  1.00  0.00     0.009 A 
ENDBRANCH  28  29
ENDBRANCH   3  28
TORSDOF 6
ENDMDL
