MODEL 1
REMARK VINA RESULT: -8.082341364      0.000      0.000
REMARK  5 active torsions:
REMARK  status: ('A' for Active; 'I' for Inactive)
REMARK    1  A    between atoms: N1_1  and  C1_4 
REMARK    2  A    between atoms: C6_9  and  C7_10 
REMARK    3  A    between atoms: N2_12  and  C9_13 
REMARK    4  A    between atoms: C9_13  and  C10_14 
REMARK    5  A    between atoms: C15_19  and  C16_20 
ROOT
HETATM    1  C7  UNL     1       4.211  18.040   9.939  1.00  0.00     0.062 A 
HETATM    2  C8  UNL     1       5.315  18.100   9.079  1.00  0.00     0.126 A 
HETATM    3  N2  UNL     1       5.143  17.176   8.127  1.00  0.00    -0.303 N 
HETATM    4  C22 UNL     1       3.973  16.542   8.361  1.00  0.00     0.327 A 
HETATM    5  O1  UNL     1       3.524  15.628   7.653  1.00  0.00    -0.246 OA
HETATM    6  N3  UNL     1       3.411  17.068   9.459  1.00  0.00    -0.306 N 
ATOM      7  H3  UNL     1       2.521  16.779   9.866  1.00  0.00     0.171 HD
ENDROOT
BRANCH   1   8
HETATM    8  C6  UNL     1       3.982  18.868  11.117  1.00  0.00    -0.007 A 
HETATM    9  C5  UNL     1       3.463  18.321  12.269  1.00  0.00     0.027 A 
HETATM   10  C4  UNL     1       3.242  19.103  13.392  1.00  0.00    -0.008 A 
HETATM   11  C3  UNL     1       2.718  18.496  14.523  1.00  0.00     0.017 A 
HETATM   12  C25 UNL     1       3.538  20.451  13.382  1.00  0.00     0.044 A 
HETATM   13  C2  UNL     1       2.510  19.304  15.626  1.00  0.00     0.049 A 
HETATM   14  C1  UNL     1       2.814  20.655  15.592  1.00  0.00     0.099 A 
HETATM   15  N4  UNL     1       3.315  21.208  14.495  1.00  0.00    -0.342 N 
ATOM     16  H4  UNL     1       3.534  22.204  14.484  1.00  0.00     0.167 HD
HETATM   17  C24 UNL     1       4.059  21.005  12.227  1.00  0.00     0.031 A 
HETATM   18  C23 UNL     1       4.272  20.195  11.111  1.00  0.00     0.016 A 
BRANCH  14  19
HETATM   19  N1  UNL     1       2.586  21.340  16.675  1.00  0.00    -0.385 N 
ATOM     20  H12 UNL     1       2.102  20.942  17.480  1.00  0.00     0.157 HD
ATOM     21  H11 UNL     1       2.914  22.306  16.691  1.00  0.00     0.157 HD
ENDBRANCH  14  19
ENDBRANCH   1   8
BRANCH   3  22
HETATM   22  C9  UNL     1       6.005  16.893   7.026  1.00  0.00     0.172 C 
BRANCH  22  23
HETATM   23  C10 UNL     1       7.068  15.926   7.238  1.00  0.00    -0.029 A 
HETATM   24  C11 UNL     1       6.694  14.585   7.365  1.00  0.00     0.010 A 
HETATM   25  C12 UNL     1       7.595  13.600   7.618  1.00  0.00     0.001 A 
HETATM   26  C13 UNL     1       8.940  13.907   7.759  1.00  0.00     0.001 A 
HETATM   27  C14 UNL     1       9.304  15.220   7.632  1.00  0.00     0.013 A 
HETATM   28  C15 UNL     1       8.383  16.257   7.369  1.00  0.00    -0.018 A 
BRANCH  28  29
HETATM   29  C16 UNL     1       8.948  17.605   7.208  1.00  0.00    -0.025 A 
HETATM   30  C17 UNL     1       9.139  18.242   6.012  1.00  0.00     0.012 A 
HETATM   31  C18 UNL     1       9.671  19.514   5.914  1.00  0.00     0.001 A 
HETATM   32  C19 UNL     1      10.031  20.189   7.056  1.00  0.00     0.000 A 
HETATM   33  C20 UNL     1       9.857  19.588   8.286  1.00  0.00     0.001 A 
HETATM   34  C21 UNL     1       9.319  18.303   8.355  1.00  0.00     0.012 A 
ENDBRANCH  28  29
ENDBRANCH  22  23
ENDBRANCH   3  22
TORSDOF 5
ENDMDL
MODEL 2
REMARK VINA RESULT: -7.958180853      1.618      1.918
REMARK  5 active torsions:
REMARK  status: ('A' for Active; 'I' for Inactive)
REMARK    1  A    between atoms: N1_1  and  C1_4 
REMARK    2  A    between atoms: C6_9  and  C7_10 
REMARK    3  A    between atoms: N2_12  and  C9_13 
REMARK    4  A    between atoms: C9_13  and  C10_14 
REMARK    5  A    between atoms: C15_19  and  C16_20 
ROOT
HETATM    1  C7  UNL     1       3.599  17.026   9.697  1.00  0.00     0.062 A 
HETATM    2  C8  UNL     1       4.879  17.311   9.202  1.00  0.00     0.126 A 
HETATM    3  N2  UNL     1       4.961  16.808   7.965  1.00  0.00    -0.303 N 
HETATM    4  C22 UNL     1       3.780  16.221   7.670  1.00  0.00     0.327 A 
HETATM    5  O1  UNL     1       3.533  15.660   6.591  1.00  0.00    -0.246 OA
HETATM    6  N3  UNL     1       2.958  16.355   8.721  1.00  0.00    -0.306 N 
ATOM      7  H3  UNL     1       2.000  16.006   8.772  1.00  0.00     0.171 HD
ENDROOT
BRANCH   1   8
HETATM    8  C6  UNL     1       3.075  17.388  11.008  1.00  0.00    -0.007 A 
HETATM    9  C5  UNL     1       1.717  17.439  11.231  1.00  0.00     0.027 A 
HETATM   10  C4  UNL     1       1.212  17.782  12.475  1.00  0.00    -0.008 A 
HETATM   11  C3  UNL     1      -0.164  17.817  12.640  1.00  0.00     0.017 A 
HETATM   12  C25 UNL     1       2.061  18.081  13.523  1.00  0.00     0.044 A 
HETATM   13  C2  UNL     1      -0.635  18.163  13.893  1.00  0.00     0.049 A 
HETATM   14  C1  UNL     1       0.236  18.459  14.929  1.00  0.00     0.099 A 
HETATM   15  N4  UNL     1       1.549  18.418  14.742  1.00  0.00    -0.342 N 
ATOM     16  H4  UNL     1       2.178  18.639  15.513  1.00  0.00     0.167 HD
HETATM   17  C24 UNL     1       3.424  18.031  13.303  1.00  0.00     0.031 A 
HETATM   18  C23 UNL     1       3.907  17.682  12.041  1.00  0.00     0.016 A 
BRANCH  14  19
HETATM   19  N1  UNL     1      -0.294  18.775  16.075  1.00  0.00    -0.385 N 
ATOM     20  H12 UNL     1      -0.021  18.318  16.946  1.00  0.00     0.157 HD
ATOM     21  H11 UNL     1      -1.003  19.508  16.072  1.00  0.00     0.157 HD
ENDBRANCH  14  19
ENDBRANCH   1   8
BRANCH   3  22
HETATM   22  C9  UNL     1       6.069  16.879   7.071  1.00  0.00     0.172 C 
BRANCH  22  23
HETATM   23  C10 UNL     1       7.150  15.928   7.267  1.00  0.00    -0.029 A 
HETATM   24  C11 UNL     1       6.798  14.581   7.400  1.00  0.00     0.010 A 
HETATM   25  C12 UNL     1       7.717  13.610   7.638  1.00  0.00     0.001 A 
HETATM   26  C13 UNL     1       9.060  13.938   7.758  1.00  0.00     0.001 A 
HETATM   27  C14 UNL     1       9.402  15.256   7.626  1.00  0.00     0.013 A 
HETATM   28  C15 UNL     1       8.462  16.278   7.377  1.00  0.00    -0.018 A 
BRANCH  28  29
HETATM   29  C16 UNL     1       9.004  17.635   7.208  1.00  0.00    -0.025 A 
HETATM   30  C17 UNL     1       9.103  18.301   6.016  1.00  0.00     0.012 A 
HETATM   31  C18 UNL     1       9.617  19.580   5.910  1.00  0.00     0.001 A 
HETATM   32  C19 UNL     1      10.055  20.231   7.038  1.00  0.00     0.000 A 
HETATM   33  C20 UNL     1       9.976  19.601   8.262  1.00  0.00     0.001 A 
HETATM   34  C21 UNL     1       9.453  18.310   8.340  1.00  0.00     0.012 A 
ENDBRANCH  28  29
ENDBRANCH  22  23
ENDBRANCH   3  22
TORSDOF 5
ENDMDL
MODEL 3
REMARK VINA RESULT: -7.936454212      1.990      3.565
REMARK  5 active torsions:
REMARK  status: ('A' for Active; 'I' for Inactive)
REMARK    1  A    between atoms: N1_1  and  C1_4 
REMARK    2  A    between atoms: C6_9  and  C7_10 
REMARK    3  A    between atoms: N2_12  and  C9_13 
REMARK    4  A    between atoms: C9_13  and  C10_14 
REMARK    5  A    between atoms: C15_19  and  C16_20 
ROOT
HETATM    1  C7  UNL     1       3.853  17.355   9.888  1.00  0.00     0.062 A 
HETATM    2  C8  UNL     1       4.793  18.192   9.273  1.00  0.00     0.126 A 
HETATM    3  N2  UNL     1       5.170  17.611   8.128  1.00  0.00    -0.303 N 
HETATM    4  C22 UNL     1       4.500  16.444   8.008  1.00  0.00     0.327 A 
HETATM    5  O1  UNL     1       4.627  15.665   7.050  1.00  0.00    -0.246 OA
HETATM    6  N3  UNL     1       3.703  16.292   9.075  1.00  0.00    -0.306 N 
ATOM      7  H3  UNL     1       3.083  15.499   9.244  1.00  0.00     0.171 HD
ENDROOT
BRANCH   1   8
HETATM    8  C6  UNL     1       3.176  17.595  11.157  1.00  0.00    -0.007 A 
HETATM    9  C5  UNL     1       1.802  17.563  11.237  1.00  0.00     0.027 A 
HETATM   10  C4  UNL     1       1.152  17.791  12.440  1.00  0.00    -0.008 A 
HETATM   11  C3  UNL     1      -0.234  17.745  12.458  1.00  0.00     0.017 A 
HETATM   12  C25 UNL     1       1.869  18.055  13.590  1.00  0.00     0.044 A 
HETATM   13  C2  UNL     1      -0.850  17.977  13.674  1.00  0.00     0.049 A 
HETATM   14  C1  UNL     1      -0.110  18.240  14.814  1.00  0.00     0.099 A 
HETATM   15  N4  UNL     1       1.216  18.277  14.766  1.00  0.00    -0.342 N 
ATOM     16  H4  UNL     1       1.749  18.473  15.613  1.00  0.00     0.167 HD
HETATM   17  C24 UNL     1       3.249  18.088  13.514  1.00  0.00     0.031 A 
HETATM   18  C23 UNL     1       3.878  17.855  12.291  1.00  0.00     0.016 A 
BRANCH  14  19
HETATM   19  N1  UNL     1      -0.772  18.446  15.915  1.00  0.00    -0.385 N 
ATOM     20  H12 UNL     1      -1.451  17.776  16.277  1.00  0.00     0.157 HD
ATOM     21  H11 UNL     1      -0.584  19.316  16.414  1.00  0.00     0.157 HD
ENDBRANCH  14  19
ENDBRANCH   1   8
BRANCH   3  22
HETATM   22  C9  UNL     1       6.094  18.112   7.164  1.00  0.00     0.172 C 
BRANCH  22  23
HETATM   23  C10 UNL     1       7.506  18.069   7.503  1.00  0.00    -0.029 A 
HETATM   24  C11 UNL     1       8.030  19.169   8.189  1.00  0.00     0.010 A 
HETATM   25  C12 UNL     1       9.346  19.264   8.512  1.00  0.00     0.001 A 
HETATM   26  C13 UNL     1      10.223  18.247   8.163  1.00  0.00     0.001 A 
HETATM   27  C14 UNL     1       9.707  17.171   7.493  1.00  0.00     0.013 A 
HETATM   28  C15 UNL     1       8.343  17.055   7.150  1.00  0.00    -0.018 A 
BRANCH  28  29
HETATM   29  C16 UNL     1       7.944  15.808   6.480  1.00  0.00    -0.025 A 
HETATM   30  C17 UNL     1       7.698  15.677   5.140  1.00  0.00     0.012 A 
HETATM   31  C18 UNL     1       7.329  14.479   4.556  1.00  0.00     0.001 A 
HETATM   32  C19 UNL     1       7.197  13.357   5.337  1.00  0.00     0.000 A 
HETATM   33  C20 UNL     1       7.434  13.438   6.694  1.00  0.00     0.001 A 
HETATM   34  C21 UNL     1       7.805  14.660   7.256  1.00  0.00     0.012 A 
ENDBRANCH  28  29
ENDBRANCH  22  23
ENDBRANCH   3  22
TORSDOF 5
ENDMDL
MODEL 4
REMARK VINA RESULT: -7.837652367      2.415      3.012
REMARK  5 active torsions:
REMARK  status: ('A' for Active; 'I' for Inactive)
REMARK    1  A    between atoms: N1_1  and  C1_4 
REMARK    2  A    between atoms: C6_9  and  C7_10 
REMARK    3  A    between atoms: N2_12  and  C9_13 
REMARK    4  A    between atoms: C9_13  and  C10_14 
REMARK    5  A    between atoms: C15_19  and  C16_20 
ROOT
HETATM    1  C7  UNL     1       5.069  17.977   9.121  1.00  0.00     0.062 A 
HETATM    2  C8  UNL     1       5.107  17.471   7.815  1.00  0.00     0.126 A 
HETATM    3  N2  UNL     1       6.304  17.766   7.296  1.00  0.00    -0.303 N 
HETATM    4  C22 UNL     1       7.014  18.437   8.230  1.00  0.00     0.327 A 
HETATM    5  O1  UNL     1       8.171  18.852   8.058  1.00  0.00    -0.246 OA
HETATM    6  N3  UNL     1       6.264  18.562   9.334  1.00  0.00    -0.306 N 
ATOM      7  H3  UNL     1       6.551  19.026  10.196  1.00  0.00     0.171 HD
ENDROOT
BRANCH   1   8
HETATM    8  C6  UNL     1       3.955  17.884  10.056  1.00  0.00    -0.007 A 
HETATM    9  C5  UNL     1       4.102  18.284  11.365  1.00  0.00     0.027 A 
HETATM   10  C4  UNL     1       3.047  18.199  12.260  1.00  0.00    -0.008 A 
HETATM   11  C3  UNL     1       3.255  18.617  13.565  1.00  0.00     0.017 A 
HETATM   12  C25 UNL     1       1.820  17.709  11.858  1.00  0.00     0.044 A 
HETATM   13  C2  UNL     1       2.182  18.518  14.431  1.00  0.00     0.049 A 
HETATM   14  C1  UNL     1       0.961  18.023  14.006  1.00  0.00     0.099 A 
HETATM   15  N4  UNL     1       0.791  17.630  12.750  1.00  0.00    -0.342 N 
ATOM     16  H4  UNL     1      -0.113  17.266  12.450  1.00  0.00     0.167 HD
HETATM   17  C24 UNL     1       1.668  17.305  10.545  1.00  0.00     0.031 A 
HETATM   18  C23 UNL     1       2.746  17.403   9.664  1.00  0.00     0.016 A 
BRANCH  14  19
HETATM   19  N1  UNL     1       0.006  17.965  14.888  1.00  0.00    -0.385 N 
ATOM     20  H12 UNL     1       0.184  18.043  15.890  1.00  0.00     0.157 HD
ATOM     21  H11 UNL     1      -0.943  17.836  14.538  1.00  0.00     0.157 HD
ENDBRANCH  14  19
ENDBRANCH   1   8
BRANCH   3  22
HETATM   22  C9  UNL     1       6.795  17.429   6.000  1.00  0.00     0.172 C 
BRANCH  22  23
HETATM   23  C10 UNL     1       6.965  16.019   5.693  1.00  0.00    -0.029 A 
HETATM   24  C11 UNL     1       5.939  15.394   4.980  1.00  0.00     0.010 A 
HETATM   25  C12 UNL     1       5.963  14.069   4.681  1.00  0.00     0.001 A 
HETATM   26  C13 UNL     1       7.034  13.285   5.086  1.00  0.00     0.001 A 
HETATM   27  C14 UNL     1       8.038  13.900   5.783  1.00  0.00     0.013 A 
HETATM   28  C15 UNL     1       8.031  15.275   6.101  1.00  0.00    -0.018 A 
BRANCH  28  29
HETATM   29  C16 UNL     1       9.214  15.787   6.807  1.00  0.00    -0.025 A 
HETATM   30  C17 UNL     1      10.209  16.536   6.238  1.00  0.00     0.012 A 
HETATM   31  C18 UNL     1      11.302  16.998   6.948  1.00  0.00     0.001 A 
HETATM   32  C19 UNL     1      11.416  16.705   8.285  1.00  0.00     0.000 A 
HETATM   33  C20 UNL     1      10.439  15.953   8.903  1.00  0.00     0.001 A 
HETATM   34  C21 UNL     1       9.347  15.499   8.163  1.00  0.00     0.012 A 
ENDBRANCH  28  29
ENDBRANCH  22  23
ENDBRANCH   3  22
TORSDOF 5
ENDMDL
MODEL 5
REMARK VINA RESULT: -7.835565999      1.575      2.161
REMARK  5 active torsions:
REMARK  status: ('A' for Active; 'I' for Inactive)
REMARK    1  A    between atoms: N1_1  and  C1_4 
REMARK    2  A    between atoms: C6_9  and  C7_10 
REMARK    3  A    between atoms: N2_12  and  C9_13 
REMARK    4  A    between atoms: C9_13  and  C10_14 
REMARK    5  A    between atoms: C15_19  and  C16_20 
ROOT
HETATM    1  C7  UNL     1       3.347  16.999   8.955  1.00  0.00     0.062 A 
HETATM    2  C8  UNL     1       4.704  17.247   8.712  1.00  0.00     0.126 A 
HETATM    3  N2  UNL     1       4.985  16.815   7.477  1.00  0.00    -0.303 N 
HETATM    4  C22 UNL     1       3.853  16.308   6.941  1.00  0.00     0.327 A 
HETATM    5  O1  UNL     1       3.779  15.825   5.801  1.00  0.00    -0.246 OA
HETATM    6  N3  UNL     1       2.863  16.421   7.839  1.00  0.00    -0.306 N 
ATOM      7  H3  UNL     1       1.898  16.118   7.699  1.00  0.00     0.171 HD
ENDROOT
BRANCH   1   8
HETATM    8  C6  UNL     1       2.613  17.308  10.176  1.00  0.00    -0.007 A 
HETATM    9  C5  UNL     1       3.281  17.660  11.327  1.00  0.00     0.027 A 
HETATM   10  C4  UNL     1       2.590  17.955  12.491  1.00  0.00    -0.008 A 
HETATM   11  C3  UNL     1       3.317  18.303  13.619  1.00  0.00     0.017 A 
HETATM   12  C25 UNL     1       1.210  17.904  12.524  1.00  0.00     0.044 A 
HETATM   13  C2  UNL     1       2.597  18.591  14.763  1.00  0.00     0.049 A 
HETATM   14  C1  UNL     1       1.213  18.533  14.772  1.00  0.00     0.099 A 
HETATM   15  N4  UNL     1       0.543  18.196  13.677  1.00  0.00    -0.342 N 
ATOM     16  H4  UNL     1      -0.476  18.157  13.698  1.00  0.00     0.167 HD
HETATM   17  C24 UNL     1       0.535  17.551  11.370  1.00  0.00     0.031 A 
HETATM   18  C23 UNL     1       1.256  17.259  10.212  1.00  0.00     0.016 A 
BRANCH  14  19
HETATM   19  N1  UNL     1       0.616  18.819  15.892  1.00  0.00    -0.385 N 
ATOM     20  H12 UNL     1       0.957  18.483  16.793  1.00  0.00     0.157 HD
ATOM     21  H11 UNL     1      -0.219  19.402  15.837  1.00  0.00     0.157 HD
ENDBRANCH  14  19
ENDBRANCH   1   8
BRANCH   3  22
HETATM   22  C9  UNL     1       6.236  16.882   6.797  1.00  0.00     0.172 C 
BRANCH  22  23
HETATM   23  C10 UNL     1       7.244  15.897   7.151  1.00  0.00    -0.029 A 
HETATM   24  C11 UNL     1       6.829  14.566   7.247  1.00  0.00     0.010 A 
HETATM   25  C12 UNL     1       7.670  13.567   7.620  1.00  0.00     0.001 A 
HETATM   26  C13 UNL     1       8.994  13.849   7.922  1.00  0.00     0.001 A 
HETATM   27  C14 UNL     1       9.399  15.153   7.825  1.00  0.00     0.013 A 
HETATM   28  C15 UNL     1       8.540  16.203   7.438  1.00  0.00    -0.018 A 
BRANCH  28  29
HETATM   29  C16 UNL     1       9.149  17.537   7.332  1.00  0.00    -0.025 A 
HETATM   30  C17 UNL     1       9.287  18.426   8.364  1.00  0.00     0.012 A 
HETATM   31  C18 UNL     1       9.872  19.669   8.212  1.00  0.00     0.001 A 
HETATM   32  C19 UNL     1      10.344  20.052   6.980  1.00  0.00     0.000 A 
HETATM   33  C20 UNL     1      10.228  19.191   5.909  1.00  0.00     0.001 A 
HETATM   34  C21 UNL     1       9.633  17.942   6.089  1.00  0.00     0.012 A 
ENDBRANCH  28  29
ENDBRANCH  22  23
ENDBRANCH   3  22
TORSDOF 5
ENDMDL
