MODEL 1
REMARK VINA RESULT: -6.780753710      0.000      0.000
REMARK  15 active torsions:
REMARK  status: ('A' for Active; 'I' for Inactive)
REMARK    1  A    between atoms: C2_2  and  N1_3 
REMARK    2  A    between atoms: C2_2  and  C27_35 
REMARK       I    between atoms: N1_3  and  C3_5 
REMARK    3  A    between atoms: C3_5  and  C4_7 
REMARK    4  A    between atoms: C4_7  and  N2_8 
REMARK    5  A    between atoms: C4_7  and  C24_32 
REMARK       I    between atoms: N2_8  and  C5_10 
REMARK    6  A    between atoms: C5_10  and  C6_12 
REMARK    7  A    between atoms: C6_12  and  C7_13 
REMARK    8  A    between atoms: C6_12  and  C20_28 
REMARK    9  A    between atoms: C7_13  and  O3_14 
REMARK   10  A    between atoms: O3_14  and  C8_15 
REMARK   11  A    between atoms: C8_15  and  C9_16 
REMARK   12  A    between atoms: C10_17  and  C11_18 
REMARK       I    between atoms: C27_35  and  N3_37 
REMARK   13  A    between atoms: N3_37  and  C28_39 
REMARK   14  A    between atoms: C28_39  and  C29_40 
REMARK   15  A    between atoms: C28_39  and  C30_42 
ROOT
HETATM    1  N2  UNL     1     -10.307  43.602  -0.350  1.00  0.00    -0.347 N 
ATOM      2  H2  UNL     1     -10.453  43.574  -1.360  1.00  0.00     0.163 HD
HETATM    3  C5  UNL     1     -11.104  44.508   0.405  1.00  0.00     0.225 C 
HETATM    4  O2  UNL     1     -10.845  44.470   1.667  1.00  0.00    -0.273 OA
ENDROOT
BRANCH   1   5
HETATM    5  C4  UNL     1      -9.315  42.727   0.200  1.00  0.00     0.180 C 
BRANCH   5   6
HETATM    6  C3  UNL     1      -8.000  43.459   0.378  1.00  0.00     0.241 C 
HETATM    7  N1  UNL     1      -7.686  44.126   1.574  1.00  0.00    -0.346 N 
ATOM      8  H1  UNL     1      -8.376  44.103   2.325  1.00  0.00     0.163 HD
HETATM    9  O1  UNL     1      -7.210  43.439  -0.586  1.00  0.00    -0.271 OA
BRANCH   7  10
HETATM   10  C2  UNL     1      -6.462  44.839   1.814  1.00  0.00     0.172 C 
HETATM   11  C1  UNL     1      -6.692  46.297   2.166  1.00  0.00     0.042 C 
BRANCH  10  12
HETATM   12  C27 UNL     1      -5.585  44.146   2.783  1.00  0.00     0.240 C 
HETATM   13  O4  UNL     1      -5.169  42.998   2.497  1.00  0.00    -0.271 OA
HETATM   14  N3  UNL     1      -5.209  44.730   4.001  1.00  0.00    -0.348 N 
ATOM     15  H3  UNL     1      -5.576  45.664   4.186  1.00  0.00     0.163 HD
BRANCH  14  16
HETATM   16  C28 UNL     1      -4.373  44.167   5.014  1.00  0.00     0.149 C 
BRANCH  16  17
HETATM   17  C29 UNL     1      -5.150  44.111   6.284  1.00  0.00     0.256 C 
HETATM   18  O5  UNL     1      -6.095  44.846   6.462  1.00  0.00    -0.305 OA
ENDBRANCH  16  17
BRANCH  16  19
HETATM   19  C30 UNL     1      -3.137  45.000   5.282  1.00  0.00     0.007 C 
HETATM   20  C31 UNL     1      -2.211  44.984   4.057  1.00  0.00     0.012 C 
HETATM   21  C32 UNL     1      -2.363  44.325   6.397  1.00  0.00     0.012 C 
ENDBRANCH  16  19
ENDBRANCH  14  16
ENDBRANCH  10  12
ENDBRANCH   7  10
ENDBRANCH   5   6
BRANCH   5  22
HETATM   22  C24 UNL     1      -8.999  41.516  -0.604  1.00  0.00     0.009 C 
HETATM   23  C25 UNL     1      -8.694  40.282   0.207  1.00  0.00     0.012 C 
HETATM   24  C26 UNL     1     -10.100  41.190  -1.609  1.00  0.00     0.012 C 
ENDBRANCH   5  22
ENDBRANCH   1   5
BRANCH   3  25
HETATM   25  C6  UNL     1     -12.121  45.410  -0.115  1.00  0.00     0.109 C 
BRANCH  25  26
HETATM   26  C7  UNL     1     -13.196  45.804   0.871  1.00  0.00     0.182 C 
BRANCH  26  27
HETATM   27  O3  UNL     1     -12.715  46.783   1.772  1.00  0.00    -0.390 OA
BRANCH  27  28
HETATM   28  C8  UNL     1     -12.521  47.936   0.971  1.00  0.00     0.174 C 
BRANCH  28  29
HETATM   29  C9  UNL     1     -11.418  48.790   1.497  1.00  0.00     0.033 C 
HETATM   30  C10 UNL     1     -10.616  49.415   0.376  1.00  0.00     0.014 C 
HETATM   31  C14 UNL     1      -9.579  50.270   0.985  1.00  0.00     0.006 C 
HETATM   32  C15 UNL     1      -8.486  49.564   1.715  1.00  0.00     0.027 C 
HETATM   33  C16 UNL     1      -9.095  51.398   0.120  1.00  0.00     0.027 C 
HETATM   34  S1  UNL     1     -10.590  51.101   2.294  1.00  0.00    -0.150 SA
HETATM   35  C17 UNL     1     -11.976  49.894   2.325  1.00  0.00     0.007 C 
HETATM   36  C18 UNL     1     -13.173  50.572   1.755  1.00  0.00     0.027 C 
HETATM   37  C19 UNL     1     -12.184  49.392   3.729  1.00  0.00     0.027 C 
BRANCH  30  38
HETATM   38  C11 UNL     1     -10.221  48.430  -0.637  1.00  0.00    -0.017 C 
HETATM   39  C12 UNL     1      -9.082  47.533  -0.336  1.00  0.00     0.010 C 
HETATM   40  C13 UNL     1      -9.962  49.051  -2.015  1.00  0.00     0.010 C 
ENDBRANCH  30  38
ENDBRANCH  28  29
ENDBRANCH  27  28
ENDBRANCH  26  27
ENDBRANCH  25  26
BRANCH  25  41
HETATM   41  C20 UNL     1     -12.750  45.049  -1.414  1.00  0.00    -0.037 C 
HETATM   42  C21 UNL     1     -12.989  43.602  -1.662  1.00  0.00     0.015 C 
HETATM   43  C22 UNL     1     -14.111  45.749  -1.487  1.00  0.00     0.015 C 
HETATM   44  C23 UNL     1     -11.951  45.674  -2.575  1.00  0.00     0.015 C 
ENDBRANCH  25  41
ENDBRANCH   3  25
TORSDOF 15
ENDMDL
MODEL 2
REMARK VINA RESULT: -6.756748727      2.771      8.289
REMARK  15 active torsions:
REMARK  status: ('A' for Active; 'I' for Inactive)
REMARK    1  A    between atoms: C2_2  and  N1_3 
REMARK    2  A    between atoms: C2_2  and  C27_35 
REMARK       I    between atoms: N1_3  and  C3_5 
REMARK    3  A    between atoms: C3_5  and  C4_7 
REMARK    4  A    between atoms: C4_7  and  N2_8 
REMARK    5  A    between atoms: C4_7  and  C24_32 
REMARK       I    between atoms: N2_8  and  C5_10 
REMARK    6  A    between atoms: C5_10  and  C6_12 
REMARK    7  A    between atoms: C6_12  and  C7_13 
REMARK    8  A    between atoms: C6_12  and  C20_28 
REMARK    9  A    between atoms: C7_13  and  O3_14 
REMARK   10  A    between atoms: O3_14  and  C8_15 
REMARK   11  A    between atoms: C8_15  and  C9_16 
REMARK   12  A    between atoms: C10_17  and  C11_18 
REMARK       I    between atoms: C27_35  and  N3_37 
REMARK   13  A    between atoms: N3_37  and  C28_39 
REMARK   14  A    between atoms: C28_39  and  C29_40 
REMARK   15  A    between atoms: C28_39  and  C30_42 
ROOT
HETATM    1  N2  UNL     1      -8.615  45.531   0.395  1.00  0.00    -0.347 N 
ATOM      2  H2  UNL     1      -9.346  45.662   1.094  1.00  0.00     0.163 HD
HETATM    3  C5  UNL     1      -7.976  46.696  -0.115  1.00  0.00     0.225 C 
HETATM    4  O2  UNL     1      -7.070  46.427  -0.991  1.00  0.00    -0.273 OA
ENDROOT
BRANCH   1   5
HETATM    5  C4  UNL     1      -8.310  44.188   0.000  1.00  0.00     0.180 C 
BRANCH   5   6
HETATM    6  C3  UNL     1      -9.276  43.714  -1.067  1.00  0.00     0.241 C 
HETATM    7  N1  UNL     1     -10.666  43.750  -0.869  1.00  0.00    -0.346 N 
ATOM      8  H1  UNL     1     -11.008  44.108   0.022  1.00  0.00     0.163 HD
HETATM    9  O1  UNL     1      -8.778  43.292  -2.129  1.00  0.00    -0.271 OA
BRANCH   7  10
HETATM   10  C2  UNL     1     -11.639  43.318  -1.834  1.00  0.00     0.172 C 
HETATM   11  C1  UNL     1     -11.937  41.833  -1.741  1.00  0.00     0.042 C 
BRANCH  10  12
HETATM   12  C27 UNL     1     -12.861  44.151  -1.815  1.00  0.00     0.240 C 
HETATM   13  O4  UNL     1     -13.139  44.780  -0.767  1.00  0.00    -0.271 OA
HETATM   14  N3  UNL     1     -13.711  44.255  -2.926  1.00  0.00    -0.348 N 
ATOM     15  H3  UNL     1     -13.441  43.723  -3.753  1.00  0.00     0.163 HD
BRANCH  14  16
HETATM   16  C28 UNL     1     -14.913  45.022  -3.032  1.00  0.00     0.149 C 
BRANCH  16  17
HETATM   17  C29 UNL     1     -16.018  44.247  -2.403  1.00  0.00     0.256 C 
HETATM   18  O5  UNL     1     -16.451  44.559  -1.316  1.00  0.00    -0.305 OA
ENDBRANCH  16  17
BRANCH  16  19
HETATM   19  C30 UNL     1     -15.313  45.287  -4.468  1.00  0.00     0.007 C 
HETATM   20  C31 UNL     1     -16.313  46.451  -4.533  1.00  0.00     0.012 C 
HETATM   21  C32 UNL     1     -16.061  44.067  -4.967  1.00  0.00     0.012 C 
ENDBRANCH  16  19
ENDBRANCH  14  16
ENDBRANCH  10  12
ENDBRANCH   7  10
ENDBRANCH   5   6
BRANCH   5  22
HETATM   22  C24 UNL     1      -8.364  43.166   1.078  1.00  0.00     0.009 C 
HETATM   23  C25 UNL     1      -7.437  41.993   0.884  1.00  0.00     0.012 C 
HETATM   24  C26 UNL     1      -8.117  43.770   2.458  1.00  0.00     0.012 C 
ENDBRANCH   5  22
ENDBRANCH   1   5
BRANCH   3  25
HETATM   25  C6  UNL     1      -8.256  48.074   0.261  1.00  0.00     0.109 C 
BRANCH  25  26
HETATM   26  C7  UNL     1      -7.975  48.417   1.705  1.00  0.00     0.182 C 
BRANCH  26  27
HETATM   27  O3  UNL     1      -7.725  47.245   2.458  1.00  0.00    -0.390 OA
BRANCH  27  28
HETATM   28  C8  UNL     1      -6.508  47.512   3.134  1.00  0.00     0.174 C 
BRANCH  28  29
HETATM   29  C9  UNL     1      -6.253  46.521   4.218  1.00  0.00     0.033 C 
HETATM   30  C10 UNL     1      -4.865  45.927   4.113  1.00  0.00     0.014 C 
HETATM   31  C14 UNL     1      -4.686  44.994   5.243  1.00  0.00     0.006 C 
HETATM   32  C15 UNL     1      -5.500  43.745   5.201  1.00  0.00     0.027 C 
HETATM   33  C16 UNL     1      -3.264  44.773   5.667  1.00  0.00     0.027 C 
HETATM   34  S1  UNL     1      -5.416  46.012   6.606  1.00  0.00    -0.150 SA
HETATM   35  C17 UNL     1      -6.366  47.177   5.549  1.00  0.00     0.007 C 
HETATM   36  C18 UNL     1      -5.714  48.512   5.655  1.00  0.00     0.027 C 
HETATM   37  C19 UNL     1      -7.812  47.183   5.968  1.00  0.00     0.027 C 
BRANCH  30  38
HETATM   38  C11 UNL     1      -4.562  45.465   2.754  1.00  0.00    -0.017 C 
HETATM   39  C12 UNL     1      -4.623  44.012   2.478  1.00  0.00     0.010 C 
HETATM   40  C13 UNL     1      -3.214  45.974   2.229  1.00  0.00     0.010 C 
ENDBRANCH  30  38
ENDBRANCH  28  29
ENDBRANCH  27  28
ENDBRANCH  26  27
ENDBRANCH  25  26
BRANCH  25  41
HETATM   41  C20 UNL     1      -9.579  48.630  -0.131  1.00  0.00    -0.037 C 
HETATM   42  C21 UNL     1     -10.251  47.998  -1.298  1.00  0.00     0.015 C 
HETATM   43  C22 UNL     1     -10.523  48.480   1.066  1.00  0.00     0.015 C 
HETATM   44  C23 UNL     1      -9.471  50.155  -0.328  1.00  0.00     0.015 C 
ENDBRANCH  25  41
ENDBRANCH   3  25
TORSDOF 15
ENDMDL
MODEL 3
REMARK VINA RESULT: -6.573566657      2.049      3.638
REMARK  15 active torsions:
REMARK  status: ('A' for Active; 'I' for Inactive)
REMARK    1  A    between atoms: C2_2  and  N1_3 
REMARK    2  A    between atoms: C2_2  and  C27_35 
REMARK       I    between atoms: N1_3  and  C3_5 
REMARK    3  A    between atoms: C3_5  and  C4_7 
REMARK    4  A    between atoms: C4_7  and  N2_8 
REMARK    5  A    between atoms: C4_7  and  C24_32 
REMARK       I    between atoms: N2_8  and  C5_10 
REMARK    6  A    between atoms: C5_10  and  C6_12 
REMARK    7  A    between atoms: C6_12  and  C7_13 
REMARK    8  A    between atoms: C6_12  and  C20_28 
REMARK    9  A    between atoms: C7_13  and  O3_14 
REMARK   10  A    between atoms: O3_14  and  C8_15 
REMARK   11  A    between atoms: C8_15  and  C9_16 
REMARK   12  A    between atoms: C10_17  and  C11_18 
REMARK       I    between atoms: C27_35  and  N3_37 
REMARK   13  A    between atoms: N3_37  and  C28_39 
REMARK   14  A    between atoms: C28_39  and  C29_40 
REMARK   15  A    between atoms: C28_39  and  C30_42 
ROOT
HETATM    1  N2  UNL     1     -10.243  43.392  -0.240  1.00  0.00    -0.347 N 
ATOM      2  H2  UNL     1     -10.296  43.425  -1.259  1.00  0.00     0.163 HD
HETATM    3  C5  UNL     1     -11.078  44.284   0.490  1.00  0.00     0.225 C 
HETATM    4  O2  UNL     1     -10.939  44.168   1.766  1.00  0.00    -0.273 OA
ENDROOT
BRANCH   1   5
HETATM    5  C4  UNL     1      -9.335  42.453   0.346  1.00  0.00     0.180 C 
BRANCH   5   6
HETATM    6  C3  UNL     1      -8.053  43.143   0.767  1.00  0.00     0.241 C 
HETATM    7  N1  UNL     1      -7.827  43.524   2.100  1.00  0.00    -0.346 N 
ATOM      8  H1  UNL     1      -8.558  43.321   2.782  1.00  0.00     0.163 HD
HETATM    9  O1  UNL     1      -7.209  43.356  -0.125  1.00  0.00    -0.271 OA
BRANCH   7  10
HETATM   10  C2  UNL     1      -6.639  44.181   2.571  1.00  0.00     0.172 C 
HETATM   11  C1  UNL     1      -5.367  43.498   2.104  1.00  0.00     0.042 C 
BRANCH  10  12
HETATM   12  C27 UNL     1      -6.647  45.633   2.290  1.00  0.00     0.240 C 
HETATM   13  O4  UNL     1      -6.385  46.424   3.227  1.00  0.00    -0.271 OA
HETATM   14  N3  UNL     1      -6.936  46.146   1.018  1.00  0.00    -0.348 N 
ATOM     15  H3  UNL     1      -7.143  45.461   0.291  1.00  0.00     0.163 HD
BRANCH  14  16
HETATM   16  C28 UNL     1      -6.974  47.519   0.622  1.00  0.00     0.149 C 
BRANCH  16  17
HETATM   17  C29 UNL     1      -8.239  47.753  -0.130  1.00  0.00     0.256 C 
HETATM   18  O5  UNL     1      -8.879  46.823  -0.567  1.00  0.00    -0.305 OA
ENDBRANCH  16  17
BRANCH  16  19
HETATM   19  C30 UNL     1      -5.831  47.895  -0.296  1.00  0.00     0.007 C 
HETATM   20  C31 UNL     1      -4.631  48.389   0.525  1.00  0.00     0.012 C 
HETATM   21  C32 UNL     1      -6.282  49.082  -1.126  1.00  0.00     0.012 C 
ENDBRANCH  16  19
ENDBRANCH  14  16
ENDBRANCH  10  12
ENDBRANCH   7  10
ENDBRANCH   5   6
BRANCH   5  22
HETATM   22  C24 UNL     1      -8.918  41.321  -0.524  1.00  0.00     0.009 C 
HETATM   23  C25 UNL     1      -8.611  40.040   0.209  1.00  0.00     0.012 C 
HETATM   24  C26 UNL     1      -9.939  41.033  -1.622  1.00  0.00     0.012 C 
ENDBRANCH   5  22
ENDBRANCH   1   5
BRANCH   3  25
HETATM   25  C6  UNL     1     -12.013  45.250  -0.067  1.00  0.00     0.109 C 
BRANCH  25  26
HETATM   26  C7  UNL     1     -13.177  45.608   0.827  1.00  0.00     0.182 C 
BRANCH  26  27
HETATM   27  O3  UNL     1     -12.778  46.528   1.825  1.00  0.00    -0.390 OA
BRANCH  27  28
HETATM   28  C8  UNL     1     -12.038  47.513   1.123  1.00  0.00     0.174 C 
BRANCH  28  29
HETATM   29  C9  UNL     1     -12.401  48.889   1.565  1.00  0.00     0.033 C 
HETATM   30  C10 UNL     1     -11.277  49.538   2.343  1.00  0.00     0.014 C 
HETATM   31  C14 UNL     1     -11.704  50.904   2.701  1.00  0.00     0.006 C 
HETATM   32  C15 UNL     1     -12.802  51.009   3.707  1.00  0.00     0.027 C 
HETATM   33  C16 UNL     1     -10.589  51.884   2.922  1.00  0.00     0.027 C 
HETATM   34  S1  UNL     1     -12.458  51.427   1.093  1.00  0.00    -0.150 SA
HETATM   35  C17 UNL     1     -12.688  49.748   0.382  1.00  0.00     0.007 C 
HETATM   36  C18 UNL     1     -11.732  49.606  -0.750  1.00  0.00     0.027 C 
HETATM   37  C19 UNL     1     -14.126  49.557  -0.021  1.00  0.00     0.027 C 
BRANCH  30  38
HETATM   38  C11 UNL     1     -10.752  48.659   3.393  1.00  0.00    -0.017 C 
HETATM   39  C12 UNL     1     -11.262  48.831   4.771  1.00  0.00     0.010 C 
HETATM   40  C13 UNL     1      -9.220  48.657   3.469  1.00  0.00     0.010 C 
ENDBRANCH  30  38
ENDBRANCH  28  29
ENDBRANCH  27  28
ENDBRANCH  26  27
ENDBRANCH  25  26
BRANCH  25  41
HETATM   41  C20 UNL     1     -12.509  44.998  -1.447  1.00  0.00    -0.037 C 
HETATM   42  C21 UNL     1     -12.781  43.581  -1.812  1.00  0.00     0.015 C 
HETATM   43  C22 UNL     1     -13.823  45.766  -1.621  1.00  0.00     0.015 C 
HETATM   44  C23 UNL     1     -11.561  45.649  -2.473  1.00  0.00     0.015 C 
ENDBRANCH  25  41
ENDBRANCH   3  25
TORSDOF 15
ENDMDL
MODEL 4
REMARK VINA RESULT: -6.557210419      2.749      8.455
REMARK  15 active torsions:
REMARK  status: ('A' for Active; 'I' for Inactive)
REMARK    1  A    between atoms: C2_2  and  N1_3 
REMARK    2  A    between atoms: C2_2  and  C27_35 
REMARK       I    between atoms: N1_3  and  C3_5 
REMARK    3  A    between atoms: C3_5  and  C4_7 
REMARK    4  A    between atoms: C4_7  and  N2_8 
REMARK    5  A    between atoms: C4_7  and  C24_32 
REMARK       I    between atoms: N2_8  and  C5_10 
REMARK    6  A    between atoms: C5_10  and  C6_12 
REMARK    7  A    between atoms: C6_12  and  C7_13 
REMARK    8  A    between atoms: C6_12  and  C20_28 
REMARK    9  A    between atoms: C7_13  and  O3_14 
REMARK   10  A    between atoms: O3_14  and  C8_15 
REMARK   11  A    between atoms: C8_15  and  C9_16 
REMARK   12  A    between atoms: C10_17  and  C11_18 
REMARK       I    between atoms: C27_35  and  N3_37 
REMARK   13  A    between atoms: N3_37  and  C28_39 
REMARK   14  A    between atoms: C28_39  and  C29_40 
REMARK   15  A    between atoms: C28_39  and  C30_42 
ROOT
HETATM    1  N2  UNL     1      -8.172  44.954   0.827  1.00  0.00    -0.347 N 
ATOM      2  H2  UNL     1      -8.431  44.964   1.814  1.00  0.00     0.163 HD
HETATM    3  C5  UNL     1      -7.717  46.176   0.254  1.00  0.00     0.225 C 
HETATM    4  O2  UNL     1      -7.416  46.062  -0.994  1.00  0.00    -0.273 OA
ENDROOT
BRANCH   1   5
HETATM    5  C4  UNL     1      -8.292  43.713   0.123  1.00  0.00     0.180 C 
BRANCH   5   6
HETATM    6  C3  UNL     1      -9.700  43.540  -0.414  1.00  0.00     0.241 C 
HETATM    7  N1  UNL     1      -9.939  43.019  -1.696  1.00  0.00    -0.346 N 
ATOM      8  H1  UNL     1      -9.130  42.759  -2.261  1.00  0.00     0.163 HD
HETATM    9  O1  UNL     1     -10.634  43.880   0.338  1.00  0.00    -0.271 OA
BRANCH   7  10
HETATM   10  C2  UNL     1     -11.242  42.828  -2.270  1.00  0.00     0.172 C 
HETATM   11  C1  UNL     1     -12.042  41.749  -1.561  1.00  0.00     0.042 C 
BRANCH  10  12
HETATM   12  C27 UNL     1     -11.989  44.096  -2.412  1.00  0.00     0.240 C 
HETATM   13  O4  UNL     1     -11.521  44.984  -3.163  1.00  0.00    -0.271 OA
HETATM   14  N3  UNL     1     -13.195  44.332  -1.736  1.00  0.00    -0.348 N 
ATOM     15  H3  UNL     1     -13.532  43.579  -1.137  1.00  0.00     0.163 HD
BRANCH  14  16
HETATM   16  C28 UNL     1     -14.006  45.508  -1.791  1.00  0.00     0.149 C 
BRANCH  16  17
HETATM   17  C29 UNL     1     -14.304  45.935  -0.395  1.00  0.00     0.256 C 
HETATM   18  O5  UNL     1     -13.873  45.309   0.547  1.00  0.00    -0.305 OA
ENDBRANCH  16  17
BRANCH  16  19
HETATM   19  C30 UNL     1     -15.333  45.272  -2.479  1.00  0.00     0.007 C 
HETATM   20  C31 UNL     1     -15.815  43.836  -2.224  1.00  0.00     0.012 C 
HETATM   21  C32 UNL     1     -15.099  45.372  -3.974  1.00  0.00     0.012 C 
ENDBRANCH  16  19
ENDBRANCH  14  16
ENDBRANCH  10  12
ENDBRANCH   7  10
ENDBRANCH   5   6
BRANCH   5  22
HETATM   22  C24 UNL     1      -8.007  42.486   0.914  1.00  0.00     0.009 C 
HETATM   23  C25 UNL     1      -8.322  41.192   0.207  1.00  0.00     0.012 C 
HETATM   24  C26 UNL     1      -6.564  42.444   1.409  1.00  0.00     0.012 C 
ENDBRANCH   5  22
ENDBRANCH   1   5
BRANCH   3  25
HETATM   25  C6  UNL     1      -7.579  47.455   0.935  1.00  0.00     0.109 C 
BRANCH  25  26
HETATM   26  C7  UNL     1      -6.754  47.424   2.200  1.00  0.00     0.182 C 
BRANCH  26  27
HETATM   27  O3  UNL     1      -5.373  47.380   1.896  1.00  0.00    -0.390 OA
BRANCH  27  28
HETATM   28  C8  UNL     1      -4.961  46.088   2.308  1.00  0.00     0.174 C 
BRANCH  28  29
HETATM   29  C9  UNL     1      -4.167  46.141   3.568  1.00  0.00     0.033 C 
HETATM   30  C10 UNL     1      -4.599  45.067   4.543  1.00  0.00     0.014 C 
HETATM   31  C14 UNL     1      -3.737  45.166   5.737  1.00  0.00     0.006 C 
HETATM   32  C15 UNL     1      -3.929  46.375   6.590  1.00  0.00     0.027 C 
HETATM   33  C16 UNL     1      -3.583  43.895   6.519  1.00  0.00     0.027 C 
HETATM   34  S1  UNL     1      -2.094  45.398   4.916  1.00  0.00    -0.150 SA
HETATM   35  C17 UNL     1      -2.723  45.930   3.273  1.00  0.00     0.007 C 
HETATM   36  C18 UNL     1      -2.427  44.838   2.305  1.00  0.00     0.027 C 
HETATM   37  C19 UNL     1      -2.106  47.250   2.893  1.00  0.00     0.027 C 
BRANCH  30  38
HETATM   38  C11 UNL     1      -6.055  45.032   4.718  1.00  0.00    -0.017 C 
HETATM   39  C12 UNL     1      -6.636  45.717   5.894  1.00  0.00     0.010 C 
HETATM   40  C13 UNL     1      -6.634  43.612   4.684  1.00  0.00     0.010 C 
ENDBRANCH  30  38
ENDBRANCH  28  29
ENDBRANCH  27  28
ENDBRANCH  26  27
ENDBRANCH  25  26
BRANCH  25  41
HETATM   41  C20 UNL     1      -8.823  48.234   1.175  1.00  0.00    -0.037 C 
HETATM   42  C21 UNL     1      -9.963  47.976   0.254  1.00  0.00     0.015 C 
HETATM   43  C22 UNL     1      -9.310  47.916   2.592  1.00  0.00     0.015 C 
HETATM   44  C23 UNL     1      -8.497  49.740   1.226  1.00  0.00     0.015 C 
ENDBRANCH  25  41
ENDBRANCH   3  25
TORSDOF 15
ENDMDL
MODEL 5
REMARK VINA RESULT: -6.540667481      2.882      8.382
REMARK  15 active torsions:
REMARK  status: ('A' for Active; 'I' for Inactive)
REMARK    1  A    between atoms: C2_2  and  N1_3 
REMARK    2  A    between atoms: C2_2  and  C27_35 
REMARK       I    between atoms: N1_3  and  C3_5 
REMARK    3  A    between atoms: C3_5  and  C4_7 
REMARK    4  A    between atoms: C4_7  and  N2_8 
REMARK    5  A    between atoms: C4_7  and  C24_32 
REMARK       I    between atoms: N2_8  and  C5_10 
REMARK    6  A    between atoms: C5_10  and  C6_12 
REMARK    7  A    between atoms: C6_12  and  C7_13 
REMARK    8  A    between atoms: C6_12  and  C20_28 
REMARK    9  A    between atoms: C7_13  and  O3_14 
REMARK   10  A    between atoms: O3_14  and  C8_15 
REMARK   11  A    between atoms: C8_15  and  C9_16 
REMARK   12  A    between atoms: C10_17  and  C11_18 
REMARK       I    between atoms: C27_35  and  N3_37 
REMARK   13  A    between atoms: N3_37  and  C28_39 
REMARK   14  A    between atoms: C28_39  and  C29_40 
REMARK   15  A    between atoms: C28_39  and  C30_42 
ROOT
HETATM    1  N2  UNL     1      -8.693  45.139   0.107  1.00  0.00    -0.347 N 
ATOM      2  H2  UNL     1      -9.466  44.971   0.750  1.00  0.00     0.163 HD
HETATM    3  C5  UNL     1      -8.162  46.458   0.047  1.00  0.00     0.225 C 
HETATM    4  O2  UNL     1      -7.191  46.569  -0.794  1.00  0.00    -0.273 OA
ENDROOT
BRANCH   1   5
HETATM    5  C4  UNL     1      -8.223  44.029  -0.667  1.00  0.00     0.180 C 
BRANCH   5   6
HETATM    6  C3  UNL     1      -9.345  43.453  -1.508  1.00  0.00     0.241 C 
HETATM    7  N1  UNL     1     -10.614  44.053  -1.550  1.00  0.00    -0.346 N 
ATOM      8  H1  UNL     1     -10.759  44.895  -0.993  1.00  0.00     0.163 HD
HETATM    9  O1  UNL     1      -9.088  42.423  -2.161  1.00  0.00    -0.271 OA
BRANCH   7  10
HETATM   10  C2  UNL     1     -11.723  43.564  -2.322  1.00  0.00     0.172 C 
HETATM   11  C1  UNL     1     -12.219  42.212  -1.845  1.00  0.00     0.042 C 
BRANCH  10  12
HETATM   12  C27 UNL     1     -12.808  44.562  -2.448  1.00  0.00     0.240 C 
HETATM   13  O4  UNL     1     -12.714  45.631  -1.800  1.00  0.00    -0.271 OA
HETATM   14  N3  UNL     1     -13.929  44.348  -3.263  1.00  0.00    -0.348 N 
ATOM     15  H3  UNL     1     -13.958  43.462  -3.768  1.00  0.00     0.163 HD
BRANCH  14  16
HETATM   16  C28 UNL     1     -15.036  45.229  -3.468  1.00  0.00     0.149 C 
BRANCH  16  17
HETATM   17  C29 UNL     1     -16.152  44.788  -2.585  1.00  0.00     0.256 C 
HETATM   18  O5  UNL     1     -16.107  44.977  -1.391  1.00  0.00    -0.305 OA
ENDBRANCH  16  17
BRANCH  16  19
HETATM   19  C30 UNL     1     -15.552  45.199  -4.890  1.00  0.00     0.007 C 
HETATM   20  C31 UNL     1     -16.412  46.441  -5.168  1.00  0.00     0.012 C 
HETATM   21  C32 UNL     1     -16.484  44.011  -5.015  1.00  0.00     0.012 C 
ENDBRANCH  16  19
ENDBRANCH  14  16
ENDBRANCH  10  12
ENDBRANCH   7  10
ENDBRANCH   5   6
BRANCH   5  22
HETATM   22  C24 UNL     1      -7.668  42.886   0.105  1.00  0.00     0.009 C 
HETATM   23  C25 UNL     1      -6.583  43.253   1.086  1.00  0.00     0.012 C 
HETATM   24  C26 UNL     1      -8.756  42.105   0.837  1.00  0.00     0.012 C 
ENDBRANCH   5  22
ENDBRANCH   1   5
BRANCH   3  25
HETATM   25  C6  UNL     1      -8.609  47.609   0.816  1.00  0.00     0.109 C 
BRANCH  25  26
HETATM   26  C7  UNL     1      -8.583  47.430   2.316  1.00  0.00     0.182 C 
BRANCH  26  27
HETATM   27  O3  UNL     1      -7.991  46.192   2.662  1.00  0.00    -0.390 OA
BRANCH  27  28
HETATM   28  C8  UNL     1      -7.222  46.479   3.818  1.00  0.00     0.174 C 
BRANCH  28  29
HETATM   29  C9  UNL     1      -5.923  45.748   3.807  1.00  0.00     0.033 C 
HETATM   30  C10 UNL     1      -4.748  46.702   3.765  1.00  0.00     0.014 C 
HETATM   31  C14 UNL     1      -3.511  45.898   3.800  1.00  0.00     0.006 C 
HETATM   32  C15 UNL     1      -3.220  45.083   2.584  1.00  0.00     0.027 C 
HETATM   33  C16 UNL     1      -2.308  46.603   4.355  1.00  0.00     0.027 C 
HETATM   34  S1  UNL     1      -3.970  44.677   5.113  1.00  0.00    -0.150 SA
HETATM   35  C17 UNL     1      -5.790  44.921   5.039  1.00  0.00     0.007 C 
HETATM   36  C18 UNL     1      -6.204  45.593   6.301  1.00  0.00     0.027 C 
HETATM   37  C19 UNL     1      -6.474  43.599   4.812  1.00  0.00     0.027 C 
BRANCH  30  38
HETATM   38  C11 UNL     1      -4.903  47.724   2.724  1.00  0.00    -0.017 C 
HETATM   39  C12 UNL     1      -4.347  47.447   1.381  1.00  0.00     0.010 C 
HETATM   40  C13 UNL     1      -4.394  49.105   3.154  1.00  0.00     0.010 C 
ENDBRANCH  30  38
ENDBRANCH  28  29
ENDBRANCH  27  28
ENDBRANCH  26  27
ENDBRANCH  25  26
BRANCH  25  41
HETATM   41  C20 UNL     1      -9.898  48.235   0.416  1.00  0.00    -0.037 C 
HETATM   42  C21 UNL     1     -11.126  47.722   1.081  1.00  0.00     0.015 C 
HETATM   43  C22 UNL     1      -9.810  49.732   0.729  1.00  0.00     0.015 C 
HETATM   44  C23 UNL     1     -10.051  48.187  -1.117  1.00  0.00     0.015 C 
ENDBRANCH  25  41
ENDBRANCH   3  25
TORSDOF 15
ENDMDL
