MODEL 1
REMARK VINA RESULT: -7.336600048      0.000      0.000
REMARK  15 active torsions:
REMARK  status: ('A' for Active; 'I' for Inactive)
REMARK    1  A    between atoms: C2_2  and  C3_3 
REMARK    2  A    between atoms: C3_3  and  C4_4 
REMARK    3  A    between atoms: C4_4  and  C6_6 
REMARK    4  A    between atoms: N1_8  and  C8_9 
REMARK    5  A    between atoms: C8_9  and  C9_10 
REMARK    6  A    between atoms: C9_10  and  C10_11 
REMARK    7  A    between atoms: C10_11  and  C11_12 
REMARK    8  A    between atoms: C11_12  and  C12_13 
REMARK    9  A    between atoms: C12_13  and  C13_14 
REMARK       I    between atoms: C13_14  and  N2_16 
REMARK   10  A    between atoms: N2_16  and  C14_17 
REMARK   11  A    between atoms: N2_16  and  C21_27 
REMARK   12  A    between atoms: C14_17  and  O2_18 
REMARK   13  A    between atoms: C14_17  and  C15_20 
REMARK   14  A    between atoms: C15_20  and  N3_21 
REMARK   15  A    between atoms: C31_38  and  O4_39 
ROOT
HETATM    1  C13 UNL     1     -12.425  43.675  -1.232  1.00  0.00     0.222 C 
HETATM    2  O1  UNL     1     -13.162  42.831  -1.806  1.00  0.00    -0.273 OA
HETATM    3  N2  UNL     1     -12.951  44.964  -0.814  1.00  0.00    -0.319 N 
ENDROOT
BRANCH   3   4
HETATM    4  C14 UNL     1     -14.345  45.190  -1.093  1.00  0.00     0.240 C 
BRANCH   4   5
HETATM    5  O2  UNL     1     -15.115  45.468   0.038  1.00  0.00    -0.375 OA
ATOM      6  H2  UNL     1     -15.842  44.871   0.169  1.00  0.00     0.212 HD
ENDBRANCH   4   5
BRANCH   4   7
HETATM    7  C15 UNL     1     -14.626  46.166  -2.185  1.00  0.00     0.170 C 
BRANCH   7   8
HETATM    8  N3  UNL     1     -15.582  45.699  -3.148  1.00  0.00    -0.408 N 
HETATM    9  C16 UNL     1     -15.707  44.285  -3.267  1.00  0.00     0.117 C 
HETATM   10  C17 UNL     1     -16.151  43.958  -4.681  1.00  0.00     0.019 C 
HETATM   11  C18 UNL     1     -16.553  45.211  -5.389  1.00  0.00     0.003 C 
HETATM   12  C19 UNL     1     -17.459  46.100  -4.544  1.00  0.00     0.019 C 
HETATM   13  C20 UNL     1     -16.822  46.398  -3.189  1.00  0.00     0.117 C 
ENDBRANCH   7   8
ENDBRANCH   4   7
ENDBRANCH   3   4
BRANCH   3  14
HETATM   14  C21 UNL     1     -12.040  45.844  -0.174  1.00  0.00     0.093 C 
HETATM   15  C22 UNL     1     -12.460  46.442   1.118  1.00  0.00     0.031 C 
HETATM   16  C23 UNL     1     -11.540  47.587   1.480  1.00  0.00    -0.001 C 
HETATM   17  C24 UNL     1     -11.465  47.843   2.944  1.00  0.00     0.006 C 
HETATM   18  C33 UNL     1     -10.159  47.472   0.890  1.00  0.00     0.066 A 
HETATM   19  C25 UNL     1     -10.165  48.320   3.478  1.00  0.00     0.008 C 
HETATM   20  C26 UNL     1      -9.856  49.777   3.185  1.00  0.00     0.083 C 
HETATM   21  C27 UNL     1      -9.415  49.812   1.737  1.00  0.00     0.156 C 
HETATM   22  O3  UNL     1      -8.721  50.798   1.365  1.00  0.00    -0.293 OA
HETATM   23  C28 UNL     1      -9.679  48.849   0.677  1.00  0.00     0.000 A 
HETATM   24  C29 UNL     1      -9.673  48.662  -0.620  1.00  0.00    -0.039 A 
HETATM   25  C30 UNL     1      -9.329  49.509  -1.833  1.00  0.00     0.047 C 
HETATM   26  C31 UNL     1     -10.128  47.285  -0.573  1.00  0.00     0.091 A 
HETATM   27  C32 UNL     1     -11.528  46.978  -1.078  1.00  0.00     0.068 C 
BRANCH  26  28
HETATM   28  O4  UNL     1      -9.150  46.408  -1.007  1.00  0.00    -0.384 OA
ATOM     29  H4  UNL     1      -9.382  45.505  -0.825  1.00  0.00     0.211 HD
ENDBRANCH  26  28
ENDBRANCH   3  14
BRANCH   1  30
HETATM   30  C12 UNL     1     -11.009  43.299  -1.001  1.00  0.00     0.103 C 
BRANCH  30  31
HETATM   31  C11 UNL     1     -10.559  42.301  -2.051  1.00  0.00     0.009 C 
BRANCH  31  32
HETATM   32  C10 UNL     1      -9.875  41.119  -1.425  1.00  0.00     0.002 C 
BRANCH  32  33
HETATM   33  C9  UNL     1      -9.645  41.354   0.017  1.00  0.00     0.020 C 
BRANCH  33  34
HETATM   34  C8  UNL     1      -8.223  41.326   0.426  1.00  0.00     0.127 C 
BRANCH  34  35
HETATM   35  N1  UNL     1      -7.696  42.635   0.679  1.00  0.00    -0.332 N 
HETATM   36  C7  UNL     1      -7.250  43.087   2.053  1.00  0.00     0.153 C 
HETATM   37  C6  UNL     1      -7.616  44.519   1.956  1.00  0.00     0.108 C 
HETATM   38  N4  UNL     1      -7.004  44.857   0.676  1.00  0.00    -0.336 N 
HETATM   39  C34 UNL     1      -7.441  43.742  -0.155  1.00  0.00     0.318 C 
ATOM     40  H4  UNL     1      -6.425  45.659   0.429  1.00  0.00     0.164 HD
HETATM   41  O5  UNL     1      -7.551  43.833  -1.398  1.00  0.00    -0.247 OA
BRANCH  37  42
HETATM   42  C4  UNL     1      -7.347  45.436   3.058  1.00  0.00     0.006 C 
HETATM   43  C5  UNL     1      -6.945  46.789   2.385  1.00  0.00     0.012 C 
BRANCH  42  44
HETATM   44  C3  UNL     1      -6.357  45.138   4.098  1.00  0.00     0.006 C 
BRANCH  44  45
HETATM   45  C2  UNL     1      -4.961  45.609   3.946  1.00  0.00    -0.004 C 
HETATM   46  C1  UNL     1      -4.054  44.620   3.266  1.00  0.00     0.005 C 
ENDBRANCH  44  45
ENDBRANCH  42  44
ENDBRANCH  37  42
ENDBRANCH  34  35
ENDBRANCH  33  34
ENDBRANCH  32  33
ENDBRANCH  31  32
ENDBRANCH  30  31
ENDBRANCH   1  30
TORSDOF 15
ENDMDL
MODEL 2
REMARK VINA RESULT: -7.193242041      3.905      8.673
REMARK  15 active torsions:
REMARK  status: ('A' for Active; 'I' for Inactive)
REMARK    1  A    between atoms: C2_2  and  C3_3 
REMARK    2  A    between atoms: C3_3  and  C4_4 
REMARK    3  A    between atoms: C4_4  and  C6_6 
REMARK    4  A    between atoms: N1_8  and  C8_9 
REMARK    5  A    between atoms: C8_9  and  C9_10 
REMARK    6  A    between atoms: C9_10  and  C10_11 
REMARK    7  A    between atoms: C10_11  and  C11_12 
REMARK    8  A    between atoms: C11_12  and  C12_13 
REMARK    9  A    between atoms: C12_13  and  C13_14 
REMARK       I    between atoms: C13_14  and  N2_16 
REMARK   10  A    between atoms: N2_16  and  C14_17 
REMARK   11  A    between atoms: N2_16  and  C21_27 
REMARK   12  A    between atoms: C14_17  and  O2_18 
REMARK   13  A    between atoms: C14_17  and  C15_20 
REMARK   14  A    between atoms: C15_20  and  N3_21 
REMARK   15  A    between atoms: C31_38  and  O4_39 
ROOT
HETATM    1  C13 UNL     1      -6.765  47.574   0.824  1.00  0.00     0.222 C 
HETATM    2  O1  UNL     1      -6.065  48.316   1.562  1.00  0.00    -0.273 OA
HETATM    3  N2  UNL     1      -7.715  46.633   1.395  1.00  0.00    -0.319 N 
ENDROOT
BRANCH   3   4
HETATM    4  C14 UNL     1      -7.795  46.624   2.833  1.00  0.00     0.240 C 
BRANCH   4   5
HETATM    5  O2  UNL     1      -9.085  46.825   3.332  1.00  0.00    -0.375 OA
ATOM      6  H2  UNL     1      -9.774  46.504   2.763  1.00  0.00     0.212 HD
ENDBRANCH   4   5
BRANCH   4   7
HETATM    7  C15 UNL     1      -7.138  45.465   3.501  1.00  0.00     0.170 C 
BRANCH   7   8
HETATM    8  N3  UNL     1      -5.709  45.455   3.369  1.00  0.00    -0.408 N 
HETATM    9  C16 UNL     1      -4.986  46.173   4.364  1.00  0.00     0.117 C 
HETATM   10  C17 UNL     1      -3.681  46.656   3.757  1.00  0.00     0.019 C 
HETATM   11  C18 UNL     1      -3.472  46.011   2.425  1.00  0.00     0.003 C 
HETATM   12  C19 UNL     1      -3.735  44.509   2.451  1.00  0.00     0.019 C 
HETATM   13  C20 UNL     1      -5.122  44.206   3.012  1.00  0.00     0.117 C 
ENDBRANCH   7   8
ENDBRANCH   4   7
ENDBRANCH   3   4
BRANCH   3  14
HETATM   14  C21 UNL     1      -8.457  45.844   0.479  1.00  0.00     0.093 C 
HETATM   15  C22 UNL     1      -9.881  46.201   0.265  1.00  0.00     0.031 C 
HETATM   16  C23 UNL     1     -10.591  45.079  -0.460  1.00  0.00    -0.001 C 
HETATM   17  C24 UNL     1     -11.772  45.537  -1.242  1.00  0.00     0.006 C 
HETATM   18  C33 UNL     1      -9.685  44.234  -1.316  1.00  0.00     0.066 A 
HETATM   19  C25 UNL     1     -12.066  44.813  -2.503  1.00  0.00     0.008 C 
HETATM   20  C26 UNL     1     -12.691  43.443  -2.317  1.00  0.00     0.083 C 
HETATM   21  C27 UNL     1     -11.553  42.531  -1.914  1.00  0.00     0.156 C 
HETATM   22  O3  UNL     1     -11.707  41.293  -2.098  1.00  0.00    -0.293 OA
HETATM   23  C28 UNL     1     -10.265  42.879  -1.328  1.00  0.00     0.000 A 
HETATM   24  C29 UNL     1      -9.223  42.410  -0.689  1.00  0.00    -0.039 A 
HETATM   25  C30 UNL     1      -8.796  41.048  -0.168  1.00  0.00     0.047 C 
HETATM   26  C31 UNL     1      -8.517  43.675  -0.609  1.00  0.00     0.091 A 
HETATM   27  C32 UNL     1      -8.381  44.333   0.755  1.00  0.00     0.068 C 
BRANCH  26  28
HETATM   28  O4  UNL     1      -7.357  43.662  -1.364  1.00  0.00    -0.384 OA
ATOM     29  H4  UNL     1      -7.071  44.540  -1.583  1.00  0.00     0.211 HD
ENDBRANCH  26  28
ENDBRANCH   3  14
BRANCH   1  30
HETATM   30  C12 UNL     1      -6.581  47.701  -0.643  1.00  0.00     0.103 C 
BRANCH  30  31
HETATM   31  C11 UNL     1      -6.089  49.095  -0.986  1.00  0.00     0.009 C 
BRANCH  31  32
HETATM   32  C10 UNL     1      -4.778  49.046  -1.720  1.00  0.00     0.002 C 
BRANCH  32  33
HETATM   33  C9  UNL     1      -3.709  48.524  -0.842  1.00  0.00     0.020 C 
BRANCH  33  34
HETATM   34  C8  UNL     1      -2.414  49.232  -0.960  1.00  0.00     0.127 C 
BRANCH  34  35
HETATM   35  N1  UNL     1      -1.310  48.336  -1.136  1.00  0.00    -0.332 N 
HETATM   36  C7  UNL     1      -1.402  46.855  -0.837  1.00  0.00     0.153 C 
HETATM   37  C6  UNL     1      -0.013  46.626  -0.375  1.00  0.00     0.108 C 
HETATM   38  N4  UNL     1       0.729  47.262  -1.458  1.00  0.00    -0.336 N 
HETATM   39  C34 UNL     1       0.008  48.520  -1.600  1.00  0.00     0.318 C 
ATOM     40  H4  UNL     1       1.537  46.917  -1.976  1.00  0.00     0.164 HD
HETATM   41  O5  UNL     1       0.542  49.552  -2.063  1.00  0.00    -0.247 OA
BRANCH  37  42
HETATM   42  C4  UNL     1       0.436  45.294   0.015  1.00  0.00     0.006 C 
HETATM   43  C5  UNL     1       0.435  44.452  -1.303  1.00  0.00     0.012 C 
BRANCH  42  44
HETATM   44  C3  UNL     1      -0.248  44.511   1.050  1.00  0.00     0.006 C 
BRANCH  44  45
HETATM   45  C2  UNL     1       0.489  44.084   2.262  1.00  0.00    -0.004 C 
HETATM   46  C1  UNL     1      -0.187  44.462   3.552  1.00  0.00     0.005 C 
ENDBRANCH  44  45
ENDBRANCH  42  44
ENDBRANCH  37  42
ENDBRANCH  34  35
ENDBRANCH  33  34
ENDBRANCH  32  33
ENDBRANCH  31  32
ENDBRANCH  30  31
ENDBRANCH   1  30
TORSDOF 15
ENDMDL
MODEL 3
REMARK VINA RESULT: -7.183016525      2.154      7.942
REMARK  15 active torsions:
REMARK  status: ('A' for Active; 'I' for Inactive)
REMARK    1  A    between atoms: C2_2  and  C3_3 
REMARK    2  A    between atoms: C3_3  and  C4_4 
REMARK    3  A    between atoms: C4_4  and  C6_6 
REMARK    4  A    between atoms: N1_8  and  C8_9 
REMARK    5  A    between atoms: C8_9  and  C9_10 
REMARK    6  A    between atoms: C9_10  and  C10_11 
REMARK    7  A    between atoms: C10_11  and  C11_12 
REMARK    8  A    between atoms: C11_12  and  C12_13 
REMARK    9  A    between atoms: C12_13  and  C13_14 
REMARK       I    between atoms: C13_14  and  N2_16 
REMARK   10  A    between atoms: N2_16  and  C14_17 
REMARK   11  A    between atoms: N2_16  and  C21_27 
REMARK   12  A    between atoms: C14_17  and  O2_18 
REMARK   13  A    between atoms: C14_17  and  C15_20 
REMARK   14  A    between atoms: C15_20  and  N3_21 
REMARK   15  A    between atoms: C31_38  and  O4_39 
ROOT
HETATM    1  C13 UNL     1      -7.985  43.827   1.984  1.00  0.00     0.222 C 
HETATM    2  O1  UNL     1      -7.302  42.948   2.574  1.00  0.00    -0.273 OA
HETATM    3  N2  UNL     1      -7.852  45.233   2.328  1.00  0.00    -0.319 N 
ENDROOT
BRANCH   3   4
HETATM    4  C14 UNL     1      -6.897  45.534   3.363  1.00  0.00     0.240 C 
BRANCH   4   5
HETATM    5  O2  UNL     1      -7.102  44.829   4.551  1.00  0.00    -0.375 OA
ATOM      6  H2  UNL     1      -7.995  44.867   4.874  1.00  0.00     0.212 HD
ENDBRANCH   4   5
BRANCH   4   7
HETATM    7  C15 UNL     1      -5.466  45.473   2.946  1.00  0.00     0.170 C 
BRANCH   7   8
HETATM    8  N3  UNL     1      -4.945  46.726   2.479  1.00  0.00    -0.408 N 
HETATM    9  C16 UNL     1      -5.381  47.884   3.183  1.00  0.00     0.117 C 
HETATM   10  C17 UNL     1      -5.353  49.066   2.232  1.00  0.00     0.019 C 
HETATM   11  C18 UNL     1      -4.645  48.685   0.972  1.00  0.00     0.003 C 
HETATM   12  C19 UNL     1      -3.336  47.947   1.232  1.00  0.00     0.019 C 
HETATM   13  C20 UNL     1      -3.561  46.739   2.139  1.00  0.00     0.117 C 
ENDBRANCH   7   8
ENDBRANCH   4   7
ENDBRANCH   3   4
BRANCH   3  14
HETATM   14  C21 UNL     1      -8.664  46.144   1.604  1.00  0.00     0.093 C 
HETATM   15  C22 UNL     1      -7.995  47.005   0.597  1.00  0.00     0.031 C 
HETATM   16  C23 UNL     1      -8.924  48.122   0.176  1.00  0.00    -0.001 C 
HETATM   17  C24 UNL     1      -8.639  48.642  -1.189  1.00  0.00     0.006 C 
HETATM   18  C33 UNL     1     -10.386  47.791   0.322  1.00  0.00     0.066 A 
HETATM   19  C25 UNL     1      -9.799  49.109  -1.987  1.00  0.00     0.008 C 
HETATM   20  C26 UNL     1     -10.359  50.455  -1.566  1.00  0.00     0.083 C 
HETATM   21  C27 UNL     1     -11.169  50.183  -0.317  1.00  0.00     0.156 C 
HETATM   22  O3  UNL     1     -12.057  51.024  -0.006  1.00  0.00    -0.293 OA
HETATM   23  C28 UNL     1     -11.076  49.061   0.607  1.00  0.00     0.000 A 
HETATM   24  C29 UNL     1     -11.403  48.633   1.801  1.00  0.00    -0.039 A 
HETATM   25  C30 UNL     1     -12.162  49.207   2.985  1.00  0.00     0.047 C 
HETATM   26  C31 UNL     1     -10.780  47.330   1.667  1.00  0.00     0.091 A 
HETATM   27  C32 UNL     1      -9.538  47.043   2.494  1.00  0.00     0.068 C 
BRANCH  26  28
HETATM   28  O4  UNL     1     -11.719  46.313   1.659  1.00  0.00    -0.384 OA
ATOM     29  H4  UNL     1     -11.330  45.479   1.425  1.00  0.00     0.211 HD
ENDBRANCH  26  28
ENDBRANCH   3  14
BRANCH   1  30
HETATM   30  C12 UNL     1      -8.923  43.368   0.930  1.00  0.00     0.103 C 
BRANCH  30  31
HETATM   31  C11 UNL     1      -8.186  42.512  -0.083  1.00  0.00     0.009 C 
BRANCH  31  32
HETATM   32  C10 UNL     1      -8.968  41.275  -0.424  1.00  0.00     0.002 C 
BRANCH  32  33
HETATM   33  C9  UNL     1     -10.398  41.600  -0.621  1.00  0.00     0.020 C 
BRANCH  33  34
HETATM   34  C8  UNL     1     -10.744  42.056  -1.986  1.00  0.00     0.127 C 
BRANCH  34  35
HETATM   35  N1  UNL     1     -11.488  43.280  -1.986  1.00  0.00    -0.332 N 
HETATM   36  C7  UNL     1     -13.000  43.318  -2.058  1.00  0.00     0.153 C 
HETATM   37  C6  UNL     1     -13.163  44.573  -2.829  1.00  0.00     0.108 C 
HETATM   38  N4  UNL     1     -12.295  45.462  -2.064  1.00  0.00    -0.336 N 
HETATM   39  C34 UNL     1     -11.106  44.634  -1.903  1.00  0.00     0.318 C 
ATOM     40  H4  UNL     1     -12.473  46.408  -1.730  1.00  0.00     0.164 HD
HETATM   41  O5  UNL     1      -9.967  45.121  -1.730  1.00  0.00    -0.247 OA
BRANCH  37  42
HETATM   42  C4  UNL     1     -14.490  45.089  -3.146  1.00  0.00     0.006 C 
HETATM   43  C5  UNL     1     -15.067  45.615  -1.791  1.00  0.00     0.012 C 
BRANCH  42  44
HETATM   44  C3  UNL     1     -15.518  44.260  -3.783  1.00  0.00     0.006 C 
BRANCH  44  45
HETATM   45  C2  UNL     1     -15.892  44.501  -5.196  1.00  0.00    -0.004 C 
HETATM   46  C1  UNL     1     -15.945  45.957  -5.573  1.00  0.00     0.005 C 
ENDBRANCH  44  45
ENDBRANCH  42  44
ENDBRANCH  37  42
ENDBRANCH  34  35
ENDBRANCH  33  34
ENDBRANCH  32  33
ENDBRANCH  31  32
ENDBRANCH  30  31
ENDBRANCH   1  30
TORSDOF 15
ENDMDL
MODEL 4
REMARK VINA RESULT: -7.131355826      1.910      7.893
REMARK  15 active torsions:
REMARK  status: ('A' for Active; 'I' for Inactive)
REMARK    1  A    between atoms: C2_2  and  C3_3 
REMARK    2  A    between atoms: C3_3  and  C4_4 
REMARK    3  A    between atoms: C4_4  and  C6_6 
REMARK    4  A    between atoms: N1_8  and  C8_9 
REMARK    5  A    between atoms: C8_9  and  C9_10 
REMARK    6  A    between atoms: C9_10  and  C10_11 
REMARK    7  A    between atoms: C10_11  and  C11_12 
REMARK    8  A    between atoms: C11_12  and  C12_13 
REMARK    9  A    between atoms: C12_13  and  C13_14 
REMARK       I    between atoms: C13_14  and  N2_16 
REMARK   10  A    between atoms: N2_16  and  C14_17 
REMARK   11  A    between atoms: N2_16  and  C21_27 
REMARK   12  A    between atoms: C14_17  and  O2_18 
REMARK   13  A    between atoms: C14_17  and  C15_20 
REMARK   14  A    between atoms: C15_20  and  N3_21 
REMARK   15  A    between atoms: C31_38  and  O4_39 
ROOT
HETATM    1  C13 UNL     1      -7.965  42.451   0.490  1.00  0.00     0.222 C 
HETATM    2  O1  UNL     1      -7.533  41.276   0.628  1.00  0.00    -0.273 OA
HETATM    3  N2  UNL     1      -7.466  43.533   1.321  1.00  0.00    -0.319 N 
ENDROOT
BRANCH   3   4
HETATM    4  C14 UNL     1      -6.458  43.168   2.282  1.00  0.00     0.240 C 
BRANCH   4   5
HETATM    5  O2  UNL     1      -5.234  42.804   1.714  1.00  0.00    -0.375 OA
ATOM      6  H2  UNL     1      -4.911  43.418   1.066  1.00  0.00     0.212 HD
ENDBRANCH   4   5
BRANCH   4   7
HETATM    7  C15 UNL     1      -6.262  44.136   3.399  1.00  0.00     0.170 C 
BRANCH   7   8
HETATM    8  N3  UNL     1      -4.948  44.712   3.442  1.00  0.00    -0.408 N 
HETATM    9  C16 UNL     1      -4.808  45.993   2.838  1.00  0.00     0.117 C 
HETATM   10  C17 UNL     1      -3.380  46.141   2.345  1.00  0.00     0.019 C 
HETATM   11  C18 UNL     1      -2.542  45.023   2.876  1.00  0.00     0.003 C 
HETATM   12  C19 UNL     1      -2.762  44.779   4.365  1.00  0.00     0.019 C 
HETATM   13  C20 UNL     1      -4.243  44.569   4.672  1.00  0.00     0.117 C 
ENDBRANCH   7   8
ENDBRANCH   4   7
ENDBRANCH   3   4
BRANCH   3  14
HETATM   14  C21 UNL     1      -8.016  44.821   1.086  1.00  0.00     0.093 C 
HETATM   15  C22 UNL     1      -7.257  45.737   0.200  1.00  0.00     0.031 C 
HETATM   16  C23 UNL     1      -7.796  47.144   0.330  1.00  0.00    -0.001 C 
HETATM   17  C24 UNL     1      -7.566  47.978  -0.881  1.00  0.00     0.006 C 
HETATM   18  C33 UNL     1      -9.240  47.210   0.752  1.00  0.00     0.066 A 
HETATM   19  C25 UNL     1      -8.603  48.987  -1.211  1.00  0.00     0.008 C 
HETATM   20  C26 UNL     1      -8.589  50.222  -0.330  1.00  0.00     0.083 C 
HETATM   21  C27 UNL     1      -9.238  49.798   0.970  1.00  0.00     0.156 C 
HETATM   22  O3  UNL     1      -9.720  50.705   1.703  1.00  0.00    -0.293 OA
HETATM   23  C28 UNL     1      -9.395  48.459   1.520  1.00  0.00     0.000 A 
HETATM   24  C29 UNL     1      -9.659  47.775   2.606  1.00  0.00    -0.039 A 
HETATM   25  C30 UNL     1      -9.978  48.121   4.050  1.00  0.00     0.047 C 
HETATM   26  C31 UNL     1      -9.554  46.467   1.987  1.00  0.00     0.091 A 
HETATM   27  C32 UNL     1      -8.374  45.589   2.370  1.00  0.00     0.068 C 
BRANCH  26  28
HETATM   28  O4  UNL     1     -10.775  45.817   1.957  1.00  0.00    -0.384 OA
ATOM     29  H4  UNL     1     -10.998  45.529   1.080  1.00  0.00     0.211 HD
ENDBRANCH  26  28
ENDBRANCH   3  14
BRANCH   1  30
HETATM   30  C12 UNL     1      -8.998  42.680  -0.551  1.00  0.00     0.103 C 
BRANCH  30  31
HETATM   31  C11 UNL     1      -9.560  41.353  -1.025  1.00  0.00     0.009 C 
BRANCH  31  32
HETATM   32  C10 UNL     1     -10.837  41.544  -1.794  1.00  0.00     0.002 C 
BRANCH  32  33
HETATM   33  C9  UNL     1     -11.491  42.814  -1.411  1.00  0.00     0.020 C 
BRANCH  33  34
HETATM   34  C8  UNL     1     -12.170  43.517  -2.523  1.00  0.00     0.127 C 
BRANCH  34  35
HETATM   35  N1  UNL     1     -12.858  44.697  -2.090  1.00  0.00    -0.332 N 
HETATM   36  C7  UNL     1     -12.135  45.961  -1.675  1.00  0.00     0.153 C 
HETATM   37  C6  UNL     1     -13.076  46.434  -0.633  1.00  0.00     0.108 C 
HETATM   38  N4  UNL     1     -14.337  46.340  -1.361  1.00  0.00    -0.336 N 
HETATM   39  C34 UNL     1     -14.225  45.015  -1.959  1.00  0.00     0.318 C 
ATOM     40  H4  UNL     1     -15.094  47.019  -1.431  1.00  0.00     0.164 HD
HETATM   41  O5  UNL     1     -15.225  44.333  -2.273  1.00  0.00    -0.247 OA
BRANCH  37  42
HETATM   42  C4  UNL     1     -12.837  47.685   0.078  1.00  0.00     0.006 C 
HETATM   43  C5  UNL     1     -14.201  48.049   0.750  1.00  0.00     0.012 C 
BRANCH  42  44
HETATM   44  C3  UNL     1     -12.335  48.885  -0.600  1.00  0.00     0.006 C 
BRANCH  44  45
HETATM   45  C2  UNL     1     -12.830  50.223  -0.199  1.00  0.00    -0.004 C 
HETATM   46  C1  UNL     1     -12.114  51.364  -0.869  1.00  0.00     0.005 C 
ENDBRANCH  44  45
ENDBRANCH  42  44
ENDBRANCH  37  42
ENDBRANCH  34  35
ENDBRANCH  33  34
ENDBRANCH  32  33
ENDBRANCH  31  32
ENDBRANCH  30  31
ENDBRANCH   1  30
TORSDOF 15
ENDMDL
MODEL 5
REMARK VINA RESULT: -7.047699947      3.934      8.744
REMARK  15 active torsions:
REMARK  status: ('A' for Active; 'I' for Inactive)
REMARK    1  A    between atoms: C2_2  and  C3_3 
REMARK    2  A    between atoms: C3_3  and  C4_4 
REMARK    3  A    between atoms: C4_4  and  C6_6 
REMARK    4  A    between atoms: N1_8  and  C8_9 
REMARK    5  A    between atoms: C8_9  and  C9_10 
REMARK    6  A    between atoms: C9_10  and  C10_11 
REMARK    7  A    between atoms: C10_11  and  C11_12 
REMARK    8  A    between atoms: C11_12  and  C12_13 
REMARK    9  A    between atoms: C12_13  and  C13_14 
REMARK       I    between atoms: C13_14  and  N2_16 
REMARK   10  A    between atoms: N2_16  and  C14_17 
REMARK   11  A    between atoms: N2_16  and  C21_27 
REMARK   12  A    between atoms: C14_17  and  O2_18 
REMARK   13  A    between atoms: C14_17  and  C15_20 
REMARK   14  A    between atoms: C15_20  and  N3_21 
REMARK   15  A    between atoms: C31_38  and  O4_39 
ROOT
HETATM    1  C13 UNL     1      -6.843  47.651   0.822  1.00  0.00     0.222 C 
HETATM    2  O1  UNL     1      -6.155  48.406   1.559  1.00  0.00    -0.273 OA
HETATM    3  N2  UNL     1      -7.753  46.674   1.396  1.00  0.00    -0.319 N 
ENDROOT
BRANCH   3   4
HETATM    4  C14 UNL     1      -7.812  46.646   2.834  1.00  0.00     0.240 C 
BRANCH   4   5
HETATM    5  O2  UNL     1      -9.096  46.823   3.356  1.00  0.00    -0.375 OA
ATOM      6  H2  UNL     1      -9.756  46.267   2.958  1.00  0.00     0.212 HD
ENDBRANCH   4   5
BRANCH   4   7
HETATM    7  C15 UNL     1      -7.130  45.486   3.477  1.00  0.00     0.170 C 
BRANCH   7   8
HETATM    8  N3  UNL     1      -5.699  45.528   3.378  1.00  0.00    -0.408 N 
HETATM    9  C16 UNL     1      -5.026  46.271   4.390  1.00  0.00     0.117 C 
HETATM   10  C17 UNL     1      -3.726  46.802   3.813  1.00  0.00     0.019 C 
HETATM   11  C18 UNL     1      -3.463  46.167   2.486  1.00  0.00     0.003 C 
HETATM   12  C19 UNL     1      -3.671  44.656   2.505  1.00  0.00     0.019 C 
HETATM   13  C20 UNL     1      -5.059  44.303   3.034  1.00  0.00     0.117 C 
ENDBRANCH   7   8
ENDBRANCH   4   7
ENDBRANCH   3   4
BRANCH   3  14
HETATM   14  C21 UNL     1      -8.483  45.872   0.481  1.00  0.00     0.093 C 
HETATM   15  C22 UNL     1      -9.912  46.210   0.263  1.00  0.00     0.031 C 
HETATM   16  C23 UNL     1     -10.606  45.078  -0.460  1.00  0.00    -0.001 C 
HETATM   17  C24 UNL     1     -11.791  45.518  -1.245  1.00  0.00     0.006 C 
HETATM   18  C33 UNL     1      -9.688  44.240  -1.311  1.00  0.00     0.066 A 
HETATM   19  C25 UNL     1     -12.074  44.786  -2.504  1.00  0.00     0.008 C 
HETATM   20  C26 UNL     1     -12.682  43.409  -2.315  1.00  0.00     0.083 C 
HETATM   21  C27 UNL     1     -11.533  42.513  -1.906  1.00  0.00     0.156 C 
HETATM   22  O3  UNL     1     -11.672  41.271  -2.086  1.00  0.00    -0.293 OA
HETATM   23  C28 UNL     1     -10.251  42.878  -1.319  1.00  0.00     0.000 A 
HETATM   24  C29 UNL     1      -9.204  42.425  -0.676  1.00  0.00    -0.039 A 
HETATM   25  C30 UNL     1      -8.761  41.071  -0.150  1.00  0.00     0.047 C 
HETATM   26  C31 UNL     1      -8.514  43.699  -0.600  1.00  0.00     0.091 A 
HETATM   27  C32 UNL     1      -8.390  44.363   0.762  1.00  0.00     0.068 C 
BRANCH  26  28
HETATM   28  O4  UNL     1      -7.353  43.697  -1.352  1.00  0.00    -0.384 OA
ATOM     29  H4  UNL     1      -6.608  43.394  -0.847  1.00  0.00     0.211 HD
ENDBRANCH  26  28
ENDBRANCH   3  14
BRANCH   1  30
HETATM   30  C12 UNL     1      -6.684  47.801  -0.645  1.00  0.00     0.103 C 
BRANCH  30  31
HETATM   31  C11 UNL     1      -6.128  49.175  -0.970  1.00  0.00     0.009 C 
BRANCH  31  32
HETATM   32  C10 UNL     1      -4.833  49.076  -1.725  1.00  0.00     0.002 C 
BRANCH  32  33
HETATM   33  C9  UNL     1      -3.793  48.433  -0.892  1.00  0.00     0.020 C 
BRANCH  33  34
HETATM   34  C8  UNL     1      -2.450  49.046  -1.003  1.00  0.00     0.127 C 
BRANCH  34  35
HETATM   35  N1  UNL     1      -1.414  48.201  -0.487  1.00  0.00    -0.332 N 
HETATM   36  C7  UNL     1      -1.042  46.879  -1.126  1.00  0.00     0.153 C 
HETATM   37  C6  UNL     1      -0.659  46.133   0.095  1.00  0.00     0.108 C 
HETATM   38  N4  UNL     1       0.244  47.095   0.715  1.00  0.00    -0.336 N 
HETATM   39  C34 UNL     1      -0.527  48.328   0.600  1.00  0.00     0.318 C 
ATOM     40  H4  UNL     1       1.167  46.946   1.121  1.00  0.00     0.164 HD
HETATM   41  O5  UNL     1      -0.371  49.293   1.380  1.00  0.00    -0.247 OA
BRANCH  37  42
HETATM   42  C4  UNL     1      -0.174  44.760   0.011  1.00  0.00     0.006 C 
HETATM   43  C5  UNL     1      -0.135  44.241   1.485  1.00  0.00     0.012 C 
BRANCH  42  44
HETATM   44  C3  UNL     1       1.106  44.421  -0.620  1.00  0.00     0.006 C 
BRANCH  44  45
HETATM   45  C2  UNL     1       1.142  44.002  -2.041  1.00  0.00    -0.004 C 
HETATM   46  C1  UNL     1       1.881  42.714  -2.278  1.00  0.00     0.005 C 
ENDBRANCH  44  45
ENDBRANCH  42  44
ENDBRANCH  37  42
ENDBRANCH  34  35
ENDBRANCH  33  34
ENDBRANCH  32  33
ENDBRANCH  31  32
ENDBRANCH  30  31
ENDBRANCH   1  30
TORSDOF 15
ENDMDL
