MODEL 1
REMARK VINA RESULT: -7.020960003      0.000      0.000
REMARK  16 active torsions:
REMARK  status: ('A' for Active; 'I' for Inactive)
REMARK    1  A    between atoms: C2_2  and  C4_4 
REMARK    2  A    between atoms: C4_4  and  C5_5 
REMARK    3  A    between atoms: C5_5  and  N1_6 
REMARK    4  A    between atoms: C5_5  and  C14_21 
REMARK       I    between atoms: N1_6  and  C6_8 
REMARK    5  A    between atoms: C6_8  and  C7_10 
REMARK    6  A    between atoms: C7_10  and  N2_11 
REMARK    7  A    between atoms: C7_10  and  C8_15 
REMARK       I    between atoms: C14_21  and  N3_23 
REMARK    8  A    between atoms: C16_26  and  C17_27 
REMARK    9  A    between atoms: C17_27  and  C19_29 
REMARK   10  A    between atoms: C19_29  and  O3_30 
REMARK   11  A    between atoms: C22_34  and  N4_35 
REMARK   12  A    between atoms: N4_35  and  C23_36 
REMARK   13  A    between atoms: N4_35  and  O5_38 
REMARK   14  A    between atoms: O5_38  and  C24_39 
REMARK   15  A    between atoms: C24_39  and  C25_40 
REMARK   16  A    between atoms: C30_45  and  C31_46 
ROOT
HETATM    1  C14 UNL     1      -9.945  44.311   0.720  1.00  0.00     0.244 C 
HETATM    2  O2  UNL     1     -10.157  43.960   1.935  1.00  0.00    -0.271 OA
HETATM    3  N3  UNL     1     -10.933  45.078   0.132  1.00  0.00    -0.328 N 
ATOM      4  H3  UNL     1     -11.716  44.504  -0.180  1.00  0.00     0.168 HD
HETATM    5  C15 UNL     1     -11.120  46.272  -0.117  1.00  0.00     0.028 C 
HETATM    6  C16 UNL     1     -12.387  46.672  -0.797  1.00  0.00     0.042 C 
HETATM    7  C20 UNL     1     -12.768  48.047  -0.427  1.00  0.00     0.017 C 
HETATM    8  C21 UNL     1     -11.723  49.087  -0.770  1.00  0.00     0.061 C 
HETATM    9  C22 UNL     1     -10.331  48.532  -0.690  1.00  0.00     0.055 C 
HETATM   10  C29 UNL     1     -10.132  47.373   0.198  1.00  0.00     0.009 C 
HETATM   11  C30 UNL     1      -9.603  47.402   1.541  1.00  0.00    -0.008 C 
ENDROOT
BRANCH   6  12
HETATM   12  C17 UNL     1     -13.516  45.720  -0.605  1.00  0.00     0.015 C 
HETATM   13  C18 UNL     1     -14.048  45.310  -1.967  1.00  0.00     0.012 C 
BRANCH  12  14
HETATM   14  C19 UNL     1     -14.655  46.125   0.238  1.00  0.00     0.169 C 
BRANCH  14  15
HETATM   15  O3  UNL     1     -14.607  45.673   1.539  1.00  0.00    -0.400 OA
ATOM     16  H3  UNL     1     -15.347  45.141   1.807  1.00  0.00     0.209 HD
ENDBRANCH  14  15
ENDBRANCH  12  14
ENDBRANCH   6  12
BRANCH   1  17
HETATM   17  C5  UNL     1      -8.689  43.850   0.123  1.00  0.00     0.177 C 
BRANCH  17  18
HETATM   18  C4  UNL     1      -8.777  42.780  -0.873  1.00  0.00     0.038 C 
BRANCH  18  19
HETATM   19  C2  UNL     1      -9.648  41.614  -0.693  1.00  0.00    -0.020 C 
HETATM   20  C1  UNL     1     -10.670  41.322  -1.732  1.00  0.00     0.009 C 
HETATM   21  C3  UNL     1      -8.865  40.344  -0.306  1.00  0.00     0.009 C 
ENDBRANCH  18  19
ENDBRANCH  17  18
BRANCH  17  22
HETATM   22  N1  UNL     1      -7.641  43.587   1.075  1.00  0.00    -0.346 N 
HETATM   23  C6  UNL     1      -6.710  44.535   1.524  1.00  0.00     0.249 C 
HETATM   24  O1  UNL     1      -6.783  45.705   1.073  1.00  0.00    -0.271 OA
ATOM     25  H1  UNL     1      -7.571  42.641   1.450  1.00  0.00     0.163 HD
BRANCH  23  26
HETATM   26  C7  UNL     1      -5.672  44.158   2.507  1.00  0.00     0.278 C 
BRANCH  26  27
HETATM   27  N2  UNL     1      -4.907  43.006   2.069  1.00  0.00    -0.066 N 
ATOM     28  H23 UNL     1      -5.133  42.179   2.621  1.00  0.00     0.275 HD
ATOM     29  H22 UNL     1      -5.220  42.679   1.155  1.00  0.00     0.275 HD
ATOM     30  H21 UNL     1      -3.904  43.193   2.073  1.00  0.00     0.275 HD
ENDBRANCH  26  27
BRANCH  26  31
HETATM   31  C8  UNL     1      -6.275  43.914   3.880  1.00  0.00     0.025 C 
HETATM   32  C9  UNL     1      -5.338  43.303   4.862  1.00  0.00     0.007 C 
HETATM   33  C10 UNL     1      -5.185  44.116   6.125  1.00  0.00     0.000 C 
HETATM   34  C11 UNL     1      -5.102  45.583   5.862  1.00  0.00     0.000 C 
HETATM   35  C12 UNL     1      -6.198  46.111   5.003  1.00  0.00     0.000 C 
HETATM   36  C13 UNL     1      -7.054  45.040   4.436  1.00  0.00     0.007 C 
ENDBRANCH  26  31
ENDBRANCH  23  26
ENDBRANCH  17  22
ENDBRANCH   1  17
BRANCH   9  37
HETATM   37  N4  UNL     1      -9.352  49.551  -0.696  1.00  0.00    -0.200 N 
BRANCH  37  38
HETATM   38  C23 UNL     1      -9.313  50.730   0.080  1.00  0.00     0.381 C 
HETATM   39  O4  UNL     1      -9.073  50.642   1.330  1.00  0.00    -0.281 OA
ENDBRANCH  37  38
BRANCH  37  40
HETATM   40  O5  UNL     1      -8.267  49.426  -1.554  1.00  0.00    -0.270 OA
BRANCH  40  41
HETATM   41  C24 UNL     1      -7.231  48.759  -0.962  1.00  0.00     0.210 C 
BRANCH  41  42
HETATM   42  C25 UNL     1      -5.952  49.551  -0.929  1.00  0.00    -0.027 C 
HETATM   43  C26 UNL     1      -5.623  49.996   0.497  1.00  0.00     0.016 C 
HETATM   44  C27 UNL     1      -4.767  48.745  -1.410  1.00  0.00     0.016 C 
HETATM   45  C28 UNL     1      -6.034  50.805  -1.769  1.00  0.00     0.016 C 
ENDBRANCH  41  42
ENDBRANCH  40  41
ENDBRANCH  37  40
ENDBRANCH   9  37
BRANCH  11  46
HETATM   46  C31 UNL     1     -10.402  47.494   2.770  1.00  0.00     0.001 C 
HETATM   47  C32 UNL     1      -9.418  47.965   3.902  1.00  0.00     0.013 C 
HETATM   48  C33 UNL     1     -11.511  48.480   2.867  1.00  0.00     0.013 C 
ENDBRANCH  11  46
TORSDOF 16
ENDMDL
MODEL 2
REMARK VINA RESULT: -6.977298818      3.087      8.181
REMARK  16 active torsions:
REMARK  status: ('A' for Active; 'I' for Inactive)
REMARK    1  A    between atoms: C2_2  and  C4_4 
REMARK    2  A    between atoms: C4_4  and  C5_5 
REMARK    3  A    between atoms: C5_5  and  N1_6 
REMARK    4  A    between atoms: C5_5  and  C14_21 
REMARK       I    between atoms: N1_6  and  C6_8 
REMARK    5  A    between atoms: C6_8  and  C7_10 
REMARK    6  A    between atoms: C7_10  and  N2_11 
REMARK    7  A    between atoms: C7_10  and  C8_15 
REMARK       I    between atoms: C14_21  and  N3_23 
REMARK    8  A    between atoms: C16_26  and  C17_27 
REMARK    9  A    between atoms: C17_27  and  C19_29 
REMARK   10  A    between atoms: C19_29  and  O3_30 
REMARK   11  A    between atoms: C22_34  and  N4_35 
REMARK   12  A    between atoms: N4_35  and  C23_36 
REMARK   13  A    between atoms: N4_35  and  O5_38 
REMARK   14  A    between atoms: O5_38  and  C24_39 
REMARK   15  A    between atoms: C24_39  and  C25_40 
REMARK   16  A    between atoms: C30_45  and  C31_46 
ROOT
HETATM    1  C14 UNL     1     -13.827  47.022   0.149  1.00  0.00     0.244 C 
HETATM    2  O2  UNL     1     -14.361  47.066   1.314  1.00  0.00    -0.271 OA
HETATM    3  N3  UNL     1     -13.102  48.138  -0.225  1.00  0.00    -0.328 N 
ATOM      4  H3  UNL     1     -13.713  48.890  -0.543  1.00  0.00     0.168 HD
HETATM    5  C15 UNL     1     -11.914  48.468  -0.276  1.00  0.00     0.028 C 
HETATM    6  C16 UNL     1     -11.572  49.834  -0.769  1.00  0.00     0.042 C 
HETATM    7  C20 UNL     1     -10.312  50.307  -0.166  1.00  0.00     0.017 C 
HETATM    8  C21 UNL     1      -9.123  49.413  -0.448  1.00  0.00     0.061 C 
HETATM    9  C22 UNL     1      -9.523  47.973  -0.581  1.00  0.00     0.055 C 
HETATM   10  C29 UNL     1     -10.763  47.565   0.105  1.00  0.00     0.009 C 
HETATM   11  C30 UNL     1     -10.858  46.899   1.382  1.00  0.00    -0.008 C 
ENDROOT
BRANCH   6  12
HETATM   12  C17 UNL     1     -12.662  50.836  -0.615  1.00  0.00     0.015 C 
HETATM   13  C18 UNL     1     -12.299  52.081  -1.407  1.00  0.00     0.012 C 
BRANCH  12  14
HETATM   14  C19 UNL     1     -13.066  51.248   0.742  1.00  0.00     0.169 C 
BRANCH  14  15
HETATM   15  O3  UNL     1     -14.234  50.678   1.200  1.00  0.00    -0.400 OA
ATOM     16  H3  UNL     1     -15.009  50.886   0.692  1.00  0.00     0.209 HD
ENDBRANCH  14  15
ENDBRANCH  12  14
ENDBRANCH   6  12
BRANCH   1  17
HETATM   17  C5  UNL     1     -14.056  45.799  -0.623  1.00  0.00     0.177 C 
BRANCH  17  18
HETATM   18  C4  UNL     1     -12.921  44.888  -0.782  1.00  0.00     0.038 C 
BRANCH  18  19
HETATM   19  C2  UNL     1     -12.560  44.308  -2.079  1.00  0.00    -0.020 C 
HETATM   20  C1  UNL     1     -11.493  44.964  -2.879  1.00  0.00     0.009 C 
HETATM   21  C3  UNL     1     -12.348  42.782  -2.008  1.00  0.00     0.009 C 
ENDBRANCH  18  19
ENDBRANCH  17  18
BRANCH  17  22
HETATM   22  N1  UNL     1     -14.732  46.007  -1.878  1.00  0.00    -0.346 N 
HETATM   23  C6  UNL     1     -15.944  45.403  -2.245  1.00  0.00     0.249 C 
HETATM   24  O1  UNL     1     -16.493  44.620  -1.430  1.00  0.00    -0.271 OA
ATOM     25  H1  UNL     1     -14.298  46.641  -2.549  1.00  0.00     0.163 HD
BRANCH  23  26
HETATM   26  C7  UNL     1     -16.554  45.688  -3.561  1.00  0.00     0.278 C 
BRANCH  26  27
HETATM   27  N2  UNL     1     -15.566  46.115  -4.532  1.00  0.00    -0.066 N 
ATOM     28  H23 UNL     1     -15.796  45.779  -5.467  1.00  0.00     0.275 HD
ATOM     29  H22 UNL     1     -15.624  47.118  -4.704  1.00  0.00     0.275 HD
ATOM     30  H21 UNL     1     -14.622  45.839  -4.260  1.00  0.00     0.275 HD
ENDBRANCH  26  27
BRANCH  26  31
HETATM   31  C8  UNL     1     -17.671  46.711  -3.442  1.00  0.00     0.025 C 
HETATM   32  C9  UNL     1     -17.358  48.034  -4.049  1.00  0.00     0.007 C 
HETATM   33  C10 UNL     1     -18.367  48.466  -5.087  1.00  0.00     0.000 C 
HETATM   34  C11 UNL     1     -18.799  47.346  -5.974  1.00  0.00     0.000 C 
HETATM   35  C12 UNL     1     -19.255  46.131  -5.244  1.00  0.00     0.000 C 
HETATM   36  C13 UNL     1     -19.021  46.215  -3.781  1.00  0.00     0.007 C 
ENDBRANCH  26  31
ENDBRANCH  23  26
ENDBRANCH  17  22
ENDBRANCH   1  17
BRANCH   9  37
HETATM   37  N4  UNL     1      -8.409  47.105  -0.527  1.00  0.00    -0.200 N 
BRANCH  37  38
HETATM   38  C23 UNL     1      -7.079  47.412  -0.167  1.00  0.00     0.381 C 
HETATM   39  O4  UNL     1      -6.242  47.712  -1.083  1.00  0.00    -0.281 OA
ENDBRANCH  37  38
BRANCH  37  40
HETATM   40  O5  UNL     1      -8.590  45.769  -0.861  1.00  0.00    -0.270 OA
BRANCH  40  41
HETATM   41  C24 UNL     1      -7.938  44.940   0.009  1.00  0.00     0.210 C 
BRANCH  41  42
HETATM   42  C25 UNL     1      -8.428  43.518  -0.039  1.00  0.00    -0.027 C 
HETATM   43  C26 UNL     1      -9.752  43.373   0.714  1.00  0.00     0.016 C 
HETATM   44  C27 UNL     1      -8.686  43.049  -1.453  1.00  0.00     0.016 C 
HETATM   45  C28 UNL     1      -7.455  42.556   0.600  1.00  0.00     0.016 C 
ENDBRANCH  41  42
ENDBRANCH  40  41
ENDBRANCH  37  40
ENDBRANCH   9  37
BRANCH  11  46
HETATM   46  C31 UNL     1     -11.026  47.566   2.680  1.00  0.00     0.001 C 
HETATM   47  C32 UNL     1      -9.584  47.973   3.156  1.00  0.00     0.013 C 
HETATM   48  C33 UNL     1     -11.776  48.846   2.770  1.00  0.00     0.013 C 
ENDBRANCH  11  46
TORSDOF 16
ENDMDL
MODEL 3
REMARK VINA RESULT: -6.970346478      0.962      1.746
REMARK  16 active torsions:
REMARK  status: ('A' for Active; 'I' for Inactive)
REMARK    1  A    between atoms: C2_2  and  C4_4 
REMARK    2  A    between atoms: C4_4  and  C5_5 
REMARK    3  A    between atoms: C5_5  and  N1_6 
REMARK    4  A    between atoms: C5_5  and  C14_21 
REMARK       I    between atoms: N1_6  and  C6_8 
REMARK    5  A    between atoms: C6_8  and  C7_10 
REMARK    6  A    between atoms: C7_10  and  N2_11 
REMARK    7  A    between atoms: C7_10  and  C8_15 
REMARK       I    between atoms: C14_21  and  N3_23 
REMARK    8  A    between atoms: C16_26  and  C17_27 
REMARK    9  A    between atoms: C17_27  and  C19_29 
REMARK   10  A    between atoms: C19_29  and  O3_30 
REMARK   11  A    between atoms: C22_34  and  N4_35 
REMARK   12  A    between atoms: N4_35  and  C23_36 
REMARK   13  A    between atoms: N4_35  and  O5_38 
REMARK   14  A    between atoms: O5_38  and  C24_39 
REMARK   15  A    between atoms: C24_39  and  C25_40 
REMARK   16  A    between atoms: C30_45  and  C31_46 
ROOT
HETATM    1  C14 UNL     1     -10.005  44.374   0.747  1.00  0.00     0.244 C 
HETATM    2  O2  UNL     1     -10.226  43.994   1.952  1.00  0.00    -0.271 OA
HETATM    3  N3  UNL     1     -10.988  45.157   0.171  1.00  0.00    -0.328 N 
ATOM      4  H3  UNL     1     -11.769  44.591  -0.159  1.00  0.00     0.168 HD
HETATM    5  C15 UNL     1     -11.173  46.357  -0.049  1.00  0.00     0.028 C 
HETATM    6  C16 UNL     1     -12.435  46.774  -0.728  1.00  0.00     0.042 C 
HETATM    7  C20 UNL     1     -12.817  48.140  -0.327  1.00  0.00     0.017 C 
HETATM    8  C21 UNL     1     -11.769  49.187  -0.637  1.00  0.00     0.061 C 
HETATM    9  C22 UNL     1     -10.378  48.629  -0.562  1.00  0.00     0.055 C 
HETATM   10  C29 UNL     1     -10.185  47.448   0.299  1.00  0.00     0.009 C 
HETATM   11  C30 UNL     1      -9.666  47.444   1.646  1.00  0.00    -0.008 C 
ENDROOT
BRANCH   6  12
HETATM   12  C17 UNL     1     -13.566  45.818  -0.567  1.00  0.00     0.015 C 
HETATM   13  C18 UNL     1     -14.105  45.462  -1.942  1.00  0.00     0.012 C 
BRANCH  12  14
HETATM   14  C19 UNL     1     -14.700  46.195   0.296  1.00  0.00     0.169 C 
BRANCH  14  15
HETATM   15  O3  UNL     1     -14.695  45.621   1.549  1.00  0.00    -0.400 OA
ATOM     16  H3  UNL     1     -14.673  46.236   2.272  1.00  0.00     0.209 HD
ENDBRANCH  14  15
ENDBRANCH  12  14
ENDBRANCH   6  12
BRANCH   1  17
HETATM   17  C5  UNL     1      -8.746  43.927   0.148  1.00  0.00     0.177 C 
BRANCH  17  18
HETATM   18  C4  UNL     1      -8.827  42.871  -0.864  1.00  0.00     0.038 C 
BRANCH  18  19
HETATM   19  C2  UNL     1      -9.670  41.685  -0.690  1.00  0.00    -0.020 C 
HETATM   20  C1  UNL     1     -10.665  41.359  -1.746  1.00  0.00     0.009 C 
HETATM   21  C3  UNL     1      -8.863  40.438  -0.278  1.00  0.00     0.009 C 
ENDBRANCH  18  19
ENDBRANCH  17  18
BRANCH  17  22
HETATM   22  N1  UNL     1      -7.700  43.653   1.099  1.00  0.00    -0.346 N 
HETATM   23  C6  UNL     1      -6.740  44.584   1.525  1.00  0.00     0.249 C 
HETATM   24  O1  UNL     1      -6.784  45.747   1.052  1.00  0.00    -0.271 OA
ATOM     25  H1  UNL     1      -7.653  42.713   1.493  1.00  0.00     0.163 HD
BRANCH  23  26
HETATM   26  C7  UNL     1      -5.708  44.198   2.510  1.00  0.00     0.278 C 
BRANCH  26  27
HETATM   27  N2  UNL     1      -4.978  43.018   2.091  1.00  0.00    -0.066 N 
ATOM     28  H23 UNL     1      -5.540  42.174   2.201  1.00  0.00     0.275 HD
ATOM     29  H22 UNL     1      -4.855  42.997   1.078  1.00  0.00     0.275 HD
ATOM     30  H21 UNL     1      -4.083  42.933   2.574  1.00  0.00     0.275 HD
ENDBRANCH  26  27
BRANCH  26  31
HETATM   31  C8  UNL     1      -6.309  43.998   3.890  1.00  0.00     0.025 C 
HETATM   32  C9  UNL     1      -5.406  43.321   4.861  1.00  0.00     0.007 C 
HETATM   33  C10 UNL     1      -5.179  44.120   6.122  1.00  0.00     0.000 C 
HETATM   34  C11 UNL     1      -4.993  45.578   5.856  1.00  0.00     0.000 C 
HETATM   35  C12 UNL     1      -6.059  46.184   5.010  1.00  0.00     0.000 C 
HETATM   36  C13 UNL     1      -6.998  45.177   4.456  1.00  0.00     0.007 C 
ENDBRANCH  26  31
ENDBRANCH  23  26
ENDBRANCH  17  22
ENDBRANCH   1  17
BRANCH   9  37
HETATM   37  N4  UNL     1      -9.397  49.647  -0.536  1.00  0.00    -0.200 N 
BRANCH  37  38
HETATM   38  C23 UNL     1      -8.218  49.742  -1.305  1.00  0.00     0.381 C 
HETATM   39  O4  UNL     1      -7.526  48.690  -1.512  1.00  0.00    -0.281 OA
ENDBRANCH  37  38
BRANCH  37  40
HETATM   40  O5  UNL     1      -9.568  50.712   0.338  1.00  0.00    -0.270 OA
BRANCH  40  41
HETATM   41  C24 UNL     1      -8.393  51.375   0.559  1.00  0.00     0.210 C 
BRANCH  41  42
HETATM   42  C25 UNL     1      -7.960  51.358   2.000  1.00  0.00    -0.027 C 
HETATM   43  C26 UNL     1      -7.096  52.579   2.323  1.00  0.00     0.016 C 
HETATM   44  C27 UNL     1      -9.134  51.402   2.952  1.00  0.00     0.016 C 
HETATM   45  C28 UNL     1      -7.133  50.139   2.334  1.00  0.00     0.016 C 
ENDBRANCH  41  42
ENDBRANCH  40  41
ENDBRANCH  37  40
ENDBRANCH   9  37
BRANCH  11  46
HETATM   46  C31 UNL     1     -10.473  47.507   2.871  1.00  0.00     0.001 C 
HETATM   47  C32 UNL     1      -9.483  47.882   4.033  1.00  0.00     0.013 C 
HETATM   48  C33 UNL     1     -11.544  48.529   3.008  1.00  0.00     0.013 C 
ENDBRANCH  11  46
TORSDOF 16
ENDMDL
MODEL 4
REMARK VINA RESULT: -6.935211043      2.353      6.888
REMARK  16 active torsions:
REMARK  status: ('A' for Active; 'I' for Inactive)
REMARK    1  A    between atoms: C2_2  and  C4_4 
REMARK    2  A    between atoms: C4_4  and  C5_5 
REMARK    3  A    between atoms: C5_5  and  N1_6 
REMARK    4  A    between atoms: C5_5  and  C14_21 
REMARK       I    between atoms: N1_6  and  C6_8 
REMARK    5  A    between atoms: C6_8  and  C7_10 
REMARK    6  A    between atoms: C7_10  and  N2_11 
REMARK    7  A    between atoms: C7_10  and  C8_15 
REMARK       I    between atoms: C14_21  and  N3_23 
REMARK    8  A    between atoms: C16_26  and  C17_27 
REMARK    9  A    between atoms: C17_27  and  C19_29 
REMARK   10  A    between atoms: C19_29  and  O3_30 
REMARK   11  A    between atoms: C22_34  and  N4_35 
REMARK   12  A    between atoms: N4_35  and  C23_36 
REMARK   13  A    between atoms: N4_35  and  O5_38 
REMARK   14  A    between atoms: O5_38  and  C24_39 
REMARK   15  A    between atoms: C24_39  and  C25_40 
REMARK   16  A    between atoms: C30_45  and  C31_46 
ROOT
HETATM    1  C14 UNL     1      -6.206  46.118   2.890  1.00  0.00     0.244 C 
HETATM    2  O2  UNL     1      -5.370  45.202   2.565  1.00  0.00    -0.271 OA
HETATM    3  N3  UNL     1      -6.529  47.021   1.895  1.00  0.00    -0.328 N 
ATOM      4  H3  UNL     1      -5.806  47.732   1.786  1.00  0.00     0.168 HD
HETATM    5  C15 UNL     1      -7.459  47.197   1.102  1.00  0.00     0.028 C 
HETATM    6  C16 UNL     1      -7.389  48.355   0.163  1.00  0.00     0.042 C 
HETATM    7  C20 UNL     1      -8.130  48.066  -1.079  1.00  0.00     0.017 C 
HETATM    8  C21 UNL     1      -9.593  47.747  -0.861  1.00  0.00     0.061 C 
HETATM    9  C22 UNL     1      -9.830  47.068   0.456  1.00  0.00     0.055 C 
HETATM   10  C29 UNL     1      -8.693  46.326   1.031  1.00  0.00     0.009 C 
HETATM   11  C30 UNL     1      -8.477  44.901   0.964  1.00  0.00    -0.008 C 
ENDROOT
BRANCH   6  12
HETATM   12  C17 UNL     1      -6.009  48.836  -0.121  1.00  0.00     0.015 C 
HETATM   13  C18 UNL     1      -5.989  50.351  -0.029  1.00  0.00     0.012 C 
BRANCH  12  14
HETATM   14  C19 UNL     1      -5.361  48.437  -1.385  1.00  0.00     0.169 C 
BRANCH  14  15
HETATM   15  O3  UNL     1      -5.250  49.439  -2.324  1.00  0.00    -0.400 OA
ATOM     16  H3  UNL     1      -4.409  49.880  -2.344  1.00  0.00     0.209 HD
ENDBRANCH  14  15
ENDBRANCH  12  14
ENDBRANCH   6  12
BRANCH   1  17
HETATM   17  C5  UNL     1      -6.703  46.083   4.267  1.00  0.00     0.177 C 
BRANCH  17  18
HETATM   18  C4  UNL     1      -6.758  44.775   4.923  1.00  0.00     0.038 C 
BRANCH  18  19
HETATM   19  C2  UNL     1      -5.894  44.432   6.057  1.00  0.00    -0.020 C 
HETATM   20  C1  UNL     1      -4.621  43.712   5.790  1.00  0.00     0.009 C 
HETATM   21  C3  UNL     1      -5.676  45.618   7.016  1.00  0.00     0.009 C 
ENDBRANCH  18  19
ENDBRANCH  17  18
BRANCH  17  22
HETATM   22  N1  UNL     1      -7.922  46.819   4.478  1.00  0.00    -0.346 N 
HETATM   23  C6  UNL     1      -7.996  48.106   5.033  1.00  0.00     0.249 C 
HETATM   24  O1  UNL     1      -6.927  48.671   5.376  1.00  0.00    -0.271 OA
ATOM     25  H1  UNL     1      -8.797  46.373   4.203  1.00  0.00     0.163 HD
BRANCH  23  26
HETATM   26  C7  UNL     1      -9.303  48.774   5.204  1.00  0.00     0.278 C 
BRANCH  26  27
HETATM   27  N2  UNL     1     -10.129  48.100   6.188  1.00  0.00    -0.066 N 
ATOM     28  H23 UNL     1      -9.751  48.210   7.128  1.00  0.00     0.275 HD
ATOM     29  H22 UNL     1     -11.020  48.579   6.316  1.00  0.00     0.275 HD
ATOM     30  H21 UNL     1     -10.267  47.116   5.957  1.00  0.00     0.275 HD
ENDBRANCH  26  27
BRANCH  26  31
HETATM   31  C8  UNL     1     -10.037  48.899   3.880  1.00  0.00     0.025 C 
HETATM   32  C9  UNL     1     -11.507  49.101   4.008  1.00  0.00     0.007 C 
HETATM   33  C10 UNL     1     -11.999  50.345   3.308  1.00  0.00     0.000 C 
HETATM   34  C11 UNL     1     -11.089  51.513   3.496  1.00  0.00     0.000 C 
HETATM   35  C12 UNL     1      -9.663  51.233   3.169  1.00  0.00     0.000 C 
HETATM   36  C13 UNL     1      -9.406  49.798   2.891  1.00  0.00     0.007 C 
ENDBRANCH  26  31
ENDBRANCH  23  26
ENDBRANCH  17  22
ENDBRANCH   1  17
BRANCH   9  37
HETATM   37  N4  UNL     1     -11.118  46.490   0.532  1.00  0.00    -0.200 N 
BRANCH  37  38
HETATM   38  C23 UNL     1     -11.930  46.315   1.673  1.00  0.00     0.381 C 
HETATM   39  O4  UNL     1     -13.039  46.943   1.747  1.00  0.00    -0.281 OA
ENDBRANCH  37  38
BRANCH  37  40
HETATM   40  O5  UNL     1     -11.704  46.018  -0.635  1.00  0.00    -0.270 OA
BRANCH  40  41
HETATM   41  C24 UNL     1     -11.930  44.671  -0.575  1.00  0.00     0.210 C 
BRANCH  41  42
HETATM   42  C25 UNL     1     -12.145  44.041  -1.925  1.00  0.00    -0.027 C 
HETATM   43  C26 UNL     1     -13.630  44.036  -2.293  1.00  0.00     0.016 C 
HETATM   44  C27 UNL     1     -11.433  44.792  -3.027  1.00  0.00     0.016 C 
HETATM   45  C28 UNL     1     -11.681  42.604  -1.966  1.00  0.00     0.016 C 
ENDBRANCH  41  42
ENDBRANCH  40  41
ENDBRANCH  37  40
ENDBRANCH   9  37
BRANCH  11  46
HETATM   46  C31 UNL     1      -7.685  44.207  -0.061  1.00  0.00     0.001 C 
HETATM   47  C32 UNL     1      -7.454  42.747   0.474  1.00  0.00     0.013 C 
HETATM   48  C33 UNL     1      -8.254  43.975  -1.415  1.00  0.00     0.013 C 
ENDBRANCH  11  46
TORSDOF 16
ENDMDL
MODEL 5
REMARK VINA RESULT: -6.879766002      1.316      2.457
REMARK  16 active torsions:
REMARK  status: ('A' for Active; 'I' for Inactive)
REMARK    1  A    between atoms: C2_2  and  C4_4 
REMARK    2  A    between atoms: C4_4  and  C5_5 
REMARK    3  A    between atoms: C5_5  and  N1_6 
REMARK    4  A    between atoms: C5_5  and  C14_21 
REMARK       I    between atoms: N1_6  and  C6_8 
REMARK    5  A    between atoms: C6_8  and  C7_10 
REMARK    6  A    between atoms: C7_10  and  N2_11 
REMARK    7  A    between atoms: C7_10  and  C8_15 
REMARK       I    between atoms: C14_21  and  N3_23 
REMARK    8  A    between atoms: C16_26  and  C17_27 
REMARK    9  A    between atoms: C17_27  and  C19_29 
REMARK   10  A    between atoms: C19_29  and  O3_30 
REMARK   11  A    between atoms: C22_34  and  N4_35 
REMARK   12  A    between atoms: N4_35  and  C23_36 
REMARK   13  A    between atoms: N4_35  and  O5_38 
REMARK   14  A    between atoms: O5_38  and  C24_39 
REMARK   15  A    between atoms: C24_39  and  C25_40 
REMARK   16  A    between atoms: C30_45  and  C31_46 
ROOT
HETATM    1  C14 UNL     1      -9.818  44.131   0.948  1.00  0.00     0.244 C 
HETATM    2  O2  UNL     1     -10.329  43.829   2.085  1.00  0.00    -0.271 OA
HETATM    3  N3  UNL     1     -10.611  44.898   0.115  1.00  0.00    -0.328 N 
ATOM      4  H3  UNL     1     -11.311  44.330  -0.361  1.00  0.00     0.168 HD
HETATM    5  C15 UNL     1     -10.698  46.086  -0.206  1.00  0.00     0.028 C 
HETATM    6  C16 UNL     1     -11.750  46.488  -1.186  1.00  0.00     0.042 C 
HETATM    7  C20 UNL     1     -12.169  47.883  -0.960  1.00  0.00     0.017 C 
HETATM    8  C21 UNL     1     -11.042  48.888  -1.069  1.00  0.00     0.061 C 
HETATM    9  C22 UNL     1      -9.728  48.307  -0.636  1.00  0.00     0.055 C 
HETATM   10  C29 UNL     1      -9.784  47.176   0.308  1.00  0.00     0.009 C 
HETATM   11  C30 UNL     1      -9.596  47.242   1.737  1.00  0.00    -0.008 C 
ENDROOT
BRANCH   6  12
HETATM   12  C17 UNL     1     -12.918  45.567  -1.247  1.00  0.00     0.015 C 
HETATM   13  C18 UNL     1     -12.961  44.920  -2.621  1.00  0.00     0.012 C 
BRANCH  12  14
HETATM   14  C19 UNL     1     -14.260  46.096  -0.938  1.00  0.00     0.169 C 
BRANCH  14  15
HETATM   15  O3  UNL     1     -14.790  45.675   0.262  1.00  0.00    -0.400 OA
ATOM     16  H3  UNL     1     -15.548  45.108   0.190  1.00  0.00     0.209 HD
ENDBRANCH  14  15
ENDBRANCH  12  14
ENDBRANCH   6  12
BRANCH   1  17
HETATM   17  C5  UNL     1      -8.469  43.624   0.689  1.00  0.00     0.177 C 
BRANCH  17  18
HETATM   18  C4  UNL     1      -8.338  42.558  -0.307  1.00  0.00     0.038 C 
BRANCH  18  19
HETATM   19  C2  UNL     1      -9.262  41.422  -0.363  1.00  0.00    -0.020 C 
HETATM   20  C1  UNL     1     -10.122  41.262  -1.565  1.00  0.00     0.009 C 
HETATM   21  C3  UNL     1      -8.589  40.090   0.024  1.00  0.00     0.009 C 
ENDBRANCH  18  19
ENDBRANCH  17  18
BRANCH  17  22
HETATM   22  N1  UNL     1      -7.710  43.320   1.875  1.00  0.00    -0.346 N 
HETATM   23  C6  UNL     1      -6.818  44.203   2.502  1.00  0.00     0.249 C 
HETATM   24  O1  UNL     1      -6.658  45.345   2.005  1.00  0.00    -0.271 OA
ATOM     25  H1  UNL     1      -7.831  42.397   2.290  1.00  0.00     0.163 HD
BRANCH  23  26
HETATM   26  C7  UNL     1      -6.089  43.789   3.720  1.00  0.00     0.278 C 
BRANCH  26  27
HETATM   27  N2  UNL     1      -6.878  42.895   4.544  1.00  0.00    -0.066 N 
ATOM     28  H23 UNL     1      -7.851  42.871   4.239  1.00  0.00     0.275 HD
ATOM     29  H22 UNL     1      -6.633  41.920   4.373  1.00  0.00     0.275 HD
ATOM     30  H21 UNL     1      -6.805  43.128   5.534  1.00  0.00     0.275 HD
ENDBRANCH  26  27
BRANCH  26  31
HETATM   31  C8  UNL     1      -5.626  44.993   4.522  1.00  0.00     0.025 C 
HETATM   32  C9  UNL     1      -6.532  45.372   5.641  1.00  0.00     0.007 C 
HETATM   33  C10 UNL     1      -5.839  45.411   6.981  1.00  0.00     0.000 C 
HETATM   34  C11 UNL     1      -4.887  44.278   7.174  1.00  0.00     0.000 C 
HETATM   35  C12 UNL     1      -3.912  44.106   6.061  1.00  0.00     0.000 C 
HETATM   36  C13 UNL     1      -4.197  44.988   4.902  1.00  0.00     0.007 C 
ENDBRANCH  26  31
ENDBRANCH  23  26
ENDBRANCH  17  22
ENDBRANCH   1  17
BRANCH   9  37
HETATM   37  N4  UNL     1      -8.748  49.305  -0.433  1.00  0.00    -0.200 N 
BRANCH  37  38
HETATM   38  C23 UNL     1      -7.350  49.201  -0.597  1.00  0.00     0.381 C 
HETATM   39  O4  UNL     1      -6.885  48.379  -1.456  1.00  0.00    -0.281 OA
ENDBRANCH  37  38
BRANCH  37  40
HETATM   40  O5  UNL     1      -9.158  50.566  -0.020  1.00  0.00    -0.270 OA
BRANCH  40  41
HETATM   41  C24 UNL     1      -8.869  50.782   1.299  1.00  0.00     0.210 C 
BRANCH  41  42
HETATM   42  C25 UNL     1      -9.768  51.799   1.947  1.00  0.00    -0.027 C 
HETATM   43  C26 UNL     1      -9.204  53.211   1.777  1.00  0.00     0.016 C 
HETATM   44  C27 UNL     1     -11.151  51.814   1.336  1.00  0.00     0.016 C 
HETATM   45  C28 UNL     1      -9.917  51.566   3.433  1.00  0.00     0.016 C 
ENDBRANCH  41  42
ENDBRANCH  40  41
ENDBRANCH  37  40
ENDBRANCH   9  37
BRANCH  11  46
HETATM   46  C31 UNL     1     -10.667  47.394   2.731  1.00  0.00     0.001 C 
HETATM   47  C32 UNL     1      -9.983  47.947   4.035  1.00  0.00     0.013 C 
HETATM   48  C33 UNL     1     -11.768  48.365   2.500  1.00  0.00     0.013 C 
ENDBRANCH  11  46
TORSDOF 16
ENDMDL
