MODEL 1
REMARK VINA RESULT: -7.361080834      0.000      0.000
REMARK  16 active torsions:
REMARK  status: ('A' for Active; 'I' for Inactive)
REMARK    1  A    between atoms: C2_2  and  C3_3 
REMARK    2  A    between atoms: C3_3  and  N2_7 
REMARK    3  A    between atoms: N2_7  and  C4_9 
REMARK    4  A    between atoms: C4_9  and  C5_10 
REMARK    5  A    between atoms: C5_10  and  C6_11 
REMARK    6  A    between atoms: C6_11  and  C7_12 
REMARK    7  A    between atoms: C7_12  and  C8_13 
REMARK    8  A    between atoms: N3_16  and  C11_17 
REMARK    9  A    between atoms: C11_17  and  C12_18 
REMARK   10  A    between atoms: C11_17  and  C16_26 
REMARK   11  A    between atoms: C12_18  and  C13_19 
REMARK   12  A    between atoms: C13_19  and  C14_20 
REMARK   13  A    between atoms: C14_20  and  C15_21 
REMARK   14  A    between atoms: C15_21  and  N4_22 
REMARK       I    between atoms: C16_26  and  N5_28 
REMARK       I    between atoms: N6_33  and  C21_34 
REMARK   15  A    between atoms: C21_34  and  S1_36 
REMARK   16  A    between atoms: S1_36  and  C22_37 
ROOT
HETATM    1  C11 UNL     1     -12.039  44.552  -1.450  1.00  0.00     0.314 C 
ENDROOT
BRANCH   1   2
HETATM    2  N3  UNL     1     -11.368  43.525  -0.689  1.00  0.00     0.102 N 
HETATM    3  C10 UNL     1     -10.491  44.060   0.327  1.00  0.00     0.274 C 
HETATM    4  C9  UNL     1      -9.673  43.004   1.037  1.00  0.00     0.035 C 
HETATM    5  C8  UNL     1      -8.924  42.110   0.096  1.00  0.00    -0.011 C 
HETATM    6  C33 UNL     1      -9.152  42.646  -1.294  1.00  0.00     0.035 C 
HETATM    7  C32 UNL     1     -10.680  42.597  -1.485  1.00  0.00     0.274 C 
BRANCH   5   8
HETATM    8  C7  UNL     1      -7.472  41.958   0.395  1.00  0.00     0.005 C 
BRANCH   8   9
HETATM    9  C6  UNL     1      -6.904  43.261   0.911  1.00  0.00     0.002 C 
BRANCH   9  10
HETATM   10  C5  UNL     1      -6.002  43.048   2.108  1.00  0.00     0.020 C 
BRANCH  10  11
HETATM   11  C4  UNL     1      -6.668  43.410   3.399  1.00  0.00     0.121 C 
BRANCH  11  12
HETATM   12  N2  UNL     1      -7.442  44.606   3.226  1.00  0.00    -0.380 N 
ATOM     13  H2  UNL     1      -8.296  44.571   2.670  1.00  0.00     0.160 HD
BRANCH  12  14
HETATM   14  C3  UNL     1      -7.038  45.853   3.821  1.00  0.00     0.070 C 
HETATM   15  N1  UNL     1      -7.309  46.179   5.028  1.00  0.00    -0.389 N 
ATOM     16  H12 UNL     1      -7.022  47.063   5.449  1.00  0.00     0.157 HD
ATOM     17  H11 UNL     1      -7.837  45.552   5.634  1.00  0.00     0.157 HD
BRANCH  14  18
HETATM   18  C2  UNL     1      -6.268  46.768   2.939  1.00  0.00     0.071 C 
HETATM   19  C1  UNL     1      -4.795  46.505   2.978  1.00  0.00     0.013 C 
ENDBRANCH  14  18
ENDBRANCH  12  14
ENDBRANCH  11  12
ENDBRANCH  10  11
ENDBRANCH   9  10
ENDBRANCH   8   9
ENDBRANCH   5   8
ENDBRANCH   1   2
BRANCH   1  20
HETATM   20  C12 UNL     1     -13.222  43.900  -2.157  1.00  0.00     0.046 C 
BRANCH  20  21
HETATM   21  C13 UNL     1     -13.752  44.891  -3.171  1.00  0.00     0.004 C 
BRANCH  21  22
HETATM   22  C14 UNL     1     -15.275  44.900  -3.186  1.00  0.00     0.027 C 
BRANCH  22  23
HETATM   23  C15 UNL     1     -15.703  45.373  -4.567  1.00  0.00     0.229 C 
BRANCH  23  24
HETATM   24  N4  UNL     1     -15.721  44.316  -5.528  1.00  0.00    -0.079 N 
ATOM     25  H43 UNL     1     -15.289  43.472  -5.153  1.00  0.00     0.274 HD
ATOM     26  H42 UNL     1     -16.669  43.967  -5.670  1.00  0.00     0.274 HD
ATOM     27  H41 UNL     1     -15.293  44.584  -6.414  1.00  0.00     0.274 HD
ENDBRANCH  23  24
ENDBRANCH  22  23
ENDBRANCH  21  22
ENDBRANCH  20  21
ENDBRANCH   1  20
BRANCH   1  28
HETATM   28  C16 UNL     1     -12.623  45.603  -0.595  1.00  0.00     0.253 C 
HETATM   29  O1  UNL     1     -13.531  45.342   0.235  1.00  0.00    -0.271 OA
HETATM   30  N5  UNL     1     -12.218  46.947  -0.641  1.00  0.00    -0.345 N 
HETATM   31  C17 UNL     1     -11.191  47.378  -1.523  1.00  0.00     0.136 C 
HETATM   32  C30 UNL     1     -12.821  47.968   0.211  1.00  0.00     0.087 C 
HETATM   33  C18 UNL     1     -10.201  48.334  -0.881  1.00  0.00    -0.017 C 
HETATM   34  C19 UNL     1      -9.014  47.582  -0.342  1.00  0.00     0.031 C 
HETATM   35  C26 UNL     1      -9.702  49.215  -2.020  1.00  0.00     0.031 C 
HETATM   36  C27 UNL     1     -10.856  49.230   0.131  1.00  0.00    -0.002 C 
HETATM   37  C20 UNL     1      -7.940  48.482   0.162  1.00  0.00     0.127 C 
HETATM   38  N6  UNL     1      -7.511  49.320  -0.954  1.00  0.00    -0.343 N 
HETATM   39  C21 UNL     1      -6.152  49.377  -1.363  1.00  0.00     0.282 C 
HETATM   40  C25 UNL     1      -8.556  50.084  -1.609  1.00  0.00     0.127 C 
HETATM   41  O2  UNL     1      -5.865  50.123  -2.332  1.00  0.00    -0.260 OA
HETATM   42  C28 UNL     1     -10.957  48.660   1.505  1.00  0.00     0.007 C 
HETATM   43  C31 UNL     1     -12.338  49.315  -0.269  1.00  0.00     0.031 C 
HETATM   44  C29 UNL     1     -12.262  47.902   1.617  1.00  0.00     0.026 C 
BRANCH  39  45
HETATM   45  S1  UNL     1      -4.892  48.425  -0.532  1.00  0.00    -0.064 SA
BRANCH  45  46
HETATM   46  C22 UNL     1      -3.254  49.031  -0.962  1.00  0.00     0.057 A 
HETATM   47  C23 UNL     1      -2.255  49.046   0.205  1.00  0.00     0.017 A 
HETATM   48  C24 UNL     1      -2.070  48.124  -0.945  1.00  0.00     0.017 A 
ENDBRANCH  45  46
ENDBRANCH  39  45
ENDBRANCH   1  28
TORSDOF 16
ENDMDL
MODEL 2
REMARK VINA RESULT: -7.227597140      0.878      1.067
REMARK  16 active torsions:
REMARK  status: ('A' for Active; 'I' for Inactive)
REMARK    1  A    between atoms: C2_2  and  C3_3 
REMARK    2  A    between atoms: C3_3  and  N2_7 
REMARK    3  A    between atoms: N2_7  and  C4_9 
REMARK    4  A    between atoms: C4_9  and  C5_10 
REMARK    5  A    between atoms: C5_10  and  C6_11 
REMARK    6  A    between atoms: C6_11  and  C7_12 
REMARK    7  A    between atoms: C7_12  and  C8_13 
REMARK    8  A    between atoms: N3_16  and  C11_17 
REMARK    9  A    between atoms: C11_17  and  C12_18 
REMARK   10  A    between atoms: C11_17  and  C16_26 
REMARK   11  A    between atoms: C12_18  and  C13_19 
REMARK   12  A    between atoms: C13_19  and  C14_20 
REMARK   13  A    between atoms: C14_20  and  C15_21 
REMARK   14  A    between atoms: C15_21  and  N4_22 
REMARK       I    between atoms: C16_26  and  N5_28 
REMARK       I    between atoms: N6_33  and  C21_34 
REMARK   15  A    between atoms: C21_34  and  S1_36 
REMARK   16  A    between atoms: S1_36  and  C22_37 
ROOT
HETATM    1  C11 UNL     1     -11.951  44.532  -1.433  1.00  0.00     0.314 C 
ENDROOT
BRANCH   1   2
HETATM    2  N3  UNL     1     -11.171  43.573  -0.688  1.00  0.00     0.102 N 
HETATM    3  C10 UNL     1     -10.419  44.174   0.388  1.00  0.00     0.274 C 
HETATM    4  C9  UNL     1      -9.488  43.207   1.088  1.00  0.00     0.035 C 
HETATM    5  C8  UNL     1      -8.584  42.475   0.144  1.00  0.00    -0.011 C 
HETATM    6  C33 UNL     1      -8.832  43.042  -1.231  1.00  0.00     0.035 C 
HETATM    7  C32 UNL     1     -10.329  42.790  -1.492  1.00  0.00     0.274 C 
BRANCH   5   8
HETATM    8  C7  UNL     1      -7.138  42.512   0.501  1.00  0.00     0.005 C 
BRANCH   8   9
HETATM    9  C6  UNL     1      -6.971  42.699   1.993  1.00  0.00     0.002 C 
BRANCH   9  10
HETATM   10  C5  UNL     1      -5.587  43.197   2.347  1.00  0.00     0.020 C 
BRANCH  10  11
HETATM   11  C4  UNL     1      -5.514  44.691   2.412  1.00  0.00     0.121 C 
BRANCH  11  12
HETATM   12  N2  UNL     1      -5.227  45.103   3.757  1.00  0.00    -0.380 N 
ATOM     13  H2  UNL     1      -4.276  45.374   4.003  1.00  0.00     0.160 HD
BRANCH  12  14
HETATM   14  C3  UNL     1      -6.255  45.141   4.765  1.00  0.00     0.070 C 
HETATM   15  N1  UNL     1      -7.418  45.637   4.568  1.00  0.00    -0.389 N 
ATOM     16  H12 UNL     1      -8.145  45.664   5.282  1.00  0.00     0.157 HD
ATOM     17  H11 UNL     1      -7.670  46.036   3.664  1.00  0.00     0.157 HD
BRANCH  14  18
HETATM   18  C2  UNL     1      -5.888  44.559   6.082  1.00  0.00     0.071 C 
HETATM   19  C1  UNL     1      -4.762  43.577   5.986  1.00  0.00     0.013 C 
ENDBRANCH  14  18
ENDBRANCH  12  14
ENDBRANCH  11  12
ENDBRANCH  10  11
ENDBRANCH   9  10
ENDBRANCH   8   9
ENDBRANCH   5   8
ENDBRANCH   1   2
BRANCH   1  20
HETATM   20  C12 UNL     1     -13.135  43.788  -2.043  1.00  0.00     0.046 C 
BRANCH  20  21
HETATM   21  C13 UNL     1     -13.731  44.676  -3.113  1.00  0.00     0.004 C 
BRANCH  21  22
HETATM   22  C14 UNL     1     -15.250  44.569  -3.133  1.00  0.00     0.027 C 
BRANCH  22  23
HETATM   23  C15 UNL     1     -15.726  45.224  -4.420  1.00  0.00     0.229 C 
BRANCH  23  24
HETATM   24  N4  UNL     1     -15.726  44.321  -5.528  1.00  0.00    -0.079 N 
ATOM     25  H43 UNL     1     -14.846  43.809  -5.584  1.00  0.00     0.274 HD
ATOM     26  H42 UNL     1     -16.362  43.541  -5.364  1.00  0.00     0.274 HD
ATOM     27  H41 UNL     1     -15.937  44.786  -6.412  1.00  0.00     0.274 HD
ENDBRANCH  23  24
ENDBRANCH  22  23
ENDBRANCH  21  22
ENDBRANCH  20  21
ENDBRANCH   1  20
BRANCH   1  28
HETATM   28  C16 UNL     1     -12.543  45.574  -0.573  1.00  0.00     0.253 C 
HETATM   29  O1  UNL     1     -13.439  45.300   0.265  1.00  0.00    -0.271 OA
HETATM   30  N5  UNL     1     -12.158  46.924  -0.622  1.00  0.00    -0.345 N 
HETATM   31  C17 UNL     1     -11.144  47.370  -1.512  1.00  0.00     0.136 C 
HETATM   32  C30 UNL     1     -12.768  47.935   0.236  1.00  0.00     0.087 C 
HETATM   33  C18 UNL     1     -10.162  48.339  -0.878  1.00  0.00    -0.017 C 
HETATM   34  C19 UNL     1      -8.961  47.604  -0.350  1.00  0.00     0.031 C 
HETATM   35  C26 UNL     1      -9.685  49.228  -2.021  1.00  0.00     0.031 C 
HETATM   36  C27 UNL     1     -10.822  49.225   0.140  1.00  0.00    -0.002 C 
HETATM   37  C20 UNL     1      -7.895  48.520   0.145  1.00  0.00     0.127 C 
HETATM   38  N6  UNL     1      -7.487  49.364  -0.973  1.00  0.00    -0.343 N 
HETATM   39  C21 UNL     1      -6.133  49.440  -1.394  1.00  0.00     0.282 C 
HETATM   40  C25 UNL     1      -8.548  50.113  -1.619  1.00  0.00     0.127 C 
HETATM   41  O2  UNL     1      -5.865  50.191  -2.365  1.00  0.00    -0.260 OA
HETATM   42  C28 UNL     1     -10.902  48.654   1.514  1.00  0.00     0.007 C 
HETATM   43  C31 UNL     1     -12.308  49.290  -0.247  1.00  0.00     0.031 C 
HETATM   44  C29 UNL     1     -12.196  47.877   1.637  1.00  0.00     0.026 C 
BRANCH  39  45
HETATM   45  S1  UNL     1      -4.852  48.506  -0.574  1.00  0.00    -0.064 SA
BRANCH  45  46
HETATM   46  C22 UNL     1      -3.226  49.121  -1.035  1.00  0.00     0.057 A 
HETATM   47  C23 UNL     1      -2.207  49.146   0.114  1.00  0.00     0.017 A 
HETATM   48  C24 UNL     1      -2.036  48.222  -1.038  1.00  0.00     0.017 A 
ENDBRANCH  45  46
ENDBRANCH  39  45
ENDBRANCH   1  28
TORSDOF 16
ENDMDL
MODEL 3
REMARK VINA RESULT: -7.204073032      1.055      1.287
REMARK  16 active torsions:
REMARK  status: ('A' for Active; 'I' for Inactive)
REMARK    1  A    between atoms: C2_2  and  C3_3 
REMARK    2  A    between atoms: C3_3  and  N2_7 
REMARK    3  A    between atoms: N2_7  and  C4_9 
REMARK    4  A    between atoms: C4_9  and  C5_10 
REMARK    5  A    between atoms: C5_10  and  C6_11 
REMARK    6  A    between atoms: C6_11  and  C7_12 
REMARK    7  A    between atoms: C7_12  and  C8_13 
REMARK    8  A    between atoms: N3_16  and  C11_17 
REMARK    9  A    between atoms: C11_17  and  C12_18 
REMARK   10  A    between atoms: C11_17  and  C16_26 
REMARK   11  A    between atoms: C12_18  and  C13_19 
REMARK   12  A    between atoms: C13_19  and  C14_20 
REMARK   13  A    between atoms: C14_20  and  C15_21 
REMARK   14  A    between atoms: C15_21  and  N4_22 
REMARK       I    between atoms: C16_26  and  N5_28 
REMARK       I    between atoms: N6_33  and  C21_34 
REMARK   15  A    between atoms: C21_34  and  S1_36 
REMARK   16  A    between atoms: S1_36  and  C22_37 
ROOT
HETATM    1  C11 UNL     1     -12.109  44.531  -1.546  1.00  0.00     0.314 C 
ENDROOT
BRANCH   1   2
HETATM    2  N3  UNL     1     -11.332  43.545  -0.834  1.00  0.00     0.102 N 
HETATM    3  C10 UNL     1     -10.586  44.105   0.269  1.00  0.00     0.274 C 
HETATM    4  C9  UNL     1      -9.658  43.113   0.936  1.00  0.00     0.035 C 
HETATM    5  C8  UNL     1      -8.749  42.417  -0.030  1.00  0.00    -0.011 C 
HETATM    6  C33 UNL     1      -8.989  43.037  -1.383  1.00  0.00     0.035 C 
HETATM    7  C32 UNL     1     -10.485  42.794  -1.663  1.00  0.00     0.274 C 
BRANCH   5   8
HETATM    8  C7  UNL     1      -7.304  42.442   0.336  1.00  0.00     0.005 C 
BRANCH   8   9
HETATM    9  C6  UNL     1      -7.140  42.794   1.798  1.00  0.00     0.002 C 
BRANCH   9  10
HETATM   10  C5  UNL     1      -6.340  44.064   1.985  1.00  0.00     0.020 C 
BRANCH  10  11
HETATM   11  C4  UNL     1      -7.061  45.080   2.816  1.00  0.00     0.121 C 
BRANCH  11  12
HETATM   12  N2  UNL     1      -7.156  44.616   4.171  1.00  0.00    -0.380 N 
ATOM     13  H2  UNL     1      -8.076  44.499   4.595  1.00  0.00     0.160 HD
BRANCH  12  14
HETATM   14  C3  UNL     1      -5.979  44.315   4.945  1.00  0.00     0.070 C 
HETATM   15  N1  UNL     1      -5.759  43.173   5.477  1.00  0.00    -0.389 N 
ATOM     16  H12 UNL     1      -4.926  42.960   6.025  1.00  0.00     0.157 HD
ATOM     17  H11 UNL     1      -6.426  42.409   5.372  1.00  0.00     0.157 HD
BRANCH  14  18
HETATM   18  C2  UNL     1      -5.006  45.428   5.098  1.00  0.00     0.071 C 
HETATM   19  C1  UNL     1      -3.670  45.114   4.500  1.00  0.00     0.013 C 
ENDBRANCH  14  18
ENDBRANCH  12  14
ENDBRANCH  11  12
ENDBRANCH  10  11
ENDBRANCH   9  10
ENDBRANCH   8   9
ENDBRANCH   5   8
ENDBRANCH   1   2
BRANCH   1  20
HETATM   20  C12 UNL     1     -13.306  43.817  -2.163  1.00  0.00     0.046 C 
BRANCH  20  21
HETATM   21  C13 UNL     1     -13.913  44.745  -3.192  1.00  0.00     0.004 C 
BRANCH  21  22
HETATM   22  C14 UNL     1     -15.402  44.473  -3.366  1.00  0.00     0.027 C 
BRANCH  22  23
HETATM   23  C15 UNL     1     -15.740  44.765  -4.820  1.00  0.00     0.229 C 
BRANCH  23  24
HETATM   24  N4  UNL     1     -16.525  43.734  -5.420  1.00  0.00    -0.079 N 
ATOM     25  H43 UNL     1     -17.044  44.088  -6.224  1.00  0.00     0.274 HD
ATOM     26  H42 UNL     1     -15.933  43.052  -5.894  1.00  0.00     0.274 HD
ATOM     27  H41 UNL     1     -17.149  43.278  -4.753  1.00  0.00     0.274 HD
ENDBRANCH  23  24
ENDBRANCH  22  23
ENDBRANCH  21  22
ENDBRANCH  20  21
ENDBRANCH   1  20
BRANCH   1  28
HETATM   28  C16 UNL     1     -12.681  45.557  -0.653  1.00  0.00     0.253 C 
HETATM   29  O1  UNL     1     -13.598  45.279   0.161  1.00  0.00    -0.271 OA
HETATM   30  N5  UNL     1     -12.254  46.895  -0.642  1.00  0.00    -0.345 N 
HETATM   31  C17 UNL     1     -11.213  47.344  -1.500  1.00  0.00     0.136 C 
HETATM   32  C30 UNL     1     -12.845  47.890   0.247  1.00  0.00     0.087 C 
HETATM   33  C18 UNL     1     -10.212  48.256  -0.814  1.00  0.00    -0.017 C 
HETATM   34  C19 UNL     1      -9.042  47.464  -0.300  1.00  0.00     0.031 C 
HETATM   35  C26 UNL     1      -9.691  49.174  -1.914  1.00  0.00     0.031 C 
HETATM   36  C27 UNL     1     -10.859  49.121   0.229  1.00  0.00    -0.002 C 
HETATM   37  C20 UNL     1      -7.956  48.325   0.247  1.00  0.00     0.127 C 
HETATM   38  N6  UNL     1      -7.506  49.199  -0.832  1.00  0.00    -0.343 N 
HETATM   39  C21 UNL     1      -6.144  49.250  -1.230  1.00  0.00     0.282 C 
HETATM   40  C25 UNL     1      -8.534  50.006  -1.462  1.00  0.00     0.127 C 
HETATM   41  O2  UNL     1      -5.838  50.029  -2.167  1.00  0.00    -0.260 OA
HETATM   42  C28 UNL     1     -10.978  48.499   1.578  1.00  0.00     0.007 C 
HETATM   43  C31 UNL     1     -12.337  49.248  -0.176  1.00  0.00     0.031 C 
HETATM   44  C29 UNL     1     -12.297  47.759   1.652  1.00  0.00     0.026 C 
BRANCH  39  45
HETATM   45  S1  UNL     1      -4.905  48.245  -0.431  1.00  0.00    -0.064 SA
BRANCH  45  46
HETATM   46  C22 UNL     1      -4.475  48.928   1.176  1.00  0.00     0.057 A 
HETATM   47  C23 UNL     1      -4.960  48.093   2.372  1.00  0.00     0.017 A 
HETATM   48  C24 UNL     1      -3.510  48.230   2.075  1.00  0.00     0.017 A 
ENDBRANCH  45  46
ENDBRANCH  39  45
ENDBRANCH   1  28
TORSDOF 16
ENDMDL
MODEL 4
REMARK VINA RESULT: -7.170322188      1.036      1.197
REMARK  16 active torsions:
REMARK  status: ('A' for Active; 'I' for Inactive)
REMARK    1  A    between atoms: C2_2  and  C3_3 
REMARK    2  A    between atoms: C3_3  and  N2_7 
REMARK    3  A    between atoms: N2_7  and  C4_9 
REMARK    4  A    between atoms: C4_9  and  C5_10 
REMARK    5  A    between atoms: C5_10  and  C6_11 
REMARK    6  A    between atoms: C6_11  and  C7_12 
REMARK    7  A    between atoms: C7_12  and  C8_13 
REMARK    8  A    between atoms: N3_16  and  C11_17 
REMARK    9  A    between atoms: C11_17  and  C12_18 
REMARK   10  A    between atoms: C11_17  and  C16_26 
REMARK   11  A    between atoms: C12_18  and  C13_19 
REMARK   12  A    between atoms: C13_19  and  C14_20 
REMARK   13  A    between atoms: C14_20  and  C15_21 
REMARK   14  A    between atoms: C15_21  and  N4_22 
REMARK       I    between atoms: C16_26  and  N5_28 
REMARK       I    between atoms: N6_33  and  C21_34 
REMARK   15  A    between atoms: C21_34  and  S1_36 
REMARK   16  A    between atoms: S1_36  and  C22_37 
ROOT
HETATM    1  C11 UNL     1     -11.968  44.547  -1.447  1.00  0.00     0.314 C 
ENDROOT
BRANCH   1   2
HETATM    2  N3  UNL     1     -11.308  43.547  -0.641  1.00  0.00     0.102 N 
HETATM    3  C10 UNL     1     -10.396  44.115   0.324  1.00  0.00     0.274 C 
HETATM    4  C9  UNL     1      -9.592  43.078   1.078  1.00  0.00     0.035 C 
HETATM    5  C8  UNL     1      -8.887  42.112   0.177  1.00  0.00    -0.011 C 
HETATM    6  C33 UNL     1      -9.130  42.573  -1.237  1.00  0.00     0.035 C 
HETATM    7  C32 UNL     1     -10.662  42.556  -1.395  1.00  0.00     0.274 C 
BRANCH   5   8
HETATM    8  C7  UNL     1      -7.434  41.936   0.456  1.00  0.00     0.005 C 
BRANCH   8   9
HETATM    9  C6  UNL     1      -6.852  43.210   1.028  1.00  0.00     0.002 C 
BRANCH   9  10
HETATM   10  C5  UNL     1      -5.698  42.931   1.965  1.00  0.00     0.020 C 
BRANCH  10  11
HETATM   11  C4  UNL     1      -5.911  43.513   3.328  1.00  0.00     0.121 C 
BRANCH  11  12
HETATM   12  N2  UNL     1      -4.880  44.470   3.612  1.00  0.00    -0.380 N 
ATOM     13  H2  UNL     1      -4.178  44.251   4.319  1.00  0.00     0.160 HD
BRANCH  12  14
HETATM   14  C3  UNL     1      -4.815  45.731   2.921  1.00  0.00     0.070 C 
HETATM   15  N1  UNL     1      -5.797  46.549   2.854  1.00  0.00    -0.389 N 
ATOM     16  H12 UNL     1      -5.751  47.443   2.364  1.00  0.00     0.157 HD
ATOM     17  H11 UNL     1      -6.689  46.334   3.298  1.00  0.00     0.157 HD
BRANCH  14  18
HETATM   18  C2  UNL     1      -3.515  46.045   2.273  1.00  0.00     0.071 C 
HETATM   19  C1  UNL     1      -2.508  44.950   2.437  1.00  0.00     0.013 C 
ENDBRANCH  14  18
ENDBRANCH  12  14
ENDBRANCH  11  12
ENDBRANCH  10  11
ENDBRANCH   9  10
ENDBRANCH   8   9
ENDBRANCH   5   8
ENDBRANCH   1   2
BRANCH   1  20
HETATM   20  C12 UNL     1     -13.111  43.860  -2.186  1.00  0.00     0.046 C 
BRANCH  20  21
HETATM   21  C13 UNL     1     -13.726  44.877  -3.124  1.00  0.00     0.004 C 
BRANCH  21  22
HETATM   22  C14 UNL     1     -15.159  44.502  -3.477  1.00  0.00     0.027 C 
BRANCH  22  23
HETATM   23  C15 UNL     1     -16.062  45.203  -2.474  1.00  0.00     0.229 C 
BRANCH  23  24
HETATM   24  N4  UNL     1     -16.334  44.399  -1.324  1.00  0.00    -0.079 N 
ATOM     25  H43 UNL     1     -17.327  44.170  -1.264  1.00  0.00     0.274 HD
ATOM     26  H42 UNL     1     -15.955  43.460  -1.436  1.00  0.00     0.274 HD
ATOM     27  H41 UNL     1     -16.004  44.828  -0.459  1.00  0.00     0.274 HD
ENDBRANCH  23  24
ENDBRANCH  22  23
ENDBRANCH  21  22
ENDBRANCH  20  21
ENDBRANCH   1  20
BRANCH   1  28
HETATM   28  C16 UNL     1     -12.603  45.603  -0.636  1.00  0.00     0.253 C 
HETATM   29  O1  UNL     1     -13.539  45.343   0.161  1.00  0.00    -0.271 OA
HETATM   30  N5  UNL     1     -12.217  46.953  -0.689  1.00  0.00    -0.345 N 
HETATM   31  C17 UNL     1     -11.160  47.385  -1.536  1.00  0.00     0.136 C 
HETATM   32  C30 UNL     1     -12.870  47.978   0.119  1.00  0.00     0.087 C 
HETATM   33  C18 UNL     1     -10.212  48.367  -0.871  1.00  0.00    -0.017 C 
HETATM   34  C19 UNL     1      -9.038  47.644  -0.271  1.00  0.00     0.031 C 
HETATM   35  C26 UNL     1      -9.680  49.236  -2.004  1.00  0.00     0.031 C 
HETATM   36  C27 UNL     1     -10.923  49.269   0.097  1.00  0.00    -0.002 C 
HETATM   37  C20 UNL     1      -7.999  48.570   0.260  1.00  0.00     0.127 C 
HETATM   38  N6  UNL     1      -7.537  49.394  -0.851  1.00  0.00    -0.343 N 
HETATM   39  C21 UNL     1      -6.164  49.466  -1.205  1.00  0.00     0.282 C 
HETATM   40  C25 UNL     1      -8.565  50.130  -1.562  1.00  0.00     0.127 C 
HETATM   41  O2  UNL     1      -5.848  50.200  -2.175  1.00  0.00    -0.260 OA
HETATM   42  C28 UNL     1     -11.071  48.722   1.476  1.00  0.00     0.007 C 
HETATM   43  C31 UNL     1     -12.387  49.324  -0.365  1.00  0.00     0.031 C 
HETATM   44  C29 UNL     1     -12.368  47.946   1.547  1.00  0.00     0.026 C 
BRANCH  39  45
HETATM   45  S1  UNL     1      -4.924  48.549  -0.307  1.00  0.00    -0.064 SA
BRANCH  45  46
HETATM   46  C22 UNL     1      -3.283  48.905  -0.949  1.00  0.00     0.057 A 
HETATM   47  C23 UNL     1      -2.234  49.224   0.128  1.00  0.00     0.017 A 
HETATM   48  C24 UNL     1      -2.138  47.985  -0.688  1.00  0.00     0.017 A 
ENDBRANCH  45  46
ENDBRANCH  39  45
ENDBRANCH   1  28
TORSDOF 16
ENDMDL
MODEL 5
REMARK VINA RESULT: -7.138823848      1.026      1.245
REMARK  16 active torsions:
REMARK  status: ('A' for Active; 'I' for Inactive)
REMARK    1  A    between atoms: C2_2  and  C3_3 
REMARK    2  A    between atoms: C3_3  and  N2_7 
REMARK    3  A    between atoms: N2_7  and  C4_9 
REMARK    4  A    between atoms: C4_9  and  C5_10 
REMARK    5  A    between atoms: C5_10  and  C6_11 
REMARK    6  A    between atoms: C6_11  and  C7_12 
REMARK    7  A    between atoms: C7_12  and  C8_13 
REMARK    8  A    between atoms: N3_16  and  C11_17 
REMARK    9  A    between atoms: C11_17  and  C12_18 
REMARK   10  A    between atoms: C11_17  and  C16_26 
REMARK   11  A    between atoms: C12_18  and  C13_19 
REMARK   12  A    between atoms: C13_19  and  C14_20 
REMARK   13  A    between atoms: C14_20  and  C15_21 
REMARK   14  A    between atoms: C15_21  and  N4_22 
REMARK       I    between atoms: C16_26  and  N5_28 
REMARK       I    between atoms: N6_33  and  C21_34 
REMARK   15  A    between atoms: C21_34  and  S1_36 
REMARK   16  A    between atoms: S1_36  and  C22_37 
ROOT
HETATM    1  C11 UNL     1     -11.749  44.446  -1.267  1.00  0.00     0.314 C 
ENDROOT
BRANCH   1   2
HETATM    2  N3  UNL     1     -10.998  43.526  -0.446  1.00  0.00     0.102 N 
HETATM    3  C10 UNL     1     -10.216  44.188   0.571  1.00  0.00     0.274 C 
HETATM    4  C9  UNL     1      -9.315  43.252   1.347  1.00  0.00     0.035 C 
HETATM    5  C8  UNL     1      -8.446  42.408   0.465  1.00  0.00    -0.011 C 
HETATM    6  C33 UNL     1      -8.684  42.865  -0.952  1.00  0.00     0.035 C 
HETATM    7  C32 UNL     1     -10.192  42.647  -1.184  1.00  0.00     0.274 C 
BRANCH   5   8
HETATM    8  C7  UNL     1      -6.997  42.422   0.811  1.00  0.00     0.005 C 
BRANCH   8   9
HETATM    9  C6  UNL     1      -6.786  43.071   2.160  1.00  0.00     0.002 C 
BRANCH   9  10
HETATM   10  C5  UNL     1      -5.704  44.128   2.115  1.00  0.00     0.020 C 
BRANCH  10  11
HETATM   11  C4  UNL     1      -6.243  45.488   1.800  1.00  0.00     0.121 C 
BRANCH  11  12
HETATM   12  N2  UNL     1      -6.186  46.315   2.971  1.00  0.00    -0.380 N 
ATOM     13  H2  UNL     1      -5.319  46.804   3.196  1.00  0.00     0.160 HD
BRANCH  12  14
HETATM   14  C3  UNL     1      -7.326  46.468   3.838  1.00  0.00     0.070 C 
HETATM   15  N1  UNL     1      -8.506  46.718   3.412  1.00  0.00    -0.389 N 
ATOM     16  H12 UNL     1      -9.313  46.827   4.026  1.00  0.00     0.157 HD
ATOM     17  H11 UNL     1      -8.692  46.823   2.415  1.00  0.00     0.157 HD
BRANCH  14  18
HETATM   18  C2  UNL     1      -7.056  46.316   5.291  1.00  0.00     0.071 C 
HETATM   19  C1  UNL     1      -6.460  44.985   5.632  1.00  0.00     0.013 C 
ENDBRANCH  14  18
ENDBRANCH  12  14
ENDBRANCH  11  12
ENDBRANCH  10  11
ENDBRANCH   9  10
ENDBRANCH   8   9
ENDBRANCH   5   8
ENDBRANCH   1   2
BRANCH   1  20
HETATM   20  C12 UNL     1     -12.886  43.663  -1.914  1.00  0.00     0.046 C 
BRANCH  20  21
HETATM   21  C13 UNL     1     -13.507  44.548  -2.972  1.00  0.00     0.004 C 
BRANCH  21  22
HETATM   22  C14 UNL     1     -14.980  44.214  -3.172  1.00  0.00     0.027 C 
BRANCH  22  23
HETATM   23  C15 UNL     1     -15.767  45.065  -2.188  1.00  0.00     0.229 C 
BRANCH  23  24
HETATM   24  N4  UNL     1     -15.242  46.388  -2.062  1.00  0.00    -0.079 N 
ATOM     25  H43 UNL     1     -14.329  46.464  -2.512  1.00  0.00     0.274 HD
ATOM     26  H42 UNL     1     -15.766  47.045  -2.640  1.00  0.00     0.274 HD
ATOM     27  H41 UNL     1     -15.200  46.703  -1.093  1.00  0.00     0.274 HD
ENDBRANCH  23  24
ENDBRANCH  22  23
ENDBRANCH  21  22
ENDBRANCH  20  21
ENDBRANCH   1  20
BRANCH   1  28
HETATM   28  C16 UNL     1     -12.403  45.508  -0.478  1.00  0.00     0.253 C 
HETATM   29  O1  UNL     1     -13.320  45.244   0.340  1.00  0.00    -0.271 OA
HETATM   30  N5  UNL     1     -12.058  46.866  -0.578  1.00  0.00    -0.345 N 
HETATM   31  C17 UNL     1     -11.027  47.302  -1.453  1.00  0.00     0.136 C 
HETATM   32  C30 UNL     1     -12.729  47.895   0.209  1.00  0.00     0.087 C 
HETATM   33  C18 UNL     1     -10.098  48.331  -0.832  1.00  0.00    -0.017 C 
HETATM   34  C19 UNL     1      -8.895  47.661  -0.229  1.00  0.00     0.031 C 
HETATM   35  C26 UNL     1      -9.609  49.180  -1.999  1.00  0.00     0.031 C 
HETATM   36  C27 UNL     1     -10.821  49.242   0.119  1.00  0.00    -0.002 C 
HETATM   37  C20 UNL     1      -7.876  48.632   0.259  1.00  0.00     0.127 C 
HETATM   38  N6  UNL     1      -7.455  49.436  -0.885  1.00  0.00    -0.343 N 
HETATM   39  C21 UNL     1      -6.089  49.536  -1.261  1.00  0.00     0.282 C 
HETATM   40  C25 UNL     1      -8.514  50.119  -1.602  1.00  0.00     0.127 C 
HETATM   41  O2  UNL     1      -5.810  50.249  -2.257  1.00  0.00    -0.260 OA
HETATM   42  C28 UNL     1     -10.934  48.733   1.515  1.00  0.00     0.007 C 
HETATM   43  C31 UNL     1     -12.293  49.240  -0.322  1.00  0.00     0.031 C 
HETATM   44  C29 UNL     1     -12.206  47.921   1.630  1.00  0.00     0.026 C 
BRANCH  39  45
HETATM   45  S1  UNL     1      -4.811  48.684  -0.355  1.00  0.00    -0.064 SA
BRANCH  45  46
HETATM   46  C22 UNL     1      -3.222  48.864  -1.178  1.00  0.00     0.057 A 
HETATM   47  C23 UNL     1      -2.177  49.658  -0.378  1.00  0.00     0.017 A 
HETATM   48  C24 UNL     1      -1.997  48.205  -0.639  1.00  0.00     0.017 A 
ENDBRANCH  45  46
ENDBRANCH  39  45
ENDBRANCH   1  28
TORSDOF 16
ENDMDL
