MODEL 1
REMARK VINA RESULT: -6.914967371      0.000      0.000
REMARK  15 active torsions:
REMARK  status: ('A' for Active; 'I' for Inactive)
REMARK    1  A    between atoms: C6_6  and  C7_7 
REMARK    2  A    between atoms: C8_8  and  C9_9 
REMARK    3  A    between atoms: C8_8  and  N1_29 
REMARK    4  A    between atoms: C9_9  and  O1_10 
REMARK    5  A    between atoms: C9_9  and  C10_12 
REMARK    6  A    between atoms: C10_12  and  O2_13 
REMARK    7  A    between atoms: C10_12  and  C11_15 
REMARK    8  A    between atoms: C11_15  and  O3_16 
REMARK    9  A    between atoms: C11_15  and  C12_18 
REMARK   10  A    between atoms: C12_18  and  C13_19 
REMARK   11  A    between atoms: C12_18  and  C20_26 
REMARK   12  A    between atoms: C13_19  and  C14_20 
REMARK   13  A    between atoms: N1_29  and  C23_30 
REMARK   14  A    between atoms: N1_29  and  S1_33 
REMARK   15  A    between atoms: S1_33  and  C26_36 
ROOT
HETATM    1  C7  UNL     1      -9.293  34.654   2.767  1.00  0.00     0.040 C 
HETATM    2  C8  UNL     1     -10.723  34.548   2.680  1.00  0.00     0.055 C 
ENDROOT
BRANCH   2   3
HETATM    3  C9  UNL     1     -11.208  33.594   1.692  1.00  0.00     0.200 C 
BRANCH   3   4
HETATM    4  O1  UNL     1     -12.600  33.346   1.780  1.00  0.00    -0.387 OA
ATOM      5  H1  UNL     1     -12.835  32.438   1.623  1.00  0.00     0.210 HD
ENDBRANCH   3   4
BRANCH   3   6
HETATM    6  C10 UNL     1     -10.603  32.179   1.760  1.00  0.00     0.181 C 
BRANCH   6   7
HETATM    7  O2  UNL     1     -11.046  31.536   2.934  1.00  0.00    -0.390 OA
ATOM      8  H2  UNL     1     -11.614  30.811   2.700  1.00  0.00     0.210 HD
ENDBRANCH   6   7
BRANCH   6   9
HETATM    9  C11 UNL     1     -11.085  31.388   0.625  1.00  0.00     0.154 C 
BRANCH   9  10
HETATM   10  O3  UNL     1     -11.323  30.072   1.026  1.00  0.00    -0.393 OA
ATOM     11  H3  UNL     1     -12.074  30.040   1.606  1.00  0.00     0.210 HD
ENDBRANCH   9  10
BRANCH   9  12
HETATM   12  C12 UNL     1     -10.372  31.354  -0.666  1.00  0.00     0.021 C 
BRANCH  12  13
HETATM   13  C13 UNL     1     -10.316  30.038  -1.343  1.00  0.00     0.012 C 
BRANCH  13  14
HETATM   14  C14 UNL     1     -11.413  29.891  -2.380  1.00  0.00    -0.014 C 
HETATM   15  C15 UNL     1     -12.510  28.980  -1.913  1.00  0.00     0.005 C 
HETATM   16  C16 UNL     1     -12.919  27.993  -2.975  1.00  0.00     0.000 C 
HETATM   17  C17 UNL     1     -13.116  28.623  -4.323  1.00  0.00     0.000 C 
HETATM   18  C18 UNL     1     -11.911  29.460  -4.725  1.00  0.00     0.000 C 
HETATM   19  C19 UNL     1     -10.839  29.289  -3.662  1.00  0.00     0.005 C 
ENDBRANCH  13  14
ENDBRANCH  12  13
BRANCH  12  20
HETATM   20  C20 UNL     1      -9.048  32.086  -0.644  1.00  0.00    -0.016 C 
HETATM   21  C21 UNL     1      -7.904  31.061  -0.691  1.00  0.00     0.010 C 
HETATM   22  C22 UNL     1      -8.849  33.115  -1.683  1.00  0.00     0.010 C 
ENDBRANCH  12  20
ENDBRANCH   9  12
ENDBRANCH   6   9
ENDBRANCH   3   6
ENDBRANCH   2   3
BRANCH   2  23
HETATM   23  N1  UNL     1     -11.514  35.732   2.920  1.00  0.00    -0.272 N 
BRANCH  23  24
HETATM   24  C23 UNL     1     -11.431  36.818   2.084  1.00  0.00     0.101 A 
HETATM   25  C24 UNL     1     -12.373  36.734   0.837  1.00  0.00     0.028 A 
HETATM   26  C25 UNL     1     -12.364  37.875   1.780  1.00  0.00     0.028 A 
ENDBRANCH  23  24
BRANCH  23  27
HETATM   27  S1  UNL     1     -12.554  35.660   4.228  1.00  0.00     0.237 S 
HETATM   28  O4  UNL     1     -13.856  36.335   3.904  1.00  0.00    -0.205 OA
HETATM   29  O5  UNL     1     -12.778  34.292   4.817  1.00  0.00    -0.205 OA
BRANCH  27  30
HETATM   30  C26 UNL     1     -11.985  36.547   5.697  1.00  0.00     0.130 A 
HETATM   31  C27 UNL     1     -10.464  36.620   5.777  1.00  0.00     0.023 A 
HETATM   32  C28 UNL     1     -11.213  35.800   6.738  1.00  0.00     0.023 A 
ENDBRANCH  27  30
ENDBRANCH  23  27
ENDBRANCH   2  23
BRANCH   1  33
HETATM   33  C6  UNL     1      -8.338  35.029   1.774  1.00  0.00    -0.028 A 
HETATM   34  C5  UNL     1      -8.282  36.010   0.840  1.00  0.00     0.012 A 
HETATM   35  C4  UNL     1      -7.269  36.235  -0.052  1.00  0.00     0.001 A 
HETATM   36  C3  UNL     1      -6.177  35.399  -0.035  1.00  0.00     0.007 A 
HETATM   37  C2  UNL     1      -6.160  34.379   0.882  1.00  0.00    -0.055 A 
HETATM   38  C1  UNL     1      -4.961  33.457   0.913  1.00  0.00     0.049 C 
HETATM   39  C29 UNL     1      -7.194  34.186   1.764  1.00  0.00    -0.046 A 
HETATM   40  C30 UNL     1      -7.073  33.051   2.724  1.00  0.00     0.049 C 
ENDBRANCH   1  33
TORSDOF 15
ENDMDL
MODEL 2
REMARK VINA RESULT: -6.905225480      1.535      2.018
REMARK  15 active torsions:
REMARK  status: ('A' for Active; 'I' for Inactive)
REMARK    1  A    between atoms: C6_6  and  C7_7 
REMARK    2  A    between atoms: C8_8  and  C9_9 
REMARK    3  A    between atoms: C8_8  and  N1_29 
REMARK    4  A    between atoms: C9_9  and  O1_10 
REMARK    5  A    between atoms: C9_9  and  C10_12 
REMARK    6  A    between atoms: C10_12  and  O2_13 
REMARK    7  A    between atoms: C10_12  and  C11_15 
REMARK    8  A    between atoms: C11_15  and  O3_16 
REMARK    9  A    between atoms: C11_15  and  C12_18 
REMARK   10  A    between atoms: C12_18  and  C13_19 
REMARK   11  A    between atoms: C12_18  and  C20_26 
REMARK   12  A    between atoms: C13_19  and  C14_20 
REMARK   13  A    between atoms: N1_29  and  C23_30 
REMARK   14  A    between atoms: N1_29  and  S1_33 
REMARK   15  A    between atoms: S1_33  and  C26_36 
ROOT
HETATM    1  C7  UNL     1      -8.617  34.466   3.092  1.00  0.00     0.040 C 
HETATM    2  C8  UNL     1      -9.925  34.701   2.548  1.00  0.00     0.055 C 
ENDROOT
BRANCH   2   3
HETATM    3  C9  UNL     1     -10.304  33.816   1.455  1.00  0.00     0.200 C 
BRANCH   3   4
HETATM    4  O1  UNL     1     -11.624  34.028   0.985  1.00  0.00    -0.387 OA
ATOM      5  H1  UNL     1     -11.864  33.463   0.260  1.00  0.00     0.210 HD
ENDBRANCH   3   4
BRANCH   3   6
HETATM    6  C10 UNL     1     -10.290  32.307   1.767  1.00  0.00     0.181 C 
BRANCH   6   7
HETATM    7  O2  UNL     1     -11.062  32.060   2.919  1.00  0.00    -0.390 OA
ATOM      8  H2  UNL     1     -11.803  31.512   2.690  1.00  0.00     0.210 HD
ENDBRANCH   6   7
BRANCH   6   9
HETATM    9  C11 UNL     1     -10.915  31.576   0.661  1.00  0.00     0.154 C 
BRANCH   9  10
HETATM   10  O3  UNL     1     -11.360  30.329   1.105  1.00  0.00    -0.393 OA
ATOM     11  H3  UNL     1     -11.877  30.431   1.895  1.00  0.00     0.210 HD
ENDBRANCH   9  10
BRANCH   9  12
HETATM   12  C12 UNL     1     -10.240  31.389  -0.636  1.00  0.00     0.021 C 
BRANCH  12  13
HETATM   13  C13 UNL     1     -10.291  30.022  -1.205  1.00  0.00     0.012 C 
BRANCH  13  14
HETATM   14  C14 UNL     1     -11.349  29.900  -2.284  1.00  0.00    -0.014 C 
HETATM   15  C15 UNL     1     -12.516  29.070  -1.839  1.00  0.00     0.005 C 
HETATM   16  C16 UNL     1     -12.935  28.071  -2.885  1.00  0.00     0.000 C 
HETATM   17  C17 UNL     1     -13.036  28.663  -4.260  1.00  0.00     0.000 C 
HETATM   18  C18 UNL     1     -11.768  29.415  -4.634  1.00  0.00     0.000 C 
HETATM   19  C19 UNL     1     -10.755  29.221  -3.519  1.00  0.00     0.005 C 
ENDBRANCH  13  14
ENDBRANCH  12  13
BRANCH  12  20
HETATM   20  C20 UNL     1      -8.868  32.025  -0.701  1.00  0.00    -0.016 C 
HETATM   21  C21 UNL     1      -7.801  30.921  -0.726  1.00  0.00     0.010 C 
HETATM   22  C22 UNL     1      -8.638  32.978  -1.804  1.00  0.00     0.010 C 
ENDBRANCH  12  20
ENDBRANCH   9  12
ENDBRANCH   6   9
ENDBRANCH   3   6
ENDBRANCH   2   3
BRANCH   2  23
HETATM   23  N1  UNL     1     -10.424  36.056   2.523  1.00  0.00    -0.272 N 
BRANCH  23  24
HETATM   24  C23 UNL     1     -10.207  36.867   1.437  1.00  0.00     0.101 A 
HETATM   25  C24 UNL     1      -9.313  38.115   1.742  1.00  0.00     0.028 A 
HETATM   26  C25 UNL     1      -9.023  37.146   0.661  1.00  0.00     0.028 A 
ENDBRANCH  23  24
BRANCH  23  27
HETATM   27  S1  UNL     1     -11.312  36.530   3.858  1.00  0.00     0.237 S 
HETATM   28  O4  UNL     1     -10.412  37.112   4.912  1.00  0.00    -0.205 OA
HETATM   29  O5  UNL     1     -12.484  37.434   3.581  1.00  0.00    -0.205 OA
BRANCH  27  30
HETATM   30  C26 UNL     1     -12.149  35.185   4.728  1.00  0.00     0.130 A 
HETATM   31  C27 UNL     1     -13.320  34.620   3.931  1.00  0.00     0.023 A 
HETATM   32  C28 UNL     1     -13.566  35.378   5.166  1.00  0.00     0.023 A 
ENDBRANCH  27  30
ENDBRANCH  23  27
ENDBRANCH   2  23
BRANCH   1  33
HETATM   33  C6  UNL     1      -7.337  34.518   2.460  1.00  0.00    -0.028 A 
HETATM   34  C5  UNL     1      -6.727  33.781   1.500  1.00  0.00     0.012 A 
HETATM   35  C4  UNL     1      -5.469  33.972   0.995  1.00  0.00     0.001 A 
HETATM   36  C3  UNL     1      -4.712  35.009   1.488  1.00  0.00     0.007 A 
HETATM   37  C2  UNL     1      -5.260  35.802   2.464  1.00  0.00    -0.055 A 
HETATM   38  C1  UNL     1      -4.438  36.948   3.009  1.00  0.00     0.049 C 
HETATM   39  C29 UNL     1      -6.527  35.580   2.944  1.00  0.00    -0.046 A 
HETATM   40  C30 UNL     1      -7.030  36.504   4.001  1.00  0.00     0.049 C 
ENDBRANCH   1  33
TORSDOF 15
ENDMDL
MODEL 3
REMARK VINA RESULT: -6.857656612      4.299      8.767
REMARK  15 active torsions:
REMARK  status: ('A' for Active; 'I' for Inactive)
REMARK    1  A    between atoms: C6_6  and  C7_7 
REMARK    2  A    between atoms: C8_8  and  C9_9 
REMARK    3  A    between atoms: C8_8  and  N1_29 
REMARK    4  A    between atoms: C9_9  and  O1_10 
REMARK    5  A    between atoms: C9_9  and  C10_12 
REMARK    6  A    between atoms: C10_12  and  O2_13 
REMARK    7  A    between atoms: C10_12  and  C11_15 
REMARK    8  A    between atoms: C11_15  and  O3_16 
REMARK    9  A    between atoms: C11_15  and  C12_18 
REMARK   10  A    between atoms: C12_18  and  C13_19 
REMARK   11  A    between atoms: C12_18  and  C20_26 
REMARK   12  A    between atoms: C13_19  and  C14_20 
REMARK   13  A    between atoms: N1_29  and  C23_30 
REMARK   14  A    between atoms: N1_29  and  S1_33 
REMARK   15  A    between atoms: S1_33  and  C26_36 
ROOT
HETATM    1  C7  UNL     1      -7.450  35.906   0.638  1.00  0.00     0.040 C 
HETATM    2  C8  UNL     1      -8.613  36.098   1.458  1.00  0.00     0.055 C 
ENDROOT
BRANCH   2   3
HETATM    3  C9  UNL     1      -8.343  36.600   2.798  1.00  0.00     0.200 C 
BRANCH   3   4
HETATM    4  O1  UNL     1      -9.509  36.978   3.509  1.00  0.00    -0.387 OA
ATOM      5  H1  UNL     1      -9.917  36.259   3.979  1.00  0.00     0.210 HD
ENDBRANCH   3   4
BRANCH   3   6
HETATM    6  C10 UNL     1      -7.466  37.865   2.886  1.00  0.00     0.181 C 
BRANCH   6   7
HETATM    7  O2  UNL     1      -8.229  38.990   2.515  1.00  0.00    -0.390 OA
ATOM      8  H2  UNL     1      -7.777  39.780   2.786  1.00  0.00     0.210 HD
ENDBRANCH   6   7
BRANCH   6   9
HETATM    9  C11 UNL     1      -7.041  38.067   4.273  1.00  0.00     0.154 C 
BRANCH   9  10
HETATM   10  O3  UNL     1      -7.899  38.967   4.909  1.00  0.00    -0.393 OA
ATOM     11  H3  UNL     1      -7.463  39.359   5.656  1.00  0.00     0.210 HD
ENDBRANCH   9  10
BRANCH   9  12
HETATM   12  C12 UNL     1      -5.654  38.427   4.624  1.00  0.00     0.021 C 
BRANCH  12  13
HETATM   13  C13 UNL     1      -4.877  39.124   3.572  1.00  0.00     0.012 C 
BRANCH  13  14
HETATM   14  C14 UNL     1      -4.908  40.630   3.754  1.00  0.00    -0.014 C 
HETATM   15  C15 UNL     1      -3.857  41.317   2.934  1.00  0.00     0.005 C 
HETATM   16  C16 UNL     1      -3.115  42.363   3.724  1.00  0.00     0.000 C 
HETATM   17  C17 UNL     1      -4.021  43.259   4.517  1.00  0.00     0.000 C 
HETATM   18  C18 UNL     1      -4.991  42.453   5.367  1.00  0.00     0.000 C 
HETATM   19  C19 UNL     1      -4.644  40.981   5.218  1.00  0.00     0.005 C 
ENDBRANCH  13  14
ENDBRANCH  12  13
BRANCH  12  20
HETATM   20  C20 UNL     1      -4.893  37.311   5.304  1.00  0.00    -0.016 C 
HETATM   21  C21 UNL     1      -4.732  37.645   6.795  1.00  0.00     0.010 C 
HETATM   22  C22 UNL     1      -5.443  35.950   5.146  1.00  0.00     0.010 C 
ENDBRANCH  12  20
ENDBRANCH   9  12
ENDBRANCH   6   9
ENDBRANCH   3   6
ENDBRANCH   2   3
BRANCH   2  23
HETATM   23  N1  UNL     1      -9.729  35.197   1.288  1.00  0.00    -0.272 N 
BRANCH  23  24
HETATM   24  C23 UNL     1     -10.647  35.395   0.286  1.00  0.00     0.101 A 
HETATM   25  C24 UNL     1     -12.017  35.967   0.781  1.00  0.00     0.028 A 
HETATM   26  C25 UNL     1     -11.207  36.594  -0.288  1.00  0.00     0.028 A 
ENDBRANCH  23  24
BRANCH  23  27
HETATM   27  S1  UNL     1      -9.784  33.897   2.338  1.00  0.00     0.237 S 
HETATM   28  O4  UNL     1      -8.408  33.568   2.843  1.00  0.00    -0.205 OA
HETATM   29  O5  UNL     1     -10.770  34.007   3.470  1.00  0.00    -0.205 OA
BRANCH  27  30
HETATM   30  C26 UNL     1     -10.330  32.344   1.592  1.00  0.00     0.130 A 
HETATM   31  C27 UNL     1     -11.845  32.281   1.429  1.00  0.00     0.023 A 
HETATM   32  C28 UNL     1     -11.172  31.410   2.402  1.00  0.00     0.023 A 
ENDBRANCH  27  30
ENDBRANCH  23  27
ENDBRANCH   2  23
BRANCH   1  33
HETATM   33  C6  UNL     1      -6.311  35.069   0.842  1.00  0.00    -0.028 A 
HETATM   34  C5  UNL     1      -5.179  35.177   1.580  1.00  0.00     0.012 A 
HETATM   35  C4  UNL     1      -4.167  34.260   1.667  1.00  0.00     0.001 A 
HETATM   36  C3  UNL     1      -4.269  33.095   0.943  1.00  0.00     0.007 A 
HETATM   37  C2  UNL     1      -5.387  32.911   0.169  1.00  0.00    -0.055 A 
HETATM   38  C1  UNL     1      -5.511  31.631  -0.627  1.00  0.00     0.049 C 
HETATM   39  C29 UNL     1      -6.383  33.854   0.109  1.00  0.00    -0.046 A 
HETATM   40  C30 UNL     1      -7.559  33.553  -0.758  1.00  0.00     0.049 C 
ENDBRANCH   1  33
TORSDOF 15
ENDMDL
MODEL 4
REMARK VINA RESULT: -6.625337948      3.922      8.253
REMARK  15 active torsions:
REMARK  status: ('A' for Active; 'I' for Inactive)
REMARK    1  A    between atoms: C6_6  and  C7_7 
REMARK    2  A    between atoms: C8_8  and  C9_9 
REMARK    3  A    between atoms: C8_8  and  N1_29 
REMARK    4  A    between atoms: C9_9  and  O1_10 
REMARK    5  A    between atoms: C9_9  and  C10_12 
REMARK    6  A    between atoms: C10_12  and  O2_13 
REMARK    7  A    between atoms: C10_12  and  C11_15 
REMARK    8  A    between atoms: C11_15  and  O3_16 
REMARK    9  A    between atoms: C11_15  and  C12_18 
REMARK   10  A    between atoms: C12_18  and  C13_19 
REMARK   11  A    between atoms: C12_18  and  C20_26 
REMARK   12  A    between atoms: C13_19  and  C14_20 
REMARK   13  A    between atoms: N1_29  and  C23_30 
REMARK   14  A    between atoms: N1_29  and  S1_33 
REMARK   15  A    between atoms: S1_33  and  C26_36 
ROOT
HETATM    1  C7  UNL     1      -7.198  35.695   0.546  1.00  0.00     0.040 C 
HETATM    2  C8  UNL     1      -8.252  35.988   1.478  1.00  0.00     0.055 C 
ENDROOT
BRANCH   2   3
HETATM    3  C9  UNL     1      -7.956  35.653   2.864  1.00  0.00     0.200 C 
BRANCH   3   4
HETATM    4  O1  UNL     1      -8.938  34.832   3.471  1.00  0.00    -0.387 OA
ATOM      5  H1  UNL     1      -9.730  34.742   2.955  1.00  0.00     0.210 HD
ENDBRANCH   3   4
BRANCH   3   6
HETATM    6  C10 UNL     1      -7.851  36.840   3.842  1.00  0.00     0.181 C 
BRANCH   6   7
HETATM    7  O2  UNL     1      -8.736  36.638   4.920  1.00  0.00    -0.390 OA
ATOM      8  H2  UNL     1      -8.237  36.515   5.719  1.00  0.00     0.210 HD
ENDBRANCH   6   7
BRANCH   6   9
HETATM    9  C11 UNL     1      -6.496  36.893   4.399  1.00  0.00     0.154 C 
BRANCH   9  10
HETATM   10  O3  UNL     1      -6.148  35.648   4.926  1.00  0.00    -0.393 OA
ATOM     11  H3  UNL     1      -5.397  35.737   5.501  1.00  0.00     0.210 HD
ENDBRANCH   9  10
BRANCH   9  12
HETATM   12  C12 UNL     1      -6.084  37.932   5.361  1.00  0.00     0.021 C 
BRANCH  12  13
HETATM   13  C13 UNL     1      -5.013  38.850   4.908  1.00  0.00     0.012 C 
BRANCH  13  14
HETATM   14  C14 UNL     1      -5.490  39.767   3.798  1.00  0.00    -0.014 C 
HETATM   15  C15 UNL     1      -4.467  40.806   3.447  1.00  0.00     0.005 C 
HETATM   16  C16 UNL     1      -5.073  42.178   3.314  1.00  0.00     0.000 C 
HETATM   17  C17 UNL     1      -6.332  42.192   2.497  1.00  0.00     0.000 C 
HETATM   18  C18 UNL     1      -7.324  41.151   2.991  1.00  0.00     0.000 C 
HETATM   19  C19 UNL     1      -6.753  40.505   4.242  1.00  0.00     0.005 C 
ENDBRANCH  13  14
ENDBRANCH  12  13
BRANCH  12  20
HETATM   20  C20 UNL     1      -5.884  37.408   6.766  1.00  0.00    -0.016 C 
HETATM   21  C21 UNL     1      -4.524  37.889   7.295  1.00  0.00     0.010 C 
HETATM   22  C22 UNL     1      -6.946  37.722   7.742  1.00  0.00     0.010 C 
ENDBRANCH  12  20
ENDBRANCH   9  12
ENDBRANCH   6   9
ENDBRANCH   3   6
ENDBRANCH   2   3
BRANCH   2  23
HETATM   23  N1  UNL     1      -9.618  35.861   1.030  1.00  0.00    -0.272 N 
BRANCH  23  24
HETATM   24  C23 UNL     1     -10.016  34.784   0.277  1.00  0.00     0.101 A 
HETATM   25  C24 UNL     1     -10.367  33.512   1.118  1.00  0.00     0.028 A 
HETATM   26  C25 UNL     1     -11.291  34.123   0.136  1.00  0.00     0.028 A 
ENDBRANCH  23  24
BRANCH  23  27
HETATM   27  S1  UNL     1     -10.666  37.064   1.534  1.00  0.00     0.237 S 
HETATM   28  O4  UNL     1     -11.815  37.198   0.576  1.00  0.00    -0.205 OA
HETATM   29  O5  UNL     1     -11.149  36.963   2.956  1.00  0.00    -0.205 OA
BRANCH  27  30
HETATM   30  C26 UNL     1      -9.955  38.725   1.559  1.00  0.00     0.130 A 
HETATM   31  C27 UNL     1     -10.583  39.640   0.512  1.00  0.00     0.023 A 
HETATM   32  C28 UNL     1      -9.189  39.202   0.366  1.00  0.00     0.023 A 
ENDBRANCH  27  30
ENDBRANCH  23  27
ENDBRANCH   2  23
BRANCH   1  33
HETATM   33  C6  UNL     1      -6.575  34.450   0.228  1.00  0.00    -0.028 A 
HETATM   34  C5  UNL     1      -6.940  33.373  -0.510  1.00  0.00     0.012 A 
HETATM   35  C4  UNL     1      -6.206  32.237  -0.719  1.00  0.00     0.001 A 
HETATM   36  C3  UNL     1      -4.965  32.136  -0.135  1.00  0.00     0.007 A 
HETATM   37  C2  UNL     1      -4.525  33.187   0.630  1.00  0.00    -0.055 A 
HETATM   38  C1  UNL     1      -3.159  33.089   1.273  1.00  0.00     0.049 C 
HETATM   39  C29 UNL     1      -5.289  34.313   0.816  1.00  0.00    -0.046 A 
HETATM   40  C30 UNL     1      -4.714  35.399   1.660  1.00  0.00     0.049 C 
ENDBRANCH   1  33
TORSDOF 15
ENDMDL
MODEL 5
REMARK VINA RESULT: -6.582493488      4.446      8.990
REMARK  15 active torsions:
REMARK  status: ('A' for Active; 'I' for Inactive)
REMARK    1  A    between atoms: C6_6  and  C7_7 
REMARK    2  A    between atoms: C8_8  and  C9_9 
REMARK    3  A    between atoms: C8_8  and  N1_29 
REMARK    4  A    between atoms: C9_9  and  O1_10 
REMARK    5  A    between atoms: C9_9  and  C10_12 
REMARK    6  A    between atoms: C10_12  and  O2_13 
REMARK    7  A    between atoms: C10_12  and  C11_15 
REMARK    8  A    between atoms: C11_15  and  O3_16 
REMARK    9  A    between atoms: C11_15  and  C12_18 
REMARK   10  A    between atoms: C12_18  and  C13_19 
REMARK   11  A    between atoms: C12_18  and  C20_26 
REMARK   12  A    between atoms: C13_19  and  C14_20 
REMARK   13  A    between atoms: N1_29  and  C23_30 
REMARK   14  A    between atoms: N1_29  and  S1_33 
REMARK   15  A    between atoms: S1_33  and  C26_36 
ROOT
HETATM    1  C7  UNL     1      -7.526  36.071   0.923  1.00  0.00     0.040 C 
HETATM    2  C8  UNL     1      -8.638  36.283   1.807  1.00  0.00     0.055 C 
ENDROOT
BRANCH   2   3
HETATM    3  C9  UNL     1      -8.291  36.838   3.108  1.00  0.00     0.200 C 
BRANCH   3   4
HETATM    4  O1  UNL     1      -9.413  37.271   3.857  1.00  0.00    -0.387 OA
ATOM      5  H1  UNL     1      -9.302  38.130   4.247  1.00  0.00     0.210 HD
ENDBRANCH   3   4
BRANCH   3   6
HETATM    6  C10 UNL     1      -7.387  38.087   3.094  1.00  0.00     0.181 C 
BRANCH   6   7
HETATM    7  O2  UNL     1      -8.131  39.198   2.648  1.00  0.00    -0.390 OA
ATOM      8  H2  UNL     1      -7.802  39.985   3.065  1.00  0.00     0.210 HD
ENDBRANCH   6   7
BRANCH   6   9
HETATM    9  C11 UNL     1      -6.945  38.382   4.460  1.00  0.00     0.154 C 
BRANCH   9  10
HETATM   10  O3  UNL     1      -7.753  39.373   5.019  1.00  0.00    -0.393 OA
ATOM     11  H3  UNL     1      -7.231  40.138   5.229  1.00  0.00     0.210 HD
ENDBRANCH   9  10
BRANCH   9  12
HETATM   12  C12 UNL     1      -5.540  38.699   4.777  1.00  0.00     0.021 C 
BRANCH  12  13
HETATM   13  C13 UNL     1      -4.747  39.305   3.683  1.00  0.00     0.012 C 
BRANCH  13  14
HETATM   14  C14 UNL     1      -4.739  40.820   3.765  1.00  0.00    -0.014 C 
HETATM   15  C15 UNL     1      -3.749  41.430   2.818  1.00  0.00     0.005 C 
HETATM   16  C16 UNL     1      -2.928  42.510   3.473  1.00  0.00     0.000 C 
HETATM   17  C17 UNL     1      -3.752  43.474   4.275  1.00  0.00     0.000 C 
HETATM   18  C18 UNL     1      -4.661  42.747   5.253  1.00  0.00     0.000 C 
HETATM   19  C19 UNL     1      -4.350  41.261   5.176  1.00  0.00     0.005 C 
ENDBRANCH  13  14
ENDBRANCH  12  13
BRANCH  12  20
HETATM   20  C20 UNL     1      -4.820  37.588   5.509  1.00  0.00    -0.016 C 
HETATM   21  C21 UNL     1      -4.686  37.963   6.992  1.00  0.00     0.010 C 
HETATM   22  C22 UNL     1      -5.396  36.235   5.379  1.00  0.00     0.010 C 
ENDBRANCH  12  20
ENDBRANCH   9  12
ENDBRANCH   6   9
ENDBRANCH   3   6
ENDBRANCH   2   3
BRANCH   2  23
HETATM   23  N1  UNL     1      -9.752  35.367   1.739  1.00  0.00    -0.272 N 
BRANCH  23  24
HETATM   24  C23 UNL     1      -9.805  34.261   2.552  1.00  0.00     0.101 A 
HETATM   25  C24 UNL     1      -9.894  32.904   1.777  1.00  0.00     0.028 A 
HETATM   26  C25 UNL     1      -8.862  33.197   2.798  1.00  0.00     0.028 A 
ENDBRANCH  23  24
BRANCH  23  27
HETATM   27  S1  UNL     1     -10.968  35.774   0.666  1.00  0.00     0.237 S 
HETATM   28  O4  UNL     1     -10.821  35.004  -0.615  1.00  0.00    -0.205 OA
HETATM   29  O5  UNL     1     -12.373  35.685   1.200  1.00  0.00    -0.205 OA
BRANCH  27  30
HETATM   30  C26 UNL     1     -10.947  37.495   0.116  1.00  0.00     0.130 A 
HETATM   31  C27 UNL     1     -11.438  38.455   1.196  1.00  0.00     0.023 A 
HETATM   32  C28 UNL     1     -12.244  38.230  -0.011  1.00  0.00     0.023 A 
ENDBRANCH  27  30
ENDBRANCH  23  27
ENDBRANCH   2  23
BRANCH   1  33
HETATM   33  C6  UNL     1      -6.368  35.253   1.086  1.00  0.00    -0.028 A 
HETATM   34  C5  UNL     1      -5.250  35.339   1.849  1.00  0.00     0.012 A 
HETATM   35  C4  UNL     1      -4.214  34.446   1.888  1.00  0.00     0.001 A 
HETATM   36  C3  UNL     1      -4.272  33.333   1.081  1.00  0.00     0.007 A 
HETATM   37  C2  UNL     1      -5.373  33.174   0.278  1.00  0.00    -0.055 A 
HETATM   38  C1  UNL     1      -5.449  31.951  -0.609  1.00  0.00     0.049 C 
HETATM   39  C29 UNL     1      -6.394  34.092   0.268  1.00  0.00    -0.046 A 
HETATM   40  C30 UNL     1      -7.548  33.821  -0.638  1.00  0.00     0.049 C 
ENDBRANCH   1  33
TORSDOF 15
ENDMDL
