MODEL 1
REMARK VINA RESULT: -6.974342402      0.000      0.000
REMARK  15 active torsions:
REMARK  status: ('A' for Active; 'I' for Inactive)
REMARK    1  A    between atoms: C2_2  and  C3_3 
REMARK    2  A    between atoms: C3_3  and  C5_5 
REMARK    3  A    between atoms: C5_5  and  N1_6 
REMARK    4  A    between atoms: C5_5  and  C17_21 
REMARK       I    between atoms: N1_6  and  C6_8 
REMARK    5  A    between atoms: C6_8  and  O2_10 
REMARK    6  A    between atoms: O2_10  and  C7_11 
REMARK    7  A    between atoms: C17_21  and  C18_23 
REMARK    8  A    between atoms: C18_23  and  C19_24 
REMARK    9  A    between atoms: C18_23  and  N2_28 
REMARK   10  A    between atoms: C19_24  and  C20_25 
REMARK       I    between atoms: N2_28  and  C23_30 
REMARK   11  A    between atoms: C23_30  and  C24_32 
REMARK   12  A    between atoms: C24_32  and  C25_33 
REMARK   13  A    between atoms: C24_32  and  N4_37 
REMARK   14  A    between atoms: C25_33  and  C26_34 
REMARK   15  A    between atoms: N4_37  and  C28_39 
ROOT
HETATM    1  C5  UNL     1      -7.949  36.654   1.192  1.00  0.00     0.066 C 
ENDROOT
BRANCH   1   2
HETATM    2  C3  UNL     1      -8.611  37.753   0.440  1.00  0.00     0.035 C 
HETATM    3  C4  UNL     1      -8.448  39.111   1.116  1.00  0.00     0.016 C 
BRANCH   2   4
HETATM    4  C2  UNL     1     -10.132  37.493   0.351  1.00  0.00     0.006 C 
HETATM    5  C1  UNL     1     -10.872  38.029   1.531  1.00  0.00     0.006 C 
ENDBRANCH   2   4
ENDBRANCH   1   2
BRANCH   1   6
HETATM    6  N1  UNL     1      -7.411  37.063   2.470  1.00  0.00    -0.302 N 
HETATM    7  C6  UNL     1      -7.929  36.589   3.704  1.00  0.00     0.365 C 
HETATM    8  O1  UNL     1      -8.906  35.770   3.666  1.00  0.00    -0.238 OA
ATOM      9  H1  UNL     1      -6.628  37.717   2.485  1.00  0.00     0.171 HD
BRANCH   7  10
HETATM   10  O2  UNL     1      -7.466  36.935   4.935  1.00  0.00    -0.298 OA
BRANCH  10  11
HETATM   11  C7  UNL     1      -6.969  38.238   5.201  1.00  0.00     0.142 C 
HETATM   12  C8  UNL     1      -5.487  38.252   5.039  1.00  0.00     0.016 C 
HETATM   13  C9  UNL     1      -4.971  39.671   5.243  1.00  0.00     0.012 C 
HETATM   14  C13 UNL     1      -4.763  37.381   6.028  1.00  0.00     0.012 C 
HETATM   15  C10 UNL     1      -5.349  40.152   6.609  1.00  0.00    -0.013 C 
HETATM   16  C11 UNL     1      -4.648  39.262   7.614  1.00  0.00     0.009 C 
HETATM   17  C16 UNL     1      -6.835  40.070   6.816  1.00  0.00     0.012 C 
HETATM   18  C12 UNL     1      -5.109  37.857   7.415  1.00  0.00    -0.013 C 
HETATM   19  C14 UNL     1      -6.595  37.772   7.625  1.00  0.00     0.012 C 
HETATM   20  C15 UNL     1      -7.300  38.650   6.624  1.00  0.00     0.016 C 
ENDBRANCH  10  11
ENDBRANCH   7  10
ENDBRANCH   1   6
BRANCH   1  21
HETATM   21  C17 UNL     1      -7.105  35.727   0.440  1.00  0.00     0.194 C 
HETATM   22  O3  UNL     1      -6.173  36.158  -0.216  1.00  0.00    -0.289 OA
BRANCH  21  23
HETATM   23  C18 UNL     1      -7.290  34.234   0.410  1.00  0.00     0.161 C 
BRANCH  23  24
HETATM   24  C19 UNL     1      -6.294  33.715   1.419  1.00  0.00     0.037 C 
BRANCH  24  25
HETATM   25  C20 UNL     1      -5.267  32.777   0.900  1.00  0.00    -0.020 C 
HETATM   26  C21 UNL     1      -5.364  32.368  -0.521  1.00  0.00     0.009 C 
HETATM   27  C22 UNL     1      -3.851  33.249   1.203  1.00  0.00     0.009 C 
ENDBRANCH  24  25
ENDBRANCH  23  24
BRANCH  23  28
HETATM   28  N2  UNL     1      -8.619  34.051   1.022  1.00  0.00    -0.347 N 
HETATM   29  C23 UNL     1      -9.733  33.653   0.222  1.00  0.00     0.252 C 
HETATM   30  O4  UNL     1      -9.528  33.473  -0.986  1.00  0.00    -0.271 OA
ATOM     31  H2  UNL     1      -8.744  34.210   2.021  1.00  0.00     0.163 HD
BRANCH  29  32
HETATM   32  C24 UNL     1     -11.032  33.483   0.850  1.00  0.00     0.321 C 
BRANCH  32  33
HETATM   33  C25 UNL     1     -10.801  32.657   2.164  1.00  0.00     0.145 C 
BRANCH  33  34
HETATM   34  C26 UNL     1     -11.147  31.247   1.882  1.00  0.00     0.233 C 
HETATM   35  N3  UNL     1     -11.324  30.704   0.599  1.00  0.00    -0.062 NA
HETATM   36  O5  UNL     1     -11.291  30.483   2.878  1.00  0.00    -0.277 OA
ENDBRANCH  33  34
ENDBRANCH  32  33
BRANCH  32  37
HETATM   37  N4  UNL     1     -11.844  34.566   1.184  1.00  0.00     0.098 N 
HETATM   38  C27 UNL     1     -11.958  34.592   2.674  1.00  0.00     0.310 C 
BRANCH  37  39
HETATM   39  C28 UNL     1     -13.181  34.664   0.713  1.00  0.00     0.268 C 
HETATM   40  C29 UNL     1     -13.747  35.984   0.336  1.00  0.00     0.037 C 
ENDBRANCH  37  39
ENDBRANCH  32  37
ENDBRANCH  29  32
ENDBRANCH  23  28
ENDBRANCH  21  23
ENDBRANCH   1  21
TORSDOF 15
ENDMDL
MODEL 2
REMARK VINA RESULT: -6.855661088      3.072      5.294
REMARK  15 active torsions:
REMARK  status: ('A' for Active; 'I' for Inactive)
REMARK    1  A    between atoms: C2_2  and  C3_3 
REMARK    2  A    between atoms: C3_3  and  C5_5 
REMARK    3  A    between atoms: C5_5  and  N1_6 
REMARK    4  A    between atoms: C5_5  and  C17_21 
REMARK       I    between atoms: N1_6  and  C6_8 
REMARK    5  A    between atoms: C6_8  and  O2_10 
REMARK    6  A    between atoms: O2_10  and  C7_11 
REMARK    7  A    between atoms: C17_21  and  C18_23 
REMARK    8  A    between atoms: C18_23  and  C19_24 
REMARK    9  A    between atoms: C18_23  and  N2_28 
REMARK   10  A    between atoms: C19_24  and  C20_25 
REMARK       I    between atoms: N2_28  and  C23_30 
REMARK   11  A    between atoms: C23_30  and  C24_32 
REMARK   12  A    between atoms: C24_32  and  C25_33 
REMARK   13  A    between atoms: C24_32  and  N4_37 
REMARK   14  A    between atoms: C25_33  and  C26_34 
REMARK   15  A    between atoms: N4_37  and  C28_39 
ROOT
HETATM    1  C5  UNL     1      -7.424  33.615  -0.515  1.00  0.00     0.066 C 
ENDROOT
BRANCH   1   2
HETATM    2  C3  UNL     1      -6.264  32.709  -0.299  1.00  0.00     0.035 C 
HETATM    3  C4  UNL     1      -6.620  31.239  -0.499  1.00  0.00     0.016 C 
BRANCH   2   4
HETATM    4  C2  UNL     1      -5.755  32.838   1.154  1.00  0.00     0.006 C 
HETATM    5  C1  UNL     1      -4.293  33.128   1.223  1.00  0.00     0.006 C 
ENDBRANCH   2   4
ENDBRANCH   1   2
BRANCH   1   6
HETATM    6  N1  UNL     1      -7.646  34.548   0.566  1.00  0.00    -0.302 N 
HETATM    7  C6  UNL     1      -6.988  35.804   0.639  1.00  0.00     0.365 C 
HETATM    8  O1  UNL     1      -6.174  36.106  -0.295  1.00  0.00    -0.238 OA
ATOM      9  H1  UNL     1      -8.301  34.294   1.305  1.00  0.00     0.171 HD
BRANCH   7  10
HETATM   10  O2  UNL     1      -7.156  36.723   1.628  1.00  0.00    -0.298 OA
BRANCH  10  11
HETATM   11  C7  UNL     1      -6.944  36.391   2.991  1.00  0.00     0.142 C 
HETATM   12  C8  UNL     1      -7.346  37.538   3.855  1.00  0.00     0.016 C 
HETATM   13  C9  UNL     1      -7.194  37.144   5.319  1.00  0.00     0.012 C 
HETATM   14  C13 UNL     1      -6.509  38.771   3.649  1.00  0.00     0.012 C 
HETATM   15  C10 UNL     1      -5.774  36.761   5.592  1.00  0.00    -0.013 C 
HETATM   16  C11 UNL     1      -4.919  37.988   5.359  1.00  0.00     0.009 C 
HETATM   17  C16 UNL     1      -5.329  35.657   4.676  1.00  0.00     0.012 C 
HETATM   18  C12 UNL     1      -5.074  38.418   3.938  1.00  0.00    -0.013 C 
HETATM   19  C14 UNL     1      -4.626  37.316   3.019  1.00  0.00     0.012 C 
HETATM   20  C15 UNL     1      -5.477  36.093   3.241  1.00  0.00     0.016 C 
ENDBRANCH  10  11
ENDBRANCH   7  10
ENDBRANCH   1   6
BRANCH   1  21
HETATM   21  C17 UNL     1      -8.640  33.038  -1.087  1.00  0.00     0.194 C 
HETATM   22  O3  UNL     1      -8.806  33.061  -2.295  1.00  0.00    -0.289 OA
BRANCH  21  23
HETATM   23  C18 UNL     1      -9.738  32.393  -0.287  1.00  0.00     0.161 C 
BRANCH  23  24
HETATM   24  C19 UNL     1     -10.625  33.543   0.124  1.00  0.00     0.037 C 
BRANCH  24  25
HETATM   25  C20 UNL     1     -11.168  33.487   1.504  1.00  0.00    -0.020 C 
HETATM   26  C21 UNL     1     -12.564  33.018   1.677  1.00  0.00     0.009 C 
HETATM   27  C22 UNL     1     -10.251  32.729   2.455  1.00  0.00     0.009 C 
ENDBRANCH  24  25
ENDBRANCH  23  24
BRANCH  23  28
HETATM   28  N2  UNL     1     -10.494  31.641  -1.305  1.00  0.00    -0.347 N 
HETATM   29  C23 UNL     1     -11.199  30.452  -0.950  1.00  0.00     0.252 C 
HETATM   30  O4  UNL     1     -11.142  30.093   0.235  1.00  0.00    -0.271 OA
ATOM     31  H2  UNL     1     -10.515  31.973  -2.270  1.00  0.00     0.163 HD
BRANCH  29  32
HETATM   32  C24 UNL     1     -11.935  29.729  -1.973  1.00  0.00     0.321 C 
BRANCH  32  33
HETATM   33  C25 UNL     1     -11.107  28.438  -2.307  1.00  0.00     0.145 C 
BRANCH  33  34
HETATM   34  C26 UNL     1     -10.873  28.414  -3.768  1.00  0.00     0.233 C 
HETATM   35  N3  UNL     1     -11.229  29.440  -4.656  1.00  0.00    -0.062 NA
HETATM   36  O5  UNL     1     -10.310  27.385  -4.239  1.00  0.00    -0.277 OA
ENDBRANCH  33  34
ENDBRANCH  32  33
BRANCH  32  37
HETATM   37  N4  UNL     1     -13.260  29.332  -1.796  1.00  0.00     0.098 N 
HETATM   38  C27 UNL     1     -13.268  27.840  -1.708  1.00  0.00     0.310 C 
BRANCH  37  39
HETATM   39  C28 UNL     1     -14.262  29.648  -2.751  1.00  0.00     0.268 C 
HETATM   40  C29 UNL     1     -14.780  28.601  -3.668  1.00  0.00     0.037 C 
ENDBRANCH  37  39
ENDBRANCH  32  37
ENDBRANCH  29  32
ENDBRANCH  23  28
ENDBRANCH  21  23
ENDBRANCH   1  21
TORSDOF 15
ENDMDL
MODEL 3
REMARK VINA RESULT: -6.792500460      0.583      1.505
REMARK  15 active torsions:
REMARK  status: ('A' for Active; 'I' for Inactive)
REMARK    1  A    between atoms: C2_2  and  C3_3 
REMARK    2  A    between atoms: C3_3  and  C5_5 
REMARK    3  A    between atoms: C5_5  and  N1_6 
REMARK    4  A    between atoms: C5_5  and  C17_21 
REMARK       I    between atoms: N1_6  and  C6_8 
REMARK    5  A    between atoms: C6_8  and  O2_10 
REMARK    6  A    between atoms: O2_10  and  C7_11 
REMARK    7  A    between atoms: C17_21  and  C18_23 
REMARK    8  A    between atoms: C18_23  and  C19_24 
REMARK    9  A    between atoms: C18_23  and  N2_28 
REMARK   10  A    between atoms: C19_24  and  C20_25 
REMARK       I    between atoms: N2_28  and  C23_30 
REMARK   11  A    between atoms: C23_30  and  C24_32 
REMARK   12  A    between atoms: C24_32  and  C25_33 
REMARK   13  A    between atoms: C24_32  and  N4_37 
REMARK   14  A    between atoms: C25_33  and  C26_34 
REMARK   15  A    between atoms: N4_37  and  C28_39 
ROOT
HETATM    1  C5  UNL     1      -8.061  36.850   1.258  1.00  0.00     0.066 C 
ENDROOT
BRANCH   1   2
HETATM    2  C3  UNL     1      -8.773  37.608   0.194  1.00  0.00     0.035 C 
HETATM    3  C4  UNL     1      -8.619  39.119   0.345  1.00  0.00     0.016 C 
BRANCH   2   4
HETATM    4  C2  UNL     1     -10.289  37.318   0.261  1.00  0.00     0.006 C 
HETATM    5  C1  UNL     1     -11.098  38.554   0.473  1.00  0.00     0.006 C 
ENDBRANCH   2   4
ENDBRANCH   1   2
BRANCH   1   6
HETATM    6  N1  UNL     1      -7.797  37.624   2.450  1.00  0.00    -0.302 N 
HETATM    7  C6  UNL     1      -8.267  37.236   3.732  1.00  0.00     0.365 C 
HETATM    8  O1  UNL     1      -8.945  36.159   3.819  1.00  0.00    -0.238 OA
ATOM      9  H1  UNL     1      -7.253  38.483   2.366  1.00  0.00     0.171 HD
BRANCH   7  10
HETATM   10  O2  UNL     1      -8.051  37.920   4.888  1.00  0.00    -0.298 OA
BRANCH  10  11
HETATM   11  C7  UNL     1      -7.059  37.511   5.817  1.00  0.00     0.142 C 
HETATM   12  C8  UNL     1      -7.173  38.322   7.063  1.00  0.00     0.016 C 
HETATM   13  C9  UNL     1      -6.161  37.821   8.085  1.00  0.00     0.012 C 
HETATM   14  C13 UNL     1      -6.895  39.786   6.858  1.00  0.00     0.012 C 
HETATM   15  C10 UNL     1      -4.779  37.930   7.520  1.00  0.00    -0.013 C 
HETATM   16  C11 UNL     1      -4.500  39.399   7.283  1.00  0.00     0.009 C 
HETATM   17  C16 UNL     1      -4.669  37.181   6.222  1.00  0.00     0.012 C 
HETATM   18  C12 UNL     1      -5.499  39.926   6.308  1.00  0.00    -0.013 C 
HETATM   19  C14 UNL     1      -5.388  39.180   5.007  1.00  0.00     0.012 C 
HETATM   20  C15 UNL     1      -5.672  37.719   5.235  1.00  0.00     0.016 C 
ENDBRANCH  10  11
ENDBRANCH   7  10
ENDBRANCH   1   6
BRANCH   1  21
HETATM   21  C17 UNL     1      -6.972  35.964   0.850  1.00  0.00     0.194 C 
HETATM   22  O3  UNL     1      -5.861  36.425   0.655  1.00  0.00    -0.289 OA
BRANCH  21  23
HETATM   23  C18 UNL     1      -7.108  34.479   0.649  1.00  0.00     0.161 C 
BRANCH  23  24
HETATM   24  C19 UNL     1      -6.119  33.880   1.619  1.00  0.00     0.037 C 
BRANCH  24  25
HETATM   25  C20 UNL     1      -5.191  32.863   1.061  1.00  0.00    -0.020 C 
HETATM   26  C21 UNL     1      -5.407  32.429  -0.339  1.00  0.00     0.009 C 
HETATM   27  C22 UNL     1      -3.730  33.246   1.260  1.00  0.00     0.009 C 
ENDBRANCH  24  25
ENDBRANCH  23  24
BRANCH  23  28
HETATM   28  N2  UNL     1      -8.444  34.189   1.202  1.00  0.00    -0.347 N 
HETATM   29  C23 UNL     1      -9.489  33.714   0.354  1.00  0.00     0.252 C 
HETATM   30  O4  UNL     1      -9.220  33.561  -0.846  1.00  0.00    -0.271 OA
ATOM     31  H2  UNL     1      -8.622  34.328   2.197  1.00  0.00     0.163 HD
BRANCH  29  32
HETATM   32  C24 UNL     1     -10.796  33.438   0.925  1.00  0.00     0.321 C 
BRANCH  32  33
HETATM   33  C25 UNL     1     -10.563  32.546   2.194  1.00  0.00     0.145 C 
BRANCH  33  34
HETATM   34  C26 UNL     1     -11.056  31.184   1.889  1.00  0.00     0.233 C 
HETATM   35  N3  UNL     1     -11.224  30.661   0.597  1.00  0.00    -0.062 NA
HETATM   36  O5  UNL     1     -11.344  30.447   2.874  1.00  0.00    -0.277 OA
ENDBRANCH  33  34
ENDBRANCH  32  33
BRANCH  32  37
HETATM   37  N4  UNL     1     -11.675  34.456   1.295  1.00  0.00     0.098 N 
HETATM   38  C27 UNL     1     -11.841  34.381   2.779  1.00  0.00     0.310 C 
BRANCH  37  39
HETATM   39  C28 UNL     1     -12.998  34.516   0.782  1.00  0.00     0.268 C 
HETATM   40  C29 UNL     1     -14.089  33.744   1.430  1.00  0.00     0.037 C 
ENDBRANCH  37  39
ENDBRANCH  32  37
ENDBRANCH  29  32
ENDBRANCH  23  28
ENDBRANCH  21  23
ENDBRANCH   1  21
TORSDOF 15
ENDMDL
MODEL 4
REMARK VINA RESULT: -6.741127504      1.681      4.113
REMARK  15 active torsions:
REMARK  status: ('A' for Active; 'I' for Inactive)
REMARK    1  A    between atoms: C2_2  and  C3_3 
REMARK    2  A    between atoms: C3_3  and  C5_5 
REMARK    3  A    between atoms: C5_5  and  N1_6 
REMARK    4  A    between atoms: C5_5  and  C17_21 
REMARK       I    between atoms: N1_6  and  C6_8 
REMARK    5  A    between atoms: C6_8  and  O2_10 
REMARK    6  A    between atoms: O2_10  and  C7_11 
REMARK    7  A    between atoms: C17_21  and  C18_23 
REMARK    8  A    between atoms: C18_23  and  C19_24 
REMARK    9  A    between atoms: C18_23  and  N2_28 
REMARK   10  A    between atoms: C19_24  and  C20_25 
REMARK       I    between atoms: N2_28  and  C23_30 
REMARK   11  A    between atoms: C23_30  and  C24_32 
REMARK   12  A    between atoms: C24_32  and  C25_33 
REMARK   13  A    between atoms: C24_32  and  N4_37 
REMARK   14  A    between atoms: C25_33  and  C26_34 
REMARK   15  A    between atoms: N4_37  and  C28_39 
ROOT
HETATM    1  C5  UNL     1      -5.406  34.690   1.423  1.00  0.00     0.066 C 
ENDROOT
BRANCH   1   2
HETATM    2  C3  UNL     1      -5.008  33.292   1.109  1.00  0.00     0.035 C 
HETATM    3  C4  UNL     1      -3.498  33.079   1.182  1.00  0.00     0.016 C 
BRANCH   2   4
HETATM    4  C2  UNL     1      -5.426  32.933  -0.335  1.00  0.00     0.006 C 
HETATM    5  C1  UNL     1      -5.981  31.552  -0.442  1.00  0.00     0.006 C 
ENDBRANCH   2   4
ENDBRANCH   1   2
BRANCH   1   6
HETATM    6  N1  UNL     1      -5.521  34.961   2.838  1.00  0.00    -0.302 N 
HETATM    7  C6  UNL     1      -4.921  36.092   3.451  1.00  0.00     0.365 C 
HETATM    8  O1  UNL     1      -4.259  36.892   2.709  1.00  0.00    -0.238 OA
ATOM      9  H1  UNL     1      -6.055  34.315   3.419  1.00  0.00     0.171 HD
BRANCH   7  10
HETATM   10  O2  UNL     1      -4.995  36.401   4.774  1.00  0.00    -0.298 OA
BRANCH  10  11
HETATM   11  C7  UNL     1      -6.148  37.015   5.328  1.00  0.00     0.142 C 
HETATM   12  C8  UNL     1      -6.334  38.368   4.728  1.00  0.00     0.016 C 
HETATM   13  C9  UNL     1      -7.619  38.986   5.265  1.00  0.00     0.012 C 
HETATM   14  C13 UNL     1      -5.222  39.329   5.051  1.00  0.00     0.012 C 
HETATM   15  C10 UNL     1      -7.544  39.085   6.756  1.00  0.00    -0.013 C 
HETATM   16  C11 UNL     1      -6.409  40.028   7.093  1.00  0.00     0.009 C 
HETATM   17  C16 UNL     1      -7.280  37.740   7.372  1.00  0.00     0.012 C 
HETATM   18  C12 UNL     1      -5.139  39.464   6.549  1.00  0.00    -0.013 C 
HETATM   19  C14 UNL     1      -4.871  38.120   7.166  1.00  0.00     0.012 C 
HETATM   20  C15 UNL     1      -5.993  37.174   6.830  1.00  0.00     0.016 C 
ENDBRANCH  10  11
ENDBRANCH   7  10
ENDBRANCH   1   6
BRANCH   1  21
HETATM   21  C17 UNL     1      -6.442  35.305   0.595  1.00  0.00     0.194 C 
HETATM   22  O3  UNL     1      -6.199  35.580  -0.567  1.00  0.00    -0.289 OA
BRANCH  21  23
HETATM   23  C18 UNL     1      -7.832  35.632   1.068  1.00  0.00     0.161 C 
BRANCH  23  24
HETATM   24  C19 UNL     1      -8.227  36.842   0.256  1.00  0.00     0.037 C 
BRANCH  24  25
HETATM   25  C20 UNL     1      -9.191  37.772   0.896  1.00  0.00    -0.020 C 
HETATM   26  C21 UNL     1      -9.467  37.591   2.341  1.00  0.00     0.009 C 
HETATM   27  C22 UNL     1      -8.855  39.231   0.617  1.00  0.00     0.009 C 
ENDBRANCH  24  25
ENDBRANCH  23  24
BRANCH  23  28
HETATM   28  N2  UNL     1      -8.635  34.512   0.545  1.00  0.00    -0.347 N 
HETATM   29  C23 UNL     1      -8.903  33.372   1.361  1.00  0.00     0.252 C 
HETATM   30  O4  UNL     1      -8.436  33.375   2.508  1.00  0.00    -0.271 OA
ATOM     31  H2  UNL     1      -9.001  34.552  -0.407  1.00  0.00     0.163 HD
BRANCH  29  32
HETATM   32  C24 UNL     1      -9.695  32.281   0.819  1.00  0.00     0.321 C 
BRANCH  32  33
HETATM   33  C25 UNL     1     -11.199  32.720   0.906  1.00  0.00     0.145 C 
BRANCH  33  34
HETATM   34  C26 UNL     1     -11.693  32.381   2.259  1.00  0.00     0.233 C 
HETATM   35  N3  UNL     1     -12.021  33.317   3.253  1.00  0.00    -0.062 NA
HETATM   36  O5  UNL     1     -11.826  31.153   2.528  1.00  0.00    -0.277 OA
ENDBRANCH  33  34
ENDBRANCH  32  33
BRANCH  32  37
HETATM   37  N4  UNL     1      -9.489  31.780  -0.466  1.00  0.00     0.098 N 
HETATM   38  C27 UNL     1      -9.366  32.952  -1.386  1.00  0.00     0.310 C 
BRANCH  37  39
HETATM   39  C28 UNL     1     -10.436  30.924  -1.089  1.00  0.00     0.268 C 
HETATM   40  C29 UNL     1     -10.050  29.547  -1.492  1.00  0.00     0.037 C 
ENDBRANCH  37  39
ENDBRANCH  32  37
ENDBRANCH  29  32
ENDBRANCH  23  28
ENDBRANCH  21  23
ENDBRANCH   1  21
TORSDOF 15
ENDMDL
MODEL 5
REMARK VINA RESULT: -6.653833424      3.931     10.424
REMARK  15 active torsions:
REMARK  status: ('A' for Active; 'I' for Inactive)
REMARK    1  A    between atoms: C2_2  and  C3_3 
REMARK    2  A    between atoms: C3_3  and  C5_5 
REMARK    3  A    between atoms: C5_5  and  N1_6 
REMARK    4  A    between atoms: C5_5  and  C17_21 
REMARK       I    between atoms: N1_6  and  C6_8 
REMARK    5  A    between atoms: C6_8  and  O2_10 
REMARK    6  A    between atoms: O2_10  and  C7_11 
REMARK    7  A    between atoms: C17_21  and  C18_23 
REMARK    8  A    between atoms: C18_23  and  C19_24 
REMARK    9  A    between atoms: C18_23  and  N2_28 
REMARK   10  A    between atoms: C19_24  and  C20_25 
REMARK       I    between atoms: N2_28  and  C23_30 
REMARK   11  A    between atoms: C23_30  and  C24_32 
REMARK   12  A    between atoms: C24_32  and  C25_33 
REMARK   13  A    between atoms: C24_32  and  N4_37 
REMARK   14  A    between atoms: C25_33  and  C26_34 
REMARK   15  A    between atoms: N4_37  and  C28_39 
ROOT
HETATM    1  C5  UNL     1      -9.938  31.792   0.422  1.00  0.00     0.066 C 
ENDROOT
BRANCH   1   2
HETATM    2  C3  UNL     1      -8.746  32.298  -0.308  1.00  0.00     0.035 C 
HETATM    3  C4  UNL     1      -9.111  33.010  -1.608  1.00  0.00     0.016 C 
BRANCH   2   4
HETATM    4  C2  UNL     1      -7.826  31.120  -0.703  1.00  0.00     0.006 C 
HETATM    5  C1  UNL     1      -6.380  31.482  -0.647  1.00  0.00     0.006 C 
ENDBRANCH   2   4
ENDBRANCH   1   2
BRANCH   1   6
HETATM    6  N1  UNL     1     -11.073  31.518  -0.430  1.00  0.00    -0.302 N 
HETATM    7  C6  UNL     1     -11.626  30.218  -0.571  1.00  0.00     0.365 C 
HETATM    8  O1  UNL     1     -11.091  29.267   0.088  1.00  0.00    -0.238 OA
ATOM      9  H1  UNL     1     -11.493  32.288  -0.950  1.00  0.00     0.171 HD
BRANCH   7  10
HETATM   10  O2  UNL     1     -12.691  29.898  -1.355  1.00  0.00    -0.298 OA
BRANCH  10  11
HETATM   11  C7  UNL     1     -12.730  28.688  -2.095  1.00  0.00     0.142 C 
HETATM   12  C8  UNL     1     -12.337  28.952  -3.509  1.00  0.00     0.016 C 
HETATM   13  C9  UNL     1     -12.300  27.636  -4.276  1.00  0.00     0.012 C 
HETATM   14  C13 UNL     1     -13.291  29.854  -4.242  1.00  0.00     0.012 C 
HETATM   15  C10 UNL     1     -13.646  26.985  -4.225  1.00  0.00    -0.013 C 
HETATM   16  C11 UNL     1     -14.621  27.901  -4.936  1.00  0.00     0.009 C 
HETATM   17  C16 UNL     1     -14.092  26.783  -2.804  1.00  0.00     0.012 C 
HETATM   18  C12 UNL     1     -14.653  29.212  -4.225  1.00  0.00    -0.013 C 
HETATM   19  C14 UNL     1     -15.102  29.013  -2.803  1.00  0.00     0.012 C 
HETATM   20  C15 UNL     1     -14.133  28.108  -2.088  1.00  0.00     0.016 C 
ENDBRANCH  10  11
ENDBRANCH   7  10
ENDBRANCH   1   6
BRANCH   1  21
HETATM   21  C17 UNL     1     -10.270  32.419   1.701  1.00  0.00     0.194 C 
HETATM   22  O3  UNL     1     -10.605  31.723   2.644  1.00  0.00    -0.289 OA
BRANCH  21  23
HETATM   23  C18 UNL     1     -10.226  33.900   1.964  1.00  0.00     0.161 C 
BRANCH  23  24
HETATM   24  C19 UNL     1     -11.155  34.097   3.137  1.00  0.00     0.037 C 
BRANCH  24  25
HETATM   25  C20 UNL     1     -12.347  34.947   2.891  1.00  0.00    -0.020 C 
HETATM   26  C21 UNL     1     -12.258  35.963   1.815  1.00  0.00     0.009 C 
HETATM   27  C22 UNL     1     -13.616  34.123   2.717  1.00  0.00     0.009 C 
ENDBRANCH  24  25
ENDBRANCH  23  24
BRANCH  23  28
HETATM   28  N2  UNL     1      -8.863  34.105   2.486  1.00  0.00    -0.347 N 
HETATM   29  C23 UNL     1      -8.188  35.346   2.276  1.00  0.00     0.252 C 
HETATM   30  O4  UNL     1      -8.797  36.221   1.645  1.00  0.00    -0.271 OA
ATOM     31  H2  UNL     1      -8.399  33.357   3.001  1.00  0.00     0.163 HD
BRANCH  29  32
HETATM   32  C24 UNL     1      -6.845  35.521   2.800  1.00  0.00     0.321 C 
BRANCH  32  33
HETATM   33  C25 UNL     1      -5.973  36.112   1.637  1.00  0.00     0.145 C 
BRANCH  33  34
HETATM   34  C26 UNL     1      -5.562  34.993   0.762  1.00  0.00     0.233 C 
HETATM   35  N3  UNL     1      -4.641  33.994   1.114  1.00  0.00    -0.062 NA
HETATM   36  O5  UNL     1      -6.087  34.943  -0.387  1.00  0.00    -0.277 OA
ENDBRANCH  33  34
ENDBRANCH  32  33
BRANCH  32  37
HETATM   37  N4  UNL     1      -6.584  36.285   3.937  1.00  0.00     0.098 N 
HETATM   38  C27 UNL     1      -6.347  37.689   3.484  1.00  0.00     0.310 C 
BRANCH  37  39
HETATM   39  C28 UNL     1      -5.491  35.988   4.795  1.00  0.00     0.268 C 
HETATM   40  C29 UNL     1      -5.256  36.800   6.016  1.00  0.00     0.037 C 
ENDBRANCH  37  39
ENDBRANCH  32  37
ENDBRANCH  29  32
ENDBRANCH  23  28
ENDBRANCH  21  23
ENDBRANCH   1  21
TORSDOF 15
ENDMDL
