MODEL 1
REMARK VINA RESULT: -6.680122233      0.000      0.000
REMARK  14 active torsions:
REMARK  status: ('A' for Active; 'I' for Inactive)
REMARK    1  A    between atoms: C2_2  and  C3_3 
REMARK    2  A    between atoms: C3_3  and  C4_4 
REMARK    3  A    between atoms: C4_4  and  C5_5 
REMARK       I    between atoms: N1_7  and  C6_8 
REMARK    4  A    between atoms: C6_8  and  C7_10 
REMARK    5  A    between atoms: C7_10  and  N2_11 
REMARK    6  A    between atoms: C7_10  and  C11_21 
REMARK       I    between atoms: N2_11  and  C8_13 
REMARK    7  A    between atoms: C8_13  and  C9_15 
REMARK    8  A    between atoms: C9_15  and  N3_17 
REMARK    9  A    between atoms: C11_21  and  C13_23 
REMARK   10  A    between atoms: C15_25  and  C16_26 
REMARK       I    between atoms: C16_26  and  N4_28 
REMARK   11  A    between atoms: N4_28  and  C17_30 
REMARK   12  A    between atoms: C17_30  and  C18_31 
REMARK   13  A    between atoms: C17_30  and  C21_34 
REMARK   14  A    between atoms: C21_34  and  C23_36 
ROOT
HETATM    1  C5  UNL     1      -5.779  39.727   4.241  1.00  0.00     0.157 C 
HETATM    2  O1  UNL     1      -6.169  39.458   2.942  1.00  0.00    -0.269 OA
HETATM    3  N1  UNL     1      -6.587  38.162   2.819  1.00  0.00    -0.210 N 
HETATM    4  C6  UNL     1      -7.962  37.943   2.882  1.00  0.00     0.267 C 
HETATM    5  O2  UNL     1      -8.392  36.742   2.794  1.00  0.00    -0.269 OA
HETATM    6  C15 UNL     1      -5.629  37.094   2.691  1.00  0.00     0.210 C 
HETATM    7  C25 UNL     1      -5.572  36.423   4.067  1.00  0.00     0.042 C 
HETATM    8  C26 UNL     1      -4.989  37.420   5.067  1.00  0.00    -0.006 C 
HETATM    9  C27 UNL     1      -5.142  36.760   6.459  1.00  0.00     0.005 C 
HETATM   10  C28 UNL     1      -5.542  37.851   7.402  1.00  0.00     0.001 C 
HETATM   11  C29 UNL     1      -5.326  39.121   6.608  1.00  0.00     0.007 C 
HETATM   12  C30 UNL     1      -5.798  38.628   5.218  1.00  0.00     0.021 C 
ENDROOT
BRANCH   4  13
HETATM   13  C7  UNL     1      -8.996  38.963   3.045  1.00  0.00     0.182 C 
BRANCH  13  14
HETATM   14  N2  UNL     1      -8.894  40.000   2.005  1.00  0.00    -0.346 N 
HETATM   15  C8  UNL     1      -9.247  39.797   0.660  1.00  0.00     0.248 C 
HETATM   16  O3  UNL     1      -9.676  38.671   0.314  1.00  0.00    -0.271 OA
ATOM     17  H2  UNL     1      -8.546  40.920   2.276  1.00  0.00     0.163 HD
BRANCH  15  18
HETATM   18  C9  UNL     1      -9.128  40.861  -0.345  1.00  0.00     0.270 C 
HETATM   19  C10 UNL     1      -9.092  42.244   0.292  1.00  0.00     0.050 C 
BRANCH  18  20
HETATM   20  N3  UNL     1     -10.225  40.853  -1.296  1.00  0.00    -0.067 N 
ATOM     21  H33 UNL     1     -11.119  40.713  -0.824  1.00  0.00     0.275 HD
ATOM     22  H32 UNL     1     -10.386  41.784  -1.679  1.00  0.00     0.275 HD
ATOM     23  H31 UNL     1     -10.092  40.168  -2.040  1.00  0.00     0.275 HD
ENDBRANCH  18  20
ENDBRANCH  15  18
ENDBRANCH  13  14
BRANCH  13  24
HETATM   24  C11 UNL     1      -9.177  39.556   4.392  1.00  0.00     0.013 C 
HETATM   25  C12 UNL     1      -9.831  40.910   4.389  1.00  0.00     0.012 C 
BRANCH  24  26
HETATM   26  C13 UNL     1     -10.049  38.548   5.174  1.00  0.00     0.002 C 
HETATM   27  C14 UNL     1      -9.274  38.001   6.325  1.00  0.00     0.005 C 
ENDBRANCH  24  26
ENDBRANCH  13  24
ENDBRANCH   4  13
BRANCH   6  28
HETATM   28  C16 UNL     1      -5.837  36.135   1.616  1.00  0.00     0.247 C 
HETATM   29  O4  UNL     1      -5.750  36.468   0.405  1.00  0.00    -0.271 OA
HETATM   30  N4  UNL     1      -6.150  34.778   1.929  1.00  0.00    -0.332 N 
ATOM     31  H4  UNL     1      -6.207  34.561   2.923  1.00  0.00     0.168 HD
BRANCH  30  32
HETATM   32  C17 UNL     1      -6.391  33.694   1.057  1.00  0.00    -0.003 C 
BRANCH  32  33
HETATM   33  C18 UNL     1      -5.330  32.645   0.936  1.00  0.00     0.023 C 
HETATM   34  C19 UNL     1      -5.379  32.132  -0.530  1.00  0.00     0.016 C 
HETATM   35  C20 UNL     1      -3.943  32.996   1.302  1.00  0.00     0.016 C 
ENDBRANCH  32  33
BRANCH  32  36
HETATM   36  C21 UNL     1      -7.759  33.171   0.882  1.00  0.00     0.027 C 
HETATM   37  C22 UNL     1      -8.724  33.170   1.990  1.00  0.00     0.016 C 
BRANCH  36  38
HETATM   38  C23 UNL     1      -8.463  33.849  -0.316  1.00  0.00     0.005 C 
HETATM   39  C24 UNL     1      -8.983  32.803  -1.279  1.00  0.00     0.006 C 
ENDBRANCH  36  38
ENDBRANCH  32  36
ENDBRANCH  30  32
ENDBRANCH   6  28
BRANCH   1  40
HETATM   40  C4  UNL     1      -4.625  40.660   4.235  1.00  0.00     0.035 C 
BRANCH  40  41
HETATM   41  C3  UNL     1      -4.235  41.280   2.951  1.00  0.00     0.002 C 
BRANCH  41  42
HETATM   42  C2  UNL     1      -3.128  42.295   3.267  1.00  0.00    -0.004 C 
HETATM   43  C1  UNL     1      -2.929  42.417   4.760  1.00  0.00     0.005 C 
ENDBRANCH  41  42
ENDBRANCH  40  41
ENDBRANCH   1  40
TORSDOF 14
ENDMDL
MODEL 2
REMARK VINA RESULT: -6.434083844      0.695      1.965
REMARK  14 active torsions:
REMARK  status: ('A' for Active; 'I' for Inactive)
REMARK    1  A    between atoms: C2_2  and  C3_3 
REMARK    2  A    between atoms: C3_3  and  C4_4 
REMARK    3  A    between atoms: C4_4  and  C5_5 
REMARK       I    between atoms: N1_7  and  C6_8 
REMARK    4  A    between atoms: C6_8  and  C7_10 
REMARK    5  A    between atoms: C7_10  and  N2_11 
REMARK    6  A    between atoms: C7_10  and  C11_21 
REMARK       I    between atoms: N2_11  and  C8_13 
REMARK    7  A    between atoms: C8_13  and  C9_15 
REMARK    8  A    between atoms: C9_15  and  N3_17 
REMARK    9  A    between atoms: C11_21  and  C13_23 
REMARK   10  A    between atoms: C15_25  and  C16_26 
REMARK       I    between atoms: C16_26  and  N4_28 
REMARK   11  A    between atoms: N4_28  and  C17_30 
REMARK   12  A    between atoms: C17_30  and  C18_31 
REMARK   13  A    between atoms: C17_30  and  C21_34 
REMARK   14  A    between atoms: C21_34  and  C23_36 
ROOT
HETATM    1  C5  UNL     1      -5.833  39.618   4.032  1.00  0.00     0.157 C 
HETATM    2  O1  UNL     1      -6.227  39.273   2.752  1.00  0.00    -0.269 OA
HETATM    3  N1  UNL     1      -6.641  37.971   2.705  1.00  0.00    -0.210 N 
HETATM    4  C6  UNL     1      -8.014  37.752   2.786  1.00  0.00     0.267 C 
HETATM    5  O2  UNL     1      -8.441  36.545   2.769  1.00  0.00    -0.269 OA
HETATM    6  C15 UNL     1      -5.680  36.900   2.635  1.00  0.00     0.210 C 
HETATM    7  C25 UNL     1      -5.615  36.309   4.047  1.00  0.00     0.042 C 
HETATM    8  C26 UNL     1      -5.032  37.364   4.986  1.00  0.00    -0.006 C 
HETATM    9  C27 UNL     1      -5.178  36.785   6.414  1.00  0.00     0.005 C 
HETATM   10  C28 UNL     1      -5.578  37.927   7.295  1.00  0.00     0.001 C 
HETATM   11  C29 UNL     1      -5.370  39.150   6.428  1.00  0.00     0.007 C 
HETATM   12  C30 UNL     1      -5.844  38.577   5.070  1.00  0.00     0.021 C 
ENDROOT
BRANCH   4  13
HETATM   13  C7  UNL     1      -9.052  38.775   2.894  1.00  0.00     0.182 C 
BRANCH  13  14
HETATM   14  N2  UNL     1      -8.897  39.806   1.854  1.00  0.00    -0.346 N 
HETATM   15  C8  UNL     1      -9.260  39.622   0.509  1.00  0.00     0.248 C 
HETATM   16  O3  UNL     1      -9.746  38.519   0.163  1.00  0.00    -0.271 OA
ATOM     17  H2  UNL     1      -8.502  40.707   2.126  1.00  0.00     0.163 HD
BRANCH  15  18
HETATM   18  C9  UNL     1      -9.087  40.679  -0.495  1.00  0.00     0.270 C 
HETATM   19  C10 UNL     1      -8.707  42.010   0.139  1.00  0.00     0.050 C 
BRANCH  18  20
HETATM   20  N3  UNL     1     -10.287  40.902  -1.280  1.00  0.00    -0.067 N 
ATOM     21  H33 UNL     1     -10.106  41.539  -2.056  1.00  0.00     0.275 HD
ATOM     22  H32 UNL     1     -10.540  40.067  -1.810  1.00  0.00     0.275 HD
ATOM     23  H31 UNL     1     -11.070  41.228  -0.714  1.00  0.00     0.275 HD
ENDBRANCH  18  20
ENDBRANCH  15  18
ENDBRANCH  13  14
BRANCH  13  24
HETATM   24  C11 UNL     1      -9.295  39.377   4.227  1.00  0.00     0.013 C 
HETATM   25  C12 UNL     1     -10.058  40.671   4.193  1.00  0.00     0.012 C 
BRANCH  24  26
HETATM   26  C13 UNL     1     -10.087  38.315   5.022  1.00  0.00     0.002 C 
HETATM   27  C14 UNL     1      -9.328  37.935   6.249  1.00  0.00     0.005 C 
ENDBRANCH  24  26
ENDBRANCH  13  24
ENDBRANCH   4  13
BRANCH   6  28
HETATM   28  C16 UNL     1      -5.888  35.881   1.618  1.00  0.00     0.247 C 
HETATM   29  O4  UNL     1      -5.617  36.089   0.406  1.00  0.00    -0.271 OA
HETATM   30  N4  UNL     1      -6.413  34.607   1.990  1.00  0.00    -0.332 N 
ATOM     31  H4  UNL     1      -6.613  34.490   2.982  1.00  0.00     0.168 HD
BRANCH  30  32
HETATM   32  C17 UNL     1      -6.695  33.486   1.179  1.00  0.00    -0.003 C 
BRANCH  32  33
HETATM   33  C18 UNL     1      -7.803  33.607   0.179  1.00  0.00     0.023 C 
HETATM   34  C19 UNL     1      -8.371  32.176  -0.029  1.00  0.00     0.016 C 
HETATM   35  C20 UNL     1      -8.903  34.553   0.453  1.00  0.00     0.016 C 
ENDBRANCH  32  33
BRANCH  32  36
HETATM   36  C21 UNL     1      -5.607  32.589   0.747  1.00  0.00     0.027 C 
HETATM   37  C22 UNL     1      -5.053  32.659  -0.613  1.00  0.00     0.016 C 
BRANCH  36  38
HETATM   38  C23 UNL     1      -4.405  32.666   1.717  1.00  0.00     0.005 C 
HETATM   39  C24 UNL     1      -3.162  33.107   0.977  1.00  0.00     0.006 C 
ENDBRANCH  36  38
ENDBRANCH  32  36
ENDBRANCH  30  32
ENDBRANCH   6  28
BRANCH   1  40
HETATM   40  C4  UNL     1      -4.683  40.553   3.968  1.00  0.00     0.035 C 
BRANCH  40  41
HETATM   41  C3  UNL     1      -4.739  41.664   2.995  1.00  0.00     0.002 C 
BRANCH  41  42
HETATM   42  C2  UNL     1      -3.329  41.811   2.408  1.00  0.00    -0.004 C 
HETATM   43  C1  UNL     1      -3.318  42.837   1.299  1.00  0.00     0.005 C 
ENDBRANCH  41  42
ENDBRANCH  40  41
ENDBRANCH   1  40
TORSDOF 14
ENDMDL
MODEL 3
REMARK VINA RESULT: -6.401917167      2.014      3.463
REMARK  14 active torsions:
REMARK  status: ('A' for Active; 'I' for Inactive)
REMARK    1  A    between atoms: C2_2  and  C3_3 
REMARK    2  A    between atoms: C3_3  and  C4_4 
REMARK    3  A    between atoms: C4_4  and  C5_5 
REMARK       I    between atoms: N1_7  and  C6_8 
REMARK    4  A    between atoms: C6_8  and  C7_10 
REMARK    5  A    between atoms: C7_10  and  N2_11 
REMARK    6  A    between atoms: C7_10  and  C11_21 
REMARK       I    between atoms: N2_11  and  C8_13 
REMARK    7  A    between atoms: C8_13  and  C9_15 
REMARK    8  A    between atoms: C9_15  and  N3_17 
REMARK    9  A    between atoms: C11_21  and  C13_23 
REMARK   10  A    between atoms: C15_25  and  C16_26 
REMARK       I    between atoms: C16_26  and  N4_28 
REMARK   11  A    between atoms: N4_28  and  C17_30 
REMARK   12  A    between atoms: C17_30  and  C18_31 
REMARK   13  A    between atoms: C17_30  and  C21_34 
REMARK   14  A    between atoms: C21_34  and  C23_36 
ROOT
HETATM    1  C5  UNL     1      -6.616  39.439   4.306  1.00  0.00     0.157 C 
HETATM    2  O1  UNL     1      -7.177  39.085   3.093  1.00  0.00    -0.269 OA
HETATM    3  N1  UNL     1      -7.184  37.727   2.939  1.00  0.00    -0.210 N 
HETATM    4  C6  UNL     1      -8.370  37.070   3.257  1.00  0.00     0.267 C 
HETATM    5  O2  UNL     1      -8.409  35.796   3.148  1.00  0.00    -0.269 OA
HETATM    6  C15 UNL     1      -5.991  37.033   2.523  1.00  0.00     0.210 C 
HETATM    7  C25 UNL     1      -5.424  36.389   3.792  1.00  0.00     0.042 C 
HETATM    8  C26 UNL     1      -4.979  37.500   4.741  1.00  0.00    -0.006 C 
HETATM    9  C27 UNL     1      -4.606  36.796   6.069  1.00  0.00     0.005 C 
HETATM   10  C28 UNL     1      -5.111  37.677   7.169  1.00  0.00     0.001 C 
HETATM   11  C29 UNL     1      -5.485  38.964   6.468  1.00  0.00     0.007 C 
HETATM   12  C30 UNL     1      -6.072  38.374   5.162  1.00  0.00     0.021 C 
ENDROOT
BRANCH   4  13
HETATM   13  C7  UNL     1      -9.610  37.692   3.718  1.00  0.00     0.182 C 
BRANCH  13  14
HETATM   14  N2  UNL     1     -10.232  36.909   4.798  1.00  0.00    -0.346 N 
HETATM   15  C8  UNL     1     -10.021  37.154   6.165  1.00  0.00     0.248 C 
HETATM   16  O3  UNL     1      -9.259  38.093   6.497  1.00  0.00    -0.271 OA
ATOM     17  H2  UNL     1     -10.854  36.143   4.538  1.00  0.00     0.163 HD
BRANCH  15  18
HETATM   18  C9  UNL     1     -10.663  36.346   7.209  1.00  0.00     0.270 C 
HETATM   19  C10 UNL     1     -11.901  35.626   6.690  1.00  0.00     0.050 C 
BRANCH  18  20
HETATM   20  N3  UNL     1     -11.073  37.139   8.353  1.00  0.00    -0.067 N 
ATOM     21  H33 UNL     1     -10.752  38.104   8.265  1.00  0.00     0.275 HD
ATOM     22  H32 UNL     1     -12.080  37.300   8.347  1.00  0.00     0.275 HD
ATOM     23  H31 UNL     1     -10.772  36.732   9.239  1.00  0.00     0.275 HD
ENDBRANCH  18  20
ENDBRANCH  15  18
ENDBRANCH  13  14
BRANCH  13  24
HETATM   24  C11 UNL     1     -10.603  38.098   2.694  1.00  0.00     0.013 C 
HETATM   25  C12 UNL     1     -10.056  38.170   1.296  1.00  0.00     0.012 C 
BRANCH  24  26
HETATM   26  C13 UNL     1     -11.729  37.044   2.770  1.00  0.00     0.002 C 
HETATM   27  C14 UNL     1     -11.667  36.156   1.572  1.00  0.00     0.005 C 
ENDBRANCH  24  26
ENDBRANCH  13  24
ENDBRANCH   4  13
BRANCH   6  28
HETATM   28  C16 UNL     1      -6.119  36.082   1.429  1.00  0.00     0.247 C 
HETATM   29  O4  UNL     1      -6.096  36.450   0.225  1.00  0.00    -0.271 OA
HETATM   30  N4  UNL     1      -6.276  34.693   1.714  1.00  0.00    -0.332 N 
ATOM     31  H4  UNL     1      -6.286  34.448   2.704  1.00  0.00     0.168 HD
BRANCH  30  32
HETATM   32  C17 UNL     1      -6.418  33.609   0.820  1.00  0.00    -0.003 C 
BRANCH  32  33
HETATM   33  C18 UNL     1      -5.316  32.597   0.768  1.00  0.00     0.023 C 
HETATM   34  C19 UNL     1      -5.405  31.916  -0.626  1.00  0.00     0.016 C 
HETATM   35  C20 UNL     1      -3.933  33.043   1.025  1.00  0.00     0.016 C 
ENDBRANCH  32  33
BRANCH  32  36
HETATM   36  C21 UNL     1      -7.752  33.042   0.545  1.00  0.00     0.027 C 
HETATM   37  C22 UNL     1      -8.776  32.954   1.596  1.00  0.00     0.016 C 
BRANCH  36  38
HETATM   38  C23 UNL     1      -8.416  33.747  -0.660  1.00  0.00     0.005 C 
HETATM   39  C24 UNL     1      -9.047  32.726  -1.582  1.00  0.00     0.006 C 
ENDBRANCH  36  38
ENDBRANCH  32  36
ENDBRANCH  30  32
ENDBRANCH   6  28
BRANCH   1  40
HETATM   40  C4  UNL     1      -5.844  40.698   4.154  1.00  0.00     0.035 C 
BRANCH  40  41
HETATM   41  C3  UNL     1      -4.583  40.655   3.384  1.00  0.00     0.002 C 
BRANCH  41  42
HETATM   42  C2  UNL     1      -3.808  41.932   3.732  1.00  0.00    -0.004 C 
HETATM   43  C1  UNL     1      -3.440  41.950   5.198  1.00  0.00     0.005 C 
ENDBRANCH  41  42
ENDBRANCH  40  41
ENDBRANCH   1  40
TORSDOF 14
ENDMDL
MODEL 4
REMARK VINA RESULT: -6.354826185      3.142      7.989
REMARK  14 active torsions:
REMARK  status: ('A' for Active; 'I' for Inactive)
REMARK    1  A    between atoms: C2_2  and  C3_3 
REMARK    2  A    between atoms: C3_3  and  C4_4 
REMARK    3  A    between atoms: C4_4  and  C5_5 
REMARK       I    between atoms: N1_7  and  C6_8 
REMARK    4  A    between atoms: C6_8  and  C7_10 
REMARK    5  A    between atoms: C7_10  and  N2_11 
REMARK    6  A    between atoms: C7_10  and  C11_21 
REMARK       I    between atoms: N2_11  and  C8_13 
REMARK    7  A    between atoms: C8_13  and  C9_15 
REMARK    8  A    between atoms: C9_15  and  N3_17 
REMARK    9  A    between atoms: C11_21  and  C13_23 
REMARK   10  A    between atoms: C15_25  and  C16_26 
REMARK       I    between atoms: C16_26  and  N4_28 
REMARK   11  A    between atoms: N4_28  and  C17_30 
REMARK   12  A    between atoms: C17_30  and  C18_31 
REMARK   13  A    between atoms: C17_30  and  C21_34 
REMARK   14  A    between atoms: C21_34  and  C23_36 
ROOT
HETATM    1  C5  UNL     1     -11.125  35.462   0.165  1.00  0.00     0.157 C 
HETATM    2  O1  UNL     1      -9.876  35.980   0.451  1.00  0.00    -0.269 OA
HETATM    3  N1  UNL     1      -9.473  35.612   1.704  1.00  0.00    -0.210 N 
HETATM    4  C6  UNL     1      -8.626  34.510   1.788  1.00  0.00     0.267 C 
HETATM    5  O2  UNL     1      -8.245  34.119   2.945  1.00  0.00    -0.269 OA
HETATM    6  C15 UNL     1      -9.964  36.312   2.865  1.00  0.00     0.210 C 
HETATM    7  C25 UNL     1     -11.030  35.398   3.478  1.00  0.00     0.042 C 
HETATM    8  C26 UNL     1     -12.198  35.293   2.499  1.00  0.00    -0.006 C 
HETATM    9  C27 UNL     1     -13.141  34.211   3.081  1.00  0.00     0.005 C 
HETATM   10  C28 UNL     1     -13.632  33.409   1.916  1.00  0.00     0.001 C 
HETATM   11  C29 UNL     1     -13.204  34.214   0.709  1.00  0.00     0.007 C 
HETATM   12  C30 UNL     1     -11.826  34.706   1.213  1.00  0.00     0.021 C 
ENDROOT
BRANCH   4  13
HETATM   13  C7  UNL     1      -8.110  33.725   0.667  1.00  0.00     0.182 C 
BRANCH  13  14
HETATM   14  N2  UNL     1      -8.949  32.542   0.412  1.00  0.00    -0.346 N 
HETATM   15  C8  UNL     1      -9.596  32.290  -0.809  1.00  0.00     0.248 C 
HETATM   16  O3  UNL     1      -9.458  33.114  -1.744  1.00  0.00    -0.271 OA
ATOM     17  H2  UNL     1      -9.067  31.866   1.167  1.00  0.00     0.163 HD
BRANCH  15  18
HETATM   18  C9  UNL     1     -10.424  31.096  -1.019  1.00  0.00     0.270 C 
HETATM   19  C10 UNL     1     -11.493  30.949   0.056  1.00  0.00     0.050 C 
BRANCH  18  20
HETATM   20  N3  UNL     1      -9.644  29.872  -1.023  1.00  0.00    -0.067 N 
ATOM     21  H33 UNL     1      -9.285  29.669  -1.956  1.00  0.00     0.275 HD
ATOM     22  H32 UNL     1      -8.760  29.998  -0.531  1.00  0.00     0.275 HD
ATOM     23  H31 UNL     1     -10.162  29.077  -0.649  1.00  0.00     0.275 HD
ENDBRANCH  18  20
ENDBRANCH  15  18
ENDBRANCH  13  14
BRANCH  13  24
HETATM   24  C11 UNL     1      -6.667  33.382   0.667  1.00  0.00     0.013 C 
HETATM   25  C12 UNL     1      -6.221  32.581  -0.524  1.00  0.00     0.012 C 
BRANCH  24  26
HETATM   26  C13 UNL     1      -5.922  34.735   0.707  1.00  0.00     0.002 C 
HETATM   27  C14 UNL     1      -4.656  34.588   1.483  1.00  0.00     0.005 C 
ENDBRANCH  24  26
ENDBRANCH  13  24
ENDBRANCH   4  13
BRANCH   6  28
HETATM   28  C16 UNL     1      -8.983  36.752   3.844  1.00  0.00     0.247 C 
HETATM   29  O4  UNL     1      -9.204  36.679   5.082  1.00  0.00    -0.271 OA
HETATM   30  N4  UNL     1      -7.734  37.283   3.405  1.00  0.00    -0.332 N 
ATOM     31  H4  UNL     1      -7.605  37.319   2.395  1.00  0.00     0.168 HD
BRANCH  30  32
HETATM   32  C17 UNL     1      -6.650  37.767   4.171  1.00  0.00    -0.003 C 
BRANCH  32  33
HETATM   33  C18 UNL     1      -5.471  36.864   4.362  1.00  0.00     0.023 C 
HETATM   34  C19 UNL     1      -4.299  37.489   3.556  1.00  0.00     0.016 C 
HETATM   35  C20 UNL     1      -5.032  36.554   5.737  1.00  0.00     0.016 C 
ENDBRANCH  32  33
BRANCH  32  36
HETATM   36  C21 UNL     1      -6.297  39.199   4.139  1.00  0.00     0.027 C 
HETATM   37  C22 UNL     1      -6.979  40.133   3.233  1.00  0.00     0.016 C 
BRANCH  36  38
HETATM   38  C23 UNL     1      -6.373  39.820   5.553  1.00  0.00     0.005 C 
HETATM   39  C24 UNL     1      -5.006  40.300   5.988  1.00  0.00     0.006 C 
ENDBRANCH  36  38
ENDBRANCH  32  36
ENDBRANCH  30  32
ENDBRANCH   6  28
BRANCH   1  40
HETATM   40  C4  UNL     1     -11.896  36.433  -0.653  1.00  0.00     0.035 C 
BRANCH  40  41
HETATM   41  C3  UNL     1     -11.900  37.850  -0.232  1.00  0.00     0.002 C 
BRANCH  41  42
HETATM   42  C2  UNL     1     -13.270  38.119   0.404  1.00  0.00    -0.004 C 
HETATM   43  C1  UNL     1     -14.373  37.512  -0.431  1.00  0.00     0.005 C 
ENDBRANCH  41  42
ENDBRANCH  40  41
ENDBRANCH   1  40
TORSDOF 14
ENDMDL
MODEL 5
REMARK VINA RESULT: -6.353448119      3.027      7.900
REMARK  14 active torsions:
REMARK  status: ('A' for Active; 'I' for Inactive)
REMARK    1  A    between atoms: C2_2  and  C3_3 
REMARK    2  A    between atoms: C3_3  and  C4_4 
REMARK    3  A    between atoms: C4_4  and  C5_5 
REMARK       I    between atoms: N1_7  and  C6_8 
REMARK    4  A    between atoms: C6_8  and  C7_10 
REMARK    5  A    between atoms: C7_10  and  N2_11 
REMARK    6  A    between atoms: C7_10  and  C11_21 
REMARK       I    between atoms: N2_11  and  C8_13 
REMARK    7  A    between atoms: C8_13  and  C9_15 
REMARK    8  A    between atoms: C9_15  and  N3_17 
REMARK    9  A    between atoms: C11_21  and  C13_23 
REMARK   10  A    between atoms: C15_25  and  C16_26 
REMARK       I    between atoms: C16_26  and  N4_28 
REMARK   11  A    between atoms: N4_28  and  C17_30 
REMARK   12  A    between atoms: C17_30  and  C18_31 
REMARK   13  A    between atoms: C17_30  and  C21_34 
REMARK   14  A    between atoms: C21_34  and  C23_36 
ROOT
HETATM    1  C5  UNL     1     -10.881  35.385   0.195  1.00  0.00     0.157 C 
HETATM    2  O1  UNL     1      -9.629  35.969   0.255  1.00  0.00    -0.269 OA
HETATM    3  N1  UNL     1      -9.089  35.833   1.504  1.00  0.00    -0.210 N 
HETATM    4  C6  UNL     1      -8.197  34.779   1.685  1.00  0.00     0.267 C 
HETATM    5  O2  UNL     1      -7.687  34.604   2.845  1.00  0.00    -0.269 OA
HETATM    6  C15 UNL     1      -9.487  36.715   2.572  1.00  0.00     0.210 C 
HETATM    7  C25 UNL     1     -10.450  35.902   3.442  1.00  0.00     0.042 C 
HETATM    8  C26 UNL     1     -11.707  35.605   2.624  1.00  0.00    -0.006 C 
HETATM    9  C27 UNL     1     -12.544  34.623   3.479  1.00  0.00     0.005 C 
HETATM   10  C28 UNL     1     -13.120  33.621   2.528  1.00  0.00     0.001 C 
HETATM   11  C29 UNL     1     -12.846  34.211   1.162  1.00  0.00     0.007 C 
HETATM   12  C30 UNL     1     -11.443  34.810   1.426  1.00  0.00     0.021 C 
ENDROOT
BRANCH   4  13
HETATM   13  C7  UNL     1      -7.768  33.821   0.667  1.00  0.00     0.182 C 
BRANCH  13  14
HETATM   14  N2  UNL     1      -8.720  32.705   0.548  1.00  0.00    -0.346 N 
HETATM   15  C8  UNL     1      -9.373  32.356  -0.646  1.00  0.00     0.248 C 
HETATM   16  O3  UNL     1      -9.138  33.028  -1.678  1.00  0.00    -0.271 OA
ATOM     17  H2  UNL     1      -8.917  32.151   1.383  1.00  0.00     0.163 HD
BRANCH  15  18
HETATM   18  C9  UNL     1     -10.316  31.234  -0.718  1.00  0.00     0.270 C 
HETATM   19  C10 UNL     1     -11.144  31.104   0.554  1.00  0.00     0.050 C 
BRANCH  18  20
HETATM   20  N3  UNL     1      -9.651  29.961  -0.931  1.00  0.00    -0.067 N 
ATOM     21  H33 UNL     1      -8.802  30.079  -1.485  1.00  0.00     0.275 HD
ATOM     22  H32 UNL     1      -9.237  29.613  -0.067  1.00  0.00     0.275 HD
ATOM     23  H31 UNL     1     -10.267  29.264  -1.349  1.00  0.00     0.275 HD
ENDBRANCH  18  20
ENDBRANCH  15  18
ENDBRANCH  13  14
BRANCH  13  24
HETATM   24  C11 UNL     1      -6.365  33.341   0.716  1.00  0.00     0.013 C 
HETATM   25  C12 UNL     1      -5.948  32.527  -0.477  1.00  0.00     0.012 C 
BRANCH  24  26
HETATM   26  C13 UNL     1      -5.496  34.614   0.819  1.00  0.00     0.002 C 
HETATM   27  C14 UNL     1      -4.255  34.314   1.592  1.00  0.00     0.005 C 
ENDBRANCH  24  26
ENDBRANCH  13  24
ENDBRANCH   4  13
BRANCH   6  28
HETATM   28  C16 UNL     1      -8.429  37.338   3.353  1.00  0.00     0.247 C 
HETATM   29  O4  UNL     1      -7.718  38.265   2.884  1.00  0.00    -0.271 OA
HETATM   30  N4  UNL     1      -8.179  36.896   4.686  1.00  0.00    -0.332 N 
ATOM     31  H4  UNL     1      -8.783  36.145   5.018  1.00  0.00     0.168 HD
BRANCH  30  32
HETATM   32  C17 UNL     1      -7.214  37.351   5.612  1.00  0.00    -0.003 C 
BRANCH  32  33
HETATM   33  C18 UNL     1      -7.638  37.517   7.038  1.00  0.00     0.023 C 
HETATM   34  C19 UNL     1      -7.268  38.970   7.445  1.00  0.00     0.016 C 
HETATM   35  C20 UNL     1      -9.042  37.233   7.397  1.00  0.00     0.016 C 
ENDBRANCH  32  33
BRANCH  32  36
HETATM   36  C21 UNL     1      -5.798  36.968   5.458  1.00  0.00     0.027 C 
HETATM   37  C22 UNL     1      -5.415  35.684   4.854  1.00  0.00     0.016 C 
BRANCH  36  38
HETATM   38  C23 UNL     1      -5.005  38.063   4.708  1.00  0.00     0.005 C 
HETATM   39  C24 UNL     1      -4.425  37.505   3.427  1.00  0.00     0.006 C 
ENDBRANCH  36  38
ENDBRANCH  32  36
ENDBRANCH  30  32
ENDBRANCH   6  28
BRANCH   1  40
HETATM   40  C4  UNL     1     -11.765  36.183  -0.690  1.00  0.00     0.035 C 
BRANCH  40  41
HETATM   41  C3  UNL     1     -12.039  37.588  -0.320  1.00  0.00     0.002 C 
BRANCH  41  42
HETATM   42  C2  UNL     1     -13.559  37.779  -0.400  1.00  0.00    -0.004 C 
HETATM   43  C1  UNL     1     -14.176  37.721   0.978  1.00  0.00     0.005 C 
ENDBRANCH  41  42
ENDBRANCH  40  41
ENDBRANCH   1  40
TORSDOF 14
ENDMDL
