MODEL 1
REMARK VINA RESULT: -7.203422340      0.000      0.000
REMARK  16 active torsions:
REMARK  status: ('A' for Active; 'I' for Inactive)
REMARK    1  A    between atoms: C4_4  and  C5_5 
REMARK    2  A    between atoms: C5_5  and  C6_6 
REMARK    3  A    between atoms: C6_6  and  C7_7 
REMARK    4  A    between atoms: C7_7  and  C8_8 
REMARK    5  A    between atoms: C8_8  and  C9_9 
REMARK    6  A    between atoms: C9_9  and  N1_10 
REMARK    7  A    between atoms: C9_9  and  C15_19 
REMARK       I    between atoms: N1_10  and  C10_12 
REMARK    8  A    between atoms: C10_12  and  O2_14 
REMARK    9  A    between atoms: O2_14  and  C11_15 
REMARK       I    between atoms: C15_19  and  N2_21 
REMARK   10  A    between atoms: N2_21  and  C16_23 
REMARK   11  A    between atoms: C16_23  and  C17_24 
REMARK   12  A    between atoms: C16_23  and  C24_31 
REMARK   13  A    between atoms: C17_24  and  C18_25 
REMARK   14  A    between atoms: C24_31  and  C25_33 
REMARK       I    between atoms: C25_33  and  N3_35 
REMARK   15  A    between atoms: N3_35  and  C26_37 
REMARK   16  A    between atoms: C26_37  and  C27_38 
ROOT
HETATM    1  C1  UNL     1      -2.899  33.422   1.188  1.00  0.00     0.027 C 
HETATM    2  C2  UNL     1      -3.915  32.921   0.742  1.00  0.00    -0.026 C 
HETATM    3  C3  UNL     1      -5.105  32.346   0.220  1.00  0.00    -0.016 C 
HETATM    4  C4  UNL     1      -6.126  31.865  -0.209  1.00  0.00    -0.093 C 
ENDROOT
BRANCH   4   5
HETATM    5  C5  UNL     1      -7.363  31.271  -0.707  1.00  0.00     0.095 C 
BRANCH   5   6
HETATM    6  C6  UNL     1      -8.086  32.313  -1.541  1.00  0.00     0.012 C 
BRANCH   6   7
HETATM    7  C7  UNL     1      -9.502  31.808  -1.742  1.00  0.00     0.003 C 
BRANCH   7   8
HETATM    8  C8  UNL     1      -9.731  30.465  -1.170  1.00  0.00     0.035 C 
BRANCH   8   9
HETATM    9  C9  UNL     1     -11.054  30.177  -0.550  1.00  0.00     0.179 C 
BRANCH   9  10
HETATM   10  N1  UNL     1     -12.043  30.443  -1.629  1.00  0.00    -0.324 N 
HETATM   11  C10 UNL     1     -12.920  29.417  -2.010  1.00  0.00     0.362 C 
HETATM   12  O1  UNL     1     -12.879  28.269  -1.448  1.00  0.00    -0.238 OA
ATOM     13  H1  UNL     1     -12.082  31.356  -2.083  1.00  0.00     0.165 HD
BRANCH  11  14
HETATM   14  O2  UNL     1     -13.871  29.562  -2.996  1.00  0.00    -0.294 OA
BRANCH  14  15
HETATM   15  C11 UNL     1     -13.668  29.392  -4.368  1.00  0.00     0.061 C 
HETATM   16  C12 UNL     1     -12.190  29.392  -4.730  1.00  0.00     0.046 C 
HETATM   17  C13 UNL     1     -14.226  28.022  -4.737  1.00  0.00     0.046 C 
HETATM   18  C14 UNL     1     -14.331  30.444  -5.204  1.00  0.00     0.046 C 
ENDBRANCH  14  15
ENDBRANCH  11  14
ENDBRANCH   9  10
BRANCH   9  19
HETATM   19  C15 UNL     1     -11.398  31.022   0.607  1.00  0.00     0.241 C 
HETATM   20  O3  UNL     1     -11.371  30.463   1.762  1.00  0.00    -0.271 OA
HETATM   21  N2  UNL     1     -11.753  32.377   0.610  1.00  0.00    -0.347 N 
ATOM     22  H2  UNL     1     -11.797  32.872  -0.280  1.00  0.00     0.163 HD
BRANCH  21  23
HETATM   23  C16 UNL     1     -12.064  33.109   1.835  1.00  0.00     0.165 C 
BRANCH  23  24
HETATM   24  C17 UNL     1     -10.954  33.864   2.435  1.00  0.00     0.038 C 
BRANCH  24  25
HETATM   25  C18 UNL     1      -9.589  33.770   1.808  1.00  0.00    -0.012 C 
HETATM   26  C19 UNL     1      -8.606  33.989   2.982  1.00  0.00     0.005 C 
HETATM   27  C20 UNL     1      -7.192  33.994   2.514  1.00  0.00     0.000 C 
HETATM   28  C21 UNL     1      -7.014  35.247   1.673  1.00  0.00     0.000 C 
HETATM   29  C22 UNL     1      -7.920  35.149   0.498  1.00  0.00     0.000 C 
HETATM   30  C23 UNL     1      -9.375  34.877   0.840  1.00  0.00     0.005 C 
ENDBRANCH  24  25
ENDBRANCH  23  24
BRANCH  23  31
HETATM   31  C24 UNL     1     -13.191  34.051   1.481  1.00  0.00     0.238 C 
HETATM   32  O4  UNL     1     -14.270  33.519   1.095  1.00  0.00    -0.285 OA
BRANCH  31  33
HETATM   33  C25 UNL     1     -13.098  35.489   1.564  1.00  0.00     0.289 C 
HETATM   34  O5  UNL     1     -13.382  36.144   2.585  1.00  0.00    -0.264 OA
HETATM   35  N3  UNL     1     -12.663  36.225   0.440  1.00  0.00    -0.351 N 
ATOM     36  H3  UNL     1     -12.423  35.715  -0.411  1.00  0.00     0.163 HD
BRANCH  35  37
HETATM   37  C26 UNL     1     -12.541  37.674   0.435  1.00  0.00     0.150 C 
BRANCH  37  38
HETATM   38  C27 UNL     1     -11.185  38.099   0.007  1.00  0.00    -0.005 C 
HETATM   39  C28 UNL     1     -10.189  38.343   0.846  1.00  0.00    -0.090 C 
HETATM   40  C29 UNL     1      -8.859  38.764   0.367  1.00  0.00     0.042 C 
HETATM   41  C30 UNL     1     -10.480  38.170   2.306  1.00  0.00     0.042 C 
ENDBRANCH  37  38
ENDBRANCH  35  37
ENDBRANCH  31  33
ENDBRANCH  23  31
ENDBRANCH  21  23
ENDBRANCH   9  19
ENDBRANCH   8   9
ENDBRANCH   7   8
ENDBRANCH   6   7
ENDBRANCH   5   6
ENDBRANCH   4   5
TORSDOF 16
ENDMDL
MODEL 2
REMARK VINA RESULT: -6.556011205      4.155      8.134
REMARK  16 active torsions:
REMARK  status: ('A' for Active; 'I' for Inactive)
REMARK    1  A    between atoms: C4_4  and  C5_5 
REMARK    2  A    between atoms: C5_5  and  C6_6 
REMARK    3  A    between atoms: C6_6  and  C7_7 
REMARK    4  A    between atoms: C7_7  and  C8_8 
REMARK    5  A    between atoms: C8_8  and  C9_9 
REMARK    6  A    between atoms: C9_9  and  N1_10 
REMARK    7  A    between atoms: C9_9  and  C15_19 
REMARK       I    between atoms: N1_10  and  C10_12 
REMARK    8  A    between atoms: C10_12  and  O2_14 
REMARK    9  A    between atoms: O2_14  and  C11_15 
REMARK       I    between atoms: C15_19  and  N2_21 
REMARK   10  A    between atoms: N2_21  and  C16_23 
REMARK   11  A    between atoms: C16_23  and  C17_24 
REMARK   12  A    between atoms: C16_23  and  C24_31 
REMARK   13  A    between atoms: C17_24  and  C18_25 
REMARK   14  A    between atoms: C24_31  and  C25_33 
REMARK       I    between atoms: C25_33  and  N3_35 
REMARK   15  A    between atoms: N3_35  and  C26_37 
REMARK   16  A    between atoms: C26_37  and  C27_38 
ROOT
HETATM    1  C1  UNL     1     -10.933  29.228  -3.648  1.00  0.00     0.027 C 
HETATM    2  C2  UNL     1     -10.969  29.770  -2.558  1.00  0.00    -0.026 C 
HETATM    3  C3  UNL     1     -11.010  30.412  -1.291  1.00  0.00    -0.016 C 
HETATM    4  C4  UNL     1     -11.030  30.968  -0.219  1.00  0.00    -0.093 C 
ENDROOT
BRANCH   4   5
HETATM    5  C5  UNL     1     -11.032  31.629   1.083  1.00  0.00     0.095 C 
BRANCH   5   6
HETATM    6  C6  UNL     1     -11.999  32.797   1.019  1.00  0.00     0.012 C 
BRANCH   6   7
HETATM    7  C7  UNL     1     -11.160  34.058   0.962  1.00  0.00     0.003 C 
BRANCH   7   8
HETATM    8  C8  UNL     1     -11.145  34.810   2.234  1.00  0.00     0.035 C 
BRANCH   8   9
HETATM    9  C9  UNL     1     -10.130  34.442   3.261  1.00  0.00     0.179 C 
BRANCH   9  10
HETATM   10  N1  UNL     1     -10.155  35.568   4.234  1.00  0.00    -0.324 N 
HETATM   11  C10 UNL     1     -11.147  35.583   5.225  1.00  0.00     0.362 C 
HETATM   12  O1  UNL     1     -12.021  34.652   5.301  1.00  0.00    -0.238 OA
ATOM     13  H1  UNL     1      -9.462  36.315   4.181  1.00  0.00     0.165 HD
BRANCH  11  14
HETATM   14  O2  UNL     1     -11.256  36.577   6.172  1.00  0.00    -0.294 OA
BRANCH  14  15
HETATM   15  C11 UNL     1     -12.122  37.673   6.120  1.00  0.00     0.061 C 
HETATM   16  C12 UNL     1     -13.371  37.452   6.960  1.00  0.00     0.046 C 
HETATM   17  C13 UNL     1     -11.377  38.861   6.717  1.00  0.00     0.046 C 
HETATM   18  C14 UNL     1     -12.574  38.011   4.731  1.00  0.00     0.046 C 
ENDBRANCH  14  15
ENDBRANCH  11  14
ENDBRANCH   9  10
BRANCH   9  19
HETATM   19  C15 UNL     1      -8.754  34.301   2.756  1.00  0.00     0.241 C 
HETATM   20  O3  UNL     1      -8.253  33.120   2.758  1.00  0.00    -0.271 OA
HETATM   21  N2  UNL     1      -7.908  35.304   2.264  1.00  0.00    -0.347 N 
ATOM     22  H2  UNL     1      -8.251  36.264   2.243  1.00  0.00     0.163 HD
BRANCH  21  23
HETATM   23  C16 UNL     1      -6.559  35.032   1.780  1.00  0.00     0.165 C 
BRANCH  23  24
HETATM   24  C17 UNL     1      -6.338  35.226   0.339  1.00  0.00     0.038 C 
BRANCH  24  25
HETATM   25  C18 UNL     1      -6.312  34.020  -0.561  1.00  0.00    -0.012 C 
HETATM   26  C19 UNL     1      -7.798  33.619  -0.715  1.00  0.00     0.005 C 
HETATM   27  C20 UNL     1      -7.947  32.383  -1.533  1.00  0.00     0.000 C 
HETATM   28  C21 UNL     1      -7.362  31.244  -0.716  1.00  0.00     0.000 C 
HETATM   29  C22 UNL     1      -5.917  31.522  -0.501  1.00  0.00     0.000 C 
HETATM   30  C23 UNL     1      -5.614  32.885   0.097  1.00  0.00     0.005 C 
ENDBRANCH  24  25
ENDBRANCH  23  24
BRANCH  23  31
HETATM   31  C24 UNL     1      -5.644  35.942   2.566  1.00  0.00     0.238 C 
HETATM   32  O4  UNL     1      -4.448  36.019   2.169  1.00  0.00    -0.285 OA
BRANCH  31  33
HETATM   33  C25 UNL     1      -6.061  36.709   3.715  1.00  0.00     0.289 C 
HETATM   34  O5  UNL     1      -6.669  37.794   3.641  1.00  0.00    -0.264 OA
HETATM   35  N3  UNL     1      -5.780  36.228   5.013  1.00  0.00    -0.351 N 
ATOM     36  H3  UNL     1      -5.285  35.341   5.105  1.00  0.00     0.163 HD
BRANCH  35  37
HETATM   37  C26 UNL     1      -6.163  36.935   6.225  1.00  0.00     0.150 C 
BRANCH  37  38
HETATM   38  C27 UNL     1      -4.983  37.544   6.889  1.00  0.00    -0.005 C 
HETATM   39  C28 UNL     1      -5.029  38.147   8.067  1.00  0.00    -0.090 C 
HETATM   40  C29 UNL     1      -3.825  38.736   8.683  1.00  0.00     0.042 C 
HETATM   41  C30 UNL     1      -6.365  38.201   8.745  1.00  0.00     0.042 C 
ENDBRANCH  37  38
ENDBRANCH  35  37
ENDBRANCH  31  33
ENDBRANCH  23  31
ENDBRANCH  21  23
ENDBRANCH   9  19
ENDBRANCH   8   9
ENDBRANCH   7   8
ENDBRANCH   6   7
ENDBRANCH   5   6
ENDBRANCH   4   5
TORSDOF 16
ENDMDL
MODEL 3
REMARK VINA RESULT: -6.511739576      3.525      7.574
REMARK  16 active torsions:
REMARK  status: ('A' for Active; 'I' for Inactive)
REMARK    1  A    between atoms: C4_4  and  C5_5 
REMARK    2  A    between atoms: C5_5  and  C6_6 
REMARK    3  A    between atoms: C6_6  and  C7_7 
REMARK    4  A    between atoms: C7_7  and  C8_8 
REMARK    5  A    between atoms: C8_8  and  C9_9 
REMARK    6  A    between atoms: C9_9  and  N1_10 
REMARK    7  A    between atoms: C9_9  and  C15_19 
REMARK       I    between atoms: N1_10  and  C10_12 
REMARK    8  A    between atoms: C10_12  and  O2_14 
REMARK    9  A    between atoms: O2_14  and  C11_15 
REMARK       I    between atoms: C15_19  and  N2_21 
REMARK   10  A    between atoms: N2_21  and  C16_23 
REMARK   11  A    between atoms: C16_23  and  C17_24 
REMARK   12  A    between atoms: C16_23  and  C24_31 
REMARK   13  A    between atoms: C17_24  and  C18_25 
REMARK   14  A    between atoms: C24_31  and  C25_33 
REMARK       I    between atoms: C25_33  and  N3_35 
REMARK   15  A    between atoms: N3_35  and  C26_37 
REMARK   16  A    between atoms: C26_37  and  C27_38 
ROOT
HETATM    1  C1  UNL     1     -10.795  28.931  -3.553  1.00  0.00     0.027 C 
HETATM    2  C2  UNL     1     -10.891  29.566  -2.518  1.00  0.00    -0.026 C 
HETATM    3  C3  UNL     1     -10.996  30.300  -1.307  1.00  0.00    -0.016 C 
HETATM    4  C4  UNL     1     -11.089  30.909  -0.267  1.00  0.00    -0.093 C 
ENDROOT
BRANCH   4   5
HETATM    5  C5  UNL     1     -11.225  31.638   0.990  1.00  0.00     0.095 C 
BRANCH   5   6
HETATM    6  C6  UNL     1     -11.266  33.122   0.674  1.00  0.00     0.012 C 
BRANCH   6   7
HETATM    7  C7  UNL     1     -11.884  33.810   1.875  1.00  0.00     0.003 C 
BRANCH   7   8
HETATM    8  C8  UNL     1     -11.010  33.804   3.067  1.00  0.00     0.035 C 
BRANCH   8   9
HETATM    9  C9  UNL     1      -9.991  34.882   3.203  1.00  0.00     0.179 C 
BRANCH   9  10
HETATM   10  N1  UNL     1     -10.530  36.013   2.400  1.00  0.00    -0.324 N 
HETATM   11  C10 UNL     1     -10.204  37.324   2.777  1.00  0.00     0.362 C 
HETATM   12  O1  UNL     1      -9.459  37.556   3.790  1.00  0.00    -0.238 OA
ATOM     13  H1  UNL     1     -11.125  35.838   1.591  1.00  0.00     0.165 HD
BRANCH  11  14
HETATM   14  O2  UNL     1     -10.650  38.439   2.102  1.00  0.00    -0.294 OA
BRANCH  14  15
HETATM   15  C11 UNL     1      -9.943  39.152   1.131  1.00  0.00     0.061 C 
HETATM   16  C12 UNL     1      -8.894  38.292   0.443  1.00  0.00     0.046 C 
HETATM   17  C13 UNL     1     -10.950  39.579   0.068  1.00  0.00     0.046 C 
HETATM   18  C14 UNL     1      -9.243  40.363   1.671  1.00  0.00     0.046 C 
ENDBRANCH  14  15
ENDBRANCH  11  14
ENDBRANCH   9  10
BRANCH   9  19
HETATM   19  C15 UNL     1      -8.655  34.546   2.683  1.00  0.00     0.241 C 
HETATM   20  O3  UNL     1      -8.345  33.301   2.641  1.00  0.00    -0.271 OA
HETATM   21  N2  UNL     1      -7.664  35.421   2.219  1.00  0.00    -0.347 N 
ATOM     22  H2  UNL     1      -7.852  36.423   2.233  1.00  0.00     0.163 HD
BRANCH  21  23
HETATM   23  C16 UNL     1      -6.374  34.958   1.715  1.00  0.00     0.165 C 
BRANCH  23  24
HETATM   24  C17 UNL     1      -6.149  35.118   0.271  1.00  0.00     0.038 C 
BRANCH  24  25
HETATM   25  C18 UNL     1      -6.230  33.905  -0.615  1.00  0.00    -0.012 C 
HETATM   26  C19 UNL     1      -7.738  33.572  -0.682  1.00  0.00     0.005 C 
HETATM   27  C20 UNL     1      -7.989  32.338  -1.478  1.00  0.00     0.000 C 
HETATM   28  C21 UNL     1      -7.411  31.179  -0.682  1.00  0.00     0.000 C 
HETATM   29  C22 UNL     1      -5.946  31.392  -0.551  1.00  0.00     0.000 C 
HETATM   30  C23 UNL     1      -5.548  32.744   0.014  1.00  0.00     0.005 C 
ENDBRANCH  24  25
ENDBRANCH  23  24
BRANCH  23  31
HETATM   31  C24 UNL     1      -5.327  35.728   2.486  1.00  0.00     0.238 C 
HETATM   32  O4  UNL     1      -4.123  35.497   2.186  1.00  0.00    -0.285 OA
BRANCH  31  33
HETATM   33  C25 UNL     1      -5.630  36.690   3.518  1.00  0.00     0.289 C 
HETATM   34  O5  UNL     1      -6.332  36.438   4.517  1.00  0.00    -0.264 OA
HETATM   35  N3  UNL     1      -5.117  38.003   3.420  1.00  0.00    -0.351 N 
ATOM     36  H3  UNL     1      -4.538  38.238   2.613  1.00  0.00     0.163 HD
BRANCH  35  37
HETATM   37  C26 UNL     1      -5.373  39.034   4.412  1.00  0.00     0.150 C 
BRANCH  37  38
HETATM   38  C27 UNL     1      -6.115  40.177   3.822  1.00  0.00    -0.005 C 
HETATM   39  C28 UNL     1      -5.541  41.304   3.427  1.00  0.00    -0.090 C 
HETATM   40  C29 UNL     1      -6.327  42.410   2.847  1.00  0.00     0.042 C 
HETATM   41  C30 UNL     1      -4.055  41.399   3.596  1.00  0.00     0.042 C 
ENDBRANCH  37  38
ENDBRANCH  35  37
ENDBRANCH  31  33
ENDBRANCH  23  31
ENDBRANCH  21  23
ENDBRANCH   9  19
ENDBRANCH   8   9
ENDBRANCH   7   8
ENDBRANCH   6   7
ENDBRANCH   5   6
ENDBRANCH   4   5
TORSDOF 16
ENDMDL
MODEL 4
REMARK VINA RESULT: -6.501009824      3.010      4.439
REMARK  16 active torsions:
REMARK  status: ('A' for Active; 'I' for Inactive)
REMARK    1  A    between atoms: C4_4  and  C5_5 
REMARK    2  A    between atoms: C5_5  and  C6_6 
REMARK    3  A    between atoms: C6_6  and  C7_7 
REMARK    4  A    between atoms: C7_7  and  C8_8 
REMARK    5  A    between atoms: C8_8  and  C9_9 
REMARK    6  A    between atoms: C9_9  and  N1_10 
REMARK    7  A    between atoms: C9_9  and  C15_19 
REMARK       I    between atoms: N1_10  and  C10_12 
REMARK    8  A    between atoms: C10_12  and  O2_14 
REMARK    9  A    between atoms: O2_14  and  C11_15 
REMARK       I    between atoms: C15_19  and  N2_21 
REMARK   10  A    between atoms: N2_21  and  C16_23 
REMARK   11  A    between atoms: C16_23  and  C17_24 
REMARK   12  A    between atoms: C16_23  and  C24_31 
REMARK   13  A    between atoms: C17_24  and  C18_25 
REMARK   14  A    between atoms: C24_31  and  C25_33 
REMARK       I    between atoms: C25_33  and  N3_35 
REMARK   15  A    between atoms: N3_35  and  C26_37 
REMARK   16  A    between atoms: C26_37  and  C27_38 
ROOT
HETATM    1  C1  UNL     1      -4.640  36.291   2.896  1.00  0.00     0.027 C 
HETATM    2  C2  UNL     1      -4.740  35.386   2.088  1.00  0.00    -0.026 C 
HETATM    3  C3  UNL     1      -4.861  34.325   1.152  1.00  0.00    -0.016 C 
HETATM    4  C4  UNL     1      -4.956  33.411   0.368  1.00  0.00    -0.093 C 
ENDROOT
BRANCH   4   5
HETATM    5  C5  UNL     1      -5.046  32.304  -0.580  1.00  0.00     0.095 C 
BRANCH   5   6
HETATM    6  C6  UNL     1      -6.332  31.547  -0.302  1.00  0.00     0.012 C 
BRANCH   6   7
HETATM    7  C7  UNL     1      -7.436  32.269  -1.048  1.00  0.00     0.003 C 
BRANCH   7   8
HETATM    8  C8  UNL     1      -8.562  31.388  -1.425  1.00  0.00     0.035 C 
BRANCH   8   9
HETATM    9  C9  UNL     1      -9.740  31.317  -0.517  1.00  0.00     0.179 C 
BRANCH   9  10
HETATM   10  N1  UNL     1     -10.894  31.055  -1.417  1.00  0.00    -0.324 N 
HETATM   11  C10 UNL     1     -11.612  29.858  -1.266  1.00  0.00     0.362 C 
HETATM   12  O1  UNL     1     -11.287  29.001  -0.374  1.00  0.00    -0.238 OA
ATOM     13  H1  UNL     1     -11.160  31.732  -2.132  1.00  0.00     0.165 HD
BRANCH  11  14
HETATM   14  O2  UNL     1     -12.694  29.521  -2.047  1.00  0.00    -0.294 OA
BRANCH  14  15
HETATM   15  C11 UNL     1     -12.649  28.862  -3.279  1.00  0.00     0.061 C 
HETATM   16  C12 UNL     1     -13.395  27.538  -3.245  1.00  0.00     0.046 C 
HETATM   17  C13 UNL     1     -13.355  29.757  -4.291  1.00  0.00     0.046 C 
HETATM   18  C14 UNL     1     -11.255  28.576  -3.751  1.00  0.00     0.046 C 
ENDBRANCH  14  15
ENDBRANCH  11  14
ENDBRANCH   9  10
BRANCH   9  19
HETATM   19  C15 UNL     1     -10.019  32.549   0.241  1.00  0.00     0.241 C 
HETATM   20  O3  UNL     1     -10.615  33.495  -0.389  1.00  0.00    -0.271 OA
HETATM   21  N2  UNL     1      -9.717  32.825   1.580  1.00  0.00    -0.347 N 
ATOM     22  H2  UNL     1      -9.239  32.112   2.130  1.00  0.00     0.163 HD
BRANCH  21  23
HETATM   23  C16 UNL     1     -10.059  34.091   2.222  1.00  0.00     0.165 C 
BRANCH  23  24
HETATM   24  C17 UNL     1     -11.026  34.015   3.327  1.00  0.00     0.038 C 
BRANCH  24  25
HETATM   25  C18 UNL     1     -12.208  34.947   3.322  1.00  0.00    -0.012 C 
HETATM   26  C19 UNL     1     -12.691  34.968   4.791  1.00  0.00     0.005 C 
HETATM   27  C20 UNL     1     -13.915  35.803   4.949  1.00  0.00     0.000 C 
HETATM   28  C21 UNL     1     -15.036  35.078   4.224  1.00  0.00     0.000 C 
HETATM   29  C22 UNL     1     -14.680  34.996   2.784  1.00  0.00     0.000 C 
HETATM   30  C23 UNL     1     -13.315  34.392   2.501  1.00  0.00     0.005 C 
ENDBRANCH  24  25
ENDBRANCH  23  24
BRANCH  23  31
HETATM   31  C24 UNL     1      -8.755  34.668   2.722  1.00  0.00     0.238 C 
HETATM   32  O4  UNL     1      -7.767  33.883   2.759  1.00  0.00    -0.285 OA
BRANCH  31  33
HETATM   33  C25 UNL     1      -8.588  36.039   3.145  1.00  0.00     0.289 C 
HETATM   34  O5  UNL     1      -8.908  37.022   2.451  1.00  0.00    -0.264 OA
HETATM   35  N3  UNL     1      -8.033  36.313   4.415  1.00  0.00    -0.351 N 
ATOM     36  H3  UNL     1      -7.763  35.527   5.007  1.00  0.00     0.163 HD
BRANCH  35  37
HETATM   37  C26 UNL     1      -7.829  37.661   4.920  1.00  0.00     0.150 C 
BRANCH  37  38
HETATM   38  C27 UNL     1      -6.490  37.806   5.543  1.00  0.00    -0.005 C 
HETATM   39  C28 UNL     1      -6.275  37.757   6.850  1.00  0.00    -0.090 C 
HETATM   40  C29 UNL     1      -4.922  37.907   7.418  1.00  0.00     0.042 C 
HETATM   41  C30 UNL     1      -7.474  37.540   7.722  1.00  0.00     0.042 C 
ENDBRANCH  37  38
ENDBRANCH  35  37
ENDBRANCH  31  33
ENDBRANCH  23  31
ENDBRANCH  21  23
ENDBRANCH   9  19
ENDBRANCH   8   9
ENDBRANCH   7   8
ENDBRANCH   6   7
ENDBRANCH   5   6
ENDBRANCH   4   5
TORSDOF 16
ENDMDL
MODEL 5
REMARK VINA RESULT: -6.431149556      4.099      8.388
REMARK  16 active torsions:
REMARK  status: ('A' for Active; 'I' for Inactive)
REMARK    1  A    between atoms: C4_4  and  C5_5 
REMARK    2  A    between atoms: C5_5  and  C6_6 
REMARK    3  A    between atoms: C6_6  and  C7_7 
REMARK    4  A    between atoms: C7_7  and  C8_8 
REMARK    5  A    between atoms: C8_8  and  C9_9 
REMARK    6  A    between atoms: C9_9  and  N1_10 
REMARK    7  A    between atoms: C9_9  and  C15_19 
REMARK       I    between atoms: N1_10  and  C10_12 
REMARK    8  A    between atoms: C10_12  and  O2_14 
REMARK    9  A    between atoms: O2_14  and  C11_15 
REMARK       I    between atoms: C15_19  and  N2_21 
REMARK   10  A    between atoms: N2_21  and  C16_23 
REMARK   11  A    between atoms: C16_23  and  C17_24 
REMARK   12  A    between atoms: C16_23  and  C24_31 
REMARK   13  A    between atoms: C17_24  and  C18_25 
REMARK   14  A    between atoms: C24_31  and  C25_33 
REMARK       I    between atoms: C25_33  and  N3_35 
REMARK   15  A    between atoms: N3_35  and  C26_37 
REMARK   16  A    between atoms: C26_37  and  C27_38 
ROOT
HETATM    1  C1  UNL     1      -9.865  31.023  -1.783  1.00  0.00     0.027 C 
HETATM    2  C2  UNL     1      -8.767  31.397  -1.415  1.00  0.00    -0.026 C 
HETATM    3  C3  UNL     1      -7.485  31.840  -0.992  1.00  0.00    -0.016 C 
HETATM    4  C4  UNL     1      -6.389  32.216  -0.651  1.00  0.00    -0.093 C 
ENDROOT
BRANCH   4   5
HETATM    5  C5  UNL     1      -5.056  32.650  -0.245  1.00  0.00     0.095 C 
BRANCH   5   6
HETATM    6  C6  UNL     1      -5.037  32.771   1.268  1.00  0.00     0.012 C 
BRANCH   6   7
HETATM    7  C7  UNL     1      -4.185  33.980   1.601  1.00  0.00     0.003 C 
BRANCH   7   8
HETATM    8  C8  UNL     1      -4.741  34.805   2.694  1.00  0.00     0.035 C 
BRANCH   8   9
HETATM    9  C9  UNL     1      -5.284  36.151   2.359  1.00  0.00     0.179 C 
BRANCH   9  10
HETATM   10  N1  UNL     1      -5.870  36.648   3.632  1.00  0.00    -0.324 N 
HETATM   11  C10 UNL     1      -5.529  37.934   4.077  1.00  0.00     0.362 C 
HETATM   12  O1  UNL     1      -4.728  38.674   3.409  1.00  0.00    -0.238 OA
ATOM     13  H1  UNL     1      -6.509  36.064   4.173  1.00  0.00     0.165 HD
BRANCH  11  14
HETATM   14  O2  UNL     1      -6.016  38.487   5.240  1.00  0.00    -0.294 OA
BRANCH  14  15
HETATM   15  C11 UNL     1      -5.443  38.376   6.510  1.00  0.00     0.061 C 
HETATM   16  C12 UNL     1      -4.787  39.674   6.955  1.00  0.00     0.046 C 
HETATM   17  C13 UNL     1      -6.574  38.078   7.487  1.00  0.00     0.046 C 
HETATM   18  C14 UNL     1      -4.405  37.298   6.603  1.00  0.00     0.046 C 
ENDBRANCH  14  15
ENDBRANCH  11  14
ENDBRANCH   9  10
BRANCH   9  19
HETATM   19  C15 UNL     1      -6.340  36.160   1.333  1.00  0.00     0.241 C 
HETATM   20  O3  UNL     1      -5.958  36.165   0.107  1.00  0.00    -0.271 OA
HETATM   21  N2  UNL     1      -7.728  36.162   1.523  1.00  0.00    -0.347 N 
ATOM     22  H2  UNL     1      -8.090  36.163   2.476  1.00  0.00     0.163 HD
BRANCH  21  23
HETATM   23  C16 UNL     1      -8.677  36.160   0.413  1.00  0.00     0.165 C 
BRANCH  23  24
HETATM   24  C17 UNL     1      -9.271  34.859   0.073  1.00  0.00     0.038 C 
BRANCH  24  25
HETATM   25  C18 UNL     1     -10.254  34.238   1.029  1.00  0.00    -0.012 C 
HETATM   26  C19 UNL     1      -9.491  33.043   1.647  1.00  0.00     0.005 C 
HETATM   27  C20 UNL     1     -10.356  32.268   2.579  1.00  0.00     0.000 C 
HETATM   28  C21 UNL     1     -11.424  31.598   1.730  1.00  0.00     0.000 C 
HETATM   29  C22 UNL     1     -12.232  32.661   1.077  1.00  0.00     0.000 C 
HETATM   30  C23 UNL     1     -11.424  33.685   0.298  1.00  0.00     0.005 C 
ENDBRANCH  24  25
ENDBRANCH  23  24
BRANCH  23  31
HETATM   31  C24 UNL     1      -9.765  37.137   0.797  1.00  0.00     0.238 C 
HETATM   32  O4  UNL     1     -10.531  37.520  -0.130  1.00  0.00    -0.285 OA
BRANCH  31  33
HETATM   33  C25 UNL     1      -9.966  37.636   2.136  1.00  0.00     0.289 C 
HETATM   34  O5  UNL     1      -9.170  38.397   2.719  1.00  0.00    -0.264 OA
HETATM   35  N3  UNL     1     -11.122  37.258   2.855  1.00  0.00    -0.351 N 
ATOM     36  H3  UNL     1     -11.793  36.636   2.402  1.00  0.00     0.163 HD
BRANCH  35  37
HETATM   37  C26 UNL     1     -11.403  37.712   4.207  1.00  0.00     0.150 C 
BRANCH  37  38
HETATM   38  C27 UNL     1     -11.188  36.626   5.196  1.00  0.00    -0.005 C 
HETATM   39  C28 UNL     1     -12.066  36.295   6.131  1.00  0.00    -0.090 C 
HETATM   40  C29 UNL     1     -11.802  35.206   7.091  1.00  0.00     0.042 C 
HETATM   41  C30 UNL     1     -13.342  37.080   6.165  1.00  0.00     0.042 C 
ENDBRANCH  37  38
ENDBRANCH  35  37
ENDBRANCH  31  33
ENDBRANCH  23  31
ENDBRANCH  21  23
ENDBRANCH   9  19
ENDBRANCH   8   9
ENDBRANCH   7   8
ENDBRANCH   6   7
ENDBRANCH   5   6
ENDBRANCH   4   5
TORSDOF 16
ENDMDL
