MODEL 1
REMARK VINA RESULT: -8.343550394      0.000      0.000
REMARK  16 active torsions:
REMARK  status: ('A' for Active; 'I' for Inactive)
REMARK    1  A    between atoms: C2_2  and  O1_3 
REMARK    2  A    between atoms: O1_3  and  C3_4 
REMARK    3  A    between atoms: C3_4  and  C4_6 
REMARK    4  A    between atoms: C4_6  and  C5_7 
REMARK    5  A    between atoms: C5_7  and  C6_8 
REMARK    6  A    between atoms: C6_8  and  N1_9 
REMARK    7  A    between atoms: C6_8  and  C18_23 
REMARK       I    between atoms: N1_9  and  C7_11 
REMARK    8  A    between atoms: C7_11  and  C8_13 
REMARK    9  A    between atoms: C8_13  and  C9_14 
REMARK   10  A    between atoms: C18_23  and  O4_24 
REMARK   11  A    between atoms: C18_23  and  N2_26 
REMARK   12  A    between atoms: N2_26  and  C19_28 
REMARK   13  A    between atoms: C19_28  and  C20_29 
REMARK   14  A    between atoms: C19_28  and  C24_33 
REMARK   15  A    between atoms: C20_29  and  C21_30 
REMARK       I    between atoms: C24_33  and  N3_35 
REMARK   16  A    between atoms: N3_35  and  C25_37 
ROOT
HETATM    1  C6  UNL     1     -10.308  30.843  -1.296  1.00  0.00     0.160 C 
ENDROOT
BRANCH   1   2
HETATM    2  C5  UNL     1     -11.122  31.224  -0.037  1.00  0.00     0.043 C 
BRANCH   2   3
HETATM    3  C4  UNL     1     -10.346  31.853   1.050  1.00  0.00     0.113 C 
BRANCH   3   4
HETATM    4  C3  UNL     1     -11.159  31.620   2.309  1.00  0.00     0.258 C 
HETATM    5  O2  UNL     1     -11.353  30.412   2.729  1.00  0.00    -0.265 OA
BRANCH   4   6
HETATM    6  O1  UNL     1     -11.695  32.628   3.041  1.00  0.00    -0.322 OA
BRANCH   6   7
HETATM    7  C2  UNL     1     -11.497  33.974   2.618  1.00  0.00     0.174 C 
HETATM    8  C1  UNL     1     -10.880  34.806   3.736  1.00  0.00     0.034 C 
ENDBRANCH   6   7
ENDBRANCH   4   6
ENDBRANCH   3   4
ENDBRANCH   2   3
ENDBRANCH   1   2
BRANCH   1   9
HETATM    9  N1  UNL     1      -8.879  31.086  -0.911  1.00  0.00    -0.346 N 
HETATM   10  C7  UNL     1      -8.180  32.247  -1.359  1.00  0.00     0.238 C 
HETATM   11  O3  UNL     1      -8.851  33.071  -2.041  1.00  0.00    -0.269 OA
ATOM     12  H1  UNL     1      -8.398  30.409  -0.318  1.00  0.00     0.163 HD
BRANCH  10  13
HETATM   13  C8  UNL     1      -6.792  32.339  -0.986  1.00  0.00     0.057 C 
BRANCH  13  14
HETATM   14  C9  UNL     1      -6.281  33.225   0.043  1.00  0.00    -0.013 C 
HETATM   15  C10 UNL     1      -6.326  34.669  -0.542  1.00  0.00     0.019 C 
HETATM   16  C11 UNL     1      -6.120  35.643   0.564  1.00  0.00    -0.013 C 
HETATM   17  C12 UNL     1      -7.352  35.663   1.441  1.00  0.00     0.005 C 
HETATM   18  C16 UNL     1      -4.969  35.194   1.470  1.00  0.00     0.010 C 
HETATM   19  C13 UNL     1      -7.579  34.270   1.952  1.00  0.00     0.006 C 
HETATM   20  C14 UNL     1      -6.594  33.252   1.451  1.00  0.00     0.002 C 
HETATM   21  C15 UNL     1      -5.152  33.734   1.703  1.00  0.00    -0.008 C 
HETATM   22  C17 UNL     1      -4.812  32.968   0.446  1.00  0.00     0.019 C 
ENDBRANCH  13  14
ENDBRANCH  10  13
ENDBRANCH   1   9
BRANCH   1  23
HETATM   23  C18 UNL     1     -10.431  29.425  -1.585  1.00  0.00     0.139 C 
BRANCH  23  24
HETATM   24  O4  UNL     1     -10.026  28.588  -0.667  1.00  0.00    -0.348 OA
ATOM     25  H4  UNL     1     -10.440  27.733  -0.643  1.00  0.00     0.219 HD
ENDBRANCH  23  24
BRANCH  23  26
HETATM   26  N2  UNL     1     -10.920  28.777  -2.741  1.00  0.00    -0.338 N 
ATOM     27  H2  UNL     1     -10.237  28.345  -3.363  1.00  0.00     0.167 HD
BRANCH  26  28
HETATM   28  C19 UNL     1     -12.311  28.682  -3.108  1.00  0.00     0.079 C 
BRANCH  28  29
HETATM   29  C20 UNL     1     -13.220  28.305  -2.042  1.00  0.00     0.067 C 
BRANCH  29  30
HETATM   30  C21 UNL     1     -14.315  27.316  -2.287  1.00  0.00    -0.017 C 
HETATM   31  C22 UNL     1     -14.215  26.345  -1.088  1.00  0.00     0.010 C 
HETATM   32  C23 UNL     1     -14.166  26.487  -3.523  1.00  0.00     0.010 C 
ENDBRANCH  29  30
ENDBRANCH  28  29
BRANCH  28  33
HETATM   33  C24 UNL     1     -12.788  29.613  -4.102  1.00  0.00     0.264 C 
HETATM   34  O5  UNL     1     -12.034  29.951  -5.049  1.00  0.00    -0.266 OA
HETATM   35  N3  UNL     1     -14.074  30.166  -4.074  1.00  0.00    -0.351 N 
ATOM     36  H3  UNL     1     -14.663  29.914  -3.280  1.00  0.00     0.163 HD
BRANCH  35  37
HETATM   37  C25 UNL     1     -14.659  31.067  -5.064  1.00  0.00     0.084 C 
HETATM   38  C26 UNL     1     -15.006  30.284  -6.317  1.00  0.00     0.025 C 
HETATM   39  C27 UNL     1     -15.423  31.220  -7.396  1.00  0.00     0.002 C 
HETATM   40  C28 UNL     1     -15.690  32.629  -6.993  1.00  0.00     0.000 C 
HETATM   41  C29 UNL     1     -16.270  32.806  -5.636  1.00  0.00     0.002 C 
HETATM   42  C30 UNL     1     -15.880  31.787  -4.611  1.00  0.00     0.025 C 
ENDBRANCH  35  37
ENDBRANCH  28  33
ENDBRANCH  26  28
ENDBRANCH  23  26
ENDBRANCH   1  23
TORSDOF 16
ENDMDL
MODEL 2
REMARK VINA RESULT: -8.230149340      2.099      8.786
REMARK  16 active torsions:
REMARK  status: ('A' for Active; 'I' for Inactive)
REMARK    1  A    between atoms: C2_2  and  O1_3 
REMARK    2  A    between atoms: O1_3  and  C3_4 
REMARK    3  A    between atoms: C3_4  and  C4_6 
REMARK    4  A    between atoms: C4_6  and  C5_7 
REMARK    5  A    between atoms: C5_7  and  C6_8 
REMARK    6  A    between atoms: C6_8  and  N1_9 
REMARK    7  A    between atoms: C6_8  and  C18_23 
REMARK       I    between atoms: N1_9  and  C7_11 
REMARK    8  A    between atoms: C7_11  and  C8_13 
REMARK    9  A    between atoms: C8_13  and  C9_14 
REMARK   10  A    between atoms: C18_23  and  O4_24 
REMARK   11  A    between atoms: C18_23  and  N2_26 
REMARK   12  A    between atoms: N2_26  and  C19_28 
REMARK   13  A    between atoms: C19_28  and  C20_29 
REMARK   14  A    between atoms: C19_28  and  C24_33 
REMARK   15  A    between atoms: C20_29  and  C21_30 
REMARK       I    between atoms: C24_33  and  N3_35 
REMARK   16  A    between atoms: N3_35  and  C25_37 
ROOT
HETATM    1  C6  UNL     1      -9.213  31.083  -0.800  1.00  0.00     0.160 C 
ENDROOT
BRANCH   1   2
HETATM    2  C5  UNL     1     -10.226  32.030  -0.114  1.00  0.00     0.043 C 
BRANCH   2   3
HETATM    3  C4  UNL     1     -10.115  32.116   1.356  1.00  0.00     0.113 C 
BRANCH   3   4
HETATM    4  C3  UNL     1     -11.391  31.495   1.891  1.00  0.00     0.258 C 
HETATM    5  O2  UNL     1     -11.320  30.536   2.757  1.00  0.00    -0.265 OA
BRANCH   4   6
HETATM    6  O1  UNL     1     -12.628  31.904   1.515  1.00  0.00    -0.322 OA
BRANCH   6   7
HETATM    7  C2  UNL     1     -13.143  33.125   2.038  1.00  0.00     0.174 C 
HETATM    8  C1  UNL     1     -13.171  34.204   0.961  1.00  0.00     0.034 C 
ENDBRANCH   6   7
ENDBRANCH   4   6
ENDBRANCH   3   4
ENDBRANCH   2   3
ENDBRANCH   1   2
BRANCH   1   9
HETATM    9  N1  UNL     1      -9.894  30.653  -2.065  1.00  0.00    -0.346 N 
HETATM   10  C7  UNL     1     -10.437  29.340  -2.202  1.00  0.00     0.238 C 
HETATM   11  O3  UNL     1     -10.360  28.597  -1.184  1.00  0.00    -0.269 OA
ATOM     12  H1  UNL     1      -9.970  31.310  -2.841  1.00  0.00     0.163 HD
BRANCH  10  13
HETATM   13  C8  UNL     1     -11.003  29.015  -3.486  1.00  0.00     0.057 C 
BRANCH  13  14
HETATM   14  C9  UNL     1     -12.413  28.761  -3.715  1.00  0.00    -0.013 C 
HETATM   15  C10 UNL     1     -12.522  27.326  -4.312  1.00  0.00     0.019 C 
HETATM   16  C11 UNL     1     -13.945  26.892  -4.270  1.00  0.00    -0.013 C 
HETATM   17  C12 UNL     1     -14.336  26.622  -2.834  1.00  0.00     0.005 C 
HETATM   18  C16 UNL     1     -14.865  28.019  -4.750  1.00  0.00     0.010 C 
HETATM   19  C13 UNL     1     -14.105  27.881  -2.048  1.00  0.00     0.006 C 
HETATM   20  C14 UNL     1     -13.533  29.019  -2.843  1.00  0.00     0.002 C 
HETATM   21  C15 UNL     1     -14.382  29.271  -4.104  1.00  0.00    -0.008 C 
HETATM   22  C17 UNL     1     -13.082  29.706  -4.738  1.00  0.00     0.019 C 
ENDBRANCH  13  14
ENDBRANCH  10  13
ENDBRANCH   1   9
BRANCH   1  23
HETATM   23  C18 UNL     1      -8.013  31.800  -1.190  1.00  0.00     0.139 C 
BRANCH  23  24
HETATM   24  O4  UNL     1      -8.018  32.388  -2.357  1.00  0.00    -0.348 OA
ATOM     25  H4  UNL     1      -8.307  31.875  -3.103  1.00  0.00     0.219 HD
ENDBRANCH  23  24
BRANCH  23  26
HETATM   26  N2  UNL     1      -6.791  31.962  -0.500  1.00  0.00    -0.338 N 
ATOM     27  H2  UNL     1      -6.032  31.322  -0.730  1.00  0.00     0.167 HD
BRANCH  26  28
HETATM   28  C19 UNL     1      -6.538  32.964   0.506  1.00  0.00     0.079 C 
BRANCH  28  29
HETATM   29  C20 UNL     1      -5.299  32.816   1.245  1.00  0.00     0.067 C 
BRANCH  29  30
HETATM   30  C21 UNL     1      -4.265  33.897   1.225  1.00  0.00    -0.017 C 
HETATM   31  C22 UNL     1      -2.930  33.140   1.418  1.00  0.00     0.010 C 
HETATM   32  C23 UNL     1      -4.357  34.895   2.335  1.00  0.00     0.010 C 
ENDBRANCH  29  30
ENDBRANCH  28  29
BRANCH  28  33
HETATM   33  C24 UNL     1      -6.997  34.303   0.222  1.00  0.00     0.264 C 
HETATM   34  O5  UNL     1      -6.580  34.898  -0.804  1.00  0.00    -0.266 OA
HETATM   35  N3  UNL     1      -7.906  34.987   1.039  1.00  0.00    -0.351 N 
ATOM     36  H3  UNL     1      -8.207  34.508   1.888  1.00  0.00     0.163 HD
BRANCH  35  37
HETATM   37  C25 UNL     1      -8.467  36.314   0.801  1.00  0.00     0.084 C 
HETATM   38  C26 UNL     1      -9.979  36.214   0.709  1.00  0.00     0.025 C 
HETATM   39  C27 UNL     1     -10.545  37.521   0.279  1.00  0.00     0.002 C 
HETATM   40  C28 UNL     1      -9.620  38.689   0.300  1.00  0.00     0.000 C 
HETATM   41  C29 UNL     1      -8.601  38.678   1.382  1.00  0.00     0.002 C 
HETATM   42  C30 UNL     1      -8.128  37.331   1.832  1.00  0.00     0.025 C 
ENDBRANCH  35  37
ENDBRANCH  28  33
ENDBRANCH  26  28
ENDBRANCH  23  26
ENDBRANCH   1  23
TORSDOF 16
ENDMDL
MODEL 3
REMARK VINA RESULT: -8.207297867      1.200      3.698
REMARK  16 active torsions:
REMARK  status: ('A' for Active; 'I' for Inactive)
REMARK    1  A    between atoms: C2_2  and  O1_3 
REMARK    2  A    between atoms: O1_3  and  C3_4 
REMARK    3  A    between atoms: C3_4  and  C4_6 
REMARK    4  A    between atoms: C4_6  and  C5_7 
REMARK    5  A    between atoms: C5_7  and  C6_8 
REMARK    6  A    between atoms: C6_8  and  N1_9 
REMARK    7  A    between atoms: C6_8  and  C18_23 
REMARK       I    between atoms: N1_9  and  C7_11 
REMARK    8  A    between atoms: C7_11  and  C8_13 
REMARK    9  A    between atoms: C8_13  and  C9_14 
REMARK   10  A    between atoms: C18_23  and  O4_24 
REMARK   11  A    between atoms: C18_23  and  N2_26 
REMARK   12  A    between atoms: N2_26  and  C19_28 
REMARK   13  A    between atoms: C19_28  and  C20_29 
REMARK   14  A    between atoms: C19_28  and  C24_33 
REMARK   15  A    between atoms: C20_29  and  C21_30 
REMARK       I    between atoms: C24_33  and  N3_35 
REMARK   16  A    between atoms: N3_35  and  C25_37 
ROOT
HETATM    1  C6  UNL     1     -10.294  31.060  -1.299  1.00  0.00     0.160 C 
ENDROOT
BRANCH   1   2
HETATM    2  C5  UNL     1     -11.081  31.279   0.014  1.00  0.00     0.043 C 
BRANCH   2   3
HETATM    3  C4  UNL     1     -10.315  31.895   1.115  1.00  0.00     0.113 C 
BRANCH   3   4
HETATM    4  C3  UNL     1     -11.153  31.673   2.359  1.00  0.00     0.258 C 
HETATM    5  O2  UNL     1     -11.350  30.470   2.791  1.00  0.00    -0.265 OA
BRANCH   4   6
HETATM    6  O1  UNL     1     -11.710  32.687   3.067  1.00  0.00    -0.322 OA
BRANCH   6   7
HETATM    7  C2  UNL     1     -11.480  34.030   2.652  1.00  0.00     0.174 C 
HETATM    8  C1  UNL     1     -10.669  34.787   3.697  1.00  0.00     0.034 C 
ENDBRANCH   6   7
ENDBRANCH   4   6
ENDBRANCH   3   4
ENDBRANCH   2   3
ENDBRANCH   1   2
BRANCH   1   9
HETATM    9  N1  UNL     1      -8.855  31.226  -0.910  1.00  0.00    -0.346 N 
HETATM   10  C7  UNL     1      -8.092  32.345  -1.362  1.00  0.00     0.238 C 
HETATM   11  O3  UNL     1      -8.714  33.201  -2.050  1.00  0.00    -0.269 OA
ATOM     12  H1  UNL     1      -8.414  30.527  -0.312  1.00  0.00     0.163 HD
BRANCH  10  13
HETATM   13  C8  UNL     1      -6.702  32.363  -0.984  1.00  0.00     0.057 C 
BRANCH  13  14
HETATM   14  C9  UNL     1      -6.153  33.200   0.066  1.00  0.00    -0.013 C 
HETATM   15  C10 UNL     1      -6.249  34.672  -0.436  1.00  0.00     0.019 C 
HETATM   16  C11 UNL     1      -6.002  35.590   0.709  1.00  0.00    -0.013 C 
HETATM   17  C12 UNL     1      -7.189  35.541   1.646  1.00  0.00     0.005 C 
HETATM   18  C16 UNL     1      -4.800  35.112   1.531  1.00  0.00     0.010 C 
HETATM   19  C13 UNL     1      -7.368  34.118   2.091  1.00  0.00     0.006 C 
HETATM   20  C14 UNL     1      -6.395  33.146   1.487  1.00  0.00     0.002 C 
HETATM   21  C15 UNL     1      -4.949  33.639   1.693  1.00  0.00    -0.008 C 
HETATM   22  C17 UNL     1      -4.662  32.948   0.380  1.00  0.00     0.019 C 
ENDBRANCH  13  14
ENDBRANCH  10  13
ENDBRANCH   1   9
BRANCH   1  23
HETATM   23  C18 UNL     1     -10.447  29.697  -1.776  1.00  0.00     0.139 C 
BRANCH  23  24
HETATM   24  O4  UNL     1     -10.108  28.734  -0.960  1.00  0.00    -0.348 OA
ATOM     25  H4  UNL     1     -10.724  28.509  -0.273  1.00  0.00     0.219 HD
ENDBRANCH  23  24
BRANCH  23  26
HETATM   26  N2  UNL     1     -10.902  29.222  -3.026  1.00  0.00    -0.338 N 
ATOM     27  H2  UNL     1     -10.199  28.937  -3.707  1.00  0.00     0.167 HD
BRANCH  26  28
HETATM   28  C19 UNL     1     -12.288  29.110  -3.411  1.00  0.00     0.079 C 
BRANCH  28  29
HETATM   29  C20 UNL     1     -12.701  29.943  -4.524  1.00  0.00     0.067 C 
BRANCH  29  30
HETATM   30  C21 UNL     1     -14.110  29.900  -5.026  1.00  0.00    -0.017 C 
HETATM   31  C22 UNL     1     -14.070  30.742  -6.322  1.00  0.00     0.010 C 
HETATM   32  C23 UNL     1     -15.129  30.534  -4.134  1.00  0.00     0.010 C 
ENDBRANCH  29  30
ENDBRANCH  28  29
BRANCH  28  33
HETATM   33  C24 UNL     1     -12.897  27.809  -3.280  1.00  0.00     0.264 C 
HETATM   34  O5  UNL     1     -12.589  26.895  -4.086  1.00  0.00    -0.266 OA
HETATM   35  N3  UNL     1     -13.826  27.499  -2.279  1.00  0.00    -0.351 N 
ATOM     36  H3  UNL     1     -14.097  28.260  -1.655  1.00  0.00     0.163 HD
BRANCH  35  37
HETATM   37  C25 UNL     1     -14.448  26.200  -2.037  1.00  0.00     0.084 C 
HETATM   38  C26 UNL     1     -14.213  25.789  -0.594  1.00  0.00     0.025 C 
HETATM   39  C27 UNL     1     -14.674  24.389  -0.388  1.00  0.00     0.002 C 
HETATM   40  C28 UNL     1     -15.494  23.788  -1.477  1.00  0.00     0.000 C 
HETATM   41  C29 UNL     1     -16.388  24.731  -2.199  1.00  0.00     0.002 C 
HETATM   42  C30 UNL     1     -15.911  26.146  -2.304  1.00  0.00     0.025 C 
ENDBRANCH  35  37
ENDBRANCH  28  33
ENDBRANCH  26  28
ENDBRANCH  23  26
ENDBRANCH   1  23
TORSDOF 16
ENDMDL
MODEL 4
REMARK VINA RESULT: -8.111170187      1.990      4.233
REMARK  16 active torsions:
REMARK  status: ('A' for Active; 'I' for Inactive)
REMARK    1  A    between atoms: C2_2  and  O1_3 
REMARK    2  A    between atoms: O1_3  and  C3_4 
REMARK    3  A    between atoms: C3_4  and  C4_6 
REMARK    4  A    between atoms: C4_6  and  C5_7 
REMARK    5  A    between atoms: C5_7  and  C6_8 
REMARK    6  A    between atoms: C6_8  and  N1_9 
REMARK    7  A    between atoms: C6_8  and  C18_23 
REMARK       I    between atoms: N1_9  and  C7_11 
REMARK    8  A    between atoms: C7_11  and  C8_13 
REMARK    9  A    between atoms: C8_13  and  C9_14 
REMARK   10  A    between atoms: C18_23  and  O4_24 
REMARK   11  A    between atoms: C18_23  and  N2_26 
REMARK   12  A    between atoms: N2_26  and  C19_28 
REMARK   13  A    between atoms: C19_28  and  C20_29 
REMARK   14  A    between atoms: C19_28  and  C24_33 
REMARK   15  A    between atoms: C20_29  and  C21_30 
REMARK       I    between atoms: C24_33  and  N3_35 
REMARK   16  A    between atoms: N3_35  and  C25_37 
ROOT
HETATM    1  C6  UNL     1     -11.563  32.627   1.496  1.00  0.00     0.160 C 
ENDROOT
BRANCH   1   2
HETATM    2  C5  UNL     1     -12.915  32.951   2.173  1.00  0.00     0.043 C 
BRANCH   2   3
HETATM    3  C4  UNL     1     -13.356  34.356   2.065  1.00  0.00     0.113 C 
BRANCH   3   4
HETATM    4  C3  UNL     1     -13.447  34.858   3.493  1.00  0.00     0.258 C 
HETATM    5  O2  UNL     1     -14.285  35.799   3.787  1.00  0.00    -0.265 OA
BRANCH   4   6
HETATM    6  O1  UNL     1     -12.693  34.358   4.503  1.00  0.00    -0.322 OA
BRANCH   6   7
HETATM    7  C2  UNL     1     -12.425  35.175   5.639  1.00  0.00     0.174 C 
HETATM    8  C1  UNL     1     -10.977  35.652   5.632  1.00  0.00     0.034 C 
ENDBRANCH   6   7
ENDBRANCH   4   6
ENDBRANCH   3   4
ENDBRANCH   2   3
ENDBRANCH   1   2
BRANCH   1   9
HETATM    9  N1  UNL     1     -10.539  33.323   2.343  1.00  0.00    -0.346 N 
HETATM   10  C7  UNL     1      -9.784  34.422   1.834  1.00  0.00     0.238 C 
HETATM   11  O3  UNL     1     -10.071  34.801   0.664  1.00  0.00    -0.269 OA
ATOM     12  H1  UNL     1     -10.381  33.006   3.299  1.00  0.00     0.163 HD
BRANCH  10  13
HETATM   13  C8  UNL     1      -8.779  34.967   2.712  1.00  0.00     0.057 C 
BRANCH  13  14
HETATM   14  C9  UNL     1      -7.393  35.172   2.336  1.00  0.00    -0.013 C 
HETATM   15  C10 UNL     1      -6.761  33.758   2.159  1.00  0.00     0.019 C 
HETATM   16  C11 UNL     1      -5.448  33.900   1.473  1.00  0.00    -0.013 C 
HETATM   17  C12 UNL     1      -5.685  34.278   0.027  1.00  0.00     0.005 C 
HETATM   18  C16 UNL     1      -4.645  35.055   2.080  1.00  0.00     0.010 C 
HETATM   19  C13 UNL     1      -6.474  35.555   0.006  1.00  0.00     0.006 C 
HETATM   20  C14 UNL     1      -6.844  36.084   1.363  1.00  0.00     0.002 C 
HETATM   21  C15 UNL     1      -5.592  36.191   2.255  1.00  0.00    -0.008 C 
HETATM   22  C17 UNL     1      -6.537  35.899   3.397  1.00  0.00     0.019 C 
ENDBRANCH  13  14
ENDBRANCH  10  13
ENDBRANCH   1   9
BRANCH   1  23
HETATM   23  C18 UNL     1     -11.273  31.206   1.567  1.00  0.00     0.139 C 
BRANCH  23  24
HETATM   24  O4  UNL     1     -11.425  30.621   2.725  1.00  0.00    -0.348 OA
ATOM     25  H4  UNL     1     -11.205  29.698   2.779  1.00  0.00     0.219 HD
ENDBRANCH  23  24
BRANCH  23  26
HETATM   26  N2  UNL     1     -10.824  30.323   0.560  1.00  0.00    -0.338 N 
ATOM     27  H2  UNL     1     -10.366  29.462   0.859  1.00  0.00     0.167 HD
BRANCH  26  28
HETATM   28  C19 UNL     1     -10.964  30.548  -0.857  1.00  0.00     0.079 C 
BRANCH  28  29
HETATM   29  C20 UNL     1      -9.761  30.964  -1.551  1.00  0.00     0.067 C 
BRANCH  29  30
HETATM   30  C21 UNL     1      -8.751  31.835  -0.871  1.00  0.00    -0.017 C 
HETATM   31  C22 UNL     1      -8.603  33.045  -1.823  1.00  0.00     0.010 C 
HETATM   32  C23 UNL     1      -7.388  31.240  -0.719  1.00  0.00     0.010 C 
ENDBRANCH  29  30
ENDBRANCH  28  29
BRANCH  28  33
HETATM   33  C24 UNL     1     -11.888  29.694  -1.564  1.00  0.00     0.264 C 
HETATM   34  O5  UNL     1     -12.311  28.646  -1.013  1.00  0.00    -0.266 OA
HETATM   35  N3  UNL     1     -12.355  29.977  -2.853  1.00  0.00    -0.351 N 
ATOM     36  H3  UNL     1     -11.975  30.809  -3.305  1.00  0.00     0.163 HD
BRANCH  35  37
HETATM   37  C25 UNL     1     -13.330  29.204  -3.619  1.00  0.00     0.084 C 
HETATM   38  C26 UNL     1     -13.701  29.965  -4.879  1.00  0.00     0.025 C 
HETATM   39  C27 UNL     1     -14.829  29.281  -5.567  1.00  0.00     0.002 C 
HETATM   40  C28 UNL     1     -15.171  27.912  -5.090  1.00  0.00     0.000 C 
HETATM   41  C29 UNL     1     -14.023  27.092  -4.622  1.00  0.00     0.002 C 
HETATM   42  C30 UNL     1     -12.879  27.842  -4.012  1.00  0.00     0.025 C 
ENDBRANCH  35  37
ENDBRANCH  28  33
ENDBRANCH  26  28
ENDBRANCH  23  26
ENDBRANCH   1  23
TORSDOF 16
ENDMDL
MODEL 5
REMARK VINA RESULT: -8.107301861      2.174      7.331
REMARK  16 active torsions:
REMARK  status: ('A' for Active; 'I' for Inactive)
REMARK    1  A    between atoms: C2_2  and  O1_3 
REMARK    2  A    between atoms: O1_3  and  C3_4 
REMARK    3  A    between atoms: C3_4  and  C4_6 
REMARK    4  A    between atoms: C4_6  and  C5_7 
REMARK    5  A    between atoms: C5_7  and  C6_8 
REMARK    6  A    between atoms: C6_8  and  N1_9 
REMARK    7  A    between atoms: C6_8  and  C18_23 
REMARK       I    between atoms: N1_9  and  C7_11 
REMARK    8  A    between atoms: C7_11  and  C8_13 
REMARK    9  A    between atoms: C8_13  and  C9_14 
REMARK   10  A    between atoms: C18_23  and  O4_24 
REMARK   11  A    between atoms: C18_23  and  N2_26 
REMARK   12  A    between atoms: N2_26  and  C19_28 
REMARK   13  A    between atoms: C19_28  and  C20_29 
REMARK   14  A    between atoms: C19_28  and  C24_33 
REMARK   15  A    between atoms: C20_29  and  C21_30 
REMARK       I    between atoms: C24_33  and  N3_35 
REMARK   16  A    between atoms: N3_35  and  C25_37 
ROOT
HETATM    1  C6  UNL     1      -9.807  30.791  -0.832  1.00  0.00     0.160 C 
ENDROOT
BRANCH   1   2
HETATM    2  C5  UNL     1     -10.405  30.568  -2.241  1.00  0.00     0.043 C 
BRANCH   2   3
HETATM    3  C4  UNL     1     -10.693  29.162  -2.590  1.00  0.00     0.113 C 
BRANCH   3   4
HETATM    4  C3  UNL     1     -12.166  28.968  -2.287  1.00  0.00     0.258 C 
HETATM    5  O2  UNL     1     -12.522  28.443  -1.159  1.00  0.00    -0.265 OA
BRANCH   4   6
HETATM    6  O1  UNL     1     -13.152  29.331  -3.144  1.00  0.00    -0.322 OA
BRANCH   6   7
HETATM    7  C2  UNL     1     -12.992  29.070  -4.535  1.00  0.00     0.174 C 
HETATM    8  C1  UNL     1     -13.604  30.191  -5.368  1.00  0.00     0.034 C 
ENDBRANCH   6   7
ENDBRANCH   4   6
ENDBRANCH   3   4
ENDBRANCH   2   3
ENDBRANCH   1   2
BRANCH   1   9
HETATM    9  N1  UNL     1      -8.811  31.898  -1.015  1.00  0.00    -0.346 N 
HETATM   10  C7  UNL     1      -7.423  31.694  -0.751  1.00  0.00     0.238 C 
HETATM   11  O3  UNL     1      -7.087  30.524  -0.416  1.00  0.00    -0.269 OA
ATOM     12  H1  UNL     1      -9.132  32.812  -1.333  1.00  0.00     0.163 HD
BRANCH  10  13
HETATM   13  C8  UNL     1      -6.571  32.847  -0.891  1.00  0.00     0.057 C 
BRANCH  13  14
HETATM   14  C9  UNL     1      -6.044  33.612   0.224  1.00  0.00    -0.013 C 
HETATM   15  C10 UNL     1      -6.153  35.116  -0.171  1.00  0.00     0.019 C 
HETATM   16  C11 UNL     1      -5.929  35.950   1.041  1.00  0.00    -0.013 C 
HETATM   17  C12 UNL     1      -7.126  35.819   1.958  1.00  0.00     0.005 C 
HETATM   18  C16 UNL     1      -4.731  35.428   1.840  1.00  0.00     0.010 C 
HETATM   19  C13 UNL     1      -7.292  34.365   2.295  1.00  0.00     0.006 C 
HETATM   20  C14 UNL     1      -6.301  33.451   1.634  1.00  0.00     0.002 C 
HETATM   21  C15 UNL     1      -4.864  33.945   1.892  1.00  0.00    -0.008 C 
HETATM   22  C17 UNL     1      -4.554  33.354   0.536  1.00  0.00     0.019 C 
ENDBRANCH  13  14
ENDBRANCH  10  13
ENDBRANCH   1   9
BRANCH   1  23
HETATM   23  C18 UNL     1     -10.816  31.279   0.090  1.00  0.00     0.139 C 
BRANCH  23  24
HETATM   24  O4  UNL     1     -11.370  30.407   0.890  1.00  0.00    -0.348 OA
ATOM     25  H4  UNL     1     -11.901  29.726   0.492  1.00  0.00     0.219 HD
ENDBRANCH  23  24
BRANCH  23  26
HETATM   26  N2  UNL     1     -11.327  32.584   0.263  1.00  0.00    -0.338 N 
ATOM     27  H2  UNL     1     -12.169  32.833  -0.257  1.00  0.00     0.167 HD
BRANCH  26  28
HETATM   28  C19 UNL     1     -10.749  33.591   1.118  1.00  0.00     0.079 C 
BRANCH  28  29
HETATM   29  C20 UNL     1     -10.444  34.858   0.483  1.00  0.00     0.067 C 
BRANCH  29  30
HETATM   30  C21 UNL     1     -11.508  35.625  -0.238  1.00  0.00    -0.017 C 
HETATM   31  C22 UNL     1     -11.102  37.104  -0.036  1.00  0.00     0.010 C 
HETATM   32  C23 UNL     1     -12.890  35.481   0.316  1.00  0.00     0.010 C 
ENDBRANCH  29  30
ENDBRANCH  28  29
BRANCH  28  33
HETATM   33  C24 UNL     1     -11.196  33.615   2.490  1.00  0.00     0.264 C 
HETATM   34  O5  UNL     1     -11.675  32.574   3.006  1.00  0.00    -0.266 OA
HETATM   35  N3  UNL     1     -11.118  34.756   3.298  1.00  0.00    -0.351 N 
ATOM     36  H3  UNL     1     -10.763  35.605   2.857  1.00  0.00     0.163 HD
BRANCH  35  37
HETATM   37  C25 UNL     1     -11.491  34.857   4.706  1.00  0.00     0.084 C 
HETATM   38  C26 UNL     1     -10.730  36.002   5.350  1.00  0.00     0.025 C 
HETATM   39  C27 UNL     1     -10.956  35.994   6.820  1.00  0.00     0.002 C 
HETATM   40  C28 UNL     1     -12.044  35.109   7.325  1.00  0.00     0.000 C 
HETATM   41  C29 UNL     1     -13.218  34.964   6.425  1.00  0.00     0.002 C 
HETATM   42  C30 UNL     1     -12.943  35.063   4.956  1.00  0.00     0.025 C 
ENDBRANCH  35  37
ENDBRANCH  28  33
ENDBRANCH  26  28
ENDBRANCH  23  26
ENDBRANCH   1  23
TORSDOF 16
ENDMDL
