MODEL 1
REMARK VINA RESULT: -7.192231308      0.000      0.000
REMARK  14 active torsions:
REMARK  status: ('A' for Active; 'I' for Inactive)
REMARK    1  A    between atoms: C2_2  and  C3_3 
REMARK    2  A    between atoms: C3_3  and  C4_4 
REMARK    3  A    between atoms: C4_4  and  C5_5 
REMARK    4  A    between atoms: C5_5  and  N1_6 
REMARK    5  A    between atoms: C5_5  and  C12_23 
REMARK       I    between atoms: N1_6  and  C6_8 
REMARK    6  A    between atoms: C6_8  and  C7_10 
REMARK    7  A    between atoms: C7_10  and  N2_11 
REMARK    8  A    between atoms: C7_10  and  C8_15 
REMARK    9  A    between atoms: C8_15  and  C10_17 
REMARK   10  A    between atoms: C10_17  and  C11_18 
REMARK   11  A    between atoms: C11_18  and  N3_19 
REMARK   12  A    between atoms: C12_23  and  O2_24 
REMARK   13  A    between atoms: C12_23  and  N4_26 
REMARK   14  A    between atoms: C16_30  and  C17_31 
REMARK       I    between atoms: C17_31  and  N5_33 
ROOT
HETATM    1  C5  UNL     1     -13.013  45.776  -1.392  1.00  0.00     0.159 C 
ENDROOT
BRANCH   1   2
HETATM    2  C4  UNL     1     -11.774  45.499  -2.145  1.00  0.00     0.033 C 
BRANCH   2   3
HETATM    3  C3  UNL     1     -11.838  43.995  -2.529  1.00  0.00     0.002 C 
BRANCH   3   4
HETATM    4  C2  UNL     1     -11.687  43.250  -1.203  1.00  0.00    -0.004 C 
HETATM    5  C1  UNL     1     -11.182  41.856  -1.394  1.00  0.00     0.005 C 
ENDBRANCH   3   4
ENDBRANCH   2   3
ENDBRANCH   1   2
BRANCH   1   6
HETATM    6  N1  UNL     1     -14.181  45.922  -2.280  1.00  0.00    -0.347 N 
HETATM    7  C6  UNL     1     -15.249  44.989  -2.244  1.00  0.00     0.249 C 
HETATM    8  O1  UNL     1     -15.182  44.028  -1.437  1.00  0.00    -0.271 OA
ATOM      9  H1  UNL     1     -14.222  46.707  -2.930  1.00  0.00     0.163 HD
BRANCH   7  10
HETATM   10  C7  UNL     1     -16.439  45.084  -3.106  1.00  0.00     0.278 C 
BRANCH  10  11
HETATM   11  N2  UNL     1     -17.355  46.116  -2.683  1.00  0.00    -0.066 N 
ATOM     12  H23 UNL     1     -17.137  46.433  -1.739  1.00  0.00     0.275 HD
ATOM     13  H22 UNL     1     -17.188  46.984  -3.192  1.00  0.00     0.275 HD
ATOM     14  H21 UNL     1     -18.333  45.832  -2.756  1.00  0.00     0.275 HD
ENDBRANCH  10  11
BRANCH  10  15
HETATM   15  C8  UNL     1     -16.108  45.234  -4.572  1.00  0.00     0.023 C 
HETATM   16  C9  UNL     1     -16.116  43.859  -5.202  1.00  0.00     0.012 C 
BRANCH  15  17
HETATM   17  C10 UNL     1     -17.062  46.177  -5.269  1.00  0.00     0.034 C 
BRANCH  17  18
HETATM   18  C11 UNL     1     -16.328  47.298  -5.965  1.00  0.00     0.230 C 
BRANCH  18  19
HETATM   19  N3  UNL     1     -16.266  48.489  -5.118  1.00  0.00    -0.079 N 
ATOM     20  H33 UNL     1     -15.890  48.275  -4.193  1.00  0.00     0.274 HD
ATOM     21  H32 UNL     1     -15.545  49.137  -5.431  1.00  0.00     0.274 HD
ATOM     22  H31 UNL     1     -17.178  48.941  -5.057  1.00  0.00     0.274 HD
ENDBRANCH  18  19
ENDBRANCH  17  18
ENDBRANCH  15  17
ENDBRANCH  10  15
ENDBRANCH   7  10
ENDBRANCH   1   6
BRANCH   1  23
HETATM   23  C12 UNL     1     -13.038  46.877  -0.446  1.00  0.00     0.137 C 
BRANCH  23  24
HETATM   24  O2  UNL     1     -14.001  47.729  -0.699  1.00  0.00    -0.348 OA
ATOM     25  H2  UNL     1     -13.720  48.631  -0.603  1.00  0.00     0.219 HD
ENDBRANCH  23  24
BRANCH  23  26
HETATM   26  N4  UNL     1     -12.256  47.206   0.656  1.00  0.00    -0.350 N 
HETATM   27  C13 UNL     1     -12.506  47.876   1.901  1.00  0.00     0.126 C 
HETATM   28  C14 UNL     1     -11.373  48.896   1.906  1.00  0.00     0.022 C 
HETATM   29  C15 UNL     1     -10.202  47.975   1.603  1.00  0.00     0.037 C 
HETATM   30  C16 UNL     1     -10.791  46.886   0.764  1.00  0.00     0.178 C 
BRANCH  30  31
HETATM   31  C17 UNL     1     -10.620  45.589   1.435  1.00  0.00     0.243 C 
HETATM   32  O3  UNL     1     -11.503  45.093   2.213  1.00  0.00    -0.271 OA
HETATM   33  N5  UNL     1      -9.451  44.831   1.234  1.00  0.00    -0.345 N 
HETATM   34  C18 UNL     1      -9.260  43.551   1.921  1.00  0.00     0.131 C 
HETATM   35  C23 UNL     1      -8.421  45.271   0.349  1.00  0.00     0.087 C 
HETATM   36  C19 UNL     1      -7.795  43.407   2.165  1.00  0.00     0.004 C 
HETATM   37  C20 UNL     1      -7.058  42.793   1.006  1.00  0.00     0.006 C 
HETATM   38  C25 UNL     1      -7.192  44.779   2.407  1.00  0.00     0.008 C 
HETATM   39  C21 UNL     1      -7.815  42.896  -0.285  1.00  0.00     0.002 C 
HETATM   40  C22 UNL     1      -8.095  44.280  -0.747  1.00  0.00     0.025 C 
HETATM   41  C24 UNL     1      -7.123  45.571   1.113  1.00  0.00     0.026 C 
ENDBRANCH  30  31
ENDBRANCH  23  26
ENDBRANCH   1  23
TORSDOF 14
ENDMDL
MODEL 2
REMARK VINA RESULT: -7.133935171      1.439      1.703
REMARK  14 active torsions:
REMARK  status: ('A' for Active; 'I' for Inactive)
REMARK    1  A    between atoms: C2_2  and  C3_3 
REMARK    2  A    between atoms: C3_3  and  C4_4 
REMARK    3  A    between atoms: C4_4  and  C5_5 
REMARK    4  A    between atoms: C5_5  and  N1_6 
REMARK    5  A    between atoms: C5_5  and  C12_23 
REMARK       I    between atoms: N1_6  and  C6_8 
REMARK    6  A    between atoms: C6_8  and  C7_10 
REMARK    7  A    between atoms: C7_10  and  N2_11 
REMARK    8  A    between atoms: C7_10  and  C8_15 
REMARK    9  A    between atoms: C8_15  and  C10_17 
REMARK   10  A    between atoms: C10_17  and  C11_18 
REMARK   11  A    between atoms: C11_18  and  N3_19 
REMARK   12  A    between atoms: C12_23  and  O2_24 
REMARK   13  A    between atoms: C12_23  and  N4_26 
REMARK   14  A    between atoms: C16_30  and  C17_31 
REMARK       I    between atoms: C17_31  and  N5_33 
ROOT
HETATM    1  C5  UNL     1     -14.306  45.176  -1.794  1.00  0.00     0.159 C 
ENDROOT
BRANCH   1   2
HETATM    2  C4  UNL     1     -13.218  44.508  -2.535  1.00  0.00     0.033 C 
BRANCH   2   3
HETATM    3  C3  UNL     1     -12.968  43.163  -1.800  1.00  0.00     0.002 C 
BRANCH   3   4
HETATM    4  C2  UNL     1     -11.452  42.971  -1.845  1.00  0.00    -0.004 C 
HETATM    5  C1  UNL     1     -11.044  41.597  -1.422  1.00  0.00     0.005 C 
ENDBRANCH   3   4
ENDBRANCH   2   3
ENDBRANCH   1   2
BRANCH   1   6
HETATM    6  N1  UNL     1     -15.029  46.152  -2.629  1.00  0.00    -0.347 N 
HETATM    7  C6  UNL     1     -16.447  46.174  -2.667  1.00  0.00     0.249 C 
HETATM    8  O1  UNL     1     -17.081  45.341  -1.971  1.00  0.00    -0.271 OA
ATOM      9  H1  UNL     1     -14.502  46.822  -3.189  1.00  0.00     0.163 HD
BRANCH   7  10
HETATM   10  C7  UNL     1     -17.223  47.124  -3.482  1.00  0.00     0.278 C 
BRANCH  10  11
HETATM   11  N2  UNL     1     -16.735  48.478  -3.379  1.00  0.00    -0.066 N 
ATOM     12  H23 UNL     1     -16.175  48.601  -2.535  1.00  0.00     0.275 HD
ATOM     13  H22 UNL     1     -16.018  48.663  -4.081  1.00  0.00     0.275 HD
ATOM     14  H21 UNL     1     -17.481  49.173  -3.427  1.00  0.00     0.275 HD
ENDBRANCH  10  11
BRANCH  10  15
HETATM   15  C8  UNL     1     -17.346  46.711  -4.930  1.00  0.00     0.023 C 
HETATM   16  C9  UNL     1     -18.732  47.077  -5.410  1.00  0.00     0.012 C 
BRANCH  15  17
HETATM   17  C10 UNL     1     -16.270  47.340  -5.786  1.00  0.00     0.034 C 
BRANCH  17  18
HETATM   18  C11 UNL     1     -16.860  48.183  -6.891  1.00  0.00     0.230 C 
BRANCH  18  19
HETATM   19  N3  UNL     1     -15.852  48.499  -7.903  1.00  0.00    -0.079 N 
ATOM     20  H33 UNL     1     -16.064  49.374  -8.386  1.00  0.00     0.274 HD
ATOM     21  H32 UNL     1     -14.965  48.767  -7.480  1.00  0.00     0.274 HD
ATOM     22  H31 UNL     1     -15.739  47.726  -8.558  1.00  0.00     0.274 HD
ENDBRANCH  18  19
ENDBRANCH  17  18
ENDBRANCH  15  17
ENDBRANCH  10  15
ENDBRANCH   7  10
ENDBRANCH   1   6
BRANCH   1  23
HETATM   23  C12 UNL     1     -14.011  45.816  -0.523  1.00  0.00     0.137 C 
BRANCH  23  24
HETATM   24  O2  UNL     1     -14.923  45.565   0.383  1.00  0.00    -0.348 OA
ATOM     25  H2  UNL     1     -14.571  45.588   1.265  1.00  0.00     0.219 HD
ENDBRANCH  23  24
BRANCH  23  26
HETATM   26  N4  UNL     1     -12.974  46.631  -0.084  1.00  0.00    -0.350 N 
HETATM   27  C13 UNL     1     -12.907  47.878   0.624  1.00  0.00     0.126 C 
HETATM   28  C14 UNL     1     -11.962  48.665  -0.276  1.00  0.00     0.022 C 
HETATM   29  C15 UNL     1     -10.838  47.650  -0.412  1.00  0.00     0.037 C 
HETATM   30  C16 UNL     1     -11.520  46.323  -0.307  1.00  0.00     0.178 C 
BRANCH  30  31
HETATM   31  C17 UNL     1     -10.993  45.578   0.845  1.00  0.00     0.243 C 
HETATM   32  O3  UNL     1     -11.683  45.355   1.897  1.00  0.00    -0.271 OA
HETATM   33  N5  UNL     1      -9.680  45.072   0.827  1.00  0.00    -0.345 N 
HETATM   34  C18 UNL     1      -9.137  44.354   1.984  1.00  0.00     0.131 C 
HETATM   35  C23 UNL     1      -8.837  45.226  -0.315  1.00  0.00     0.087 C 
HETATM   36  C19 UNL     1      -7.674  44.646   2.024  1.00  0.00     0.004 C 
HETATM   37  C20 UNL     1      -6.858  43.710   1.174  1.00  0.00     0.006 C 
HETATM   38  C25 UNL     1      -7.431  46.053   1.509  1.00  0.00     0.008 C 
HETATM   39  C21 UNL     1      -7.674  43.020   0.121  1.00  0.00     0.002 C 
HETATM   40  C22 UNL     1      -8.319  43.917  -0.871  1.00  0.00     0.025 C 
HETATM   41  C24 UNL     1      -7.626  46.114   0.003  1.00  0.00     0.026 C 
ENDBRANCH  30  31
ENDBRANCH  23  26
ENDBRANCH   1  23
TORSDOF 14
ENDMDL
MODEL 3
REMARK VINA RESULT: -7.055951567      1.369      1.723
REMARK  14 active torsions:
REMARK  status: ('A' for Active; 'I' for Inactive)
REMARK    1  A    between atoms: C2_2  and  C3_3 
REMARK    2  A    between atoms: C3_3  and  C4_4 
REMARK    3  A    between atoms: C4_4  and  C5_5 
REMARK    4  A    between atoms: C5_5  and  N1_6 
REMARK    5  A    between atoms: C5_5  and  C12_23 
REMARK       I    between atoms: N1_6  and  C6_8 
REMARK    6  A    between atoms: C6_8  and  C7_10 
REMARK    7  A    between atoms: C7_10  and  N2_11 
REMARK    8  A    between atoms: C7_10  and  C8_15 
REMARK    9  A    between atoms: C8_15  and  C10_17 
REMARK   10  A    between atoms: C10_17  and  C11_18 
REMARK   11  A    between atoms: C11_18  and  N3_19 
REMARK   12  A    between atoms: C12_23  and  O2_24 
REMARK   13  A    between atoms: C12_23  and  N4_26 
REMARK   14  A    between atoms: C16_30  and  C17_31 
REMARK       I    between atoms: C17_31  and  N5_33 
ROOT
HETATM    1  C5  UNL     1     -13.555  44.418  -2.020  1.00  0.00     0.159 C 
ENDROOT
BRANCH   1   2
HETATM    2  C4  UNL     1     -12.216  43.842  -2.252  1.00  0.00     0.033 C 
BRANCH   2   3
HETATM    3  C3  UNL     1     -12.231  42.446  -1.571  1.00  0.00     0.002 C 
BRANCH   3   4
HETATM    4  C2  UNL     1     -10.848  42.310  -0.936  1.00  0.00    -0.004 C 
HETATM    5  C1  UNL     1     -10.106  41.118  -1.449  1.00  0.00     0.005 C 
ENDBRANCH   3   4
ENDBRANCH   2   3
ENDBRANCH   1   2
BRANCH   1   6
HETATM    6  N1  UNL     1     -14.121  45.019  -3.241  1.00  0.00    -0.347 N 
HETATM    7  C6  UNL     1     -15.420  44.673  -3.694  1.00  0.00     0.249 C 
HETATM    8  O1  UNL     1     -16.086  43.838  -3.031  1.00  0.00    -0.271 OA
ATOM      9  H1  UNL     1     -13.569  45.695  -3.770  1.00  0.00     0.163 HD
BRANCH   7  10
HETATM   10  C7  UNL     1     -16.036  45.240  -4.905  1.00  0.00     0.278 C 
BRANCH  10  11
HETATM   11  N2  UNL     1     -17.257  44.569  -5.279  1.00  0.00    -0.066 N 
ATOM     12  H23 UNL     1     -17.166  44.131  -6.196  1.00  0.00     0.275 HD
ATOM     13  H22 UNL     1     -17.403  43.734  -4.711  1.00  0.00     0.275 HD
ATOM     14  H21 UNL     1     -18.072  45.181  -5.246  1.00  0.00     0.275 HD
ENDBRANCH  10  11
BRANCH  10  15
HETATM   15  C8  UNL     1     -16.251  46.733  -4.825  1.00  0.00     0.023 C 
HETATM   16  C9  UNL     1     -16.179  47.298  -6.226  1.00  0.00     0.012 C 
BRANCH  15  17
HETATM   17  C10 UNL     1     -17.560  47.075  -4.149  1.00  0.00     0.034 C 
BRANCH  17  18
HETATM   18  C11 UNL     1     -17.794  48.566  -4.110  1.00  0.00     0.230 C 
BRANCH  18  19
HETATM   19  N3  UNL     1     -16.839  49.223  -3.217  1.00  0.00    -0.079 N 
ATOM     20  H33 UNL     1     -16.169  49.793  -3.735  1.00  0.00     0.274 HD
ATOM     21  H32 UNL     1     -17.281  49.962  -2.671  1.00  0.00     0.274 HD
ATOM     22  H31 UNL     1     -16.371  48.542  -2.619  1.00  0.00     0.274 HD
ENDBRANCH  18  19
ENDBRANCH  17  18
ENDBRANCH  15  17
ENDBRANCH  10  15
ENDBRANCH   7  10
ENDBRANCH   1   6
BRANCH   1  23
HETATM   23  C12 UNL     1     -13.742  45.365  -0.935  1.00  0.00     0.137 C 
BRANCH  23  24
HETATM   24  O2  UNL     1     -14.956  45.325  -0.443  1.00  0.00    -0.348 OA
ATOM     25  H2  UNL     1     -15.486  46.060  -0.728  1.00  0.00     0.219 HD
ENDBRANCH  23  24
BRANCH  23  26
HETATM   26  N4  UNL     1     -12.906  46.293  -0.325  1.00  0.00    -0.350 N 
HETATM   27  C13 UNL     1     -13.121  47.490   0.439  1.00  0.00     0.126 C 
HETATM   28  C14 UNL     1     -12.200  48.461  -0.291  1.00  0.00     0.022 C 
HETATM   29  C15 UNL     1     -10.926  47.631  -0.317  1.00  0.00     0.037 C 
HETATM   30  C16 UNL     1     -11.405  46.215  -0.362  1.00  0.00     0.178 C 
BRANCH  30  31
HETATM   31  C17 UNL     1     -10.922  45.484   0.818  1.00  0.00     0.243 C 
HETATM   32  O3  UNL     1     -11.676  45.196   1.808  1.00  0.00    -0.271 OA
HETATM   33  N5  UNL     1      -9.581  45.065   0.897  1.00  0.00    -0.345 N 
HETATM   34  C18 UNL     1      -9.084  44.362   2.083  1.00  0.00     0.131 C 
HETATM   35  C23 UNL     1      -8.663  45.295  -0.173  1.00  0.00     0.087 C 
HETATM   36  C19 UNL     1      -7.650  44.747   2.243  1.00  0.00     0.004 C 
HETATM   37  C20 UNL     1      -6.711  43.883   1.447  1.00  0.00     0.006 C 
HETATM   38  C25 UNL     1      -7.462  46.177   1.768  1.00  0.00     0.008 C 
HETATM   39  C21 UNL     1      -7.395  43.161   0.324  1.00  0.00     0.002 C 
HETATM   40  C22 UNL     1      -8.018  44.033  -0.704  1.00  0.00     0.025 C 
HETATM   41  C24 UNL     1      -7.542  46.253   0.253  1.00  0.00     0.026 C 
ENDBRANCH  30  31
ENDBRANCH  23  26
ENDBRANCH   1  23
TORSDOF 14
ENDMDL
MODEL 4
REMARK VINA RESULT: -7.008443790      2.260      3.660
REMARK  14 active torsions:
REMARK  status: ('A' for Active; 'I' for Inactive)
REMARK    1  A    between atoms: C2_2  and  C3_3 
REMARK    2  A    between atoms: C3_3  and  C4_4 
REMARK    3  A    between atoms: C4_4  and  C5_5 
REMARK    4  A    between atoms: C5_5  and  N1_6 
REMARK    5  A    between atoms: C5_5  and  C12_23 
REMARK       I    between atoms: N1_6  and  C6_8 
REMARK    6  A    between atoms: C6_8  and  C7_10 
REMARK    7  A    between atoms: C7_10  and  N2_11 
REMARK    8  A    between atoms: C7_10  and  C8_15 
REMARK    9  A    between atoms: C8_15  and  C10_17 
REMARK   10  A    between atoms: C10_17  and  C11_18 
REMARK   11  A    between atoms: C11_18  and  N3_19 
REMARK   12  A    between atoms: C12_23  and  O2_24 
REMARK   13  A    between atoms: C12_23  and  N4_26 
REMARK   14  A    between atoms: C16_30  and  C17_31 
REMARK       I    between atoms: C17_31  and  N5_33 
ROOT
HETATM    1  C5  UNL     1     -10.472  44.338  -0.037  1.00  0.00     0.159 C 
ENDROOT
BRANCH   1   2
HETATM    2  C4  UNL     1      -9.749  43.835  -1.221  1.00  0.00     0.033 C 
BRANCH   2   3
HETATM    3  C3  UNL     1      -8.674  42.854  -0.677  1.00  0.00     0.002 C 
BRANCH   3   4
HETATM    4  C2  UNL     1      -9.446  41.577  -0.349  1.00  0.00    -0.004 C 
HETATM    5  C1  UNL     1      -8.613  40.595   0.411  1.00  0.00     0.005 C 
ENDBRANCH   3   4
ENDBRANCH   2   3
ENDBRANCH   1   2
BRANCH   1   6
HETATM    6  N1  UNL     1     -11.710  45.051  -0.403  1.00  0.00    -0.347 N 
HETATM    7  C6  UNL     1     -12.814  44.359  -0.965  1.00  0.00     0.249 C 
HETATM    8  O1  UNL     1     -12.718  43.119  -1.147  1.00  0.00    -0.271 OA
ATOM      9  H1  UNL     1     -11.774  46.057  -0.250  1.00  0.00     0.163 HD
BRANCH   7  10
HETATM   10  C7  UNL     1     -14.073  45.017  -1.350  1.00  0.00     0.278 C 
BRANCH  10  11
HETATM   11  N2  UNL     1     -13.924  46.439  -1.547  1.00  0.00    -0.066 N 
ATOM     12  H23 UNL     1     -14.833  46.900  -1.581  1.00  0.00     0.275 HD
ATOM     13  H22 UNL     1     -13.543  46.886  -0.713  1.00  0.00     0.275 HD
ATOM     14  H21 UNL     1     -13.367  46.668  -2.371  1.00  0.00     0.275 HD
ENDBRANCH  10  11
BRANCH  10  15
HETATM   15  C8  UNL     1     -14.742  44.380  -2.545  1.00  0.00     0.023 C 
HETATM   16  C9  UNL     1     -16.062  43.798  -2.095  1.00  0.00     0.012 C 
BRANCH  15  17
HETATM   17  C10 UNL     1     -14.920  45.365  -3.679  1.00  0.00     0.034 C 
BRANCH  17  18
HETATM   18  C11 UNL     1     -15.812  44.811  -4.764  1.00  0.00     0.230 C 
BRANCH  18  19
HETATM   19  N3  UNL     1     -16.251  45.870  -5.673  1.00  0.00    -0.079 N 
ATOM     20  H33 UNL     1     -16.753  46.608  -5.177  1.00  0.00     0.274 HD
ATOM     21  H32 UNL     1     -15.465  46.421  -6.016  1.00  0.00     0.274 HD
ATOM     22  H31 UNL     1     -16.805  45.487  -6.438  1.00  0.00     0.274 HD
ENDBRANCH  18  19
ENDBRANCH  17  18
ENDBRANCH  15  17
ENDBRANCH  10  15
ENDBRANCH   7  10
ENDBRANCH   1   6
BRANCH   1  23
HETATM   23  C12 UNL     1      -9.764  45.154   0.934  1.00  0.00     0.137 C 
BRANCH  23  24
HETATM   24  O2  UNL     1      -9.915  44.713   2.159  1.00  0.00    -0.348 OA
ATOM     25  H2  UNL     1      -9.729  43.785   2.234  1.00  0.00     0.219 HD
ENDBRANCH  23  24
BRANCH  23  26
HETATM   26  N4  UNL     1      -8.973  46.292   0.827  1.00  0.00    -0.350 N 
HETATM   27  C13 UNL     1      -9.242  47.685   0.609  1.00  0.00     0.126 C 
HETATM   28  C14 UNL     1      -8.279  47.985  -0.534  1.00  0.00     0.022 C 
HETATM   29  C15 UNL     1      -7.003  47.399   0.051  1.00  0.00     0.037 C 
HETATM   30  C16 UNL     1      -7.473  46.277   0.921  1.00  0.00     0.178 C 
BRANCH  30  31
HETATM   31  C17 UNL     1      -7.066  46.518   2.313  1.00  0.00     0.243 C 
HETATM   32  O3  UNL     1      -7.182  47.658   2.878  1.00  0.00    -0.271 OA
HETATM   33  N5  UNL     1      -6.525  45.475   3.088  1.00  0.00    -0.345 N 
HETATM   34  C18 UNL     1      -6.090  45.714   4.467  1.00  0.00     0.131 C 
HETATM   35  C23 UNL     1      -6.394  44.151   2.569  1.00  0.00     0.087 C 
HETATM   36  C19 UNL     1      -4.938  44.799   4.720  1.00  0.00     0.004 C 
HETATM   37  C20 UNL     1      -5.358  43.431   5.184  1.00  0.00     0.006 C 
HETATM   38  C25 UNL     1      -4.152  44.618   3.434  1.00  0.00     0.008 C 
HETATM   39  C21 UNL     1      -6.785  43.113   4.845  1.00  0.00     0.002 C 
HETATM   40  C22 UNL     1      -7.103  43.100   3.395  1.00  0.00     0.025 C 
HETATM   41  C24 UNL     1      -4.918  43.743   2.456  1.00  0.00     0.026 C 
ENDBRANCH  30  31
ENDBRANCH  23  26
ENDBRANCH   1  23
TORSDOF 14
ENDMDL
MODEL 5
REMARK VINA RESULT: -6.938695344      2.192      7.289
REMARK  14 active torsions:
REMARK  status: ('A' for Active; 'I' for Inactive)
REMARK    1  A    between atoms: C2_2  and  C3_3 
REMARK    2  A    between atoms: C3_3  and  C4_4 
REMARK    3  A    between atoms: C4_4  and  C5_5 
REMARK    4  A    between atoms: C5_5  and  N1_6 
REMARK    5  A    between atoms: C5_5  and  C12_23 
REMARK       I    between atoms: N1_6  and  C6_8 
REMARK    6  A    between atoms: C6_8  and  C7_10 
REMARK    7  A    between atoms: C7_10  and  N2_11 
REMARK    8  A    between atoms: C7_10  and  C8_15 
REMARK    9  A    between atoms: C8_15  and  C10_17 
REMARK   10  A    between atoms: C10_17  and  C11_18 
REMARK   11  A    between atoms: C11_18  and  N3_19 
REMARK   12  A    between atoms: C12_23  and  O2_24 
REMARK   13  A    between atoms: C12_23  and  N4_26 
REMARK   14  A    between atoms: C16_30  and  C17_31 
REMARK       I    between atoms: C17_31  and  N5_33 
ROOT
HETATM    1  C5  UNL     1     -10.872  43.342  -1.518  1.00  0.00     0.159 C 
ENDROOT
BRANCH   1   2
HETATM    2  C4  UNL     1     -11.229  41.913  -1.413  1.00  0.00     0.033 C 
BRANCH   2   3
HETATM    3  C3  UNL     1      -9.881  41.141  -1.387  1.00  0.00     0.002 C 
BRANCH   3   4
HETATM    4  C2  UNL     1      -9.639  40.832   0.091  1.00  0.00    -0.004 C 
HETATM    5  C1  UNL     1      -8.391  40.038   0.304  1.00  0.00     0.005 C 
ENDBRANCH   3   4
ENDBRANCH   2   3
ENDBRANCH   1   2
BRANCH   1   6
HETATM    6  N1  UNL     1     -10.405  43.894  -0.233  1.00  0.00    -0.347 N 
HETATM    7  C6  UNL     1      -9.050  44.272  -0.049  1.00  0.00     0.249 C 
HETATM    8  O1  UNL     1      -8.249  44.128  -1.007  1.00  0.00    -0.271 OA
ATOM      9  H1  UNL     1     -11.066  44.005   0.535  1.00  0.00     0.163 HD
BRANCH   7  10
HETATM   10  C7  UNL     1      -8.527  44.828   1.210  1.00  0.00     0.278 C 
BRANCH  10  11
HETATM   11  N2  UNL     1      -9.401  44.591   2.333  1.00  0.00    -0.066 N 
ATOM     12  H23 UNL     1      -9.479  45.423   2.917  1.00  0.00     0.275 HD
ATOM     13  H22 UNL     1     -10.372  44.511   2.028  1.00  0.00     0.275 HD
ATOM     14  H21 UNL     1      -9.124  43.781   2.887  1.00  0.00     0.275 HD
ENDBRANCH  10  11
BRANCH  10  15
HETATM   15  C8  UNL     1      -7.120  44.377   1.526  1.00  0.00     0.023 C 
HETATM   16  C9  UNL     1      -6.407  45.508   2.232  1.00  0.00     0.012 C 
BRANCH  15  17
HETATM   17  C10 UNL     1      -7.109  43.107   2.346  1.00  0.00     0.034 C 
BRANCH  17  18
HETATM   18  C11 UNL     1      -6.282  43.260   3.599  1.00  0.00     0.230 C 
BRANCH  18  19
HETATM   19  N3  UNL     1      -7.095  43.031   4.794  1.00  0.00    -0.079 N 
ATOM     20  H33 UNL     1      -8.092  43.020   4.576  1.00  0.00     0.274 HD
ATOM     21  H32 UNL     1      -7.001  42.075   5.136  1.00  0.00     0.274 HD
ATOM     22  H31 UNL     1      -6.876  43.713   5.520  1.00  0.00     0.274 HD
ENDBRANCH  18  19
ENDBRANCH  17  18
ENDBRANCH  15  17
ENDBRANCH  10  15
ENDBRANCH   7  10
ENDBRANCH   1   6
BRANCH   1  23
HETATM   23  C12 UNL     1     -11.836  44.275  -2.074  1.00  0.00     0.137 C 
BRANCH  23  24
HETATM   24  O2  UNL     1     -11.316  45.027  -3.013  1.00  0.00    -0.348 OA
ATOM     25  H2  UNL     1     -11.548  44.727  -3.885  1.00  0.00     0.219 HD
ENDBRANCH  23  24
BRANCH  23  26
HETATM   26  N4  UNL     1     -13.178  44.528  -1.813  1.00  0.00    -0.350 N 
HETATM   27  C13 UNL     1     -14.354  43.710  -1.717  1.00  0.00     0.126 C 
HETATM   28  C14 UNL     1     -15.304  44.469  -2.636  1.00  0.00     0.022 C 
HETATM   29  C15 UNL     1     -15.138  45.871  -2.070  1.00  0.00     0.037 C 
HETATM   30  C16 UNL     1     -13.733  45.901  -1.556  1.00  0.00     0.178 C 
BRANCH  30  31
HETATM   31  C17 UNL     1     -13.734  46.168  -0.111  1.00  0.00     0.243 C 
HETATM   32  O3  UNL     1     -14.508  45.558   0.703  1.00  0.00    -0.271 OA
HETATM   33  N5  UNL     1     -12.860  47.124   0.438  1.00  0.00    -0.345 N 
HETATM   34  C18 UNL     1     -12.875  47.417   1.874  1.00  0.00     0.131 C 
HETATM   35  C23 UNL     1     -11.922  47.830  -0.374  1.00  0.00     0.087 C 
HETATM   36  C19 UNL     1     -12.518  48.859   2.024  1.00  0.00     0.004 C 
HETATM   37  C20 UNL     1     -11.034  49.099   2.082  1.00  0.00     0.006 C 
HETATM   38  C25 UNL     1     -13.056  49.632   0.834  1.00  0.00     0.008 C 
HETATM   39  C21 UNL     1     -10.237  47.964   1.511  1.00  0.00     0.002 C 
HETATM   40  C22 UNL     1     -10.486  47.673   0.075  1.00  0.00     0.025 C 
HETATM   41  C24 UNL     1     -12.242  49.332  -0.413  1.00  0.00     0.026 C 
ENDBRANCH  30  31
ENDBRANCH  23  26
ENDBRANCH   1  23
TORSDOF 14
ENDMDL
