MODEL 1
REMARK VINA RESULT: -7.846450742      0.000      0.000
REMARK  10 active torsions:
REMARK  status: ('A' for Active; 'I' for Inactive)
REMARK    1  A    between atoms: C2_2  and  C3_3 
REMARK    2  A    between atoms: C3_3  and  N1_4 
REMARK    3  A    between atoms: C3_3  and  C16_20 
REMARK       I    between atoms: N1_4  and  C4_6 
REMARK    4  A    between atoms: C4_6  and  C5_8 
REMARK    5  A    between atoms: C5_8  and  N2_10 
REMARK    6  A    between atoms: C12_16  and  C13_17 
REMARK       I    between atoms: C16_20  and  N3_22 
REMARK    7  A    between atoms: N3_22  and  C17_24 
REMARK    8  A    between atoms: C17_24  and  C18_25 
REMARK    9  A    between atoms: C17_24  and  C25_32 
REMARK   10  A    between atoms: C18_25  and  C19_26 
REMARK       I    between atoms: C25_32  and  N4_34 
ROOT
HETATM    1  C3  UNL     1     -10.411  43.591  -1.352  1.00  0.00     0.199 C 
ENDROOT
BRANCH   1   2
HETATM    2  C2  UNL     1     -10.981  42.232  -1.551  1.00  0.00    -0.003 C 
HETATM    3  C1  UNL     1     -10.252  41.131  -1.484  1.00  0.00     0.009 C 
ENDBRANCH   1   2
BRANCH   1   4
HETATM    4  N1  UNL     1      -9.739  43.741  -0.101  1.00  0.00    -0.343 N 
HETATM    5  C4  UNL     1      -8.338  43.727   0.094  1.00  0.00     0.241 C 
HETATM    6  O1  UNL     1      -7.674  43.558  -0.995  1.00  0.00    -0.271 OA
ATOM      7  H1  UNL     1     -10.322  43.869   0.726  1.00  0.00     0.163 HD
BRANCH   5   8
HETATM    8  C5  UNL     1      -7.622  43.877   1.356  1.00  0.00     0.172 C 
HETATM    9  C6  UNL     1      -6.664  42.734   1.629  1.00  0.00     0.042 C 
BRANCH   8  10
HETATM   10  N2  UNL     1      -7.066  45.176   1.626  1.00  0.00    -0.375 N 
HETATM   11  C7  UNL     1      -5.974  45.095   2.497  1.00  0.00     0.064 C 
HETATM   12  C8  UNL     1      -6.090  45.635   3.870  1.00  0.00     0.020 C 
HETATM   13  C9  UNL     1      -4.721  46.088   4.419  1.00  0.00     0.015 C 
HETATM   14  C10 UNL     1      -7.129  46.671   4.107  1.00  0.00     0.011 C 
HETATM   15  C11 UNL     1      -8.282  46.640   3.184  1.00  0.00     0.026 C 
HETATM   16  C12 UNL     1      -8.011  46.222   1.791  1.00  0.00     0.087 C 
BRANCH  16  17
HETATM   17  C13 UNL     1      -7.769  47.365   0.827  1.00  0.00     0.000 C 
HETATM   18  C14 UNL     1      -9.106  47.962   0.366  1.00  0.00     0.011 C 
HETATM   19  C15 UNL     1      -7.027  47.004  -0.411  1.00  0.00     0.011 C 
ENDBRANCH  16  17
ENDBRANCH   8  10
ENDBRANCH   5   8
ENDBRANCH   1   4
BRANCH   1  20
HETATM   20  C16 UNL     1     -11.474  44.645  -1.564  1.00  0.00     0.244 C 
HETATM   21  O2  UNL     1     -11.057  45.824  -1.602  1.00  0.00    -0.271 OA
HETATM   22  N3  UNL     1     -12.787  44.215  -1.694  1.00  0.00    -0.346 N 
ATOM     23  H3  UNL     1     -12.942  43.208  -1.641  1.00  0.00     0.163 HD
BRANCH  22  24
HETATM   24  C17 UNL     1     -13.978  45.049  -1.900  1.00  0.00     0.177 C 
BRANCH  24  25
HETATM   25  C18 UNL     1     -15.099  44.076  -2.082  1.00  0.00     0.039 C 
BRANCH  25  26
HETATM   26  C19 UNL     1     -16.180  44.418  -3.035  1.00  0.00    -0.012 C 
HETATM   27  C20 UNL     1     -15.469  44.720  -4.376  1.00  0.00     0.005 C 
HETATM   28  C21 UNL     1     -16.105  45.881  -5.083  1.00  0.00     0.000 C 
HETATM   29  C22 UNL     1     -17.604  45.698  -5.071  1.00  0.00     0.000 C 
HETATM   30  C23 UNL     1     -18.067  45.848  -3.638  1.00  0.00     0.000 C 
HETATM   31  C24 UNL     1     -16.913  45.696  -2.672  1.00  0.00     0.005 C 
ENDBRANCH  25  26
ENDBRANCH  24  25
BRANCH  24  32
HETATM   32  C25 UNL     1     -14.159  45.977  -0.782  1.00  0.00     0.240 C 
HETATM   33  O3  UNL     1     -14.819  45.540   0.235  1.00  0.00    -0.271 OA
HETATM   34  N4  UNL     1     -13.702  47.299  -0.658  1.00  0.00    -0.364 N 
HETATM   35  C26 UNL     1     -13.962  48.117   0.516  1.00  0.00     0.149 C 
ATOM     36  H4  UNL     1     -13.164  47.702  -1.425  1.00  0.00     0.161 HD
ENDBRANCH  24  32
ENDBRANCH  22  24
ENDBRANCH   1  20
TORSDOF 10
ENDMDL
MODEL 2
REMARK VINA RESULT: -7.753582050      2.150      5.059
REMARK  10 active torsions:
REMARK  status: ('A' for Active; 'I' for Inactive)
REMARK    1  A    between atoms: C2_2  and  C3_3 
REMARK    2  A    between atoms: C3_3  and  N1_4 
REMARK    3  A    between atoms: C3_3  and  C16_20 
REMARK       I    between atoms: N1_4  and  C4_6 
REMARK    4  A    between atoms: C4_6  and  C5_8 
REMARK    5  A    between atoms: C5_8  and  N2_10 
REMARK    6  A    between atoms: C12_16  and  C13_17 
REMARK       I    between atoms: C16_20  and  N3_22 
REMARK    7  A    between atoms: N3_22  and  C17_24 
REMARK    8  A    between atoms: C17_24  and  C18_25 
REMARK    9  A    between atoms: C17_24  and  C25_32 
REMARK   10  A    between atoms: C18_25  and  C19_26 
REMARK       I    between atoms: C25_32  and  N4_34 
ROOT
HETATM    1  C3  UNL     1     -13.196  47.543   1.032  1.00  0.00     0.199 C 
ENDROOT
BRANCH   1   2
HETATM    2  C2  UNL     1     -13.637  48.836   0.443  1.00  0.00    -0.003 C 
HETATM    3  C1  UNL     1     -12.790  49.750   0.003  1.00  0.00     0.009 C 
ENDBRANCH   1   2
BRANCH   1   4
HETATM    4  N1  UNL     1     -11.786  47.478   1.251  1.00  0.00    -0.343 N 
HETATM    5  C4  UNL     1     -11.128  47.709   2.483  1.00  0.00     0.241 C 
HETATM    6  O1  UNL     1     -11.932  48.002   3.443  1.00  0.00    -0.271 OA
ATOM      7  H1  UNL     1     -11.202  47.245   0.449  1.00  0.00     0.163 HD
BRANCH   5   8
HETATM    8  C5  UNL     1      -9.693  47.650   2.738  1.00  0.00     0.172 C 
HETATM    9  C6  UNL     1      -9.365  47.406   4.198  1.00  0.00     0.042 C 
BRANCH   8  10
HETATM   10  N2  UNL     1      -8.913  46.855   1.829  1.00  0.00    -0.375 N 
HETATM   11  C7  UNL     1      -8.829  45.525   2.254  1.00  0.00     0.064 C 
HETATM   12  C8  UNL     1      -7.532  44.988   2.727  1.00  0.00     0.020 C 
HETATM   13  C9  UNL     1      -7.432  43.465   2.497  1.00  0.00     0.015 C 
HETATM   14  C10 UNL     1      -6.301  45.679   2.264  1.00  0.00     0.011 C 
HETATM   15  C11 UNL     1      -6.467  47.102   1.902  1.00  0.00     0.026 C 
HETATM   16  C12 UNL     1      -7.760  47.490   1.297  1.00  0.00     0.087 C 
BRANCH  16  17
HETATM   17  C13 UNL     1      -7.767  47.508  -0.217  1.00  0.00     0.000 C 
HETATM   18  C14 UNL     1      -6.414  48.002  -0.747  1.00  0.00     0.011 C 
HETATM   19  C15 UNL     1      -8.799  48.380  -0.836  1.00  0.00     0.011 C 
ENDBRANCH  16  17
ENDBRANCH   8  10
ENDBRANCH   5   8
ENDBRANCH   1   4
BRANCH   1  20
HETATM   20  C16 UNL     1     -13.704  46.385   0.204  1.00  0.00     0.244 C 
HETATM   21  O2  UNL     1     -14.566  45.668   0.759  1.00  0.00    -0.271 OA
HETATM   22  N3  UNL     1     -13.177  46.227  -1.070  1.00  0.00    -0.346 N 
ATOM     23  H3  UNL     1     -12.480  46.914  -1.361  1.00  0.00     0.163 HD
BRANCH  22  24
HETATM   24  C17 UNL     1     -13.511  45.183  -2.046  1.00  0.00     0.177 C 
BRANCH  24  25
HETATM   25  C18 UNL     1     -12.941  43.926  -1.470  1.00  0.00     0.039 C 
BRANCH  25  26
HETATM   26  C19 UNL     1     -11.490  43.674  -1.627  1.00  0.00    -0.012 C 
HETATM   27  C20 UNL     1     -11.320  42.141  -1.497  1.00  0.00     0.005 C 
HETATM   28  C21 UNL     1     -10.085  41.792  -0.720  1.00  0.00     0.000 C 
HETATM   29  C22 UNL     1      -8.932  42.617  -1.239  1.00  0.00     0.000 C 
HETATM   30  C23 UNL     1      -9.201  44.059  -0.864  1.00  0.00     0.000 C 
HETATM   31  C24 UNL     1     -10.656  44.267  -0.508  1.00  0.00     0.005 C 
ENDBRANCH  25  26
ENDBRANCH  24  25
BRANCH  24  32
HETATM   32  C25 UNL     1     -14.956  45.138  -2.281  1.00  0.00     0.240 C 
HETATM   33  O3  UNL     1     -15.564  44.047  -1.965  1.00  0.00    -0.271 OA
HETATM   34  N4  UNL     1     -15.788  46.138  -2.810  1.00  0.00    -0.364 N 
HETATM   35  C26 UNL     1     -17.218  45.957  -2.998  1.00  0.00     0.149 C 
ATOM     36  H4  UNL     1     -15.370  47.031  -3.072  1.00  0.00     0.161 HD
ENDBRANCH  24  32
ENDBRANCH  22  24
ENDBRANCH   1  20
TORSDOF 10
ENDMDL
MODEL 3
REMARK VINA RESULT: -7.655138763      1.483      3.970
REMARK  10 active torsions:
REMARK  status: ('A' for Active; 'I' for Inactive)
REMARK    1  A    between atoms: C2_2  and  C3_3 
REMARK    2  A    between atoms: C3_3  and  N1_4 
REMARK    3  A    between atoms: C3_3  and  C16_20 
REMARK       I    between atoms: N1_4  and  C4_6 
REMARK    4  A    between atoms: C4_6  and  C5_8 
REMARK    5  A    between atoms: C5_8  and  N2_10 
REMARK    6  A    between atoms: C12_16  and  C13_17 
REMARK       I    between atoms: C16_20  and  N3_22 
REMARK    7  A    between atoms: N3_22  and  C17_24 
REMARK    8  A    between atoms: C17_24  and  C18_25 
REMARK    9  A    between atoms: C17_24  and  C25_32 
REMARK   10  A    between atoms: C18_25  and  C19_26 
REMARK       I    between atoms: C25_32  and  N4_34 
ROOT
HETATM    1  C3  UNL     1     -10.552  43.636  -1.165  1.00  0.00     0.199 C 
ENDROOT
BRANCH   1   2
HETATM    2  C2  UNL     1     -11.126  42.305  -1.500  1.00  0.00    -0.003 C 
HETATM    3  C1  UNL     1     -10.413  41.192  -1.492  1.00  0.00     0.009 C 
ENDBRANCH   1   2
BRANCH   1   4
HETATM    4  N1  UNL     1      -9.835  43.642   0.070  1.00  0.00    -0.343 N 
HETATM    5  C4  UNL     1      -8.427  43.594   0.211  1.00  0.00     0.241 C 
HETATM    6  O1  UNL     1      -7.805  43.538  -0.912  1.00  0.00    -0.271 OA
ATOM      7  H1  UNL     1     -10.387  43.684   0.927  1.00  0.00     0.163 HD
BRANCH   5   8
HETATM    8  C5  UNL     1      -7.667  43.599   1.456  1.00  0.00     0.172 C 
HETATM    9  C6  UNL     1      -6.911  42.305   1.689  1.00  0.00     0.042 C 
BRANCH   8  10
HETATM   10  N2  UNL     1      -6.891  44.779   1.727  1.00  0.00    -0.375 N 
HETATM   11  C7  UNL     1      -5.707  44.470   2.405  1.00  0.00     0.064 C 
HETATM   12  C8  UNL     1      -5.539  44.889   3.816  1.00  0.00     0.020 C 
HETATM   13  C9  UNL     1      -4.052  45.100   4.171  1.00  0.00     0.015 C 
HETATM   14  C10 UNL     1      -6.367  46.030   4.288  1.00  0.00     0.011 C 
HETATM   15  C11 UNL     1      -7.635  46.241   3.560  1.00  0.00     0.026 C 
HETATM   16  C12 UNL     1      -7.636  45.923   2.115  1.00  0.00     0.087 C 
BRANCH  16  17
HETATM   17  C13 UNL     1      -7.372  47.108   1.210  1.00  0.00     0.000 C 
HETATM   18  C14 UNL     1      -7.809  48.409   1.898  1.00  0.00     0.011 C 
HETATM   19  C15 UNL     1      -8.076  47.075  -0.100  1.00  0.00     0.011 C 
ENDBRANCH  16  17
ENDBRANCH   8  10
ENDBRANCH   5   8
ENDBRANCH   1   4
BRANCH   1  20
HETATM   20  C16 UNL     1     -11.623  44.701  -1.214  1.00  0.00     0.244 C 
HETATM   21  O2  UNL     1     -11.498  45.543  -2.131  1.00  0.00    -0.271 OA
HETATM   22  N3  UNL     1     -12.626  44.647  -0.257  1.00  0.00    -0.346 N 
ATOM     23  H3  UNL     1     -12.570  43.883   0.417  1.00  0.00     0.163 HD
BRANCH  22  24
HETATM   24  C17 UNL     1     -13.759  45.569  -0.105  1.00  0.00     0.177 C 
BRANCH  24  25
HETATM   25  C18 UNL     1     -13.135  46.922   0.027  1.00  0.00     0.039 C 
BRANCH  25  26
HETATM   26  C19 UNL     1     -12.756  47.393   1.379  1.00  0.00    -0.012 C 
HETATM   27  C20 UNL     1     -12.808  48.938   1.308  1.00  0.00     0.005 C 
HETATM   28  C21 UNL     1     -11.677  49.559   2.076  1.00  0.00     0.000 C 
HETATM   29  C22 UNL     1     -11.577  48.888   3.425  1.00  0.00     0.000 C 
HETATM   30  C23 UNL     1     -11.118  47.465   3.191  1.00  0.00     0.000 C 
HETATM   31  C24 UNL     1     -11.325  47.055   1.750  1.00  0.00     0.005 C 
ENDBRANCH  25  26
ENDBRANCH  24  25
BRANCH  24  32
HETATM   32  C25 UNL     1     -14.685  45.439  -1.232  1.00  0.00     0.240 C 
HETATM   33  O3  UNL     1     -15.816  44.868  -0.993  1.00  0.00    -0.271 OA
HETATM   34  N4  UNL     1     -14.513  45.860  -2.560  1.00  0.00    -0.364 N 
HETATM   35  C26 UNL     1     -15.521  45.660  -3.589  1.00  0.00     0.149 C 
ATOM     36  H4  UNL     1     -13.643  46.328  -2.814  1.00  0.00     0.161 HD
ENDBRANCH  24  32
ENDBRANCH  22  24
ENDBRANCH   1  20
TORSDOF 10
ENDMDL
MODEL 4
REMARK VINA RESULT: -7.616300030      2.442      6.204
REMARK  10 active torsions:
REMARK  status: ('A' for Active; 'I' for Inactive)
REMARK    1  A    between atoms: C2_2  and  C3_3 
REMARK    2  A    between atoms: C3_3  and  N1_4 
REMARK    3  A    between atoms: C3_3  and  C16_20 
REMARK       I    between atoms: N1_4  and  C4_6 
REMARK    4  A    between atoms: C4_6  and  C5_8 
REMARK    5  A    between atoms: C5_8  and  N2_10 
REMARK    6  A    between atoms: C12_16  and  C13_17 
REMARK       I    between atoms: C16_20  and  N3_22 
REMARK    7  A    between atoms: N3_22  and  C17_24 
REMARK    8  A    between atoms: C17_24  and  C18_25 
REMARK    9  A    between atoms: C17_24  and  C25_32 
REMARK   10  A    between atoms: C18_25  and  C19_26 
REMARK       I    between atoms: C25_32  and  N4_34 
ROOT
HETATM    1  C3  UNL     1     -13.621  45.545  -1.239  1.00  0.00     0.199 C 
ENDROOT
BRANCH   1   2
HETATM    2  C2  UNL     1     -14.976  45.242  -1.774  1.00  0.00    -0.003 C 
HETATM    3  C1  UNL     1     -15.289  44.080  -2.320  1.00  0.00     0.009 C 
ENDBRANCH   1   2
BRANCH   1   4
HETATM    4  N1  UNL     1     -12.962  44.399  -0.699  1.00  0.00    -0.343 N 
HETATM    5  C4  UNL     1     -11.698  43.905  -1.100  1.00  0.00     0.241 C 
HETATM    6  O1  UNL     1     -11.156  44.596  -2.040  1.00  0.00    -0.271 OA
ATOM      7  H1  UNL     1     -13.446  43.891   0.041  1.00  0.00     0.163 HD
BRANCH   5   8
HETATM    8  C5  UNL     1     -11.000  42.740  -0.570  1.00  0.00     0.172 C 
HETATM    9  C6  UNL     1     -10.742  41.679  -1.622  1.00  0.00     0.042 C 
BRANCH   8  10
HETATM   10  N2  UNL     1      -9.868  43.003   0.277  1.00  0.00    -0.375 N 
HETATM   11  C7  UNL     1     -10.096  44.102   1.112  1.00  0.00     0.064 C 
HETATM   12  C8  UNL     1      -9.337  45.355   0.898  1.00  0.00     0.020 C 
HETATM   13  C9  UNL     1      -9.180  46.153   2.210  1.00  0.00     0.015 C 
HETATM   14  C10 UNL     1      -8.040  45.250   0.179  1.00  0.00     0.011 C 
HETATM   15  C11 UNL     1      -7.911  44.097  -0.735  1.00  0.00     0.026 C 
HETATM   16  C12 UNL     1      -8.597  42.848  -0.337  1.00  0.00     0.087 C 
BRANCH  16  17
HETATM   17  C13 UNL     1      -7.723  41.859   0.405  1.00  0.00     0.000 C 
HETATM   18  C14 UNL     1      -8.503  40.565   0.679  1.00  0.00     0.011 C 
HETATM   19  C15 UNL     1      -7.215  42.324   1.722  1.00  0.00     0.011 C 
ENDBRANCH  16  17
ENDBRANCH   8  10
ENDBRANCH   5   8
ENDBRANCH   1   4
BRANCH   1  20
HETATM   20  C16 UNL     1     -13.687  46.689  -0.253  1.00  0.00     0.244 C 
HETATM   21  O2  UNL     1     -14.531  46.557   0.662  1.00  0.00    -0.271 OA
HETATM   22  N3  UNL     1     -12.824  47.757  -0.449  1.00  0.00    -0.346 N 
ATOM     23  H3  UNL     1     -12.197  47.692  -1.252  1.00  0.00     0.163 HD
BRANCH  22  24
HETATM   24  C17 UNL     1     -12.713  48.971   0.369  1.00  0.00     0.177 C 
BRANCH  24  25
HETATM   25  C18 UNL     1     -11.243  49.179   0.546  1.00  0.00     0.039 C 
BRANCH  25  26
HETATM   26  C19 UNL     1     -10.724  49.401   1.916  1.00  0.00    -0.012 C 
HETATM   27  C20 UNL     1     -11.788  48.798   2.864  1.00  0.00     0.005 C 
HETATM   28  C21 UNL     1     -11.981  49.653   4.083  1.00  0.00     0.000 C 
HETATM   29  C22 UNL     1     -10.627  50.023   4.639  1.00  0.00     0.000 C 
HETATM   30  C23 UNL     1      -9.967  50.954   3.644  1.00  0.00     0.000 C 
HETATM   31  C24 UNL     1     -10.637  50.869   2.290  1.00  0.00     0.005 C 
ENDBRANCH  25  26
ENDBRANCH  24  25
BRANCH  24  32
HETATM   32  C25 UNL     1     -13.408  50.091  -0.270  1.00  0.00     0.240 C 
HETATM   33  O3  UNL     1     -12.675  51.045  -0.731  1.00  0.00    -0.271 OA
HETATM   34  N4  UNL     1     -14.788  50.271  -0.459  1.00  0.00    -0.364 N 
HETATM   35  C26 UNL     1     -15.348  51.445  -1.109  1.00  0.00     0.149 C 
ATOM     36  H4  UNL     1     -15.424  49.547  -0.126  1.00  0.00     0.161 HD
ENDBRANCH  24  32
ENDBRANCH  22  24
ENDBRANCH   1  20
TORSDOF 10
ENDMDL
MODEL 5
REMARK VINA RESULT: -7.599880933      2.214      6.197
REMARK  10 active torsions:
REMARK  status: ('A' for Active; 'I' for Inactive)
REMARK    1  A    between atoms: C2_2  and  C3_3 
REMARK    2  A    between atoms: C3_3  and  N1_4 
REMARK    3  A    between atoms: C3_3  and  C16_20 
REMARK       I    between atoms: N1_4  and  C4_6 
REMARK    4  A    between atoms: C4_6  and  C5_8 
REMARK    5  A    between atoms: C5_8  and  N2_10 
REMARK    6  A    between atoms: C12_16  and  C13_17 
REMARK       I    between atoms: C16_20  and  N3_22 
REMARK    7  A    between atoms: N3_22  and  C17_24 
REMARK    8  A    between atoms: C17_24  and  C18_25 
REMARK    9  A    between atoms: C17_24  and  C25_32 
REMARK   10  A    between atoms: C18_25  and  C19_26 
REMARK       I    between atoms: C25_32  and  N4_34 
ROOT
HETATM    1  C3  UNL     1     -13.604  45.632  -1.204  1.00  0.00     0.199 C 
ENDROOT
BRANCH   1   2
HETATM    2  C2  UNL     1     -15.044  45.409  -1.504  1.00  0.00    -0.003 C 
HETATM    3  C1  UNL     1     -15.483  44.358  -2.175  1.00  0.00     0.009 C 
ENDBRANCH   1   2
BRANCH   1   4
HETATM    4  N1  UNL     1     -12.957  44.478  -0.667  1.00  0.00    -0.343 N 
HETATM    5  C4  UNL     1     -11.723  43.941  -1.104  1.00  0.00     0.241 C 
HETATM    6  O1  UNL     1     -11.197  44.599  -2.075  1.00  0.00    -0.271 OA
ATOM      7  H1  UNL     1     -13.427  43.998   0.101  1.00  0.00     0.163 HD
BRANCH   5   8
HETATM    8  C5  UNL     1     -11.038  42.766  -0.576  1.00  0.00     0.172 C 
HETATM    9  C6  UNL     1     -10.795  41.704  -1.630  1.00  0.00     0.042 C 
BRANCH   8  10
HETATM   10  N2  UNL     1      -9.901  43.014   0.269  1.00  0.00    -0.375 N 
HETATM   11  C7  UNL     1     -10.125  44.098   1.126  1.00  0.00     0.064 C 
HETATM   12  C8  UNL     1      -9.368  45.355   0.930  1.00  0.00     0.020 C 
HETATM   13  C9  UNL     1      -9.203  46.129   2.256  1.00  0.00     0.015 C 
HETATM   14  C10 UNL     1      -8.075  45.263   0.202  1.00  0.00     0.011 C 
HETATM   15  C11 UNL     1      -7.951  44.128  -0.735  1.00  0.00     0.026 C 
HETATM   16  C12 UNL     1      -8.634  42.872  -0.356  1.00  0.00     0.087 C 
BRANCH  16  17
HETATM   17  C13 UNL     1      -7.756  41.869   0.363  1.00  0.00     0.000 C 
HETATM   18  C14 UNL     1      -8.544  40.583   0.649  1.00  0.00     0.011 C 
HETATM   19  C15 UNL     1      -7.213  42.323   1.670  1.00  0.00     0.011 C 
ENDBRANCH  16  17
ENDBRANCH   8  10
ENDBRANCH   5   8
ENDBRANCH   1   4
BRANCH   1  20
HETATM   20  C16 UNL     1     -13.430  46.851  -0.327  1.00  0.00     0.244 C 
HETATM   21  O2  UNL     1     -14.219  46.928   0.642  1.00  0.00    -0.271 OA
HETATM   22  N3  UNL     1     -12.433  47.753  -0.670  1.00  0.00    -0.346 N 
ATOM     23  H3  UNL     1     -11.881  47.525  -1.496  1.00  0.00     0.163 HD
BRANCH  22  24
HETATM   24  C17 UNL     1     -12.087  48.999   0.024  1.00  0.00     0.177 C 
BRANCH  24  25
HETATM   25  C18 UNL     1     -10.843  49.480  -0.653  1.00  0.00     0.039 C 
BRANCH  25  26
HETATM   26  C19 UNL     1      -9.540  48.946  -0.193  1.00  0.00    -0.012 C 
HETATM   27  C20 UNL     1      -9.284  49.608   1.183  1.00  0.00     0.005 C 
HETATM   28  C21 UNL     1      -7.840  49.981   1.350  1.00  0.00     0.000 C 
HETATM   29  C22 UNL     1      -6.982  48.814   0.925  1.00  0.00     0.000 C 
HETATM   30  C23 UNL     1      -7.144  48.652  -0.571  1.00  0.00     0.000 C 
HETATM   31  C24 UNL     1      -8.377  49.374  -1.068  1.00  0.00     0.005 C 
ENDBRANCH  25  26
ENDBRANCH  24  25
BRANCH  24  32
HETATM   32  C25 UNL     1     -13.204  49.945  -0.022  1.00  0.00     0.240 C 
HETATM   33  O3  UNL     1     -13.103  51.002   0.708  1.00  0.00    -0.271 OA
HETATM   34  N4  UNL     1     -14.390  49.863  -0.769  1.00  0.00    -0.364 N 
HETATM   35  C26 UNL     1     -15.428  50.879  -0.715  1.00  0.00     0.149 C 
ATOM     36  H4  UNL     1     -14.528  49.055  -1.377  1.00  0.00     0.161 HD
ENDBRANCH  24  32
ENDBRANCH  22  24
ENDBRANCH   1  20
TORSDOF 10
ENDMDL
