MODEL 1
REMARK VINA RESULT: -7.348740662      0.000      0.000
REMARK  11 active torsions:
REMARK  status: ('A' for Active; 'I' for Inactive)
REMARK    1  A    between atoms: C2_2  and  C4_4 
REMARK    2  A    between atoms: C4_4  and  C5_5 
REMARK    3  A    between atoms: C5_5  and  C6_6 
REMARK    4  A    between atoms: C5_5  and  N1_14 
REMARK    5  A    between atoms: C5_5  and  C22_29 
REMARK    6  A    between atoms: C6_6  and  C7_7 
REMARK       I    between atoms: N1_14  and  C14_16 
REMARK    7  A    between atoms: C14_16  and  C15_18 
REMARK    8  A    between atoms: C15_18  and  N2_20 
REMARK       I    between atoms: N2_20  and  C17_22 
REMARK    9  A    between atoms: C17_22  and  C18_24 
REMARK   10  A    between atoms: C18_24  and  C19_25 
REMARK   11  A    between atoms: C19_25  and  N3_26 
REMARK       I    between atoms: C22_29  and  N4_31 
ROOT
HETATM    1  C5  UNL     1      -9.169  44.247   0.349  1.00  0.00     0.114 C 
ENDROOT
BRANCH   1   2
HETATM    2  C4  UNL     1      -9.048  43.036  -0.494  1.00  0.00     0.045 C 
BRANCH   2   3
HETATM    3  C2  UNL     1      -9.848  41.835  -0.334  1.00  0.00    -0.020 C 
HETATM    4  C1  UNL     1     -10.681  41.243  -1.387  1.00  0.00     0.009 C 
HETATM    5  C3  UNL     1      -8.843  40.704   0.061  1.00  0.00     0.009 C 
ENDBRANCH   2   3
ENDBRANCH   1   2
BRANCH   1   6
HETATM    6  C6  UNL     1      -8.858  44.010   1.802  1.00  0.00     0.045 C 
BRANCH   6   7
HETATM    7  C7  UNL     1      -7.492  43.960   2.296  1.00  0.00    -0.012 C 
HETATM    8  C8  UNL     1      -7.361  45.243   3.191  1.00  0.00     0.005 C 
HETATM    9  C9  UNL     1      -5.931  45.684   3.175  1.00  0.00     0.004 C 
HETATM   10  C10 UNL     1      -5.050  44.478   3.007  1.00  0.00    -0.019 C 
HETATM   11  C11 UNL     1      -3.704  44.815   3.634  1.00  0.00     0.010 C 
HETATM   12  C12 UNL     1      -5.669  43.355   3.804  1.00  0.00     0.004 C 
HETATM   13  C13 UNL     1      -7.005  42.890   3.200  1.00  0.00     0.005 C 
ENDBRANCH   6   7
ENDBRANCH   1   6
BRANCH   1  14
HETATM   14  N1  UNL     1     -10.540  44.715   0.255  1.00  0.00    -0.341 N 
HETATM   15  C14 UNL     1     -11.352  44.981  -0.850  1.00  0.00     0.241 C 
HETATM   16  O1  UNL     1     -11.051  44.858  -2.042  1.00  0.00    -0.271 OA
ATOM     17  H1  UNL     1     -10.990  44.878   1.155  1.00  0.00     0.163 HD
BRANCH  15  18
HETATM   18  C15 UNL     1     -12.777  45.482  -0.645  1.00  0.00     0.172 C 
HETATM   19  C16 UNL     1     -12.771  46.963  -0.381  1.00  0.00     0.042 C 
BRANCH  18  20
HETATM   20  N2  UNL     1     -13.609  45.214  -1.770  1.00  0.00    -0.348 N 
HETATM   21  C17 UNL     1     -15.008  44.987  -1.690  1.00  0.00     0.220 C 
HETATM   22  O2  UNL     1     -15.551  45.026  -0.557  1.00  0.00    -0.274 OA
ATOM     23  H2  UNL     1     -13.172  45.184  -2.691  1.00  0.00     0.163 HD
BRANCH  21  24
HETATM   24  C18 UNL     1     -15.856  44.711  -2.863  1.00  0.00     0.133 C 
BRANCH  24  25
HETATM   25  C19 UNL     1     -15.279  45.283  -4.133  1.00  0.00     0.280 C 
BRANCH  25  26
HETATM   26  N3  UNL     1     -16.275  45.467  -5.154  1.00  0.00     0.080 N 
HETATM   27  C20 UNL     1     -16.331  46.822  -5.653  1.00  0.00     0.309 C 
HETATM   28  C21 UNL     1     -17.565  44.955  -4.815  1.00  0.00     0.309 C 
ENDBRANCH  25  26
ENDBRANCH  24  25
ENDBRANCH  21  24
ENDBRANCH  18  20
ENDBRANCH  15  18
ENDBRANCH   1  14
BRANCH   1  29
HETATM   29  C22 UNL     1      -8.333  45.343  -0.194  1.00  0.00     0.248 C 
HETATM   30  O3  UNL     1      -7.492  44.906  -1.080  1.00  0.00    -0.271 OA
HETATM   31  N4  UNL     1      -8.323  46.720   0.096  1.00  0.00    -0.350 N 
HETATM   32  C23 UNL     1      -7.353  47.599  -0.599  1.00  0.00     0.126 C 
HETATM   33  C26 UNL     1      -9.079  47.589   0.941  1.00  0.00     0.126 C 
HETATM   34  C24 UNL     1      -7.091  48.738   0.317  1.00  0.00     0.021 C 
HETATM   35  C25 UNL     1      -8.542  48.995   0.757  1.00  0.00     0.021 C 
ENDBRANCH   1  29
TORSDOF 11
ENDMDL
MODEL 2
REMARK VINA RESULT: -7.048507792      1.673      3.610
REMARK  11 active torsions:
REMARK  status: ('A' for Active; 'I' for Inactive)
REMARK    1  A    between atoms: C2_2  and  C4_4 
REMARK    2  A    between atoms: C4_4  and  C5_5 
REMARK    3  A    between atoms: C5_5  and  C6_6 
REMARK    4  A    between atoms: C5_5  and  N1_14 
REMARK    5  A    between atoms: C5_5  and  C22_29 
REMARK    6  A    between atoms: C6_6  and  C7_7 
REMARK       I    between atoms: N1_14  and  C14_16 
REMARK    7  A    between atoms: C14_16  and  C15_18 
REMARK    8  A    between atoms: C15_18  and  N2_20 
REMARK       I    between atoms: N2_20  and  C17_22 
REMARK    9  A    between atoms: C17_22  and  C18_24 
REMARK   10  A    between atoms: C18_24  and  C19_25 
REMARK   11  A    between atoms: C19_25  and  N3_26 
REMARK       I    between atoms: C22_29  and  N4_31 
ROOT
HETATM    1  C5  UNL     1      -9.312  45.403   0.939  1.00  0.00     0.114 C 
ENDROOT
BRANCH   1   2
HETATM    2  C4  UNL     1      -8.322  46.155   0.134  1.00  0.00     0.045 C 
BRANCH   2   3
HETATM    3  C2  UNL     1      -7.737  47.426   0.523  1.00  0.00    -0.020 C 
HETATM    4  C1  UNL     1      -6.315  47.629   0.827  1.00  0.00     0.009 C 
HETATM    5  C3  UNL     1      -8.036  48.410  -0.654  1.00  0.00     0.009 C 
ENDBRANCH   2   3
ENDBRANCH   1   2
BRANCH   1   6
HETATM    6  C6  UNL     1      -8.695  44.485   1.959  1.00  0.00     0.045 C 
BRANCH   6   7
HETATM    7  C7  UNL     1      -7.255  44.375   2.120  1.00  0.00    -0.012 C 
HETATM    8  C8  UNL     1      -7.005  44.768   3.619  1.00  0.00     0.005 C 
HETATM    9  C9  UNL     1      -5.637  45.364   3.728  1.00  0.00     0.004 C 
HETATM   10  C10 UNL     1      -4.748  44.738   2.689  1.00  0.00    -0.019 C 
HETATM   11  C11 UNL     1      -3.320  44.825   3.209  1.00  0.00     0.010 C 
HETATM   12  C12 UNL     1      -5.125  43.280   2.596  1.00  0.00     0.004 C 
HETATM   13  C13 UNL     1      -6.532  43.086   2.005  1.00  0.00     0.005 C 
ENDBRANCH   6   7
ENDBRANCH   1   6
BRANCH   1  14
HETATM   14  N1  UNL     1     -10.098  44.592   0.025  1.00  0.00    -0.341 N 
HETATM   15  C14 UNL     1      -9.748  43.507  -0.781  1.00  0.00     0.241 C 
HETATM   16  O1  UNL     1      -8.635  42.981  -0.881  1.00  0.00    -0.271 OA
ATOM     17  H1  UNL     1     -11.079  44.864  -0.040  1.00  0.00     0.163 HD
BRANCH  15  18
HETATM   18  C15 UNL     1     -10.800  42.845  -1.665  1.00  0.00     0.172 C 
HETATM   19  C16 UNL     1     -10.783  41.356  -1.461  1.00  0.00     0.042 C 
BRANCH  18  20
HETATM   20  N2  UNL     1     -12.111  43.335  -1.402  1.00  0.00    -0.348 N 
HETATM   21  C17 UNL     1     -12.648  44.520  -1.970  1.00  0.00     0.220 C 
HETATM   22  O2  UNL     1     -11.925  45.181  -2.757  1.00  0.00    -0.274 OA
ATOM     23  H2  UNL     1     -12.702  42.801  -0.764  1.00  0.00     0.163 HD
BRANCH  21  24
HETATM   24  C18 UNL     1     -14.007  45.015  -1.687  1.00  0.00     0.133 C 
BRANCH  24  25
HETATM   25  C19 UNL     1     -15.050  44.335  -2.537  1.00  0.00     0.280 C 
BRANCH  25  26
HETATM   26  N3  UNL     1     -15.510  45.171  -3.614  1.00  0.00     0.080 N 
HETATM   27  C20 UNL     1     -16.455  46.177  -3.186  1.00  0.00     0.309 C 
HETATM   28  C21 UNL     1     -15.960  44.452  -4.764  1.00  0.00     0.309 C 
ENDBRANCH  25  26
ENDBRANCH  24  25
ENDBRANCH  21  24
ENDBRANCH  18  20
ENDBRANCH  15  18
ENDBRANCH   1  14
BRANCH   1  29
HETATM   29  C22 UNL     1     -10.272  46.330   1.579  1.00  0.00     0.248 C 
HETATM   30  O3  UNL     1     -10.208  46.263   2.874  1.00  0.00    -0.271 OA
HETATM   31  N4  UNL     1     -11.196  47.230   1.015  1.00  0.00    -0.350 N 
HETATM   32  C23 UNL     1     -12.058  48.038   1.909  1.00  0.00     0.126 C 
HETATM   33  C26 UNL     1     -11.548  47.631  -0.309  1.00  0.00     0.126 C 
HETATM   34  C24 UNL     1     -13.298  48.327   1.145  1.00  0.00     0.021 C 
HETATM   35  C25 UNL     1     -12.641  48.678  -0.200  1.00  0.00     0.021 C 
ENDBRANCH   1  29
TORSDOF 11
ENDMDL
MODEL 3
REMARK VINA RESULT: -7.034900826      2.651      6.934
REMARK  11 active torsions:
REMARK  status: ('A' for Active; 'I' for Inactive)
REMARK    1  A    between atoms: C2_2  and  C4_4 
REMARK    2  A    between atoms: C4_4  and  C5_5 
REMARK    3  A    between atoms: C5_5  and  C6_6 
REMARK    4  A    between atoms: C5_5  and  N1_14 
REMARK    5  A    between atoms: C5_5  and  C22_29 
REMARK    6  A    between atoms: C6_6  and  C7_7 
REMARK       I    between atoms: N1_14  and  C14_16 
REMARK    7  A    between atoms: C14_16  and  C15_18 
REMARK    8  A    between atoms: C15_18  and  N2_20 
REMARK       I    between atoms: N2_20  and  C17_22 
REMARK    9  A    between atoms: C17_22  and  C18_24 
REMARK   10  A    between atoms: C18_24  and  C19_25 
REMARK   11  A    between atoms: C19_25  and  N3_26 
REMARK       I    between atoms: C22_29  and  N4_31 
ROOT
HETATM    1  C5  UNL     1     -11.412  45.705   0.077  1.00  0.00     0.114 C 
ENDROOT
BRANCH   1   2
HETATM    2  C4  UNL     1     -11.020  45.640   1.503  1.00  0.00     0.045 C 
BRANCH   2   3
HETATM    3  C2  UNL     1     -10.260  46.664   2.198  1.00  0.00    -0.020 C 
HETATM    4  C1  UNL     1     -10.692  47.325   3.436  1.00  0.00     0.009 C 
HETATM    5  C3  UNL     1      -8.888  46.007   2.557  1.00  0.00     0.009 C 
ENDBRANCH   2   3
ENDBRANCH   1   2
BRANCH   1   6
HETATM    6  C6  UNL     1     -10.575  44.840  -0.825  1.00  0.00     0.045 C 
BRANCH   6   7
HETATM    7  C7  UNL     1      -9.850  43.685  -0.322  1.00  0.00    -0.012 C 
HETATM    8  C8  UNL     1      -9.940  42.639  -1.490  1.00  0.00     0.005 C 
HETATM    9  C9  UNL     1      -9.888  41.265  -0.898  1.00  0.00     0.004 C 
HETATM   10  C10 UNL     1      -9.060  41.307   0.357  1.00  0.00    -0.019 C 
HETATM   11  C11 UNL     1      -8.480  39.913   0.558  1.00  0.00     0.010 C 
HETATM   12  C12 UNL     1      -7.915  42.258   0.108  1.00  0.00     0.004 C 
HETATM   13  C13 UNL     1      -8.397  43.712  -0.033  1.00  0.00     0.005 C 
ENDBRANCH   6   7
ENDBRANCH   1   6
BRANCH   1  14
HETATM   14  N1  UNL     1     -11.263  47.082  -0.359  1.00  0.00    -0.341 N 
HETATM   15  C14 UNL     1     -11.981  48.236  -0.037  1.00  0.00     0.241 C 
HETATM   16  O1  UNL     1     -12.941  48.325   0.735  1.00  0.00    -0.271 OA
ATOM     17  H1  UNL     1     -10.499  47.234  -1.017  1.00  0.00     0.163 HD
BRANCH  15  18
HETATM   18  C15 UNL     1     -11.600  49.571  -0.668  1.00  0.00     0.172 C 
HETATM   19  C16 UNL     1     -12.465  50.669  -0.115  1.00  0.00     0.042 C 
BRANCH  18  20
HETATM   20  N2  UNL     1     -10.232  49.901  -0.446  1.00  0.00    -0.348 N 
HETATM   21  C17 UNL     1      -9.278  50.082  -1.481  1.00  0.00     0.220 C 
HETATM   22  O2  UNL     1      -9.660  49.946  -2.670  1.00  0.00    -0.274 OA
ATOM     23  H2  UNL     1      -9.918  50.014   0.519  1.00  0.00     0.163 HD
BRANCH  21  24
HETATM   24  C18 UNL     1      -7.865  50.424  -1.235  1.00  0.00     0.133 C 
BRANCH  24  25
HETATM   25  C19 UNL     1      -7.206  49.470  -0.271  1.00  0.00     0.280 C 
BRANCH  25  26
HETATM   26  N3  UNL     1      -6.569  48.367  -0.939  1.00  0.00     0.080 N 
HETATM   27  C20 UNL     1      -7.015  47.079  -0.458  1.00  0.00     0.309 C 
HETATM   28  C21 UNL     1      -5.146  48.463  -1.005  1.00  0.00     0.309 C 
ENDBRANCH  25  26
ENDBRANCH  24  25
ENDBRANCH  21  24
ENDBRANCH  18  20
ENDBRANCH  15  18
ENDBRANCH   1  14
BRANCH   1  29
HETATM   29  C22 UNL     1     -12.850  45.389  -0.080  1.00  0.00     0.248 C 
HETATM   30  O3  UNL     1     -13.434  45.240   1.069  1.00  0.00    -0.271 OA
HETATM   31  N4  UNL     1     -13.636  45.237  -1.238  1.00  0.00    -0.350 N 
HETATM   32  C23 UNL     1     -15.072  44.899  -1.100  1.00  0.00     0.126 C 
HETATM   33  C26 UNL     1     -13.411  45.352  -2.644  1.00  0.00     0.126 C 
HETATM   34  C24 UNL     1     -15.450  44.164  -2.333  1.00  0.00     0.021 C 
HETATM   35  C25 UNL     1     -14.724  45.064  -3.347  1.00  0.00     0.021 C 
ENDBRANCH   1  29
TORSDOF 11
ENDMDL
MODEL 4
REMARK VINA RESULT: -6.953470261      1.801      3.775
REMARK  11 active torsions:
REMARK  status: ('A' for Active; 'I' for Inactive)
REMARK    1  A    between atoms: C2_2  and  C4_4 
REMARK    2  A    between atoms: C4_4  and  C5_5 
REMARK    3  A    between atoms: C5_5  and  C6_6 
REMARK    4  A    between atoms: C5_5  and  N1_14 
REMARK    5  A    between atoms: C5_5  and  C22_29 
REMARK    6  A    between atoms: C6_6  and  C7_7 
REMARK       I    between atoms: N1_14  and  C14_16 
REMARK    7  A    between atoms: C14_16  and  C15_18 
REMARK    8  A    between atoms: C15_18  and  N2_20 
REMARK       I    between atoms: N2_20  and  C17_22 
REMARK    9  A    between atoms: C17_22  and  C18_24 
REMARK   10  A    between atoms: C18_24  and  C19_25 
REMARK   11  A    between atoms: C19_25  and  N3_26 
REMARK       I    between atoms: C22_29  and  N4_31 
ROOT
HETATM    1  C5  UNL     1      -9.286  45.367   0.823  1.00  0.00     0.114 C 
ENDROOT
BRANCH   1   2
HETATM    2  C4  UNL     1      -8.287  46.126   0.035  1.00  0.00     0.045 C 
BRANCH   2   3
HETATM    3  C2  UNL     1      -7.742  47.416   0.416  1.00  0.00    -0.020 C 
HETATM    4  C1  UNL     1      -6.310  47.703   0.567  1.00  0.00     0.009 C 
HETATM    5  C3  UNL     1      -8.238  48.425  -0.670  1.00  0.00     0.009 C 
ENDBRANCH   2   3
ENDBRANCH   1   2
BRANCH   1   6
HETATM    6  C6  UNL     1      -8.724  44.730   2.065  1.00  0.00     0.045 C 
BRANCH   6   7
HETATM    7  C7  UNL     1      -7.296  44.528   2.245  1.00  0.00    -0.012 C 
HETATM    8  C8  UNL     1      -6.996  45.151   3.654  1.00  0.00     0.005 C 
HETATM    9  C9  UNL     1      -5.582  45.640   3.662  1.00  0.00     0.004 C 
HETATM   10  C10 UNL     1      -4.761  44.773   2.748  1.00  0.00    -0.019 C 
HETATM   11  C11 UNL     1      -3.324  44.828   3.247  1.00  0.00     0.010 C 
HETATM   12  C12 UNL     1      -5.258  43.357   2.906  1.00  0.00     0.004 C 
HETATM   13  C13 UNL     1      -6.684  43.183   2.355  1.00  0.00     0.005 C 
ENDBRANCH   6   7
ENDBRANCH   1   6
BRANCH   1  14
HETATM   14  N1  UNL     1      -9.807  44.311  -0.026  1.00  0.00    -0.341 N 
HETATM   15  C14 UNL     1      -9.161  43.350  -0.807  1.00  0.00     0.241 C 
HETATM   16  O1  UNL     1      -7.943  43.192  -0.936  1.00  0.00    -0.271 OA
ATOM     17  H1  UNL     1     -10.825  44.261  -0.058  1.00  0.00     0.163 HD
BRANCH  15  18
HETATM   18  C15 UNL     1      -9.980  42.354  -1.621  1.00  0.00     0.172 C 
HETATM   19  C16 UNL     1      -9.697  40.952  -1.156  1.00  0.00     0.042 C 
BRANCH  18  20
HETATM   20  N2  UNL     1     -11.379  42.602  -1.526  1.00  0.00    -0.348 N 
HETATM   21  C17 UNL     1     -12.041  43.687  -2.159  1.00  0.00     0.220 C 
HETATM   22  O2  UNL     1     -11.352  44.480  -2.849  1.00  0.00    -0.274 OA
ATOM     23  H2  UNL     1     -11.942  41.959  -0.968  1.00  0.00     0.163 HD
BRANCH  21  24
HETATM   24  C18 UNL     1     -13.490  43.931  -2.051  1.00  0.00     0.133 C 
BRANCH  24  25
HETATM   25  C19 UNL     1     -13.891  45.258  -2.643  1.00  0.00     0.280 C 
BRANCH  25  26
HETATM   26  N3  UNL     1     -15.298  45.326  -2.933  1.00  0.00     0.080 N 
HETATM   27  C20 UNL     1     -16.103  44.547  -2.019  1.00  0.00     0.309 C 
HETATM   28  C21 UNL     1     -15.630  45.079  -4.300  1.00  0.00     0.309 C 
ENDBRANCH  25  26
ENDBRANCH  24  25
ENDBRANCH  21  24
ENDBRANCH  18  20
ENDBRANCH  15  18
ENDBRANCH   1  14
BRANCH   1  29
HETATM   29  C22 UNL     1     -10.447  46.225   1.153  1.00  0.00     0.248 C 
HETATM   30  O3  UNL     1     -11.347  46.188   0.219  1.00  0.00    -0.271 OA
HETATM   31  N4  UNL     1     -10.702  47.031   2.278  1.00  0.00    -0.350 N 
HETATM   32  C23 UNL     1     -11.962  47.809   2.340  1.00  0.00     0.126 C 
HETATM   33  C26 UNL     1     -10.025  47.316   3.503  1.00  0.00     0.126 C 
HETATM   34  C24 UNL     1     -11.680  48.996   3.186  1.00  0.00     0.021 C 
HETATM   35  C25 UNL     1     -10.886  48.283   4.293  1.00  0.00     0.021 C 
ENDBRANCH   1  29
TORSDOF 11
ENDMDL
MODEL 5
REMARK VINA RESULT: -6.945307438      1.786      4.011
REMARK  11 active torsions:
REMARK  status: ('A' for Active; 'I' for Inactive)
REMARK    1  A    between atoms: C2_2  and  C4_4 
REMARK    2  A    between atoms: C4_4  and  C5_5 
REMARK    3  A    between atoms: C5_5  and  C6_6 
REMARK    4  A    between atoms: C5_5  and  N1_14 
REMARK    5  A    between atoms: C5_5  and  C22_29 
REMARK    6  A    between atoms: C6_6  and  C7_7 
REMARK       I    between atoms: N1_14  and  C14_16 
REMARK    7  A    between atoms: C14_16  and  C15_18 
REMARK    8  A    between atoms: C15_18  and  N2_20 
REMARK       I    between atoms: N2_20  and  C17_22 
REMARK    9  A    between atoms: C17_22  and  C18_24 
REMARK   10  A    between atoms: C18_24  and  C19_25 
REMARK   11  A    between atoms: C19_25  and  N3_26 
REMARK       I    between atoms: C22_29  and  N4_31 
ROOT
HETATM    1  C5  UNL     1      -9.554  46.815   0.841  1.00  0.00     0.114 C 
ENDROOT
BRANCH   1   2
HETATM    2  C4  UNL     1      -9.615  48.202   0.325  1.00  0.00     0.045 C 
BRANCH   2   3
HETATM    3  C2  UNL     1      -9.013  48.648  -0.918  1.00  0.00    -0.020 C 
HETATM    4  C1  UNL     1      -9.653  49.564  -1.871  1.00  0.00     0.009 C 
HETATM    5  C3  UNL     1      -7.681  49.360  -0.516  1.00  0.00     0.009 C 
ENDBRANCH   2   3
ENDBRANCH   1   2
BRANCH   1   6
HETATM    6  C6  UNL     1      -8.650  45.910   0.047  1.00  0.00     0.045 C 
BRANCH   6   7
HETATM    7  C7  UNL     1      -8.493  44.504   0.376  1.00  0.00    -0.012 C 
HETATM    8  C8  UNL     1      -8.496  43.781  -1.018  1.00  0.00     0.005 C 
HETATM    9  C9  UNL     1      -9.035  42.398  -0.831  1.00  0.00     0.004 C 
HETATM   10  C10 UNL     1      -8.684  41.920   0.551  1.00  0.00    -0.019 C 
HETATM   11  C11 UNL     1      -8.627  40.400   0.499  1.00  0.00     0.010 C 
HETATM   12  C12 UNL     1      -7.298  42.430   0.863  1.00  0.00     0.004 C 
HETATM   13  C13 UNL     1      -7.268  43.961   1.011  1.00  0.00     0.005 C 
ENDBRANCH   6   7
ENDBRANCH   1   6
BRANCH   1  14
HETATM   14  N1  UNL     1     -10.897  46.265   0.787  1.00  0.00    -0.341 N 
HETATM   15  C14 UNL     1     -11.751  46.016  -0.289  1.00  0.00     0.241 C 
HETATM   16  O1  UNL     1     -11.520  46.219  -1.485  1.00  0.00    -0.271 OA
ATOM     17  H1  UNL     1     -11.285  46.017   1.697  1.00  0.00     0.163 HD
BRANCH  15  18
HETATM   18  C15 UNL     1     -13.137  45.432  -0.042  1.00  0.00     0.172 C 
HETATM   19  C16 UNL     1     -13.608  45.787   1.342  1.00  0.00     0.042 C 
BRANCH  18  20
HETATM   20  N2  UNL     1     -14.094  45.895  -0.991  1.00  0.00    -0.348 N 
HETATM   21  C17 UNL     1     -14.853  45.045  -1.837  1.00  0.00     0.220 C 
HETATM   22  O2  UNL     1     -14.674  43.804  -1.744  1.00  0.00    -0.274 OA
ATOM     23  H2  UNL     1     -14.242  46.902  -1.067  1.00  0.00     0.163 HD
BRANCH  21  24
HETATM   24  C18 UNL     1     -15.839  45.538  -2.814  1.00  0.00     0.133 C 
BRANCH  24  25
HETATM   25  C19 UNL     1     -15.509  45.113  -4.223  1.00  0.00     0.280 C 
BRANCH  25  26
HETATM   26  N3  UNL     1     -16.493  45.555  -5.174  1.00  0.00     0.080 N 
HETATM   27  C20 UNL     1     -16.307  46.929  -5.585  1.00  0.00     0.309 C 
HETATM   28  C21 UNL     1     -17.842  45.277  -4.796  1.00  0.00     0.309 C 
ENDBRANCH  25  26
ENDBRANCH  24  25
ENDBRANCH  21  24
ENDBRANCH  18  20
ENDBRANCH  15  18
ENDBRANCH   1  14
BRANCH   1  29
HETATM   29  C22 UNL     1      -9.175  46.809   2.272  1.00  0.00     0.248 C 
HETATM   30  O3  UNL     1     -10.183  46.504   3.030  1.00  0.00    -0.271 OA
HETATM   31  N4  UNL     1      -7.941  47.071   2.896  1.00  0.00    -0.350 N 
HETATM   32  C23 UNL     1      -7.849  47.007   4.374  1.00  0.00     0.126 C 
HETATM   33  C26 UNL     1      -6.622  47.390   2.452  1.00  0.00     0.126 C 
HETATM   34  C24 UNL     1      -6.755  47.931   4.766  1.00  0.00     0.021 C 
HETATM   35  C25 UNL     1      -5.742  47.532   3.680  1.00  0.00     0.021 C 
ENDBRANCH   1  29
TORSDOF 11
ENDMDL
