MODEL 1
REMARK VINA RESULT: -7.186688817      0.000      0.000
REMARK  13 active torsions:
REMARK  status: ('A' for Active; 'I' for Inactive)
REMARK    1  A    between atoms: C2_2  and  C4_4 
REMARK    2  A    between atoms: C4_4  and  N1_5 
REMARK    3  A    between atoms: C4_4  and  C13_18 
REMARK       I    between atoms: N1_5  and  C5_7 
REMARK    4  A    between atoms: C5_7  and  C6_9 
REMARK       I    between atoms: C6_9  and  N2_11 
REMARK    5  A    between atoms: C13_18  and  O3_19 
REMARK    6  A    between atoms: C13_18  and  N3_21 
REMARK    7  A    between atoms: N3_21  and  C14_23 
REMARK    8  A    between atoms: C14_23  and  C15_24 
REMARK    9  A    between atoms: C14_23  and  C22_31 
REMARK   10  A    between atoms: C15_24  and  C16_25 
REMARK   11  A    between atoms: C22_31  and  C23_32 
REMARK   12  A    between atoms: C22_31  and  C24_37 
REMARK   13  A    between atoms: C23_32  and  N4_33 
ROOT
HETATM    1  C13 UNL     1      -9.891  44.745   1.889  1.00  0.00     0.135 C 
ENDROOT
BRANCH   1   2
HETATM    2  C4  UNL     1     -11.047  45.264   1.185  1.00  0.00     0.162 C 
BRANCH   2   3
HETATM    3  C2  UNL     1     -11.181  44.980  -0.267  1.00  0.00     0.008 C 
HETATM    4  C1  UNL     1     -12.497  44.385  -0.707  1.00  0.00     0.012 C 
HETATM    5  C3  UNL     1     -10.844  46.230  -1.071  1.00  0.00     0.012 C 
ENDBRANCH   2   3
BRANCH   2   6
HETATM    6  N1  UNL     1     -11.213  46.695   1.463  1.00  0.00    -0.341 N 
HETATM    7  C5  UNL     1     -12.407  47.319   1.861  1.00  0.00     0.310 C 
HETATM    8  O1  UNL     1     -13.450  46.649   2.003  1.00  0.00    -0.262 OA
ATOM      9  H1  UNL     1     -10.390  47.288   1.358  1.00  0.00     0.163 HD
BRANCH   7  10
HETATM   10  C6  UNL     1     -12.489  48.749   2.120  1.00  0.00     0.311 C 
HETATM   11  O2  UNL     1     -13.094  49.417   1.233  1.00  0.00    -0.262 OA
HETATM   12  N2  UNL     1     -11.964  49.417   3.241  1.00  0.00    -0.340 N 
HETATM   13  C7  UNL     1     -11.302  48.694   4.335  1.00  0.00     0.127 C 
HETATM   14  C11 UNL     1     -11.998  50.851   3.443  1.00  0.00     0.083 C 
HETATM   15  C8  UNL     1     -11.241  49.558   5.583  1.00  0.00     0.020 C 
HETATM   16  C9  UNL     1     -12.469  50.374   5.790  1.00  0.00     0.004 C 
HETATM   17  C10 UNL     1     -12.998  51.073   4.586  1.00  0.00     0.025 C 
HETATM   18  C12 UNL     1     -12.303  51.673   2.245  1.00  0.00     0.032 C 
ENDBRANCH   7  10
ENDBRANCH   2   6
ENDBRANCH   1   2
BRANCH   1  19
HETATM   19  O3  UNL     1      -9.281  45.604   2.652  1.00  0.00    -0.348 OA
ATOM     20  H3  UNL     1      -9.099  45.300   3.533  1.00  0.00     0.219 HD
ENDBRANCH   1  19
BRANCH   1  21
HETATM   21  N3  UNL     1      -9.310  43.475   1.895  1.00  0.00    -0.368 N 
ATOM     22  H3  UNL     1      -9.821  42.691   2.301  1.00  0.00     0.161 HD
BRANCH  21  23
HETATM   23  C14 UNL     1      -7.958  43.249   1.319  1.00  0.00     0.089 C 
BRANCH  23  24
HETATM   24  C15 UNL     1      -7.137  42.514   2.282  1.00  0.00     0.030 C 
BRANCH  24  25
HETATM   25  C16 UNL     1      -6.076  43.213   3.055  1.00  0.00    -0.013 C 
HETATM   26  C17 UNL     1      -5.731  44.599   2.673  1.00  0.00     0.005 C 
HETATM   27  C18 UNL     1      -4.728  45.138   3.715  1.00  0.00     0.000 C 
HETATM   28  C19 UNL     1      -5.369  45.211   5.073  1.00  0.00     0.000 C 
HETATM   29  C20 UNL     1      -5.632  43.757   5.487  1.00  0.00     0.000 C 
HETATM   30  C21 UNL     1      -6.610  43.222   4.501  1.00  0.00     0.005 C 
ENDBRANCH  24  25
ENDBRANCH  23  24
BRANCH  23  31
HETATM   31  C22 UNL     1      -8.170  42.504   0.007  1.00  0.00     0.037 C 
BRANCH  31  32
HETATM   32  C23 UNL     1      -8.265  43.450  -1.143  1.00  0.00     0.236 C 
BRANCH  32  33
HETATM   33  N4  UNL     1      -7.494  44.662  -0.945  1.00  0.00    -0.079 N 
ATOM     34  H43 UNL     1      -7.947  45.275  -0.267  1.00  0.00     0.274 HD
ATOM     35  H42 UNL     1      -6.629  44.465  -0.440  1.00  0.00     0.274 HD
ATOM     36  H41 UNL     1      -7.302  45.159  -1.815  1.00  0.00     0.274 HD
ENDBRANCH  32  33
ENDBRANCH  31  32
BRANCH  31  37
HETATM   37  C24 UNL     1      -9.100  41.369   0.028  1.00  0.00    -0.015 C 
HETATM   38  C25 UNL     1     -10.041  41.389  -1.192  1.00  0.00     0.010 C 
HETATM   39  C26 UNL     1      -8.591  39.995   0.183  1.00  0.00     0.010 C 
ENDBRANCH  31  37
ENDBRANCH  23  31
ENDBRANCH  21  23
ENDBRANCH   1  21
TORSDOF 13
ENDMDL
MODEL 2
REMARK VINA RESULT: -7.054395029      1.099      1.283
REMARK  13 active torsions:
REMARK  status: ('A' for Active; 'I' for Inactive)
REMARK    1  A    between atoms: C2_2  and  C4_4 
REMARK    2  A    between atoms: C4_4  and  N1_5 
REMARK    3  A    between atoms: C4_4  and  C13_18 
REMARK       I    between atoms: N1_5  and  C5_7 
REMARK    4  A    between atoms: C5_7  and  C6_9 
REMARK       I    between atoms: C6_9  and  N2_11 
REMARK    5  A    between atoms: C13_18  and  O3_19 
REMARK    6  A    between atoms: C13_18  and  N3_21 
REMARK    7  A    between atoms: N3_21  and  C14_23 
REMARK    8  A    between atoms: C14_23  and  C15_24 
REMARK    9  A    between atoms: C14_23  and  C22_31 
REMARK   10  A    between atoms: C15_24  and  C16_25 
REMARK   11  A    between atoms: C22_31  and  C23_32 
REMARK   12  A    between atoms: C22_31  and  C24_37 
REMARK   13  A    between atoms: C23_32  and  N4_33 
ROOT
HETATM    1  C13 UNL     1     -10.695  44.606   1.543  1.00  0.00     0.135 C 
ENDROOT
BRANCH   1   2
HETATM    2  C4  UNL     1     -11.662  45.052   0.559  1.00  0.00     0.162 C 
BRANCH   2   3
HETATM    3  C2  UNL     1     -11.514  44.589  -0.844  1.00  0.00     0.008 C 
HETATM    4  C1  UNL     1     -12.590  43.662  -1.354  1.00  0.00     0.012 C 
HETATM    5  C3  UNL     1     -11.334  45.788  -1.769  1.00  0.00     0.012 C 
ENDBRANCH   2   3
BRANCH   2   6
HETATM    6  N1  UNL     1     -11.817  46.509   0.622  1.00  0.00    -0.341 N 
HETATM    7  C5  UNL     1     -12.797  47.198   1.358  1.00  0.00     0.310 C 
HETATM    8  O1  UNL     1     -13.636  46.568   2.031  1.00  0.00    -0.262 OA
ATOM      9  H1  UNL     1     -11.157  47.072   0.086  1.00  0.00     0.163 HD
BRANCH   7  10
HETATM   10  C6  UNL     1     -12.883  48.651   1.369  1.00  0.00     0.311 C 
HETATM   11  O2  UNL     1     -13.803  49.136   0.650  1.00  0.00    -0.262 OA
HETATM   12  N2  UNL     1     -12.049  49.522   2.094  1.00  0.00    -0.340 N 
HETATM   13  C7  UNL     1     -11.000  49.023   2.993  1.00  0.00     0.127 C 
HETATM   14  C11 UNL     1     -12.111  50.968   2.036  1.00  0.00     0.083 C 
HETATM   15  C8  UNL     1     -10.570  50.110   3.964  1.00  0.00     0.020 C 
HETATM   16  C9  UNL     1     -11.703  50.948   4.443  1.00  0.00     0.004 C 
HETATM   17  C10 UNL     1     -12.665  51.403   3.399  1.00  0.00     0.025 C 
HETATM   18  C12 UNL     1     -12.869  51.545   0.898  1.00  0.00     0.032 C 
ENDBRANCH   7  10
ENDBRANCH   2   6
ENDBRANCH   1   2
BRANCH   1  19
HETATM   19  O3  UNL     1     -10.494  45.430   2.528  1.00  0.00    -0.348 OA
ATOM     20  H3  UNL     1     -10.017  45.066   3.265  1.00  0.00     0.219 HD
ENDBRANCH   1  19
BRANCH   1  21
HETATM   21  N3  UNL     1      -9.935  43.437   1.622  1.00  0.00    -0.368 N 
ATOM     22  H3  UNL     1     -10.385  42.563   1.892  1.00  0.00     0.161 HD
BRANCH  21  23
HETATM   23  C14 UNL     1      -8.479  43.449   1.318  1.00  0.00     0.089 C 
BRANCH  23  24
HETATM   24  C15 UNL     1      -7.735  42.981   2.488  1.00  0.00     0.030 C 
BRANCH  24  25
HETATM   25  C16 UNL     1      -6.603  43.780   3.030  1.00  0.00    -0.013 C 
HETATM   26  C17 UNL     1      -5.245  43.503   2.517  1.00  0.00     0.005 C 
HETATM   27  C18 UNL     1      -4.292  44.558   3.119  1.00  0.00     0.000 C 
HETATM   28  C19 UNL     1      -4.663  45.935   2.641  1.00  0.00     0.000 C 
HETATM   29  C20 UNL     1      -6.034  46.235   3.260  1.00  0.00     0.000 C 
HETATM   30  C21 UNL     1      -6.972  45.236   2.681  1.00  0.00     0.005 C 
ENDBRANCH  24  25
ENDBRANCH  23  24
BRANCH  23  31
HETATM   31  C22 UNL     1      -8.290  42.572   0.087  1.00  0.00     0.037 C 
BRANCH  31  32
HETATM   32  C23 UNL     1      -8.164  43.397  -1.151  1.00  0.00     0.236 C 
BRANCH  32  33
HETATM   33  N4  UNL     1      -7.723  44.752  -0.886  1.00  0.00    -0.079 N 
ATOM     34  H43 UNL     1      -8.481  45.418  -1.036  1.00  0.00     0.274 HD
ATOM     35  H42 UNL     1      -7.569  44.896   0.113  1.00  0.00     0.274 HD
ATOM     36  H41 UNL     1      -6.897  45.014  -1.422  1.00  0.00     0.274 HD
ENDBRANCH  32  33
ENDBRANCH  31  32
BRANCH  31  37
HETATM   37  C24 UNL     1      -9.103  41.352   0.007  1.00  0.00    -0.015 C 
HETATM   38  C25 UNL     1      -9.835  41.251  -1.345  1.00  0.00     0.010 C 
HETATM   39  C26 UNL     1      -8.500  40.039   0.294  1.00  0.00     0.010 C 
ENDBRANCH  31  37
ENDBRANCH  23  31
ENDBRANCH  21  23
ENDBRANCH   1  21
TORSDOF 13
ENDMDL
MODEL 3
REMARK VINA RESULT: -7.051913569      2.900      7.503
REMARK  13 active torsions:
REMARK  status: ('A' for Active; 'I' for Inactive)
REMARK    1  A    between atoms: C2_2  and  C4_4 
REMARK    2  A    between atoms: C4_4  and  N1_5 
REMARK    3  A    between atoms: C4_4  and  C13_18 
REMARK       I    between atoms: N1_5  and  C5_7 
REMARK    4  A    between atoms: C5_7  and  C6_9 
REMARK       I    between atoms: C6_9  and  N2_11 
REMARK    5  A    between atoms: C13_18  and  O3_19 
REMARK    6  A    between atoms: C13_18  and  N3_21 
REMARK    7  A    between atoms: N3_21  and  C14_23 
REMARK    8  A    between atoms: C14_23  and  C15_24 
REMARK    9  A    between atoms: C14_23  and  C22_31 
REMARK   10  A    between atoms: C15_24  and  C16_25 
REMARK   11  A    between atoms: C22_31  and  C23_32 
REMARK   12  A    between atoms: C22_31  and  C24_37 
REMARK   13  A    between atoms: C23_32  and  N4_33 
ROOT
HETATM    1  C13 UNL     1      -8.070  43.826  -0.561  1.00  0.00     0.135 C 
ENDROOT
BRANCH   1   2
HETATM    2  C4  UNL     1      -7.815  42.581   0.136  1.00  0.00     0.162 C 
BRANCH   2   3
HETATM    3  C2  UNL     1      -8.951  41.654   0.374  1.00  0.00     0.008 C 
HETATM    4  C1  UNL     1      -9.986  41.579  -0.722  1.00  0.00     0.012 C 
HETATM    5  C3  UNL     1      -8.422  40.269   0.729  1.00  0.00     0.012 C 
ENDBRANCH   2   3
BRANCH   2   6
HETATM    6  N1  UNL     1      -7.071  42.834   1.375  1.00  0.00    -0.341 N 
HETATM    7  C5  UNL     1      -7.563  43.511   2.503  1.00  0.00     0.310 C 
HETATM    8  O1  UNL     1      -8.725  43.962   2.508  1.00  0.00    -0.262 OA
ATOM      9  H1  UNL     1      -6.112  42.488   1.421  1.00  0.00     0.163 HD
BRANCH   7  10
HETATM   10  C6  UNL     1      -6.757  43.720   3.698  1.00  0.00     0.311 C 
HETATM   11  O2  UNL     1      -6.923  42.860   4.609  1.00  0.00    -0.262 OA
HETATM   12  N2  UNL     1      -5.844  44.770   3.906  1.00  0.00    -0.340 N 
HETATM   13  C7  UNL     1      -5.562  45.769   2.866  1.00  0.00     0.127 C 
HETATM   14  C11 UNL     1      -5.105  44.996   5.131  1.00  0.00     0.083 C 
HETATM   15  C8  UNL     1      -4.257  46.489   3.161  1.00  0.00     0.020 C 
HETATM   16  C9  UNL     1      -3.207  45.592   3.716  1.00  0.00     0.004 C 
HETATM   17  C10 UNL     1      -3.648  44.657   4.790  1.00  0.00     0.025 C 
HETATM   18  C12 UNL     1      -5.596  44.276   6.332  1.00  0.00     0.032 C 
ENDBRANCH   7  10
ENDBRANCH   2   6
ENDBRANCH   1   2
BRANCH   1  19
HETATM   19  O3  UNL     1      -7.886  43.783  -1.847  1.00  0.00    -0.348 OA
ATOM     20  H3  UNL     1      -7.806  44.630  -2.270  1.00  0.00     0.219 HD
ENDBRANCH   1  19
BRANCH   1  21
HETATM   21  N3  UNL     1      -8.483  45.075  -0.093  1.00  0.00    -0.368 N 
ATOM     22  H3  UNL     1      -7.856  45.623   0.497  1.00  0.00     0.161 HD
BRANCH  21  23
HETATM   23  C14 UNL     1      -9.822  45.619  -0.441  1.00  0.00     0.089 C 
BRANCH  23  24
HETATM   24  C15 UNL     1     -10.857  44.815   0.211  1.00  0.00     0.030 C 
BRANCH  24  25
HETATM   25  C16 UNL     1     -12.171  44.597  -0.452  1.00  0.00    -0.013 C 
HETATM   26  C17 UNL     1     -13.258  45.562  -0.182  1.00  0.00     0.005 C 
HETATM   27  C18 UNL     1     -14.446  45.199  -1.099  1.00  0.00     0.000 C 
HETATM   28  C19 UNL     1     -14.065  45.369  -2.544  1.00  0.00     0.000 C 
HETATM   29  C20 UNL     1     -13.003  44.298  -2.823  1.00  0.00     0.000 C 
HETATM   30  C21 UNL     1     -11.842  44.638  -1.958  1.00  0.00     0.005 C 
ENDBRANCH  24  25
ENDBRANCH  23  24
BRANCH  23  31
HETATM   31  C22 UNL     1      -9.820  47.078  -0.004  1.00  0.00     0.037 C 
BRANCH  31  32
HETATM   32  C23 UNL     1     -10.178  47.212   1.439  1.00  0.00     0.236 C 
BRANCH  32  33
HETATM   33  N4  UNL     1      -9.022  47.191   2.313  1.00  0.00    -0.079 N 
ATOM     34  H43 UNL     1      -8.633  48.128   2.425  1.00  0.00     0.274 HD
ATOM     35  H42 UNL     1      -9.299  47.008   3.278  1.00  0.00     0.274 HD
ATOM     36  H41 UNL     1      -8.304  46.533   2.009  1.00  0.00     0.274 HD
ENDBRANCH  32  33
ENDBRANCH  31  32
BRANCH  31  37
HETATM   37  C24 UNL     1     -10.396  48.054  -0.938  1.00  0.00    -0.015 C 
HETATM   38  C25 UNL     1     -11.650  48.726  -0.345  1.00  0.00     0.010 C 
HETATM   39  C26 UNL     1      -9.552  49.109  -1.523  1.00  0.00     0.010 C 
ENDBRANCH  31  37
ENDBRANCH  23  31
ENDBRANCH  21  23
ENDBRANCH   1  21
TORSDOF 13
ENDMDL
MODEL 4
REMARK VINA RESULT: -7.027058883      2.557      4.192
REMARK  13 active torsions:
REMARK  status: ('A' for Active; 'I' for Inactive)
REMARK    1  A    between atoms: C2_2  and  C4_4 
REMARK    2  A    between atoms: C4_4  and  N1_5 
REMARK    3  A    between atoms: C4_4  and  C13_18 
REMARK       I    between atoms: N1_5  and  C5_7 
REMARK    4  A    between atoms: C5_7  and  C6_9 
REMARK       I    between atoms: C6_9  and  N2_11 
REMARK    5  A    between atoms: C13_18  and  O3_19 
REMARK    6  A    between atoms: C13_18  and  N3_21 
REMARK    7  A    between atoms: N3_21  and  C14_23 
REMARK    8  A    between atoms: C14_23  and  C15_24 
REMARK    9  A    between atoms: C14_23  and  C22_31 
REMARK   10  A    between atoms: C15_24  and  C16_25 
REMARK   11  A    between atoms: C22_31  and  C23_32 
REMARK   12  A    between atoms: C22_31  and  C24_37 
REMARK   13  A    between atoms: C23_32  and  N4_33 
ROOT
HETATM    1  C13 UNL     1     -13.044  44.651  -1.302  1.00  0.00     0.135 C 
ENDROOT
BRANCH   1   2
HETATM    2  C4  UNL     1     -14.210  45.482  -1.082  1.00  0.00     0.162 C 
BRANCH   2   3
HETATM    3  C2  UNL     1     -15.287  45.481  -2.104  1.00  0.00     0.008 C 
HETATM    4  C1  UNL     1     -14.855  45.198  -3.522  1.00  0.00     0.012 C 
HETATM    5  C3  UNL     1     -16.410  44.546  -1.672  1.00  0.00     0.012 C 
ENDBRANCH   2   3
BRANCH   2   6
HETATM    6  N1  UNL     1     -13.804  46.850  -0.741  1.00  0.00    -0.341 N 
HETATM    7  C5  UNL     1     -14.000  47.478   0.501  1.00  0.00     0.310 C 
HETATM    8  O1  UNL     1     -14.565  46.870   1.431  1.00  0.00    -0.262 OA
ATOM      9  H1  UNL     1     -13.339  47.393  -1.469  1.00  0.00     0.163 HD
BRANCH   7  10
HETATM   10  C6  UNL     1     -13.564  48.842   0.760  1.00  0.00     0.311 C 
HETATM   11  O2  UNL     1     -14.121  49.725   0.046  1.00  0.00    -0.262 OA
HETATM   12  N2  UNL     1     -12.604  49.237   1.709  1.00  0.00    -0.340 N 
HETATM   13  C7  UNL     1     -11.962  48.271   2.610  1.00  0.00     0.127 C 
HETATM   14  C11 UNL     1     -12.137  50.595   1.902  1.00  0.00     0.083 C 
HETATM   15  C8  UNL     1     -11.337  48.984   3.797  1.00  0.00     0.020 C 
HETATM   16  C9  UNL     1     -12.159  50.120   4.296  1.00  0.00     0.004 C 
HETATM   17  C10 UNL     1     -12.713  51.031   3.255  1.00  0.00     0.025 C 
HETATM   18  C12 UNL     1     -12.445  51.553   0.811  1.00  0.00     0.032 C 
ENDBRANCH   7  10
ENDBRANCH   2   6
ENDBRANCH   1   2
BRANCH   1  19
HETATM   19  O3  UNL     1     -13.262  43.371  -1.245  1.00  0.00    -0.348 OA
ATOM     20  H3  UNL     1     -13.472  42.962  -2.076  1.00  0.00     0.219 HD
ENDBRANCH   1  19
BRANCH   1  21
HETATM   21  N3  UNL     1     -11.714  44.984  -1.568  1.00  0.00    -0.368 N 
ATOM     22  H3  UNL     1     -11.476  45.437  -2.450  1.00  0.00     0.161 HD
BRANCH  21  23
HETATM   23  C14 UNL     1     -10.638  44.687  -0.584  1.00  0.00     0.089 C 
BRANCH  23  24
HETATM   24  C15 UNL     1      -9.424  44.287  -1.297  1.00  0.00     0.030 C 
BRANCH  24  25
HETATM   25  C16 UNL     1      -8.668  43.078  -0.877  1.00  0.00    -0.013 C 
HETATM   26  C17 UNL     1      -7.923  43.128   0.399  1.00  0.00     0.005 C 
HETATM   27  C18 UNL     1      -7.362  41.716   0.672  1.00  0.00     0.000 C 
HETATM   28  C19 UNL     1      -8.485  40.733   0.864  1.00  0.00     0.000 C 
HETATM   29  C20 UNL     1      -9.184  40.629  -0.497  1.00  0.00     0.000 C 
HETATM   30  C21 UNL     1      -9.745  41.980  -0.772  1.00  0.00     0.005 C 
ENDBRANCH  24  25
ENDBRANCH  23  24
BRANCH  23  31
HETATM   31  C22 UNL     1     -10.464  45.947   0.254  1.00  0.00     0.037 C 
BRANCH  31  32
HETATM   32  C23 UNL     1      -9.610  46.950  -0.447  1.00  0.00     0.236 C 
BRANCH  32  33
HETATM   33  N4  UNL     1     -10.336  48.145  -0.828  1.00  0.00    -0.079 N 
ATOM     34  H43 UNL     1     -10.566  48.708  -0.008  1.00  0.00     0.274 HD
ATOM     35  H42 UNL     1      -9.726  48.802  -1.316  1.00  0.00     0.274 HD
ATOM     36  H41 UNL     1     -11.171  47.946  -1.379  1.00  0.00     0.274 HD
ENDBRANCH  32  33
ENDBRANCH  31  32
BRANCH  31  37
HETATM   37  C24 UNL     1     -10.249  45.764   1.695  1.00  0.00    -0.015 C 
HETATM   38  C25 UNL     1     -10.708  44.368   2.159  1.00  0.00     0.010 C 
HETATM   39  C26 UNL     1      -8.924  46.023   2.286  1.00  0.00     0.010 C 
ENDBRANCH  31  37
ENDBRANCH  23  31
ENDBRANCH  21  23
ENDBRANCH   1  21
TORSDOF 13
ENDMDL
MODEL 5
REMARK VINA RESULT: -7.004501751      2.957      8.285
REMARK  13 active torsions:
REMARK  status: ('A' for Active; 'I' for Inactive)
REMARK    1  A    between atoms: C2_2  and  C4_4 
REMARK    2  A    between atoms: C4_4  and  N1_5 
REMARK    3  A    between atoms: C4_4  and  C13_18 
REMARK       I    between atoms: N1_5  and  C5_7 
REMARK    4  A    between atoms: C5_7  and  C6_9 
REMARK       I    between atoms: C6_9  and  N2_11 
REMARK    5  A    between atoms: C13_18  and  O3_19 
REMARK    6  A    between atoms: C13_18  and  N3_21 
REMARK    7  A    between atoms: N3_21  and  C14_23 
REMARK    8  A    between atoms: C14_23  and  C15_24 
REMARK    9  A    between atoms: C14_23  and  C22_31 
REMARK   10  A    between atoms: C15_24  and  C16_25 
REMARK   11  A    between atoms: C22_31  and  C23_32 
REMARK   12  A    between atoms: C22_31  and  C24_37 
REMARK   13  A    between atoms: C23_32  and  N4_33 
ROOT
HETATM    1  C13 UNL     1     -11.481  44.131  -1.840  1.00  0.00     0.135 C 
ENDROOT
BRANCH   1   2
HETATM    2  C4  UNL     1     -10.355  43.283  -1.501  1.00  0.00     0.162 C 
BRANCH   2   3
HETATM    3  C2  UNL     1     -10.622  41.968  -0.866  1.00  0.00     0.008 C 
HETATM    4  C1  UNL     1     -11.721  41.141  -1.488  1.00  0.00     0.012 C 
HETATM    5  C3  UNL     1      -9.326  41.173  -0.760  1.00  0.00     0.012 C 
ENDBRANCH   2   3
BRANCH   2   6
HETATM    6  N1  UNL     1      -9.355  44.044  -0.745  1.00  0.00    -0.341 N 
HETATM    7  C5  UNL     1      -9.492  44.487   0.581  1.00  0.00     0.310 C 
HETATM    8  O1  UNL     1     -10.536  44.246   1.219  1.00  0.00    -0.262 OA
ATOM      9  H1  UNL     1      -8.482  44.270  -1.223  1.00  0.00     0.163 HD
BRANCH   7  10
HETATM   10  C6  UNL     1      -8.448  45.238   1.264  1.00  0.00     0.311 C 
HETATM   11  O2  UNL     1      -8.717  46.455   1.474  1.00  0.00    -0.262 OA
HETATM   12  N2  UNL     1      -7.208  44.728   1.689  1.00  0.00    -0.340 N 
HETATM   13  C7  UNL     1      -6.856  43.311   1.529  1.00  0.00     0.127 C 
HETATM   14  C11 UNL     1      -6.157  45.511   2.305  1.00  0.00     0.083 C 
HETATM   15  C8  UNL     1      -5.703  42.942   2.447  1.00  0.00     0.020 C 
HETATM   16  C9  UNL     1      -5.782  43.601   3.779  1.00  0.00     0.004 C 
HETATM   17  C10 UNL     1      -6.118  45.053   3.769  1.00  0.00     0.025 C 
HETATM   18  C12 UNL     1      -6.273  46.984   2.167  1.00  0.00     0.032 C 
ENDBRANCH   7  10
ENDBRANCH   2   6
ENDBRANCH   1   2
BRANCH   1  19
HETATM   19  O3  UNL     1     -11.455  44.625  -3.042  1.00  0.00    -0.348 OA
ATOM     20  H3  UNL     1     -11.498  45.573  -3.088  1.00  0.00     0.219 HD
ENDBRANCH   1  19
BRANCH   1  21
HETATM   21  N3  UNL     1     -12.600  44.515  -1.098  1.00  0.00    -0.368 N 
ATOM     22  H3  UNL     1     -13.041  43.844  -0.469  1.00  0.00     0.161 HD
BRANCH  21  23
HETATM   23  C14 UNL     1     -13.160  45.888  -1.211  1.00  0.00     0.089 C 
BRANCH  23  24
HETATM   24  C15 UNL     1     -14.587  45.807  -1.525  1.00  0.00     0.030 C 
BRANCH  24  25
HETATM   25  C16 UNL     1     -15.039  45.613  -2.928  1.00  0.00    -0.013 C 
HETATM   26  C17 UNL     1     -15.337  44.238  -3.383  1.00  0.00     0.005 C 
HETATM   27  C18 UNL     1     -15.925  44.331  -4.807  1.00  0.00     0.000 C 
HETATM   28  C19 UNL     1     -17.234  45.073  -4.787  1.00  0.00     0.000 C 
HETATM   29  C20 UNL     1     -16.887  46.518  -4.403  1.00  0.00     0.000 C 
HETATM   30  C21 UNL     1     -16.330  46.451  -3.025  1.00  0.00     0.005 C 
ENDBRANCH  24  25
ENDBRANCH  23  24
BRANCH  23  31
HETATM   31  C22 UNL     1     -12.867  46.582   0.113  1.00  0.00     0.037 C 
BRANCH  31  32
HETATM   32  C23 UNL     1     -14.070  46.594   0.996  1.00  0.00     0.236 C 
BRANCH  32  33
HETATM   33  N4  UNL     1     -14.165  45.419   1.840  1.00  0.00    -0.079 N 
ATOM     34  H43 UNL     1     -14.096  44.565   1.286  1.00  0.00     0.274 HD
ATOM     35  H42 UNL     1     -13.327  45.315   2.413  1.00  0.00     0.274 HD
ATOM     36  H41 UNL     1     -15.005  45.411   2.419  1.00  0.00     0.274 HD
ENDBRANCH  32  33
ENDBRANCH  31  32
BRANCH  31  37
HETATM   37  C24 UNL     1     -12.054  47.803   0.060  1.00  0.00    -0.015 C 
HETATM   38  C25 UNL     1     -10.965  47.707  -1.026  1.00  0.00     0.010 C 
HETATM   39  C26 UNL     1     -12.702  49.120  -0.065  1.00  0.00     0.010 C 
ENDBRANCH  31  37
ENDBRANCH  23  31
ENDBRANCH  21  23
ENDBRANCH   1  21
TORSDOF 13
ENDMDL
