MODEL 1
REMARK VINA RESULT: -8.045475963      0.000      0.000
REMARK  8 active torsions:
REMARK  status: ('A' for Active; 'I' for Inactive)
REMARK    1  A    between atoms: C2_2  and  C3_3 
REMARK    2  A    between atoms: C3_3  and  S1_4 
REMARK    3  A    between atoms: S1_4  and  N1_7 
REMARK    4  A    between atoms: N1_7  and  C4_9 
REMARK    5  A    between atoms: C10_22  and  C11_23 
REMARK    6  A    between atoms: C11_23  and  N5_24 
REMARK    7  A    between atoms: N5_24  and  C12_25 
REMARK    8  A    between atoms: N5_24  and  C15_28 
ROOT
HETATM    1  C4  UNL     1     -12.071  44.501  -0.393  1.00  0.00     0.144 A 
HETATM    2  N2  UNL     1     -12.536  43.954  -1.551  1.00  0.00    -0.284 N 
ATOM      3  H2  UNL     1     -13.406  44.221  -2.012  1.00  0.00     0.188 HD
HETATM    4  N3  UNL     1     -11.703  43.030  -1.994  1.00  0.00    -0.302 N 
ATOM      5  H3  UNL     1     -11.831  42.479  -2.842  1.00  0.00     0.186 HD
HETATM    6  C5  UNL     1     -10.646  42.927  -1.141  1.00  0.00     0.042 A 
HETATM    7  C6  UNL     1     -10.877  43.844  -0.148  1.00  0.00     0.061 A 
HETATM    8  C7  UNL     1      -9.983  44.109   1.012  1.00  0.00     0.052 C 
HETATM    9  N4  UNL     1     -10.294  44.957   1.830  1.00  0.00    -0.398 N 
ATOM     10  H41 UNL     1      -9.681  45.138   2.625  1.00  0.00     0.156 HD
ATOM     11  H42 UNL     1     -11.173  45.447   1.665  1.00  0.00     0.156 HD
HETATM   12  C8  UNL     1      -8.697  43.393   1.253  1.00  0.00    -0.002 A 
HETATM   13  C9  UNL     1      -7.860  44.132   2.093  1.00  0.00     0.023 A 
HETATM   14  C10 UNL     1      -6.629  43.634   2.429  1.00  0.00    -0.029 A 
HETATM   15  C18 UNL     1      -6.272  42.390   1.907  1.00  0.00     0.009 A 
HETATM   16  C19 UNL     1      -7.105  41.668   1.081  1.00  0.00     0.009 A 
HETATM   17  C20 UNL     1      -8.368  42.168   0.728  1.00  0.00    -0.045 A 
HETATM   18  C21 UNL     1      -9.110  41.248  -0.157  1.00  0.00     0.045 C 
HETATM   19  C22 UNL     1      -9.565  41.946  -1.412  1.00  0.00     0.064 C 
ENDROOT
BRANCH   1  20
HETATM   20  N1  UNL     1     -12.544  45.390   0.353  1.00  0.00    -0.268 N 
ATOM     21  H1  UNL     1     -11.835  45.832   0.938  1.00  0.00     0.180 HD
BRANCH  20  22
HETATM   22  S1  UNL     1     -14.064  46.012   0.608  1.00  0.00     0.232 S 
HETATM   23  O1  UNL     1     -14.606  45.392   1.907  1.00  0.00    -0.206 OA
HETATM   24  O2  UNL     1     -14.963  45.580  -0.535  1.00  0.00    -0.206 OA
BRANCH  22  25
HETATM   25  C3  UNL     1     -14.231  47.741   0.782  1.00  0.00     0.163 C 
BRANCH  25  26
HETATM   26  C2  UNL     1     -12.822  48.351   0.882  1.00  0.00     0.012 C 
HETATM   27  C1  UNL     1     -12.329  48.475   2.282  1.00  0.00     0.006 C 
ENDBRANCH  25  26
ENDBRANCH  22  25
ENDBRANCH  20  22
ENDBRANCH   1  20
BRANCH  14  28
HETATM   28  C11 UNL     1      -5.648  44.310   3.317  1.00  0.00     0.311 C 
BRANCH  28  29
HETATM   29  N5  UNL     1      -6.295  45.162   4.292  1.00  0.00     0.100 N 
BRANCH  29  30
HETATM   30  C12 UNL     1      -6.335  44.529   5.539  1.00  0.00     0.216 C 
HETATM   31  C13 UNL     1      -5.231  43.515   5.772  1.00  0.00     0.042 C 
HETATM   32  C14 UNL     1      -6.487  45.452   6.743  1.00  0.00     0.042 C 
ENDBRANCH  29  30
BRANCH  29  33
HETATM   33  C15 UNL     1      -5.869  46.479   4.127  1.00  0.00     0.216 C 
HETATM   34  C16 UNL     1      -6.678  47.423   3.311  1.00  0.00     0.042 C 
HETATM   35  C17 UNL     1      -4.477  46.410   3.458  1.00  0.00     0.042 C 
ENDBRANCH  29  33
ENDBRANCH  28  29
ENDBRANCH  14  28
TORSDOF 8
ENDMDL
MODEL 2
REMARK VINA RESULT: -8.035929710      3.184      7.484
REMARK  8 active torsions:
REMARK  status: ('A' for Active; 'I' for Inactive)
REMARK    1  A    between atoms: C2_2  and  C3_3 
REMARK    2  A    between atoms: C3_3  and  S1_4 
REMARK    3  A    between atoms: S1_4  and  N1_7 
REMARK    4  A    between atoms: N1_7  and  C4_9 
REMARK    5  A    between atoms: C10_22  and  C11_23 
REMARK    6  A    between atoms: C11_23  and  N5_24 
REMARK    7  A    between atoms: N5_24  and  C12_25 
REMARK    8  A    between atoms: N5_24  and  C15_28 
ROOT
HETATM    1  C4  UNL     1      -6.909  44.041   1.628  1.00  0.00     0.144 A 
HETATM    2  N2  UNL     1      -6.361  42.907   2.150  1.00  0.00    -0.284 N 
ATOM      3  H2  UNL     1      -5.551  42.886   2.771  1.00  0.00     0.188 HD
HETATM    4  N3  UNL     1      -7.024  41.841   1.741  1.00  0.00    -0.302 N 
ATOM      5  H3  UNL     1      -6.806  40.878   1.995  1.00  0.00     0.186 HD
HETATM    6  C5  UNL     1      -8.045  42.227   0.926  1.00  0.00     0.042 A 
HETATM    7  C6  UNL     1      -7.972  43.595   0.860  1.00  0.00     0.061 A 
HETATM    8  C7  UNL     1      -8.893  44.476   0.092  1.00  0.00     0.052 C 
HETATM    9  N4  UNL     1      -8.731  45.684   0.115  1.00  0.00    -0.398 N 
ATOM     10  H41 UNL     1      -9.363  46.287  -0.411  1.00  0.00     0.156 HD
ATOM     11  H42 UNL     1      -7.950  46.026   0.674  1.00  0.00     0.156 HD
HETATM   12  C8  UNL     1     -10.037  43.975  -0.726  1.00  0.00    -0.002 A 
HETATM   13  C9  UNL     1     -10.986  44.979  -0.932  1.00  0.00     0.023 A 
HETATM   14  C10 UNL     1     -12.111  44.706  -1.663  1.00  0.00    -0.029 A 
HETATM   15  C18 UNL     1     -12.250  43.415  -2.175  1.00  0.00     0.009 A 
HETATM   16  C19 UNL     1     -11.307  42.433  -1.967  1.00  0.00     0.009 A 
HETATM   17  C20 UNL     1     -10.151  42.699  -1.219  1.00  0.00    -0.045 A 
HETATM   18  C21 UNL     1      -9.264  41.523  -1.114  1.00  0.00     0.045 C 
HETATM   19  C22 UNL     1      -8.941  41.209   0.323  1.00  0.00     0.064 C 
ENDROOT
BRANCH   1  20
HETATM   20  N1  UNL     1      -6.594  45.247   1.751  1.00  0.00    -0.268 N 
ATOM     21  H1  UNL     1      -6.117  45.614   0.927  1.00  0.00     0.180 HD
BRANCH  20  22
HETATM   22  S1  UNL     1      -6.775  46.385   2.948  1.00  0.00     0.232 S 
HETATM   23  O1  UNL     1      -8.274  46.473   3.279  1.00  0.00    -0.206 OA
HETATM   24  O2  UNL     1      -6.328  47.731   2.409  1.00  0.00    -0.206 OA
BRANCH  22  25
HETATM   25  C3  UNL     1      -5.950  46.127   4.464  1.00  0.00     0.163 C 
BRANCH  25  26
HETATM   26  C2  UNL     1      -6.719  45.055   5.254  1.00  0.00     0.012 C 
HETATM   27  C1  UNL     1      -5.890  43.869   5.605  1.00  0.00     0.006 C 
ENDBRANCH  25  26
ENDBRANCH  22  25
ENDBRANCH  20  22
ENDBRANCH   1  20
BRANCH  14  28
HETATM   28  C11 UNL     1     -13.191  45.682  -1.965  1.00  0.00     0.311 C 
BRANCH  28  29
HETATM   29  N5  UNL     1     -14.367  45.459  -1.151  1.00  0.00     0.100 N 
BRANCH  29  30
HETATM   30  C12 UNL     1     -14.394  46.361  -0.081  1.00  0.00     0.216 C 
HETATM   31  C13 UNL     1     -13.997  45.769   1.258  1.00  0.00     0.042 C 
HETATM   32  C14 UNL     1     -13.684  47.688  -0.319  1.00  0.00     0.042 C 
ENDBRANCH  29  30
BRANCH  29  33
HETATM   33  C15 UNL     1     -15.471  45.224  -1.968  1.00  0.00     0.216 C 
HETATM   34  C16 UNL     1     -15.952  43.833  -2.183  1.00  0.00     0.042 C 
HETATM   35  C17 UNL     1     -15.110  45.778  -3.366  1.00  0.00     0.042 C 
ENDBRANCH  29  33
ENDBRANCH  28  29
ENDBRANCH  14  28
TORSDOF 8
ENDMDL
MODEL 3
REMARK VINA RESULT: -7.955273310      0.978      1.767
REMARK  8 active torsions:
REMARK  status: ('A' for Active; 'I' for Inactive)
REMARK    1  A    between atoms: C2_2  and  C3_3 
REMARK    2  A    between atoms: C3_3  and  S1_4 
REMARK    3  A    between atoms: S1_4  and  N1_7 
REMARK    4  A    between atoms: N1_7  and  C4_9 
REMARK    5  A    between atoms: C10_22  and  C11_23 
REMARK    6  A    between atoms: C11_23  and  N5_24 
REMARK    7  A    between atoms: N5_24  and  C12_25 
REMARK    8  A    between atoms: N5_24  and  C15_28 
ROOT
HETATM    1  C4  UNL     1     -12.143  44.298  -0.482  1.00  0.00     0.144 A 
HETATM    2  N2  UNL     1     -12.494  43.806  -1.703  1.00  0.00    -0.284 N 
ATOM      3  H2  UNL     1     -13.356  44.037  -2.197  1.00  0.00     0.188 HD
HETATM    4  N3  UNL     1     -11.562  42.987  -2.158  1.00  0.00    -0.302 N 
ATOM      5  H3  UNL     1     -11.596  42.495  -3.050  1.00  0.00     0.186 HD
HETATM    6  C5  UNL     1     -10.550  42.904  -1.251  1.00  0.00     0.042 A 
HETATM    7  C6  UNL     1     -10.913  43.721  -0.211  1.00  0.00     0.061 A 
HETATM    8  C7  UNL     1     -10.112  43.965   1.019  1.00  0.00     0.052 C 
HETATM    9  N4  UNL     1     -10.538  44.722   1.875  1.00  0.00    -0.398 N 
ATOM     10  H41 UNL     1      -9.989  44.889   2.718  1.00  0.00     0.156 HD
ATOM     11  H42 UNL     1     -11.445  45.150   1.691  1.00  0.00     0.156 HD
HETATM   12  C8  UNL     1      -8.785  43.338   1.288  1.00  0.00    -0.002 A 
HETATM   13  C9  UNL     1      -8.062  44.075   2.229  1.00  0.00     0.023 A 
HETATM   14  C10 UNL     1      -6.815  43.652   2.605  1.00  0.00    -0.029 A 
HETATM   15  C18 UNL     1      -6.326  42.484   2.018  1.00  0.00     0.009 A 
HETATM   16  C19 UNL     1      -7.048  41.764   1.093  1.00  0.00     0.009 A 
HETATM   17  C20 UNL     1      -8.326  42.187   0.698  1.00  0.00    -0.045 A 
HETATM   18  C21 UNL     1      -8.937  41.282  -0.296  1.00  0.00     0.045 C 
HETATM   19  C22 UNL     1      -9.377  42.035  -1.524  1.00  0.00     0.064 C 
ENDROOT
BRANCH   1  20
HETATM   20  N1  UNL     1     -12.730  45.085   0.295  1.00  0.00    -0.268 N 
ATOM     21  H1  UNL     1     -12.192  45.281   1.138  1.00  0.00     0.180 HD
BRANCH  20  22
HETATM   22  S1  UNL     1     -14.188  45.884   0.265  1.00  0.00     0.232 S 
HETATM   23  O1  UNL     1     -14.803  45.775   1.670  1.00  0.00    -0.206 OA
HETATM   24  O2  UNL     1     -15.108  45.178  -0.712  1.00  0.00    -0.206 OA
BRANCH  22  25
HETATM   25  C3  UNL     1     -14.192  47.581  -0.144  1.00  0.00     0.163 C 
BRANCH  25  26
HETATM   26  C2  UNL     1     -12.798  48.153   0.166  1.00  0.00     0.012 C 
HETATM   27  C1  UNL     1     -12.642  48.603   1.577  1.00  0.00     0.006 C 
ENDBRANCH  25  26
ENDBRANCH  22  25
ENDBRANCH  20  22
ENDBRANCH   1  20
BRANCH  14  28
HETATM   28  C11 UNL     1      -5.946  44.334   3.600  1.00  0.00     0.311 C 
BRANCH  28  29
HETATM   29  N5  UNL     1      -4.891  45.097   2.967  1.00  0.00     0.100 N 
BRANCH  29  30
HETATM   30  C12 UNL     1      -5.212  46.459   2.965  1.00  0.00     0.216 C 
HETATM   31  C13 UNL     1      -5.687  46.996   1.629  1.00  0.00     0.042 C 
HETATM   32  C14 UNL     1      -6.126  46.923   4.093  1.00  0.00     0.042 C 
ENDBRANCH  29  30
BRANCH  29  33
HETATM   33  C15 UNL     1      -3.648  44.613   3.373  1.00  0.00     0.216 C 
HETATM   34  C16 UNL     1      -3.140  44.926   4.735  1.00  0.00     0.042 C 
HETATM   35  C17 UNL     1      -2.609  45.184   2.381  1.00  0.00     0.042 C 
ENDBRANCH  29  33
ENDBRANCH  28  29
ENDBRANCH  14  28
TORSDOF 8
ENDMDL
MODEL 4
REMARK VINA RESULT: -7.815694285      1.717      2.758
REMARK  8 active torsions:
REMARK  status: ('A' for Active; 'I' for Inactive)
REMARK    1  A    between atoms: C2_2  and  C3_3 
REMARK    2  A    between atoms: C3_3  and  S1_4 
REMARK    3  A    between atoms: S1_4  and  N1_7 
REMARK    4  A    between atoms: N1_7  and  C4_9 
REMARK    5  A    between atoms: C10_22  and  C11_23 
REMARK    6  A    between atoms: C11_23  and  N5_24 
REMARK    7  A    between atoms: N5_24  and  C12_25 
REMARK    8  A    between atoms: N5_24  and  C15_28 
ROOT
HETATM    1  C4  UNL     1     -12.023  44.183  -0.776  1.00  0.00     0.144 A 
HETATM    2  N2  UNL     1     -12.440  43.340  -1.762  1.00  0.00    -0.284 N 
ATOM      3  H2  UNL     1     -13.317  43.433  -2.275  1.00  0.00     0.188 HD
HETATM    4  N3  UNL     1     -11.549  42.385  -1.962  1.00  0.00    -0.302 N 
ATOM      5  H3  UNL     1     -11.634  41.635  -2.646  1.00  0.00     0.186 HD
HETATM    6  C5  UNL     1     -10.500  42.558  -1.110  1.00  0.00     0.042 A 
HETATM    7  C6  UNL     1     -10.797  43.678  -0.376  1.00  0.00     0.061 A 
HETATM    8  C7  UNL     1      -9.937  44.273   0.682  1.00  0.00     0.052 C 
HETATM    9  N4  UNL     1     -10.307  45.279   1.264  1.00  0.00    -0.398 N 
ATOM     10  H41 UNL     1      -9.716  45.687   1.990  1.00  0.00     0.156 HD
ATOM     11  H42 UNL     1     -11.210  45.660   0.983  1.00  0.00     0.156 HD
HETATM   12  C8  UNL     1      -8.615  43.716   1.094  1.00  0.00    -0.002 A 
HETATM   13  C9  UNL     1      -7.834  44.687   1.724  1.00  0.00     0.023 A 
HETATM   14  C10 UNL     1      -6.582  44.361   2.173  1.00  0.00    -0.029 A 
HETATM   15  C18 UNL     1      -6.148  43.049   1.976  1.00  0.00     0.009 A 
HETATM   16  C19 UNL     1      -6.927  42.098   1.355  1.00  0.00     0.009 A 
HETATM   17  C20 UNL     1      -8.211  42.420   0.889  1.00  0.00    -0.045 A 
HETATM   18  C21 UNL     1      -8.887  41.268   0.260  1.00  0.00     0.045 C 
HETATM   19  C22 UNL     1      -9.362  41.605  -1.129  1.00  0.00     0.064 C 
ENDROOT
BRANCH   1  20
HETATM   20  N1  UNL     1     -12.557  45.200  -0.274  1.00  0.00    -0.268 N 
ATOM     21  H1  UNL     1     -11.928  45.707   0.349  1.00  0.00     0.180 HD
BRANCH  20  22
HETATM   22  S1  UNL     1     -14.055  45.910  -0.391  1.00  0.00     0.232 S 
HETATM   23  O1  UNL     1     -13.864  47.424  -0.203  1.00  0.00    -0.206 OA
HETATM   24  O2  UNL     1     -14.924  45.397   0.742  1.00  0.00    -0.206 OA
BRANCH  22  25
HETATM   25  C3  UNL     1     -14.951  45.707  -1.874  1.00  0.00     0.163 C 
BRANCH  25  26
HETATM   26  C2  UNL     1     -15.932  44.537  -1.686  1.00  0.00     0.012 C 
HETATM   27  C1  UNL     1     -16.240  43.813  -2.951  1.00  0.00     0.006 C 
ENDBRANCH  25  26
ENDBRANCH  22  25
ENDBRANCH  20  22
ENDBRANCH   1  20
BRANCH  14  28
HETATM   28  C11 UNL     1      -5.654  45.292   2.866  1.00  0.00     0.311 C 
BRANCH  28  29
HETATM   29  N5  UNL     1      -4.574  44.591   3.527  1.00  0.00     0.100 N 
BRANCH  29  30
HETATM   30  C12 UNL     1      -3.347  44.933   2.948  1.00  0.00     0.216 C 
HETATM   31  C13 UNL     1      -3.339  46.261   2.216  1.00  0.00     0.042 C 
HETATM   32  C14 UNL     1      -2.131  44.809   3.859  1.00  0.00     0.042 C 
ENDBRANCH  29  30
BRANCH  29  33
HETATM   33  C15 UNL     1      -4.785  44.588   4.905  1.00  0.00     0.216 C 
HETATM   34  C16 UNL     1      -5.490  43.447   5.545  1.00  0.00     0.042 C 
HETATM   35  C17 UNL     1      -5.621  45.850   5.224  1.00  0.00     0.042 C 
ENDBRANCH  29  33
ENDBRANCH  28  29
ENDBRANCH  14  28
TORSDOF 8
ENDMDL
MODEL 5
REMARK VINA RESULT: -7.768078991      3.763      7.684
REMARK  8 active torsions:
REMARK  status: ('A' for Active; 'I' for Inactive)
REMARK    1  A    between atoms: C2_2  and  C3_3 
REMARK    2  A    between atoms: C3_3  and  S1_4 
REMARK    3  A    between atoms: S1_4  and  N1_7 
REMARK    4  A    between atoms: N1_7  and  C4_9 
REMARK    5  A    between atoms: C10_22  and  C11_23 
REMARK    6  A    between atoms: C11_23  and  N5_24 
REMARK    7  A    between atoms: N5_24  and  C12_25 
REMARK    8  A    between atoms: N5_24  and  C15_28 
ROOT
HETATM    1  C4  UNL     1      -6.898  44.229   1.598  1.00  0.00     0.144 A 
HETATM    2  N2  UNL     1      -6.329  43.133   2.175  1.00  0.00    -0.284 N 
ATOM      3  H2  UNL     1      -5.517  43.157   2.792  1.00  0.00     0.188 HD
HETATM    4  N3  UNL     1      -6.977  42.036   1.826  1.00  0.00    -0.302 N 
ATOM      5  H3  UNL     1      -6.742  41.092   2.130  1.00  0.00     0.186 HD
HETATM    6  C5  UNL     1      -8.008  42.363   0.998  1.00  0.00     0.042 A 
HETATM    7  C6  UNL     1      -7.957  43.726   0.860  1.00  0.00     0.061 A 
HETATM    8  C7  UNL     1      -8.897  44.550   0.052  1.00  0.00     0.052 C 
HETATM    9  N4  UNL     1      -8.754  45.761   0.011  1.00  0.00    -0.398 N 
ATOM     10  H41 UNL     1      -9.398  46.325  -0.543  1.00  0.00     0.156 HD
ATOM     11  H42 UNL     1      -7.975  46.144   0.547  1.00  0.00     0.156 HD
HETATM   12  C8  UNL     1     -10.036  43.989  -0.731  1.00  0.00    -0.002 A 
HETATM   13  C9  UNL     1     -11.002  44.966  -0.984  1.00  0.00     0.023 A 
HETATM   14  C10 UNL     1     -12.126  44.637  -1.694  1.00  0.00    -0.029 A 
HETATM   15  C18 UNL     1     -12.247  43.319  -2.136  1.00  0.00     0.009 A 
HETATM   16  C19 UNL     1     -11.288  42.364  -1.883  1.00  0.00     0.009 A 
HETATM   17  C20 UNL     1     -10.132  42.688  -1.156  1.00  0.00    -0.045 A 
HETATM   18  C21 UNL     1      -9.226  41.533  -0.995  1.00  0.00     0.045 C 
HETATM   19  C22 UNL     1      -8.891  41.300   0.455  1.00  0.00     0.064 C 
ENDROOT
BRANCH   1  20
HETATM   20  N1  UNL     1      -6.602  45.444   1.655  1.00  0.00    -0.268 N 
ATOM     21  H1  UNL     1      -7.160  46.016   1.021  1.00  0.00     0.180 HD
BRANCH  20  22
HETATM   22  S1  UNL     1      -5.505  46.339   2.527  1.00  0.00     0.232 S 
HETATM   23  O1  UNL     1      -4.183  45.555   2.549  1.00  0.00    -0.206 OA
HETATM   24  O2  UNL     1      -6.007  46.464   3.953  1.00  0.00    -0.206 OA
BRANCH  22  25
HETATM   25  C3  UNL     1      -5.116  47.945   1.965  1.00  0.00     0.163 C 
BRANCH  25  26
HETATM   26  C2  UNL     1      -4.439  47.821   0.590  1.00  0.00     0.012 C 
HETATM   27  C1  UNL     1      -5.375  48.015  -0.552  1.00  0.00     0.006 C 
ENDBRANCH  25  26
ENDBRANCH  22  25
ENDBRANCH  20  22
ENDBRANCH   1  20
BRANCH  14  28
HETATM   28  C11 UNL     1     -13.223  45.579  -2.040  1.00  0.00     0.311 C 
BRANCH  28  29
HETATM   29  N5  UNL     1     -14.386  45.392  -1.199  1.00  0.00     0.100 N 
BRANCH  29  30
HETATM   30  C12 UNL     1     -14.372  46.309  -0.142  1.00  0.00     0.216 C 
HETATM   31  C13 UNL     1     -13.975  45.725   1.200  1.00  0.00     0.042 C 
HETATM   32  C14 UNL     1     -13.627  47.612  -0.410  1.00  0.00     0.042 C 
ENDBRANCH  29  30
BRANCH  29  33
HETATM   33  C15 UNL     1     -15.511  45.166  -1.989  1.00  0.00     0.216 C 
HETATM   34  C16 UNL     1     -15.990  43.777  -2.219  1.00  0.00     0.042 C 
HETATM   35  C17 UNL     1     -15.193  45.752  -3.384  1.00  0.00     0.042 C 
ENDBRANCH  29  33
ENDBRANCH  28  29
ENDBRANCH  14  28
TORSDOF 8
ENDMDL
