MODEL 1
REMARK VINA RESULT: -8.005583540      0.000      0.000
REMARK  8 active torsions:
REMARK  status: ('A' for Active; 'I' for Inactive)
REMARK    1  A    between atoms: C4_9  and  S1_10 
REMARK    2  A    between atoms: S1_10  and  N3_13 
REMARK    3  A    between atoms: C7_16  and  C8_17 
REMARK    4  A    between atoms: C8_17  and  N4_20 
REMARK       I    between atoms: N4_20  and  C11_22 
REMARK    5  A    between atoms: C11_22  and  C12_24 
REMARK    6  A    between atoms: C13_25  and  C14_26 
REMARK    7  A    between atoms: C14_26  and  C15_27 
REMARK    8  A    between atoms: C15_27  and  C17_29 
ROOT
HETATM    1  N3  UNL     1     -14.704  46.177  -0.666  1.00  0.00    -0.205 NA
HETATM    2  C5  UNL     1     -13.415  46.615  -1.159  1.00  0.00     0.108 C 
HETATM    3  C6  UNL     1     -12.959  47.797  -0.353  1.00  0.00     0.022 C 
HETATM    4  C7  UNL     1     -12.745  47.391   1.063  1.00  0.00     0.015 C 
HETATM    5  C20 UNL     1     -13.253  46.022   1.329  1.00  0.00     0.022 C 
HETATM    6  C21 UNL     1     -14.591  45.715   0.680  1.00  0.00     0.108 C 
ENDROOT
BRANCH   4   7
HETATM    7  C8  UNL     1     -11.309  47.592   1.510  1.00  0.00     0.029 C 
HETATM    8  C9  UNL     1     -10.742  48.884   0.992  1.00  0.00     0.038 C 
HETATM    9  C10 UNL     1     -11.184  47.589   3.015  1.00  0.00     0.038 C 
BRANCH   7  10
HETATM   10  N4  UNL     1     -10.563  46.477   0.979  1.00  0.00    -0.349 N 
HETATM   11  C11 UNL     1      -9.156  46.466   1.063  1.00  0.00     0.241 C 
HETATM   12  O4  UNL     1      -8.558  47.414   1.594  1.00  0.00    -0.269 OA
ATOM     13  H4  UNL     1     -11.053  45.697   0.543  1.00  0.00     0.163 HD
BRANCH  11  14
HETATM   14  C12 UNL     1      -8.373  45.356   0.535  1.00  0.00     0.070 C 
HETATM   15  C13 UNL     1      -8.831  44.525  -0.374  1.00  0.00    -0.021 C 
BRANCH  15  16
HETATM   16  C14 UNL     1      -8.024  43.414  -0.890  1.00  0.00     0.031 C 
BRANCH  16  17
HETATM   17  C15 UNL     1      -8.740  42.089  -0.809  1.00  0.00    -0.012 C 
HETATM   18  C16 UNL     1     -10.199  42.277  -1.052  1.00  0.00     0.010 C 
BRANCH  17  19
HETATM   19  C17 UNL     1      -8.445  41.384   0.495  1.00  0.00    -0.019 C 
HETATM   20  C18 UNL     1      -8.341  39.897   0.365  1.00  0.00     0.010 C 
HETATM   21  C19 UNL     1      -7.121  41.886   1.044  1.00  0.00     0.010 C 
ENDBRANCH  17  19
ENDBRANCH  16  17
ENDBRANCH  15  16
ENDBRANCH  11  14
ENDBRANCH   7  10
ENDBRANCH   4   7
BRANCH   1  22
HETATM   22  S1  UNL     1     -15.357  45.024  -1.757  1.00  0.00     0.261 S 
HETATM   23  O2  UNL     1     -14.356  43.888  -1.898  1.00  0.00    -0.204 OA
HETATM   24  O3  UNL     1     -16.575  44.429  -1.060  1.00  0.00    -0.204 OA
BRANCH  22  25
HETATM   25  C4  UNL     1     -15.781  45.674  -3.301  1.00  0.00     0.170 A 
HETATM   26  C2  UNL     1     -16.300  45.004  -4.364  1.00  0.00     0.049 A 
HETATM   27  C1  UNL     1     -16.641  43.566  -4.503  1.00  0.00     0.071 C 
HETATM   28  N1  UNL     1     -16.469  45.928  -5.355  1.00  0.00    -0.310 N 
HETATM   29  C3  UNL     1     -16.067  47.141  -4.920  1.00  0.00     0.325 A 
ATOM     30  H1  UNL     1     -16.843  45.732  -6.283  1.00  0.00     0.170 HD
HETATM   31  O1  UNL     1     -16.103  48.189  -5.606  1.00  0.00    -0.247 OA
HETATM   32  N2  UNL     1     -15.647  46.968  -3.655  1.00  0.00    -0.296 N 
ATOM     33  H2  UNL     1     -15.281  47.706  -3.054  1.00  0.00     0.171 HD
ENDBRANCH  22  25
ENDBRANCH   1  22
TORSDOF 8
ENDMDL
MODEL 2
REMARK VINA RESULT: -7.855128571      3.121      4.541
REMARK  8 active torsions:
REMARK  status: ('A' for Active; 'I' for Inactive)
REMARK    1  A    between atoms: C4_9  and  S1_10 
REMARK    2  A    between atoms: S1_10  and  N3_13 
REMARK    3  A    between atoms: C7_16  and  C8_17 
REMARK    4  A    between atoms: C8_17  and  N4_20 
REMARK       I    between atoms: N4_20  and  C11_22 
REMARK    5  A    between atoms: C11_22  and  C12_24 
REMARK    6  A    between atoms: C13_25  and  C14_26 
REMARK    7  A    between atoms: C14_26  and  C15_27 
REMARK    8  A    between atoms: C15_27  and  C17_29 
ROOT
HETATM    1  N3  UNL     1     -13.157  45.021  -1.656  1.00  0.00    -0.205 NA
HETATM    2  C5  UNL     1     -12.626  43.744  -2.086  1.00  0.00     0.108 C 
HETATM    3  C6  UNL     1     -11.148  43.879  -2.313  1.00  0.00     0.022 C 
HETATM    4  C7  UNL     1     -10.467  44.200  -1.028  1.00  0.00     0.015 C 
HETATM    5  C20 UNL     1     -11.438  44.520   0.049  1.00  0.00     0.022 C 
HETATM    6  C21 UNL     1     -12.598  45.393  -0.396  1.00  0.00     0.108 C 
ENDROOT
BRANCH   4   7
HETATM    7  C8  UNL     1      -9.461  43.137  -0.628  1.00  0.00     0.029 C 
HETATM    8  C9  UNL     1     -10.048  41.757  -0.713  1.00  0.00     0.038 C 
HETATM    9  C10 UNL     1      -8.224  43.182  -1.492  1.00  0.00     0.038 C 
BRANCH   7  10
HETATM   10  N4  UNL     1      -9.087  43.432   0.735  1.00  0.00    -0.349 N 
HETATM   11  C11 UNL     1      -7.920  42.864   1.285  1.00  0.00     0.241 C 
HETATM   12  O4  UNL     1      -7.213  42.110   0.598  1.00  0.00    -0.269 OA
ATOM     13  H4  UNL     1      -9.667  44.052   1.300  1.00  0.00     0.163 HD
BRANCH  11  14
HETATM   14  C12 UNL     1      -7.516  43.140   2.657  1.00  0.00     0.070 C 
HETATM   15  C13 UNL     1      -6.270  43.056   3.068  1.00  0.00    -0.021 C 
BRANCH  15  16
HETATM   16  C14 UNL     1      -5.888  43.339   4.455  1.00  0.00     0.031 C 
BRANCH  16  17
HETATM   17  C15 UNL     1      -4.998  44.551   4.577  1.00  0.00    -0.012 C 
HETATM   18  C16 UNL     1      -4.084  44.637   3.402  1.00  0.00     0.010 C 
BRANCH  17  19
HETATM   19  C17 UNL     1      -4.262  44.562   5.897  1.00  0.00    -0.019 C 
HETATM   20  C18 UNL     1      -4.536  43.362   6.747  1.00  0.00     0.010 C 
HETATM   21  C19 UNL     1      -2.767  44.602   5.634  1.00  0.00     0.010 C 
ENDBRANCH  17  19
ENDBRANCH  16  17
ENDBRANCH  15  16
ENDBRANCH  11  14
ENDBRANCH   7  10
ENDBRANCH   4   7
BRANCH   1  22
HETATM   22  S1  UNL     1     -14.872  44.949  -1.676  1.00  0.00     0.261 S 
HETATM   23  O2  UNL     1     -15.280  43.497  -1.866  1.00  0.00    -0.204 OA
HETATM   24  O3  UNL     1     -15.324  45.334  -0.273  1.00  0.00    -0.204 OA
BRANCH  22  25
HETATM   25  C4  UNL     1     -15.607  45.963  -2.867  1.00  0.00     0.170 A 
HETATM   26  C2  UNL     1     -15.911  45.640  -4.152  1.00  0.00     0.049 A 
HETATM   27  C1  UNL     1     -15.706  44.363  -4.882  1.00  0.00     0.071 C 
HETATM   28  N1  UNL     1     -16.474  46.754  -4.705  1.00  0.00    -0.310 N 
HETATM   29  C3  UNL     1     -16.520  47.744  -3.789  1.00  0.00     0.325 A 
ATOM     30  H1  UNL     1     -16.810  46.827  -5.665  1.00  0.00     0.170 HD
HETATM   31  O1  UNL     1     -16.984  48.888  -4.002  1.00  0.00    -0.247 OA
HETATM   32  N2  UNL     1     -15.983  47.242  -2.664  1.00  0.00    -0.296 N 
ATOM     33  H2  UNL     1     -15.876  47.752  -1.787  1.00  0.00     0.171 HD
ENDBRANCH  22  25
ENDBRANCH   1  22
TORSDOF 8
ENDMDL
MODEL 3
REMARK VINA RESULT: -7.780374715      2.829      4.390
REMARK  8 active torsions:
REMARK  status: ('A' for Active; 'I' for Inactive)
REMARK    1  A    between atoms: C4_9  and  S1_10 
REMARK    2  A    between atoms: S1_10  and  N3_13 
REMARK    3  A    between atoms: C7_16  and  C8_17 
REMARK    4  A    between atoms: C8_17  and  N4_20 
REMARK       I    between atoms: N4_20  and  C11_22 
REMARK    5  A    between atoms: C11_22  and  C12_24 
REMARK    6  A    between atoms: C13_25  and  C14_26 
REMARK    7  A    between atoms: C14_26  and  C15_27 
REMARK    8  A    between atoms: C15_27  and  C17_29 
ROOT
HETATM    1  N3  UNL     1     -13.172  45.017  -1.680  1.00  0.00    -0.205 NA
HETATM    2  C5  UNL     1     -12.651  43.740  -2.120  1.00  0.00     0.108 C 
HETATM    3  C6  UNL     1     -11.174  43.869  -2.356  1.00  0.00     0.022 C 
HETATM    4  C7  UNL     1     -10.482  44.179  -1.075  1.00  0.00     0.015 C 
HETATM    5  C20 UNL     1     -11.444  44.498   0.010  1.00  0.00     0.022 C 
HETATM    6  C21 UNL     1     -12.603  45.380  -0.421  1.00  0.00     0.108 C 
ENDROOT
BRANCH   4   7
HETATM    7  C8  UNL     1      -9.478  43.110  -0.687  1.00  0.00     0.029 C 
HETATM    8  C9  UNL     1     -10.044  41.728  -0.861  1.00  0.00     0.038 C 
HETATM    9  C10 UNL     1      -8.210  43.210  -1.500  1.00  0.00     0.038 C 
BRANCH   7  10
HETATM   10  N4  UNL     1      -9.161  43.342   0.701  1.00  0.00    -0.349 N 
HETATM   11  C11 UNL     1      -7.955  42.851   1.240  1.00  0.00     0.241 C 
HETATM   12  O4  UNL     1      -7.164  42.219   0.522  1.00  0.00    -0.269 OA
ATOM     13  H4  UNL     1      -9.809  43.861   1.293  1.00  0.00     0.163 HD
BRANCH  11  14
HETATM   14  C12 UNL     1      -7.605  43.067   2.638  1.00  0.00     0.070 C 
HETATM   15  C13 UNL     1      -6.381  42.935   3.100  1.00  0.00    -0.021 C 
BRANCH  15  16
HETATM   16  C14 UNL     1      -6.054  43.158   4.512  1.00  0.00     0.031 C 
BRANCH  16  17
HETATM   17  C15 UNL     1      -5.355  44.474   4.745  1.00  0.00    -0.012 C 
HETATM   18  C16 UNL     1      -6.331  45.497   5.219  1.00  0.00     0.010 C 
BRANCH  17  19
HETATM   19  C17 UNL     1      -4.588  44.914   3.519  1.00  0.00    -0.019 C 
HETATM   20  C18 UNL     1      -4.941  46.290   3.051  1.00  0.00     0.010 C 
HETATM   21  C19 UNL     1      -3.102  44.908   3.833  1.00  0.00     0.010 C 
ENDBRANCH  17  19
ENDBRANCH  16  17
ENDBRANCH  15  16
ENDBRANCH  11  14
ENDBRANCH   7  10
ENDBRANCH   4   7
BRANCH   1  22
HETATM   22  S1  UNL     1     -14.887  44.953  -1.688  1.00  0.00     0.261 S 
HETATM   23  O2  UNL     1     -15.304  43.501  -1.854  1.00  0.00    -0.204 OA
HETATM   24  O3  UNL     1     -15.329  45.362  -0.288  1.00  0.00    -0.204 OA
BRANCH  22  25
HETATM   25  C4  UNL     1     -15.625  45.954  -2.889  1.00  0.00     0.170 A 
HETATM   26  C2  UNL     1     -15.922  45.620  -4.172  1.00  0.00     0.049 A 
HETATM   27  C1  UNL     1     -15.706  44.340  -4.893  1.00  0.00     0.071 C 
HETATM   28  N1  UNL     1     -16.491  46.726  -4.735  1.00  0.00    -0.310 N 
HETATM   29  C3  UNL     1     -16.547  47.722  -3.826  1.00  0.00     0.325 A 
ATOM     30  H1  UNL     1     -16.823  46.790  -5.697  1.00  0.00     0.170 HD
HETATM   31  O1  UNL     1     -17.018  48.862  -4.049  1.00  0.00    -0.247 OA
HETATM   32  N2  UNL     1     -16.010  47.232  -2.696  1.00  0.00    -0.296 N 
ATOM     33  H2  UNL     1     -15.910  47.749  -1.822  1.00  0.00     0.171 HD
ENDBRANCH  22  25
ENDBRANCH   1  22
TORSDOF 8
ENDMDL
MODEL 4
REMARK VINA RESULT: -7.774234271      2.600      6.135
REMARK  8 active torsions:
REMARK  status: ('A' for Active; 'I' for Inactive)
REMARK    1  A    between atoms: C4_9  and  S1_10 
REMARK    2  A    between atoms: S1_10  and  N3_13 
REMARK    3  A    between atoms: C7_16  and  C8_17 
REMARK    4  A    between atoms: C8_17  and  N4_20 
REMARK       I    between atoms: N4_20  and  C11_22 
REMARK    5  A    between atoms: C11_22  and  C12_24 
REMARK    6  A    between atoms: C13_25  and  C14_26 
REMARK    7  A    between atoms: C14_26  and  C15_27 
REMARK    8  A    between atoms: C15_27  and  C17_29 
ROOT
HETATM    1  N3  UNL     1     -13.187  47.468   1.596  1.00  0.00    -0.205 NA
HETATM    2  C5  UNL     1     -12.948  46.078   1.270  1.00  0.00     0.108 C 
HETATM    3  C6  UNL     1     -14.247  45.436   0.876  1.00  0.00     0.022 C 
HETATM    4  C7  UNL     1     -14.766  46.069  -0.367  1.00  0.00     0.015 C 
HETATM    5  C20 UNL     1     -13.995  47.284  -0.734  1.00  0.00     0.022 C 
HETATM    6  C21 UNL     1     -13.642  48.177   0.443  1.00  0.00     0.108 C 
ENDROOT
BRANCH   4   7
HETATM    7  C8  UNL     1     -14.894  45.077  -1.509  1.00  0.00     0.029 C 
HETATM    8  C9  UNL     1     -16.244  44.416  -1.520  1.00  0.00     0.038 C 
HETATM    9  C10 UNL     1     -14.677  45.736  -2.850  1.00  0.00     0.038 C 
BRANCH   7  10
HETATM   10  N4  UNL     1     -13.862  44.090  -1.303  1.00  0.00    -0.349 N 
HETATM   11  C11 UNL     1     -12.643  44.187  -2.003  1.00  0.00     0.241 C 
HETATM   12  O4  UNL     1     -12.456  45.122  -2.797  1.00  0.00    -0.269 OA
ATOM     13  H4  UNL     1     -14.015  43.322  -0.649  1.00  0.00     0.163 HD
BRANCH  11  14
HETATM   14  C12 UNL     1     -11.582  43.206  -1.817  1.00  0.00     0.070 C 
HETATM   15  C13 UNL     1     -10.833  43.156  -0.738  1.00  0.00    -0.021 C 
BRANCH  15  16
HETATM   16  C14 UNL     1      -9.770  42.159  -0.575  1.00  0.00     0.031 C 
BRANCH  16  17
HETATM   17  C15 UNL     1      -8.493  42.754  -0.036  1.00  0.00    -0.012 C 
HETATM   18  C16 UNL     1      -7.869  43.642  -1.058  1.00  0.00     0.010 C 
BRANCH  17  19
HETATM   19  C17 UNL     1      -7.555  41.680   0.465  1.00  0.00    -0.019 C 
HETATM   20  C18 UNL     1      -6.905  42.011   1.771  1.00  0.00     0.010 C 
HETATM   21  C19 UNL     1      -8.334  40.390   0.658  1.00  0.00     0.010 C 
ENDBRANCH  17  19
ENDBRANCH  16  17
ENDBRANCH  15  16
ENDBRANCH  11  14
ENDBRANCH   7  10
ENDBRANCH   4   7
BRANCH   1  22
HETATM   22  S1  UNL     1     -11.776  48.124   2.319  1.00  0.00     0.261 S 
HETATM   23  O2  UNL     1     -11.622  49.557   1.836  1.00  0.00    -0.204 OA
HETATM   24  O3  UNL     1     -12.070  48.211   3.811  1.00  0.00    -0.204 OA
BRANCH  22  25
HETATM   25  C4  UNL     1     -10.340  47.209   2.021  1.00  0.00     0.170 A 
HETATM   26  C2  UNL     1      -9.704  47.035   0.832  1.00  0.00     0.049 A 
HETATM   27  C1  UNL     1     -10.048  47.562  -0.513  1.00  0.00     0.071 C 
HETATM   28  N1  UNL     1      -8.623  46.241   1.087  1.00  0.00    -0.310 N 
HETATM   29  C3  UNL     1      -8.586  45.931   2.400  1.00  0.00     0.325 A 
ATOM     30  H1  UNL     1      -7.946  45.930   0.391  1.00  0.00     0.170 HD
HETATM   31  O1  UNL     1      -7.708  45.215   2.937  1.00  0.00    -0.247 OA
HETATM   32  N2  UNL     1      -9.648  46.533   2.961  1.00  0.00    -0.296 N 
ATOM     33  H2  UNL     1      -9.895  46.486   3.950  1.00  0.00     0.171 HD
ENDBRANCH  22  25
ENDBRANCH   1  22
TORSDOF 8
ENDMDL
MODEL 5
REMARK VINA RESULT: -7.627994889      3.212      4.587
REMARK  8 active torsions:
REMARK  status: ('A' for Active; 'I' for Inactive)
REMARK    1  A    between atoms: C4_9  and  S1_10 
REMARK    2  A    between atoms: S1_10  and  N3_13 
REMARK    3  A    between atoms: C7_16  and  C8_17 
REMARK    4  A    between atoms: C8_17  and  N4_20 
REMARK       I    between atoms: N4_20  and  C11_22 
REMARK    5  A    between atoms: C11_22  and  C12_24 
REMARK    6  A    between atoms: C13_25  and  C14_26 
REMARK    7  A    between atoms: C14_26  and  C15_27 
REMARK    8  A    between atoms: C15_27  and  C17_29 
ROOT
HETATM    1  N3  UNL     1     -12.806  45.806  -1.389  1.00  0.00    -0.205 NA
HETATM    2  C5  UNL     1     -12.608  44.403  -1.689  1.00  0.00     0.108 C 
HETATM    3  C6  UNL     1     -11.178  44.186  -2.093  1.00  0.00     0.022 C 
HETATM    4  C7  UNL     1     -10.278  44.495  -0.949  1.00  0.00     0.015 C 
HETATM    5  C20 UNL     1     -11.008  45.141   0.172  1.00  0.00     0.022 C 
HETATM    6  C21 UNL     1     -12.017  46.189  -0.262  1.00  0.00     0.108 C 
ENDROOT
BRANCH   4   7
HETATM    7  C8  UNL     1      -9.461  43.292  -0.515  1.00  0.00     0.029 C 
HETATM    8  C9  UNL     1     -10.266  42.025  -0.575  1.00  0.00     0.038 C 
HETATM    9  C10 UNL     1      -8.228  43.114  -1.367  1.00  0.00     0.038 C 
BRANCH   7  10
HETATM   10  N4  UNL     1      -9.053  43.553   0.845  1.00  0.00    -0.349 N 
HETATM   11  C11 UNL     1      -7.966  42.851   1.402  1.00  0.00     0.241 C 
HETATM   12  O4  UNL     1      -7.359  42.008   0.725  1.00  0.00    -0.269 OA
ATOM     13  H4  UNL     1      -9.552  44.247   1.402  1.00  0.00     0.163 HD
BRANCH  11  14
HETATM   14  C12 UNL     1      -7.530  43.090   2.772  1.00  0.00     0.070 C 
HETATM   15  C13 UNL     1      -6.269  43.051   3.139  1.00  0.00    -0.021 C 
BRANCH  15  16
HETATM   16  C14 UNL     1      -5.854  43.296   4.525  1.00  0.00     0.031 C 
BRANCH  16  17
HETATM   17  C15 UNL     1      -4.998  44.530   4.666  1.00  0.00    -0.012 C 
HETATM   18  C16 UNL     1      -4.079  44.653   3.499  1.00  0.00     0.010 C 
BRANCH  17  19
HETATM   19  C17 UNL     1      -4.273  44.546   5.992  1.00  0.00    -0.019 C 
HETATM   20  C18 UNL     1      -4.532  43.337   6.834  1.00  0.00     0.010 C 
HETATM   21  C19 UNL     1      -2.776  44.613   5.740  1.00  0.00     0.010 C 
ENDBRANCH  17  19
ENDBRANCH  16  17
ENDBRANCH  15  16
ENDBRANCH  11  14
ENDBRANCH   7  10
ENDBRANCH   4   7
BRANCH   1  22
HETATM   22  S1  UNL     1     -14.486  46.107  -1.211  1.00  0.00     0.261 S 
HETATM   23  O2  UNL     1     -15.008  45.225  -0.089  1.00  0.00    -0.204 OA
HETATM   24  O3  UNL     1     -14.605  47.541  -0.709  1.00  0.00    -0.204 OA
BRANCH  22  25
HETATM   25  C4  UNL     1     -15.402  45.879  -2.659  1.00  0.00     0.170 A 
HETATM   26  C2  UNL     1     -16.126  44.784  -3.013  1.00  0.00     0.049 A 
HETATM   27  C1  UNL     1     -16.333  43.508  -2.283  1.00  0.00     0.071 C 
HETATM   28  N1  UNL     1     -16.670  45.062  -4.234  1.00  0.00    -0.310 N 
HETATM   29  C3  UNL     1     -16.296  46.297  -4.629  1.00  0.00     0.325 A 
ATOM     30  H1  UNL     1     -17.269  44.432  -4.767  1.00  0.00     0.170 HD
HETATM   31  O1  UNL     1     -16.639  46.832  -5.709  1.00  0.00    -0.247 OA
HETATM   32  N2  UNL     1     -15.516  46.786  -3.650  1.00  0.00    -0.296 N 
ATOM     33  H2  UNL     1     -15.077  47.707  -3.656  1.00  0.00     0.171 HD
ENDBRANCH  22  25
ENDBRANCH   1  22
TORSDOF 8
ENDMDL
