MODEL 1
REMARK VINA RESULT: -7.412339228      0.000      0.000
REMARK  10 active torsions:
REMARK  status: ('A' for Active; 'I' for Inactive)
REMARK    1  A    between atoms: C6_6  and  N1_7 
REMARK    2  A    between atoms: N1_7  and  C7_9 
REMARK    3  A    between atoms: C7_9  and  C8_10 
REMARK    4  A    between atoms: C8_10  and  N2_11 
REMARK    5  A    between atoms: N2_11  and  C9_12 
REMARK    6  A    between atoms: N2_11  and  C11_14 
REMARK    7  A    between atoms: C13_18  and  N4_19 
REMARK    8  A    between atoms: N4_19  and  C14_21 
REMARK    9  A    between atoms: C14_21  and  C15_22 
REMARK   10  A    between atoms: C20_33  and  C21_34 
ROOT
HETATM    1  C1  UNL     1     -11.532  42.459  -2.018  1.00  0.00     0.018 C 
HETATM    2  C2  UNL     1     -11.811  43.415  -1.314  1.00  0.00    -0.077 C 
HETATM    3  C3  UNL     1     -12.120  44.568  -0.488  1.00  0.00     0.029 A 
HETATM    4  C4  UNL     1     -11.180  44.881   0.475  1.00  0.00     0.039 A 
HETATM    5  C5  UNL     1     -11.411  45.992   1.282  1.00  0.00     0.037 A 
HETATM    6  C6  UNL     1     -10.493  46.334   2.259  1.00  0.00     0.133 A 
HETATM    7  N3  UNL     1     -10.794  47.442   3.012  1.00  0.00    -0.176 N 
ATOM      8  H3  UNL     1     -10.135  47.717   3.740  1.00  0.00     0.186 HD
HETATM    9  C13 UNL     1     -11.887  48.181   2.857  1.00  0.00     0.680 A 
HETATM   10  N7  UNL     1     -12.765  47.836   1.907  1.00  0.00    -0.191 N 
ATOM     11  H7  UNL     1     -13.611  48.390   1.772  1.00  0.00     0.184 HD
HETATM   12  C18 UNL     1     -12.537  46.762   1.130  1.00  0.00     0.064 A 
HETATM   13  C19 UNL     1     -13.463  46.410   0.143  1.00  0.00     0.044 A 
HETATM   14  C20 UNL     1     -13.254  45.318  -0.661  1.00  0.00    -0.005 A 
ENDROOT
BRANCH  14  15
HETATM   15  C21 UNL     1     -14.220  44.936  -1.661  1.00  0.00    -0.024 A 
HETATM   16  C22 UNL     1     -15.290  44.149  -1.261  1.00  0.00     0.012 A 
HETATM   17  C23 UNL     1     -16.212  43.762  -2.207  1.00  0.00     0.001 A 
HETATM   18  C24 UNL     1     -16.072  44.153  -3.530  1.00  0.00     0.000 A 
HETATM   19  C25 UNL     1     -15.007  44.927  -3.890  1.00  0.00     0.001 A 
HETATM   20  C26 UNL     1     -14.057  45.338  -2.972  1.00  0.00     0.012 A 
ENDBRANCH  14  15
BRANCH   6  21
HETATM   21  N1  UNL     1      -9.472  45.753   2.519  1.00  0.00    -0.353 N 
ATOM     22  H1  UNL     1      -9.814  44.928   3.010  1.00  0.00     0.166 HD
BRANCH  21  23
HETATM   23  C7  UNL     1      -8.122  45.558   2.538  1.00  0.00     0.082 C 
BRANCH  23  24
HETATM   24  C8  UNL     1      -7.564  44.771   1.359  1.00  0.00     0.161 C 
BRANCH  24  25
HETATM   25  N2  UNL     1      -7.806  43.360   1.485  1.00  0.00    -0.409 N 
BRANCH  25  26
HETATM   26  C9  UNL     1      -7.846  42.658   0.255  1.00  0.00     0.112 C 
HETATM   27  C10 UNL     1      -8.017  43.499  -0.968  1.00  0.00     0.026 C 
ENDBRANCH  25  26
BRANCH  25  28
HETATM   28  C11 UNL     1      -7.112  42.739   2.563  1.00  0.00     0.112 C 
HETATM   29  C12 UNL     1      -5.634  42.711   2.241  1.00  0.00     0.026 C 
ENDBRANCH  25  28
ENDBRANCH  24  25
ENDBRANCH  23  24
ENDBRANCH  21  23
ENDBRANCH   6  21
BRANCH   9  30
HETATM   30  N4  UNL     1     -12.086  49.211   3.615  1.00  0.00    -0.219 N 
ATOM     31  H4  UNL     1     -12.834  49.865   3.387  1.00  0.00     0.178 HD
BRANCH  30  32
HETATM   32  C14 UNL     1     -11.275  49.446   4.767  1.00  0.00     0.214 C 
BRANCH  32  33
HETATM   33  C15 UNL     1     -12.054  49.208   6.016  1.00  0.00     0.099 A 
HETATM   34  N5  UNL     1     -11.701  48.382   7.040  1.00  0.00    -0.353 N 
HETATM   35  C16 UNL     1     -12.660  48.446   7.974  1.00  0.00     0.106 A 
ATOM     36  H5  UNL     1     -10.856  47.813   7.089  1.00  0.00     0.166 HD
HETATM   37  C17 UNL     1     -13.629  49.328   7.521  1.00  0.00     0.106 A 
HETATM   38  N6  UNL     1     -13.229  49.778   6.319  1.00  0.00    -0.353 N 
ATOM     39  H6  UNL     1     -13.735  50.443   5.735  1.00  0.00     0.166 HD
ENDBRANCH  32  33
ENDBRANCH  30  32
ENDBRANCH   9  30
TORSDOF 10
ENDMDL
MODEL 2
REMARK VINA RESULT: -7.368426168      0.047      1.052
REMARK  10 active torsions:
REMARK  status: ('A' for Active; 'I' for Inactive)
REMARK    1  A    between atoms: C6_6  and  N1_7 
REMARK    2  A    between atoms: N1_7  and  C7_9 
REMARK    3  A    between atoms: C7_9  and  C8_10 
REMARK    4  A    between atoms: C8_10  and  N2_11 
REMARK    5  A    between atoms: N2_11  and  C9_12 
REMARK    6  A    between atoms: N2_11  and  C11_14 
REMARK    7  A    between atoms: C13_18  and  N4_19 
REMARK    8  A    between atoms: N4_19  and  C14_21 
REMARK    9  A    between atoms: C14_21  and  C15_22 
REMARK   10  A    between atoms: C20_33  and  C21_34 
ROOT
HETATM    1  C1  UNL     1     -11.544  42.446  -1.970  1.00  0.00     0.018 C 
HETATM    2  C2  UNL     1     -11.818  43.406  -1.270  1.00  0.00    -0.077 C 
HETATM    3  C3  UNL     1     -12.122  44.565  -0.449  1.00  0.00     0.029 A 
HETATM    4  C4  UNL     1     -11.176  44.882   0.507  1.00  0.00     0.039 A 
HETATM    5  C5  UNL     1     -11.401  45.998   1.309  1.00  0.00     0.037 A 
HETATM    6  C6  UNL     1     -10.477  46.344   2.278  1.00  0.00     0.133 A 
HETATM    7  N3  UNL     1     -10.773  47.458   3.027  1.00  0.00    -0.176 N 
ATOM      8  H3  UNL     1     -10.109  47.736   3.749  1.00  0.00     0.186 HD
HETATM    9  C13 UNL     1     -11.866  48.196   2.874  1.00  0.00     0.680 A 
HETATM   10  N7  UNL     1     -12.751  47.846   1.932  1.00  0.00    -0.191 N 
ATOM     11  H7  UNL     1     -13.597  48.400   1.799  1.00  0.00     0.184 HD
HETATM   12  C18 UNL     1     -12.528  46.767   1.160  1.00  0.00     0.064 A 
HETATM   13  C19 UNL     1     -13.460  46.411   0.179  1.00  0.00     0.044 A 
HETATM   14  C20 UNL     1     -13.256  45.314  -0.620  1.00  0.00    -0.005 A 
ENDROOT
BRANCH  14  15
HETATM   15  C21 UNL     1     -14.228  44.927  -1.611  1.00  0.00    -0.024 A 
HETATM   16  C22 UNL     1     -14.042  45.377  -2.910  1.00  0.00     0.012 A 
HETATM   17  C23 UNL     1     -14.972  45.031  -3.866  1.00  0.00     0.001 A 
HETATM   18  C24 UNL     1     -16.068  44.250  -3.534  1.00  0.00     0.000 A 
HETATM   19  C25 UNL     1     -16.221  43.825  -2.246  1.00  0.00     0.001 A 
HETATM   20  C26 UNL     1     -15.312  44.149  -1.255  1.00  0.00     0.012 A 
ENDBRANCH  14  15
BRANCH   6  21
HETATM   21  N1  UNL     1      -9.455  45.765   2.535  1.00  0.00    -0.353 N 
ATOM     22  H1  UNL     1      -9.793  44.951   3.049  1.00  0.00     0.166 HD
BRANCH  21  23
HETATM   23  C7  UNL     1      -8.105  45.563   2.538  1.00  0.00     0.082 C 
BRANCH  23  24
HETATM   24  C8  UNL     1      -7.567  44.760   1.361  1.00  0.00     0.161 C 
BRANCH  24  25
HETATM   25  N2  UNL     1      -7.823  43.353   1.502  1.00  0.00    -0.409 N 
BRANCH  25  26
HETATM   26  C9  UNL     1      -7.887  42.643   0.279  1.00  0.00     0.112 C 
HETATM   27  C10 UNL     1      -8.027  43.478  -0.952  1.00  0.00     0.026 C 
ENDBRANCH  25  26
BRANCH  25  28
HETATM   28  C11 UNL     1      -7.123  42.733   2.576  1.00  0.00     0.112 C 
HETATM   29  C12 UNL     1      -5.640  42.772   2.279  1.00  0.00     0.026 C 
ENDBRANCH  25  28
ENDBRANCH  24  25
ENDBRANCH  23  24
ENDBRANCH  21  23
ENDBRANCH   6  21
BRANCH   9  30
HETATM   30  N4  UNL     1     -12.060  49.230   3.628  1.00  0.00    -0.219 N 
ATOM     31  H4  UNL     1     -12.800  49.891   3.392  1.00  0.00     0.178 HD
BRANCH  30  32
HETATM   32  C14 UNL     1     -11.256  49.461   4.785  1.00  0.00     0.214 C 
BRANCH  32  33
HETATM   33  C15 UNL     1     -12.039  49.211   6.028  1.00  0.00     0.099 A 
HETATM   34  N5  UNL     1     -13.229  49.785   6.361  1.00  0.00    -0.353 N 
HETATM   35  C16 UNL     1     -13.606  49.299   7.551  1.00  0.00     0.106 A 
ATOM     36  H5  UNL     1     -13.744  50.465   5.801  1.00  0.00     0.166 HD
HETATM   37  C17 UNL     1     -12.631  48.407   7.968  1.00  0.00     0.106 A 
HETATM   38  N6  UNL     1     -11.685  48.375   7.014  1.00  0.00    -0.353 N 
ATOM     39  H6  UNL     1     -10.837  47.808   7.037  1.00  0.00     0.166 HD
ENDBRANCH  32  33
ENDBRANCH  30  32
ENDBRANCH   9  30
TORSDOF 10
ENDMDL
MODEL 3
REMARK VINA RESULT: -7.281651927      0.331      1.166
REMARK  10 active torsions:
REMARK  status: ('A' for Active; 'I' for Inactive)
REMARK    1  A    between atoms: C6_6  and  N1_7 
REMARK    2  A    between atoms: N1_7  and  C7_9 
REMARK    3  A    between atoms: C7_9  and  C8_10 
REMARK    4  A    between atoms: C8_10  and  N2_11 
REMARK    5  A    between atoms: N2_11  and  C9_12 
REMARK    6  A    between atoms: N2_11  and  C11_14 
REMARK    7  A    between atoms: C13_18  and  N4_19 
REMARK    8  A    between atoms: N4_19  and  C14_21 
REMARK    9  A    between atoms: C14_21  and  C15_22 
REMARK   10  A    between atoms: C20_33  and  C21_34 
ROOT
HETATM    1  C1  UNL     1     -11.597  42.423  -2.067  1.00  0.00     0.018 C 
HETATM    2  C2  UNL     1     -11.855  43.376  -1.352  1.00  0.00    -0.077 C 
HETATM    3  C3  UNL     1     -12.139  44.527  -0.512  1.00  0.00     0.029 A 
HETATM    4  C4  UNL     1     -11.191  44.809   0.452  1.00  0.00     0.039 A 
HETATM    5  C5  UNL     1     -11.398  45.915   1.272  1.00  0.00     0.037 A 
HETATM    6  C6  UNL     1     -10.471  46.228   2.251  1.00  0.00     0.133 A 
HETATM    7  N3  UNL     1     -10.749  47.333   3.017  1.00  0.00    -0.176 N 
ATOM      8  H3  UNL     1     -10.082  47.587   3.746  1.00  0.00     0.186 HD
HETATM    9  C13 UNL     1     -11.827  48.095   2.873  1.00  0.00     0.680 A 
HETATM   10  N7  UNL     1     -12.714  47.779   1.922  1.00  0.00    -0.191 N 
ATOM     11  H7  UNL     1     -13.549  48.350   1.796  1.00  0.00     0.184 HD
HETATM   12  C18 UNL     1     -12.509  46.709   1.132  1.00  0.00     0.064 A 
HETATM   13  C19 UNL     1     -13.444  46.387   0.143  1.00  0.00     0.044 A 
HETATM   14  C20 UNL     1     -13.259  45.300  -0.674  1.00  0.00    -0.005 A 
ENDROOT
BRANCH  14  15
HETATM   15  C21 UNL     1     -14.235  44.950  -1.675  1.00  0.00    -0.024 A 
HETATM   16  C22 UNL     1     -15.312  44.169  -1.284  1.00  0.00     0.012 A 
HETATM   17  C23 UNL     1     -16.244  43.811  -2.232  1.00  0.00     0.001 A 
HETATM   18  C24 UNL     1     -16.106  44.224  -3.549  1.00  0.00     0.000 A 
HETATM   19  C25 UNL     1     -15.033  44.991  -3.900  1.00  0.00     0.001 A 
HETATM   20  C26 UNL     1     -14.073  45.373  -2.980  1.00  0.00     0.012 A 
ENDBRANCH  14  15
BRANCH   6  21
HETATM   21  N1  UNL     1      -9.461  45.624   2.501  1.00  0.00    -0.353 N 
ATOM     22  H1  UNL     1      -9.795  44.907   3.145  1.00  0.00     0.166 HD
BRANCH  21  23
HETATM   23  C7  UNL     1      -8.128  45.342   2.424  1.00  0.00     0.082 C 
BRANCH  23  24
HETATM   24  C8  UNL     1      -7.599  45.095   1.017  1.00  0.00     0.161 C 
BRANCH  24  25
HETATM   25  N2  UNL     1      -7.269  43.714   0.796  1.00  0.00    -0.409 N 
BRANCH  25  26
HETATM   26  C9  UNL     1      -7.037  42.969   1.978  1.00  0.00     0.112 C 
HETATM   27  C10 UNL     1      -5.604  42.724   2.321  1.00  0.00     0.026 C 
ENDBRANCH  25  26
BRANCH  25  28
HETATM   28  C11 UNL     1      -8.033  43.084  -0.227  1.00  0.00     0.112 C 
HETATM   29  C12 UNL     1      -8.721  41.868   0.355  1.00  0.00     0.026 C 
ENDBRANCH  25  28
ENDBRANCH  24  25
ENDBRANCH  23  24
ENDBRANCH  21  23
ENDBRANCH   6  21
BRANCH   9  30
HETATM   30  N4  UNL     1     -12.004  49.120   3.644  1.00  0.00    -0.219 N 
ATOM     31  H4  UNL     1     -12.724  49.803   3.413  1.00  0.00     0.178 HD
BRANCH  30  32
HETATM   32  C14 UNL     1     -11.206  49.310   4.813  1.00  0.00     0.214 C 
BRANCH  32  33
HETATM   33  C15 UNL     1     -12.028  49.138   6.044  1.00  0.00     0.099 A 
HETATM   34  N5  UNL     1     -11.723  48.350   7.114  1.00  0.00    -0.353 N 
HETATM   35  C16 UNL     1     -12.710  48.470   8.012  1.00  0.00     0.106 A 
ATOM     36  H5  UNL     1     -10.890  47.770   7.214  1.00  0.00     0.166 HD
HETATM   37  C17 UNL     1     -13.648  49.348   7.491  1.00  0.00     0.106 A 
HETATM   38  N6  UNL     1     -13.201  49.740   6.286  1.00  0.00    -0.353 N 
ATOM     39  H6  UNL     1     -13.676  50.388   5.657  1.00  0.00     0.166 HD
ENDBRANCH  32  33
ENDBRANCH  30  32
ENDBRANCH   9  30
TORSDOF 10
ENDMDL
MODEL 4
REMARK VINA RESULT: -7.243726433      0.343      1.570
REMARK  10 active torsions:
REMARK  status: ('A' for Active; 'I' for Inactive)
REMARK    1  A    between atoms: C6_6  and  N1_7 
REMARK    2  A    between atoms: N1_7  and  C7_9 
REMARK    3  A    between atoms: C7_9  and  C8_10 
REMARK    4  A    between atoms: C8_10  and  N2_11 
REMARK    5  A    between atoms: N2_11  and  C9_12 
REMARK    6  A    between atoms: N2_11  and  C11_14 
REMARK    7  A    between atoms: C13_18  and  N4_19 
REMARK    8  A    between atoms: N4_19  and  C14_21 
REMARK    9  A    between atoms: C14_21  and  C15_22 
REMARK   10  A    between atoms: C20_33  and  C21_34 
ROOT
HETATM    1  C1  UNL     1     -11.636  42.379  -2.021  1.00  0.00     0.018 C 
HETATM    2  C2  UNL     1     -11.896  43.341  -1.317  1.00  0.00    -0.077 C 
HETATM    3  C3  UNL     1     -12.183  44.500  -0.492  1.00  0.00     0.029 A 
HETATM    4  C4  UNL     1     -11.233  44.800   0.466  1.00  0.00     0.039 A 
HETATM    5  C5  UNL     1     -11.443  45.916   1.272  1.00  0.00     0.037 A 
HETATM    6  C6  UNL     1     -10.514  46.245   2.243  1.00  0.00     0.133 A 
HETATM    7  N3  UNL     1     -10.795  47.360   2.996  1.00  0.00    -0.176 N 
ATOM      8  H3  UNL     1     -10.127  47.626   3.720  1.00  0.00     0.186 HD
HETATM    9  C13 UNL     1     -11.877  48.115   2.845  1.00  0.00     0.680 A 
HETATM   10  N7  UNL     1     -12.766  47.781   1.901  1.00  0.00    -0.191 N 
ATOM     11  H7  UNL     1     -13.604  48.347   1.770  1.00  0.00     0.184 HD
HETATM   12  C18 UNL     1     -12.558  46.702   1.125  1.00  0.00     0.064 A 
HETATM   13  C19 UNL     1     -13.495  46.363   0.143  1.00  0.00     0.044 A 
HETATM   14  C20 UNL     1     -13.307  45.266  -0.660  1.00  0.00    -0.005 A 
ENDROOT
BRANCH  14  15
HETATM   15  C21 UNL     1     -14.284  44.898  -1.654  1.00  0.00    -0.024 A 
HETATM   16  C22 UNL     1     -14.081  45.336  -2.955  1.00  0.00     0.012 A 
HETATM   17  C23 UNL     1     -15.015  45.007  -3.912  1.00  0.00     0.001 A 
HETATM   18  C24 UNL     1     -16.131  44.255  -3.581  1.00  0.00     0.000 A 
HETATM   19  C25 UNL     1     -16.300  43.841  -2.291  1.00  0.00     0.001 A 
HETATM   20  C26 UNL     1     -15.388  44.149  -1.298  1.00  0.00     0.012 A 
ENDBRANCH  14  15
BRANCH   6  21
HETATM   21  N1  UNL     1      -9.501  45.650   2.498  1.00  0.00    -0.353 N 
ATOM     22  H1  UNL     1      -9.793  45.052   3.271  1.00  0.00     0.166 HD
BRANCH  21  23
HETATM   23  C7  UNL     1      -8.187  45.310   2.354  1.00  0.00     0.082 C 
BRANCH  23  24
HETATM   24  C8  UNL     1      -7.749  45.010   0.927  1.00  0.00     0.161 C 
BRANCH  24  25
HETATM   25  N2  UNL     1      -7.344  43.641   0.761  1.00  0.00    -0.409 N 
BRANCH  25  26
HETATM   26  C9  UNL     1      -7.066  42.959   1.971  1.00  0.00     0.112 C 
HETATM   27  C10 UNL     1      -5.622  42.713   2.262  1.00  0.00     0.026 C 
ENDBRANCH  25  26
BRANCH  25  28
HETATM   28  C11 UNL     1      -8.075  42.928  -0.232  1.00  0.00     0.112 C 
HETATM   29  C12 UNL     1      -8.849  41.813   0.439  1.00  0.00     0.026 C 
ENDBRANCH  25  28
ENDBRANCH  24  25
ENDBRANCH  23  24
ENDBRANCH  21  23
ENDBRANCH   6  21
BRANCH   9  30
HETATM   30  N4  UNL     1     -12.057  49.148   3.603  1.00  0.00    -0.219 N 
ATOM     31  H4  UNL     1     -12.791  49.818   3.373  1.00  0.00     0.178 HD
BRANCH  30  32
HETATM   32  C14 UNL     1     -11.243  49.368   4.757  1.00  0.00     0.214 C 
BRANCH  32  33
HETATM   33  C15 UNL     1     -12.036  49.174   6.004  1.00  0.00     0.099 A 
HETATM   34  N5  UNL     1     -13.233  49.756   6.297  1.00  0.00    -0.353 N 
HETATM   35  C16 UNL     1     -13.618  49.327   7.506  1.00  0.00     0.106 A 
ATOM     36  H5  UNL     1     -13.747  50.405   5.700  1.00  0.00     0.166 HD
HETATM   37  C17 UNL     1     -12.641  48.463   7.975  1.00  0.00     0.106 A 
HETATM   38  N6  UNL     1     -11.686  48.390   7.033  1.00  0.00    -0.353 N 
ATOM     39  H6  UNL     1     -10.836  47.830   7.091  1.00  0.00     0.166 HD
ENDBRANCH  32  33
ENDBRANCH  30  32
ENDBRANCH   9  30
TORSDOF 10
ENDMDL
MODEL 5
REMARK VINA RESULT: -7.175236778      3.658      7.471
REMARK  10 active torsions:
REMARK  status: ('A' for Active; 'I' for Inactive)
REMARK    1  A    between atoms: C6_6  and  N1_7 
REMARK    2  A    between atoms: N1_7  and  C7_9 
REMARK    3  A    between atoms: C7_9  and  C8_10 
REMARK    4  A    between atoms: C8_10  and  N2_11 
REMARK    5  A    between atoms: N2_11  and  C9_12 
REMARK    6  A    between atoms: N2_11  and  C11_14 
REMARK    7  A    between atoms: C13_18  and  N4_19 
REMARK    8  A    between atoms: N4_19  and  C14_21 
REMARK    9  A    between atoms: C14_21  and  C15_22 
REMARK   10  A    between atoms: C20_33  and  C21_34 
ROOT
HETATM    1  C1  UNL     1      -9.261  46.416   2.449  1.00  0.00     0.018 C 
HETATM    2  C2  UNL     1     -10.103  46.417   1.567  1.00  0.00    -0.077 C 
HETATM    3  C3  UNL     1     -11.121  46.397   0.532  1.00  0.00     0.029 A 
HETATM    4  C4  UNL     1     -11.188  45.237  -0.215  1.00  0.00     0.039 A 
HETATM    5  C5  UNL     1     -12.161  45.149  -1.207  1.00  0.00     0.037 A 
HETATM    6  C6  UNL     1     -12.256  44.004  -1.977  1.00  0.00     0.133 A 
HETATM    7  N3  UNL     1     -13.242  43.998  -2.934  1.00  0.00    -0.176 N 
ATOM      8  H3  UNL     1     -13.335  43.165  -3.516  1.00  0.00     0.186 HD
HETATM    9  C13 UNL     1     -14.083  45.002  -3.153  1.00  0.00     0.680 A 
HETATM   10  N7  UNL     1     -13.976  46.104  -2.399  1.00  0.00    -0.191 N 
ATOM     11  H7  UNL     1     -14.611  46.887  -2.552  1.00  0.00     0.184 HD
HETATM   12  C18 UNL     1     -13.034  46.182  -1.442  1.00  0.00     0.064 A 
HETATM   13  C19 UNL     1     -12.932  47.339  -0.662  1.00  0.00     0.044 A 
HETATM   14  C20 UNL     1     -11.978  47.444   0.319  1.00  0.00    -0.005 A 
ENDROOT
BRANCH  14  15
HETATM   15  C21 UNL     1     -11.852  48.646   1.105  1.00  0.00    -0.024 A 
HETATM   16  C22 UNL     1     -11.076  49.675   0.594  1.00  0.00     0.012 A 
HETATM   17  C23 UNL     1     -10.931  50.824   1.340  1.00  0.00     0.001 A 
HETATM   18  C24 UNL     1     -11.549  50.945   2.575  1.00  0.00     0.000 A 
HETATM   19  C25 UNL     1     -12.306  49.912   3.049  1.00  0.00     0.001 A 
HETATM   20  C26 UNL     1     -12.477  48.741   2.333  1.00  0.00     0.012 A 
ENDBRANCH  14  15
BRANCH   6  21
HETATM   21  N1  UNL     1     -11.559  43.027  -1.899  1.00  0.00    -0.353 N 
ATOM     22  H1  UNL     1     -10.739  43.306  -2.436  1.00  0.00     0.166 HD
BRANCH  21  23
HETATM   23  C7  UNL     1     -11.228  41.762  -1.508  1.00  0.00     0.082 C 
BRANCH  23  24
HETATM   24  C8  UNL     1      -9.735  41.465  -1.473  1.00  0.00     0.161 C 
BRANCH  24  25
HETATM   25  N2  UNL     1      -9.035  42.312  -0.548  1.00  0.00    -0.409 N 
BRANCH  25  26
HETATM   26  C9  UNL     1      -8.561  41.650   0.612  1.00  0.00     0.112 C 
HETATM   27  C10 UNL     1      -8.337  40.179   0.475  1.00  0.00     0.026 C 
ENDBRANCH  25  26
BRANCH  25  28
HETATM   28  C11 UNL     1      -8.159  43.254  -1.159  1.00  0.00     0.112 C 
HETATM   29  C12 UNL     1      -7.640  44.199  -0.098  1.00  0.00     0.026 C 
ENDBRANCH  25  28
ENDBRANCH  24  25
ENDBRANCH  23  24
ENDBRANCH  21  23
ENDBRANCH   6  21
BRANCH   9  30
HETATM   30  N4  UNL     1     -14.981  44.905  -4.079  1.00  0.00    -0.219 N 
ATOM     31  H4  UNL     1     -14.832  45.371  -4.974  1.00  0.00     0.178 HD
BRANCH  30  32
HETATM   32  C14 UNL     1     -16.179  44.156  -3.869  1.00  0.00     0.214 C 
BRANCH  32  33
HETATM   33  C15 UNL     1     -17.379  45.025  -4.032  1.00  0.00     0.099 A 
HETATM   34  N5  UNL     1     -18.027  45.699  -3.041  1.00  0.00    -0.353 N 
HETATM   35  C16 UNL     1     -19.050  46.365  -3.592  1.00  0.00     0.106 A 
ATOM     36  H5  UNL     1     -17.777  45.697  -2.052  1.00  0.00     0.166 HD
HETATM   37  C17 UNL     1     -19.039  46.099  -4.953  1.00  0.00     0.106 A 
HETATM   38  N6  UNL     1     -18.004  45.276  -5.191  1.00  0.00    -0.353 N 
ATOM     39  H6  UNL     1     -17.739  44.903  -6.102  1.00  0.00     0.166 HD
ENDBRANCH  32  33
ENDBRANCH  30  32
ENDBRANCH   9  30
TORSDOF 10
ENDMDL
