MODEL 1
REMARK VINA RESULT: -6.432290468      0.000      0.000
REMARK  3 active torsions:
REMARK  status: ('A' for Active; 'I' for Inactive)
REMARK    1  A    between atoms: C2_2  and  O1_3 
REMARK    2  A    between atoms: O1_3  and  C3_4 
REMARK    3  A    between atoms: C3_4  and  C4_6 
ROOT
HETATM    1  C4  UNL     1     -34.271  30.435   0.949  1.00  0.00     0.110 C 
HETATM    2  C5  UNL     1     -33.132  31.328   1.147  1.00  0.00     0.033 C 
HETATM    3  C6  UNL     1     -33.265  31.890   2.584  1.00  0.00     0.020 C 
HETATM    4  C7  UNL     1     -32.204  32.775   3.055  1.00  0.00     0.021 C 
HETATM    5  C8  UNL     1     -31.044  32.949   2.097  1.00  0.00     0.120 C 
HETATM    6  N1  UNL     1     -30.823  31.629   1.555  1.00  0.00    -0.381 N 
ATOM      7  H1  UNL     1     -29.863  31.285   1.520  1.00  0.00     0.160 HD
HETATM    8  C9  UNL     1     -31.771  30.843   1.104  1.00  0.00     0.099 C 
HETATM    9  N2  UNL     1     -31.286  29.573   0.653  1.00  0.00    -0.087 NA
HETATM   10  C10 UNL     1     -33.378  32.469   0.133  1.00  0.00     0.010 C 
HETATM   11  C11 UNL     1     -34.331  33.499   0.613  1.00  0.00     0.007 C 
HETATM   12  C12 UNL     1     -35.779  33.159   0.549  1.00  0.00     0.001 C 
HETATM   13  C13 UNL     1     -36.151  31.821   0.104  1.00  0.00     0.011 C 
HETATM   14  C14 UNL     1     -34.978  30.931  -0.337  1.00  0.00    -0.023 C 
HETATM   15  C15 UNL     1     -35.595  29.794  -1.074  1.00  0.00     0.017 C 
HETATM   16  C16 UNL     1     -34.034  31.770  -1.076  1.00  0.00    -0.035 C 
HETATM   17  C17 UNL     1     -34.776  32.735  -1.961  1.00  0.00     0.016 C 
HETATM   18  C18 UNL     1     -32.975  31.146  -1.895  1.00  0.00     0.016 C 
ENDROOT
BRANCH   1  19
HETATM   19  C3  UNL     1     -34.184  28.991   0.974  1.00  0.00     0.265 C 
HETATM   20  O2  UNL     1     -34.003  28.384   2.105  1.00  0.00    -0.265 OA
BRANCH  19  21
HETATM   21  O1  UNL     1     -34.268  28.082  -0.048  1.00  0.00    -0.322 OA
BRANCH  21  22
HETATM   22  C2  UNL     1     -33.240  27.378  -0.656  1.00  0.00     0.174 C 
HETATM   23  C1  UNL     1     -33.410  26.969  -2.067  1.00  0.00     0.034 C 
ENDBRANCH  21  22
ENDBRANCH  19  21
ENDBRANCH   1  19
TORSDOF 3
ENDMDL
MODEL 2
REMARK VINA RESULT: -6.365950344      2.422      4.830
REMARK  3 active torsions:
REMARK  status: ('A' for Active; 'I' for Inactive)
REMARK    1  A    between atoms: C2_2  and  O1_3 
REMARK    2  A    between atoms: O1_3  and  C3_4 
REMARK    3  A    between atoms: C3_4  and  C4_6 
ROOT
HETATM    1  C4  UNL     1     -33.149  31.647   1.287  1.00  0.00     0.110 C 
HETATM    2  C5  UNL     1     -34.075  32.013   0.218  1.00  0.00     0.033 C 
HETATM    3  C6  UNL     1     -35.419  32.361   0.907  1.00  0.00     0.020 C 
HETATM    4  C7  UNL     1     -36.507  32.822   0.050  1.00  0.00     0.021 C 
HETATM    5  C8  UNL     1     -36.143  32.998  -1.409  1.00  0.00     0.120 C 
HETATM    6  N1  UNL     1     -34.823  33.584  -1.383  1.00  0.00    -0.381 N 
ATOM      7  H1  UNL     1     -34.648  34.387  -1.987  1.00  0.00     0.160 HD
HETATM    8  C9  UNL     1     -33.834  33.154  -0.636  1.00  0.00     0.099 C 
HETATM    9  N2  UNL     1     -32.641  33.934  -0.774  1.00  0.00    -0.087 NA
HETATM   10  C10 UNL     1     -34.244  30.705  -0.588  1.00  0.00     0.010 C 
HETATM   11  C11 UNL     1     -35.224  29.762   0.003  1.00  0.00     0.007 C 
HETATM   12  C12 UNL     1     -34.766  28.958   1.171  1.00  0.00     0.001 C 
HETATM   13  C13 UNL     1     -33.431  29.213   1.698  1.00  0.00     0.011 C 
HETATM   14  C14 UNL     1     -32.606  30.245   0.913  1.00  0.00    -0.023 C 
HETATM   15  C15 UNL     1     -31.203  30.078   1.385  1.00  0.00     0.017 C 
HETATM   16  C16 UNL     1     -32.859  30.029  -0.512  1.00  0.00    -0.035 C 
HETATM   17  C17 UNL     1     -32.924  28.555  -0.812  1.00  0.00     0.016 C 
HETATM   18  C18 UNL     1     -31.975  30.645  -1.522  1.00  0.00     0.016 C 
ENDROOT
BRANCH   1  19
HETATM   19  C3  UNL     1     -32.091  32.505   1.774  1.00  0.00     0.265 C 
HETATM   20  O2  UNL     1     -30.874  32.301   1.378  1.00  0.00    -0.265 OA
BRANCH  19  21
HETATM   21  O1  UNL     1     -32.142  33.570   2.634  1.00  0.00    -0.322 OA
BRANCH  21  22
HETATM   22  C2  UNL     1     -31.141  34.483   2.928  1.00  0.00     0.174 C 
HETATM   23  C1  UNL     1     -31.155  35.787   2.230  1.00  0.00     0.034 C 
ENDBRANCH  21  22
ENDBRANCH  19  21
ENDBRANCH   1  19
TORSDOF 3
ENDMDL
MODEL 3
REMARK VINA RESULT: -6.265144866      2.614      4.959
REMARK  3 active torsions:
REMARK  status: ('A' for Active; 'I' for Inactive)
REMARK    1  A    between atoms: C2_2  and  O1_3 
REMARK    2  A    between atoms: O1_3  and  C3_4 
REMARK    3  A    between atoms: C3_4  and  C4_6 
ROOT
HETATM    1  C4  UNL     1     -34.039  33.236  -1.144  1.00  0.00     0.110 C 
HETATM    2  C5  UNL     1     -34.132  31.838  -0.731  1.00  0.00     0.033 C 
HETATM    3  C6  UNL     1     -33.415  31.012  -1.829  1.00  0.00     0.020 C 
HETATM    4  C7  UNL     1     -33.316  29.570  -1.621  1.00  0.00     0.021 C 
HETATM    5  C8  UNL     1     -33.847  29.078  -0.291  1.00  0.00     0.120 C 
HETATM    6  N1  UNL     1     -33.409  30.070   0.662  1.00  0.00    -0.381 N 
ATOM      7  H1  UNL     1     -32.981  29.740   1.527  1.00  0.00     0.160 HD
HETATM    8  C9  UNL     1     -33.522  31.365   0.491  1.00  0.00     0.099 C 
HETATM    9  N2  UNL     1     -32.976  32.129   1.573  1.00  0.00    -0.087 NA
HETATM   10  C10 UNL     1     -35.647  31.538  -0.782  1.00  0.00     0.010 C 
HETATM   11  C11 UNL     1     -36.148  31.221  -2.141  1.00  0.00     0.007 C 
HETATM   12  C12 UNL     1     -36.366  32.369  -3.065  1.00  0.00     0.001 C 
HETATM   13  C13 UNL     1     -35.996  33.701  -2.602  1.00  0.00     0.011 C 
HETATM   14  C14 UNL     1     -35.493  33.771  -1.152  1.00  0.00    -0.023 C 
HETATM   15  C15 UNL     1     -35.527  35.215  -0.787  1.00  0.00     0.017 C 
HETATM   16  C16 UNL     1     -36.312  32.862  -0.350  1.00  0.00    -0.035 C 
HETATM   17  C17 UNL     1     -37.753  32.945  -0.778  1.00  0.00     0.016 C 
HETATM   18  C18 UNL     1     -36.285  32.947   1.124  1.00  0.00     0.016 C 
ENDROOT
BRANCH   1  19
HETATM   19  C3  UNL     1     -33.131  34.197  -0.557  1.00  0.00     0.265 C 
HETATM   20  O2  UNL     1     -32.303  34.839  -1.321  1.00  0.00    -0.265 OA
BRANCH  19  21
HETATM   21  O1  UNL     1     -32.975  34.585   0.748  1.00  0.00    -0.322 OA
BRANCH  21  22
HETATM   22  C2  UNL     1     -32.019  35.434   1.281  1.00  0.00     0.174 C 
HETATM   23  C1  UNL     1     -31.276  34.987   2.480  1.00  0.00     0.034 C 
ENDBRANCH  21  22
ENDBRANCH  19  21
ENDBRANCH   1  19
TORSDOF 3
ENDMDL
MODEL 4
REMARK VINA RESULT: -6.205125060      2.241      3.904
REMARK  3 active torsions:
REMARK  status: ('A' for Active; 'I' for Inactive)
REMARK    1  A    between atoms: C2_2  and  O1_3 
REMARK    2  A    between atoms: O1_3  and  C3_4 
REMARK    3  A    between atoms: C3_4  and  C4_6 
ROOT
HETATM    1  C4  UNL     1     -34.499  31.725   0.935  1.00  0.00     0.110 C 
HETATM    2  C5  UNL     1     -34.985  32.686  -0.053  1.00  0.00     0.033 C 
HETATM    3  C6  UNL     1     -36.100  33.503   0.647  1.00  0.00     0.020 C 
HETATM    4  C7  UNL     1     -36.714  34.584  -0.118  1.00  0.00     0.021 C 
HETATM    5  C8  UNL     1     -36.103  34.831  -1.481  1.00  0.00     0.120 C 
HETATM    6  N1  UNL     1     -34.681  34.690  -1.269  1.00  0.00    -0.381 N 
ATOM      7  H1  UNL     1     -34.070  35.406  -1.662  1.00  0.00     0.160 HD
HETATM    8  C9  UNL     1     -34.123  33.705  -0.607  1.00  0.00     0.099 C 
HETATM    9  N2  UNL     1     -32.698  33.822  -0.514  1.00  0.00    -0.087 NA
HETATM   10  C10 UNL     1     -35.621  31.799  -1.148  1.00  0.00     0.010 C 
HETATM   11  C11 UNL     1     -36.999  31.355  -0.832  1.00  0.00     0.007 C 
HETATM   12  C12 UNL     1     -37.140  30.228   0.132  1.00  0.00     0.001 C 
HETATM   13  C13 UNL     1     -35.930  29.702   0.754  1.00  0.00     0.011 C 
HETATM   14  C14 UNL     1     -34.617  30.334   0.263  1.00  0.00    -0.023 C 
HETATM   15  C15 UNL     1     -33.536  29.425   0.736  1.00  0.00     0.017 C 
HETATM   16  C16 UNL     1     -34.732  30.538  -1.181  1.00  0.00    -0.035 C 
HETATM   17  C17 UNL     1     -35.427  29.365  -1.820  1.00  0.00     0.016 C 
HETATM   18  C18 UNL     1     -33.528  30.827  -1.985  1.00  0.00     0.016 C 
ENDROOT
BRANCH   1  19
HETATM   19  C3  UNL     1     -33.248  31.856   1.648  1.00  0.00     0.265 C 
HETATM   20  O2  UNL     1     -33.262  32.198   2.899  1.00  0.00    -0.265 OA
BRANCH  19  21
HETATM   21  O1  UNL     1     -31.961  31.670   1.218  1.00  0.00    -0.322 OA
BRANCH  21  22
HETATM   22  C2  UNL     1     -30.846  31.335   1.970  1.00  0.00     0.174 C 
HETATM   23  C1  UNL     1     -30.270  29.983   1.805  1.00  0.00     0.034 C 
ENDBRANCH  21  22
ENDBRANCH  19  21
ENDBRANCH   1  19
TORSDOF 3
ENDMDL
MODEL 5
REMARK VINA RESULT: -6.180342112      1.761      2.359
REMARK  3 active torsions:
REMARK  status: ('A' for Active; 'I' for Inactive)
REMARK    1  A    between atoms: C2_2  and  O1_3 
REMARK    2  A    between atoms: O1_3  and  C3_4 
REMARK    3  A    between atoms: C3_4  and  C4_6 
ROOT
HETATM    1  C4  UNL     1     -35.290  30.451   0.286  1.00  0.00     0.110 C 
HETATM    2  C5  UNL     1     -34.671  31.717  -0.097  1.00  0.00     0.033 C 
HETATM    3  C6  UNL     1     -34.118  32.343   1.208  1.00  0.00     0.020 C 
HETATM    4  C7  UNL     1     -33.390  33.602   1.088  1.00  0.00     0.021 C 
HETATM    5  C8  UNL     1     -33.182  34.088  -0.331  1.00  0.00     0.120 C 
HETATM    6  N1  UNL     1     -32.870  32.893  -1.079  1.00  0.00    -0.381 N 
ATOM      7  H1  UNL     1     -32.074  32.926  -1.717  1.00  0.00     0.160 HD
HETATM    8  C9  UNL     1     -33.539  31.769  -0.995  1.00  0.00     0.099 C 
HETATM    9  N2  UNL     1     -33.001  30.726  -1.817  1.00  0.00    -0.087 NA
HETATM   10  C10 UNL     1     -35.857  32.570  -0.602  1.00  0.00     0.010 C 
HETATM   11  C11 UNL     1     -36.630  33.220   0.483  1.00  0.00     0.007 C 
HETATM   12  C12 UNL     1     -37.592  32.364   1.231  1.00  0.00     0.001 C 
HETATM   13  C13 UNL     1     -37.644  30.944   0.905  1.00  0.00     0.011 C 
HETATM   14  C14 UNL     1     -36.739  30.508  -0.258  1.00  0.00    -0.023 C 
HETATM   15  C15 UNL     1     -37.213  29.151  -0.646  1.00  0.00     0.017 C 
HETATM   16  C16 UNL     1     -36.795  31.551  -1.283  1.00  0.00    -0.035 C 
HETATM   17  C17 UNL     1     -38.201  32.071  -1.420  1.00  0.00     0.016 C 
HETATM   18  C18 UNL     1     -36.292  31.279  -2.644  1.00  0.00     0.016 C 
ENDROOT
BRANCH   1  19
HETATM   19  C3  UNL     1     -34.695  29.153   0.052  1.00  0.00     0.265 C 
HETATM   20  O2  UNL     1     -34.098  28.541   1.027  1.00  0.00    -0.265 OA
BRANCH  19  21
HETATM   21  O1  UNL     1     -34.645  28.396  -1.089  1.00  0.00    -0.322 OA
BRANCH  21  22
HETATM   22  C2  UNL     1     -33.930  27.229  -1.312  1.00  0.00     0.174 C 
HETATM   23  C1  UNL     1     -34.551  26.176  -2.144  1.00  0.00     0.034 C 
ENDBRANCH  21  22
ENDBRANCH  19  21
ENDBRANCH   1  19
TORSDOF 3
ENDMDL
