MODEL 1
REMARK VINA RESULT: -6.638952611      0.000      0.000
REMARK  4 active torsions:
REMARK  status: ('A' for Active; 'I' for Inactive)
REMARK    1  A    between atoms: C2_2  and  N1_4 
REMARK       I    between atoms: N2_7  and  C6_8 
REMARK    2  A    between atoms: C6_8  and  O2_10 
REMARK    3  A    between atoms: O2_10  and  C7_11 
REMARK    4  A    between atoms: C15_19  and  N3_20 
ROOT
HETATM    1  N1  UNL     1     -36.165  32.534  -0.390  1.00  0.00     0.123 N 
HETATM    2  C4  UNL     1     -36.771  32.306  -1.688  1.00  0.00     0.296 C 
HETATM    3  C5  UNL     1     -36.145  31.026  -2.241  1.00  0.00     0.161 C 
HETATM    4  N2  UNL     1     -35.255  30.595  -1.180  1.00  0.00    -0.290 N 
HETATM    5  C6  UNL     1     -34.842  29.273  -0.960  1.00  0.00     0.365 C 
HETATM    6  O1  UNL     1     -35.261  28.354  -1.738  1.00  0.00    -0.238 OA
HETATM    7  C12 UNL     1     -34.945  31.835  -0.474  1.00  0.00     0.238 C 
HETATM    8  C13 UNL     1     -34.165  31.624   0.766  1.00  0.00     0.067 C 
HETATM    9  C14 UNL     1     -33.714  32.945   1.354  1.00  0.00     0.037 C 
HETATM   10  C15 UNL     1     -32.739  33.561   0.369  1.00  0.00     0.183 C 
HETATM   11  C16 UNL     1     -33.605  33.932  -0.845  1.00  0.00     0.037 C 
HETATM   12  C17 UNL     1     -34.044  32.612  -1.449  1.00  0.00     0.067 C 
ENDROOT
BRANCH   1  13
HETATM   13  C2  UNL     1     -37.050  32.246   0.682  1.00  0.00     0.218 C 
HETATM   14  C1  UNL     1     -38.228  31.377   0.345  1.00  0.00     0.042 C 
HETATM   15  C3  UNL     1     -37.614  33.556   1.201  1.00  0.00     0.042 C 
ENDBRANCH   1  13
BRANCH   5  16
HETATM   16  O2  UNL     1     -34.000  28.847   0.043  1.00  0.00    -0.298 OA
BRANCH  16  17
HETATM   17  C7  UNL     1     -32.622  28.694  -0.149  1.00  0.00     0.133 C 
HETATM   18  C8  UNL     1     -32.225  27.244  -0.418  1.00  0.00     0.032 C 
HETATM   19  C9  UNL     1     -30.708  27.359  -0.324  1.00  0.00     0.002 C 
HETATM   20  C10 UNL     1     -30.490  28.318   0.802  1.00  0.00     0.002 C 
HETATM   21  C11 UNL     1     -31.804  29.010   1.063  1.00  0.00     0.032 C 
ENDBRANCH  16  17
ENDBRANCH   5  16
BRANCH  10  22
HETATM   22  N3  UNL     1     -32.044  34.687   0.908  1.00  0.00    -0.075 N 
ATOM     23  H33 UNL     1     -32.629  35.192   1.574  1.00  0.00     0.274 HD
ATOM     24  H32 UNL     1     -31.297  34.388   1.536  1.00  0.00     0.274 HD
ATOM     25  H31 UNL     1     -31.687  35.313   0.188  1.00  0.00     0.274 HD
ENDBRANCH  10  22
TORSDOF 4
ENDMDL
MODEL 2
REMARK VINA RESULT: -6.461146014      2.440      5.436
REMARK  4 active torsions:
REMARK  status: ('A' for Active; 'I' for Inactive)
REMARK    1  A    between atoms: C2_2  and  N1_4 
REMARK       I    between atoms: N2_7  and  C6_8 
REMARK    2  A    between atoms: C6_8  and  O2_10 
REMARK    3  A    between atoms: O2_10  and  C7_11 
REMARK    4  A    between atoms: C15_19  and  N3_20 
ROOT
HETATM    1  N1  UNL     1     -33.084  31.372   0.447  1.00  0.00     0.123 N 
HETATM    2  C4  UNL     1     -33.083  32.634  -0.267  1.00  0.00     0.296 C 
HETATM    3  C5  UNL     1     -34.548  32.991  -0.521  1.00  0.00     0.161 C 
HETATM    4  N2  UNL     1     -35.277  31.912   0.119  1.00  0.00    -0.290 N 
HETATM    5  C6  UNL     1     -36.588  32.003   0.607  1.00  0.00     0.365 C 
HETATM    6  O1  UNL     1     -37.218  33.106   0.493  1.00  0.00    -0.238 OA
HETATM    7  C12 UNL     1     -34.326  30.804   0.103  1.00  0.00     0.238 C 
HETATM    8  C13 UNL     1     -34.794  29.619   0.856  1.00  0.00     0.067 C 
HETATM    9  C14 UNL     1     -33.861  28.444   0.652  1.00  0.00     0.037 C 
HETATM   10  C15 UNL     1     -33.953  28.051  -0.810  1.00  0.00     0.183 C 
HETATM   11  C16 UNL     1     -33.303  29.221  -1.563  1.00  0.00     0.037 C 
HETATM   12  C17 UNL     1     -34.243  30.396  -1.378  1.00  0.00     0.067 C 
ENDROOT
BRANCH   1  13
HETATM   13  C2  UNL     1     -32.753  31.522   1.819  1.00  0.00     0.218 C 
HETATM   14  C1  UNL     1     -32.558  32.934   2.295  1.00  0.00     0.042 C 
HETATM   15  C3  UNL     1     -31.446  30.795   2.079  1.00  0.00     0.042 C 
ENDBRANCH   1  13
BRANCH   5  16
HETATM   16  O2  UNL     1     -37.294  30.991   1.219  1.00  0.00    -0.298 OA
BRANCH  16  17
HETATM   17  C7  UNL     1     -38.359  30.334   0.590  1.00  0.00     0.133 C 
HETATM   18  C8  UNL     1     -38.756  29.045   1.306  1.00  0.00     0.032 C 
HETATM   19  C9  UNL     1     -39.715  28.452   0.281  1.00  0.00     0.002 C 
HETATM   20  C10 UNL     1     -39.080  28.773  -1.033  1.00  0.00     0.002 C 
HETATM   21  C11 UNL     1     -38.033  29.829  -0.780  1.00  0.00     0.032 C 
ENDBRANCH  16  17
ENDBRANCH   5  16
BRANCH  10  22
HETATM   22  N3  UNL     1     -33.319  26.801  -1.089  1.00  0.00    -0.075 N 
ATOM     23  H33 UNL     1     -33.500  26.126  -0.346  1.00  0.00     0.274 HD
ATOM     24  H32 UNL     1     -33.779  26.323  -1.864  1.00  0.00     0.274 HD
ATOM     25  H31 UNL     1     -32.318  26.895  -1.260  1.00  0.00     0.274 HD
ENDBRANCH  10  22
TORSDOF 4
ENDMDL
MODEL 3
REMARK VINA RESULT: -6.264030320      2.379      4.841
REMARK  4 active torsions:
REMARK  status: ('A' for Active; 'I' for Inactive)
REMARK    1  A    between atoms: C2_2  and  N1_4 
REMARK       I    between atoms: N2_7  and  C6_8 
REMARK    2  A    between atoms: C6_8  and  O2_10 
REMARK    3  A    between atoms: O2_10  and  C7_11 
REMARK    4  A    between atoms: C15_19  and  N3_20 
ROOT
HETATM    1  N1  UNL     1     -35.736  29.720  -0.843  1.00  0.00     0.123 N 
HETATM    2  C4  UNL     1     -36.884  29.926   0.020  1.00  0.00     0.296 C 
HETATM    3  C5  UNL     1     -36.622  31.220   0.791  1.00  0.00     0.161 C 
HETATM    4  N2  UNL     1     -35.350  31.678   0.264  1.00  0.00    -0.290 N 
HETATM    5  C6  UNL     1     -34.917  33.012   0.252  1.00  0.00     0.365 C 
HETATM    6  O1  UNL     1     -35.674  33.916   0.737  1.00  0.00    -0.238 OA
HETATM    7  C12 UNL     1     -34.715  30.451  -0.205  1.00  0.00     0.238 C 
HETATM    8  C13 UNL     1     -33.452  30.688  -0.940  1.00  0.00     0.067 C 
HETATM    9  C14 UNL     1     -32.746  29.383  -1.238  1.00  0.00     0.037 C 
HETATM   10  C15 UNL     1     -32.328  28.788   0.093  1.00  0.00     0.183 C 
HETATM   11  C16 UNL     1     -33.650  28.389   0.765  1.00  0.00     0.037 C 
HETATM   12  C17 UNL     1     -34.354  29.694   1.084  1.00  0.00     0.067 C 
ENDROOT
BRANCH   1  13
HETATM   13  C2  UNL     1     -36.026  29.989  -2.206  1.00  0.00     0.218 C 
HETATM   14  C1  UNL     1     -37.372  30.598  -2.484  1.00  0.00     0.042 C 
HETATM   15  C3  UNL     1     -35.978  28.681  -2.974  1.00  0.00     0.042 C 
ENDBRANCH   1  13
BRANCH   5  16
HETATM   16  O2  UNL     1     -33.716  33.465  -0.245  1.00  0.00    -0.298 OA
BRANCH  16  17
HETATM   17  C7  UNL     1     -32.587  33.643   0.565  1.00  0.00     0.133 C 
HETATM   18  C8  UNL     1     -32.743  32.990   1.937  1.00  0.00     0.032 C 
HETATM   19  C9  UNL     1     -31.519  33.560   2.645  1.00  0.00     0.002 C 
HETATM   20  C10 UNL     1     -31.442  34.968   2.153  1.00  0.00     0.002 C 
HETATM   21  C11 UNL     1     -32.329  35.068   0.937  1.00  0.00     0.032 C 
ENDBRANCH  16  17
ENDBRANCH   5  16
BRANCH  10  22
HETATM   22  N3  UNL     1     -31.433  27.684  -0.051  1.00  0.00    -0.075 N 
ATOM     23  H33 UNL     1     -31.676  27.120  -0.865  1.00  0.00     0.274 HD
ATOM     24  H32 UNL     1     -30.506  28.000  -0.339  1.00  0.00     0.274 HD
ATOM     25  H31 UNL     1     -31.377  27.108   0.789  1.00  0.00     0.274 HD
ENDBRANCH  10  22
TORSDOF 4
ENDMDL
MODEL 4
REMARK VINA RESULT: -6.122808050      2.160      4.289
REMARK  4 active torsions:
REMARK  status: ('A' for Active; 'I' for Inactive)
REMARK    1  A    between atoms: C2_2  and  N1_4 
REMARK       I    between atoms: N2_7  and  C6_8 
REMARK    2  A    between atoms: C6_8  and  O2_10 
REMARK    3  A    between atoms: O2_10  and  C7_11 
REMARK    4  A    between atoms: C15_19  and  N3_20 
ROOT
HETATM    1  N1  UNL     1     -37.150  32.300  -1.126  1.00  0.00     0.123 N 
HETATM    2  C4  UNL     1     -37.141  33.744  -0.992  1.00  0.00     0.296 C 
HETATM    3  C5  UNL     1     -36.132  34.073   0.108  1.00  0.00     0.161 C 
HETATM    4  N2  UNL     1     -35.604  32.775   0.484  1.00  0.00    -0.290 N 
HETATM    5  C6  UNL     1     -34.344  32.552   1.057  1.00  0.00     0.365 C 
HETATM    6  O1  UNL     1     -33.578  33.547   1.279  1.00  0.00    -0.238 OA
HETATM    7  C12 UNL     1     -36.678  31.854   0.124  1.00  0.00     0.238 C 
HETATM    8  C13 UNL     1     -36.304  30.430   0.271  1.00  0.00     0.067 C 
HETATM    9  C14 UNL     1     -37.504  29.530   0.065  1.00  0.00     0.037 C 
HETATM   10  C15 UNL     1     -38.470  29.809   1.201  1.00  0.00     0.183 C 
HETATM   11  C16 UNL     1     -38.979  31.232   0.930  1.00  0.00     0.037 C 
HETATM   12  C17 UNL     1     -37.784  32.140   1.153  1.00  0.00     0.067 C 
ENDROOT
BRANCH   1  13
HETATM   13  C2  UNL     1     -36.494  31.859  -2.306  1.00  0.00     0.218 C 
HETATM   14  C1  UNL     1     -35.960  32.940  -3.202  1.00  0.00     0.042 C 
HETATM   15  C3  UNL     1     -37.484  31.061  -3.135  1.00  0.00     0.042 C 
ENDBRANCH   1  13
BRANCH   5  16
HETATM   16  O2  UNL     1     -33.826  31.328   1.418  1.00  0.00    -0.298 OA
BRANCH  16  17
HETATM   17  C7  UNL     1     -32.539  30.919   1.045  1.00  0.00     0.133 C 
HETATM   18  C8  UNL     1     -32.482  29.441   0.665  1.00  0.00     0.032 C 
HETATM   19  C9  UNL     1     -30.973  29.247   0.571  1.00  0.00     0.002 C 
HETATM   20  C10 UNL     1     -30.434  30.065   1.700  1.00  0.00     0.002 C 
HETATM   21  C11 UNL     1     -31.539  30.984   2.156  1.00  0.00     0.032 C 
ENDBRANCH  16  17
ENDBRANCH   5  16
BRANCH  10  22
HETATM   22  N3  UNL     1     -39.530  28.854   1.274  1.00  0.00    -0.075 N 
ATOM     23  H33 UNL     1     -39.712  28.584   2.240  1.00  0.00     0.274 HD
ATOM     24  H32 UNL     1     -40.427  29.286   1.050  1.00  0.00     0.274 HD
ATOM     25  H31 UNL     1     -39.365  28.034   0.691  1.00  0.00     0.274 HD
ENDBRANCH  10  22
TORSDOF 4
ENDMDL
MODEL 5
REMARK VINA RESULT: -6.088281672      2.003      3.097
REMARK  4 active torsions:
REMARK  status: ('A' for Active; 'I' for Inactive)
REMARK    1  A    between atoms: C2_2  and  N1_4 
REMARK       I    between atoms: N2_7  and  C6_8 
REMARK    2  A    between atoms: C6_8  and  O2_10 
REMARK    3  A    between atoms: O2_10  and  C7_11 
REMARK    4  A    between atoms: C15_19  and  N3_20 
ROOT
HETATM    1  N1  UNL     1     -36.619  29.557  -1.748  1.00  0.00     0.123 N 
HETATM    2  C4  UNL     1     -36.017  28.907  -2.896  1.00  0.00     0.296 C 
HETATM    3  C5  UNL     1     -34.648  28.400  -2.440  1.00  0.00     0.161 C 
HETATM    4  N2  UNL     1     -34.600  28.766  -1.037  1.00  0.00    -0.290 N 
HETATM    5  C6  UNL     1     -33.828  28.119  -0.061  1.00  0.00     0.365 C 
HETATM    6  O1  UNL     1     -33.098  27.131  -0.401  1.00  0.00    -0.238 OA
HETATM    7  C12 UNL     1     -35.510  29.904  -0.951  1.00  0.00     0.238 C 
HETATM    8  C13 UNL     1     -35.752  30.359   0.436  1.00  0.00     0.067 C 
HETATM    9  C14 UNL     1     -36.547  31.646   0.453  1.00  0.00     0.037 C 
HETATM   10  C15 UNL     1     -35.675  32.718  -0.172  1.00  0.00     0.183 C 
HETATM   11  C16 UNL     1     -35.581  32.319  -1.652  1.00  0.00     0.037 C 
HETATM   12  C17 UNL     1     -34.768  31.039  -1.677  1.00  0.00     0.067 C 
ENDROOT
BRANCH   1  13
HETATM   13  C2  UNL     1     -37.665  28.788  -1.174  1.00  0.00     0.218 C 
HETATM   14  C1  UNL     1     -37.980  27.491  -1.863  1.00  0.00     0.042 C 
HETATM   15  C3  UNL     1     -38.939  29.614  -1.204  1.00  0.00     0.042 C 
ENDBRANCH   1  13
BRANCH   5  16
HETATM   16  O2  UNL     1     -33.771  28.451   1.274  1.00  0.00    -0.298 OA
BRANCH  16  17
HETATM   17  C7  UNL     1     -32.688  29.143   1.830  1.00  0.00     0.133 C 
HETATM   18  C8  UNL     1     -32.807  30.656   1.653  1.00  0.00     0.032 C 
HETATM   19  C9  UNL     1     -31.416  31.089   2.104  1.00  0.00     0.002 C 
HETATM   20  C10 UNL     1     -30.515  30.033   1.551  1.00  0.00     0.002 C 
HETATM   21  C11 UNL     1     -31.382  28.863   1.156  1.00  0.00     0.032 C 
ENDBRANCH  16  17
ENDBRANCH   5  16
BRANCH  10  22
HETATM   22  N3  UNL     1     -36.200  34.034   0.007  1.00  0.00    -0.075 N 
ATOM     23  H33 UNL     1     -35.660  34.552   0.701  1.00  0.00     0.274 HD
ATOM     24  H32 UNL     1     -36.018  34.615  -0.812  1.00  0.00     0.274 HD
ATOM     25  H31 UNL     1     -37.192  34.036   0.241  1.00  0.00     0.274 HD
ENDBRANCH  10  22
TORSDOF 4
ENDMDL
