MODEL 1
REMARK VINA RESULT: -6.567238963      0.000      0.000
REMARK  2 active torsions:
REMARK  status: ('A' for Active; 'I' for Inactive)
REMARK    1  A    between atoms: C7_8  and  N2_9 
REMARK    2  A    between atoms: C10_12  and  N3_13 
ROOT
HETATM    1  N2  UNL     1     -34.478  29.160  -0.803  1.00  0.00     0.093 N 
HETATM    2  C8  UNL     1     -35.442  30.017  -0.206  1.00  0.00     0.275 C 
HETATM    3  C9  UNL     1     -35.003  31.424   0.066  1.00  0.00     0.056 C 
HETATM    4  C10 UNL     1     -33.528  31.583   0.005  1.00  0.00     0.095 C 
HETATM    5  C14 UNL     1     -33.089  31.098  -1.384  1.00  0.00     0.056 C 
HETATM    6  C15 UNL     1     -33.639  29.784  -1.777  1.00  0.00     0.275 C 
ENDROOT
BRANCH   1   7
HETATM    7  C7  UNL     1     -35.218  28.103  -1.493  1.00  0.00     0.227 C 
HETATM    8  C6  UNL     1     -34.266  27.013  -1.912  1.00  0.00     0.071 C 
HETATM    9  C5  UNL     1     -35.016  26.025  -2.786  1.00  0.00     0.225 C 
HETATM   10  N1  UNL     1     -36.431  26.180  -2.536  1.00  0.00     0.093 N 
HETATM   11  C4  UNL     1     -34.798  26.450  -4.229  1.00  0.00     0.038 C 
HETATM   12  C1  UNL     1     -37.220  25.097  -3.025  1.00  0.00     0.310 C 
HETATM   13  C2  UNL     1     -36.728  27.409  -3.261  1.00  0.00     0.225 C 
HETATM   14  C3  UNL     1     -36.107  27.102  -4.613  1.00  0.00     0.038 C 
HETATM   15  C16 UNL     1     -36.004  28.588  -2.665  1.00  0.00     0.071 C 
ENDBRANCH   1   7
BRANCH   4  16
HETATM   16  N3  UNL     1     -33.077  32.960   0.098  1.00  0.00    -0.328 N 
HETATM   17  C11 UNL     1     -33.208  33.901  -0.890  1.00  0.00     0.111 A 
HETATM   18  C12 UNL     1     -32.668  35.074  -0.459  1.00  0.00     0.107 A 
HETATM   19  N4  UNL     1     -32.221  34.837   0.773  1.00  0.00    -0.342 N 
HETATM   20  C13 UNL     1     -32.460  33.545   1.139  1.00  0.00     0.178 A 
ATOM     21  H4  UNL     1     -31.761  35.530   1.364  1.00  0.00     0.167 HD
HETATM   22  S1  UNL     1     -32.042  32.904   2.583  1.00  0.00    -0.040 SA
ENDBRANCH   4  16
TORSDOF 2
ENDMDL
MODEL 2
REMARK VINA RESULT: -6.376225263      2.351      3.182
REMARK  2 active torsions:
REMARK  status: ('A' for Active; 'I' for Inactive)
REMARK    1  A    between atoms: C7_8  and  N2_9 
REMARK    2  A    between atoms: C10_12  and  N3_13 
ROOT
HETATM    1  N2  UNL     1     -35.003  27.503  -1.843  1.00  0.00     0.093 N 
HETATM    2  C8  UNL     1     -34.818  28.877  -2.157  1.00  0.00     0.275 C 
HETATM    3  C9  UNL     1     -33.831  29.625  -1.313  1.00  0.00     0.056 C 
HETATM    4  C10 UNL     1     -33.485  28.901  -0.062  1.00  0.00     0.095 C 
HETATM    5  C14 UNL     1     -32.962  27.520  -0.481  1.00  0.00     0.056 C 
HETATM    6  C15 UNL     1     -33.816  26.809  -1.454  1.00  0.00     0.275 C 
ENDROOT
BRANCH   1   7
HETATM    7  C7  UNL     1     -35.499  26.853  -3.056  1.00  0.00     0.227 C 
HETATM    8  C6  UNL     1     -34.668  27.286  -4.236  1.00  0.00     0.071 C 
HETATM    9  C5  UNL     1     -35.312  26.753  -5.502  1.00  0.00     0.225 C 
HETATM   10  N1  UNL     1     -36.180  25.655  -5.143  1.00  0.00     0.093 N 
HETATM   11  C4  UNL     1     -36.222  27.849  -6.036  1.00  0.00     0.038 C 
HETATM   12  C1  UNL     1     -36.576  24.853  -6.255  1.00  0.00     0.310 C 
HETATM   13  C2  UNL     1     -37.325  26.356  -4.574  1.00  0.00     0.225 C 
HETATM   14  C3  UNL     1     -37.609  27.376  -5.664  1.00  0.00     0.038 C 
HETATM   15  C16 UNL     1     -36.947  27.097  -3.319  1.00  0.00     0.071 C 
ENDBRANCH   1   7
BRANCH   4  16
HETATM   16  N3  UNL     1     -32.411  29.513   0.697  1.00  0.00    -0.328 N 
HETATM   17  C11 UNL     1     -31.192  28.936   0.945  1.00  0.00     0.111 A 
HETATM   18  C12 UNL     1     -30.441  29.791   1.693  1.00  0.00     0.107 A 
HETATM   19  N4  UNL     1     -31.201  30.866   1.888  1.00  0.00    -0.342 N 
HETATM   20  C13 UNL     1     -32.416  30.722   1.287  1.00  0.00     0.178 A 
ATOM     21  H4  UNL     1     -30.912  31.690   2.416  1.00  0.00     0.167 HD
HETATM   22  S1  UNL     1     -33.603  31.845   1.323  1.00  0.00    -0.040 SA
ENDBRANCH   4  16
TORSDOF 2
ENDMDL
MODEL 3
REMARK VINA RESULT: -6.268756405      1.372      1.457
REMARK  2 active torsions:
REMARK  status: ('A' for Active; 'I' for Inactive)
REMARK    1  A    between atoms: C7_8  and  N2_9 
REMARK    2  A    between atoms: C10_12  and  N3_13 
ROOT
HETATM    1  N2  UNL     1     -34.695  28.505  -0.975  1.00  0.00     0.093 N 
HETATM    2  C8  UNL     1     -35.565  29.423  -0.327  1.00  0.00     0.275 C 
HETATM    3  C9  UNL     1     -34.916  30.609   0.321  1.00  0.00     0.056 C 
HETATM    4  C10 UNL     1     -33.451  30.436   0.493  1.00  0.00     0.095 C 
HETATM    5  C14 UNL     1     -32.874  30.148  -0.900  1.00  0.00     0.056 C 
HETATM    6  C15 UNL     1     -33.589  29.101  -1.657  1.00  0.00     0.275 C 
ENDROOT
BRANCH   1   7
HETATM    7  C7  UNL     1     -35.489  27.804  -1.983  1.00  0.00     0.227 C 
HETATM    8  C6  UNL     1     -34.652  26.732  -2.630  1.00  0.00     0.071 C 
HETATM    9  C5  UNL     1     -35.429  26.149  -3.795  1.00  0.00     0.225 C 
HETATM   10  N1  UNL     1     -36.829  26.451  -3.605  1.00  0.00     0.093 N 
HETATM   11  C4  UNL     1     -35.003  26.908  -5.042  1.00  0.00     0.038 C 
HETATM   12  C1  UNL     1     -37.698  25.679  -4.432  1.00  0.00     0.310 C 
HETATM   13  C2  UNL     1     -36.881  27.861  -3.970  1.00  0.00     0.225 C 
HETATM   14  C3  UNL     1     -36.165  27.837  -5.310  1.00  0.00     0.038 C 
HETATM   15  C16 UNL     1     -36.075  28.705  -3.018  1.00  0.00     0.071 C 
ENDBRANCH   1   7
BRANCH   4  16
HETATM   16  N3  UNL     1     -32.766  31.626   0.962  1.00  0.00    -0.328 N 
HETATM   17  C11 UNL     1     -33.268  32.900   0.903  1.00  0.00     0.111 A 
HETATM   18  C12 UNL     1     -32.351  33.762   1.424  1.00  0.00     0.107 A 
HETATM   19  N4  UNL     1     -31.315  33.011   1.791  1.00  0.00    -0.342 N 
HETATM   20  C13 UNL     1     -31.543  31.695   1.518  1.00  0.00     0.178 A 
ATOM     21  H4  UNL     1     -30.463  33.373   2.220  1.00  0.00     0.167 HD
HETATM   22  S1  UNL     1     -30.484  30.490   1.833  1.00  0.00    -0.040 SA
ENDBRANCH   4  16
TORSDOF 2
ENDMDL
MODEL 4
REMARK VINA RESULT: -6.246806190      1.151      1.827
REMARK  2 active torsions:
REMARK  status: ('A' for Active; 'I' for Inactive)
REMARK    1  A    between atoms: C7_8  and  N2_9 
REMARK    2  A    between atoms: C10_12  and  N3_13 
ROOT
HETATM    1  N2  UNL     1     -34.975  29.729  -1.669  1.00  0.00     0.093 N 
HETATM    2  C8  UNL     1     -33.570  29.516  -1.699  1.00  0.00     0.275 C 
HETATM    3  C9  UNL     1     -32.741  30.429  -0.846  1.00  0.00     0.056 C 
HETATM    4  C10 UNL     1     -33.491  31.632  -0.401  1.00  0.00     0.095 C 
HETATM    5  C14 UNL     1     -34.740  31.126   0.335  1.00  0.00     0.056 C 
HETATM    6  C15 UNL     1     -35.502  30.090  -0.391  1.00  0.00     0.275 C 
ENDROOT
BRANCH   1   7
HETATM    7  C7  UNL     1     -35.605  28.465  -2.048  1.00  0.00     0.227 C 
HETATM    8  C6  UNL     1     -34.553  27.393  -2.165  1.00  0.00     0.071 C 
HETATM    9  C5  UNL     1     -35.197  26.145  -2.740  1.00  0.00     0.225 C 
HETATM   10  N1  UNL     1     -36.624  26.233  -2.534  1.00  0.00     0.093 N 
HETATM   11  C4  UNL     1     -34.988  26.188  -4.246  1.00  0.00     0.038 C 
HETATM   12  C1  UNL     1     -37.306  24.992  -2.713  1.00  0.00     0.310 C 
HETATM   13  C2  UNL     1     -37.014  27.193  -3.560  1.00  0.00     0.225 C 
HETATM   14  C3  UNL     1     -36.342  26.593  -4.784  1.00  0.00     0.038 C 
HETATM   15  C16 UNL     1     -36.408  28.548  -3.303  1.00  0.00     0.071 C 
ENDBRANCH   1   7
BRANCH   4  16
HETATM   16  N3  UNL     1     -32.776  32.452   0.559  1.00  0.00    -0.328 N 
HETATM   17  C11 UNL     1     -32.178  31.988   1.702  1.00  0.00     0.111 A 
HETATM   18  C12 UNL     1     -31.612  33.036   2.363  1.00  0.00     0.107 A 
HETATM   19  N4  UNL     1     -31.868  34.113   1.623  1.00  0.00    -0.342 N 
HETATM   20  C13 UNL     1     -32.582  33.782   0.509  1.00  0.00     0.178 A 
ATOM     21  H4  UNL     1     -31.569  35.060   1.857  1.00  0.00     0.167 HD
HETATM   22  S1  UNL     1     -33.075  34.853  -0.623  1.00  0.00    -0.040 SA
ENDBRANCH   4  16
TORSDOF 2
ENDMDL
MODEL 5
REMARK VINA RESULT: -6.225169985      1.237      1.572
REMARK  2 active torsions:
REMARK  status: ('A' for Active; 'I' for Inactive)
REMARK    1  A    between atoms: C7_8  and  N2_9 
REMARK    2  A    between atoms: C10_12  and  N3_13 
ROOT
HETATM    1  N2  UNL     1     -34.369  28.970  -0.153  1.00  0.00     0.093 N 
HETATM    2  C8  UNL     1     -35.298  29.996   0.171  1.00  0.00     0.275 C 
HETATM    3  C9  UNL     1     -34.717  31.289   0.658  1.00  0.00     0.056 C 
HETATM    4  C10 UNL     1     -33.295  31.158   1.067  1.00  0.00     0.095 C 
HETATM    5  C14 UNL     1     -32.536  30.602  -0.146  1.00  0.00     0.056 C 
HETATM    6  C15 UNL     1     -33.165  29.423  -0.775  1.00  0.00     0.275 C 
ENDROOT
BRANCH   1   7
HETATM    7  C7  UNL     1     -35.033  28.081  -1.106  1.00  0.00     0.227 C 
HETATM    8  C6  UNL     1     -34.044  27.071  -1.626  1.00  0.00     0.071 C 
HETATM    9  C5  UNL     1     -34.699  26.285  -2.747  1.00  0.00     0.225 C 
HETATM   10  N1  UNL     1     -36.132  26.420  -2.619  1.00  0.00     0.093 N 
HETATM   11  C4  UNL     1     -34.329  26.973  -4.051  1.00  0.00     0.038 C 
HETATM   12  C1  UNL     1     -36.866  25.467  -3.387  1.00  0.00     0.310 C 
HETATM   13  C2  UNL     1     -36.349  27.771  -3.121  1.00  0.00     0.225 C 
HETATM   14  C3  UNL     1     -35.589  27.715  -4.436  1.00  0.00     0.038 C 
HETATM   15  C16 UNL     1     -35.691  28.798  -2.238  1.00  0.00     0.071 C 
ENDBRANCH   1   7
BRANCH   4  16
HETATM   16  N3  UNL     1     -32.652  32.419   1.386  1.00  0.00    -0.328 N 
HETATM   17  C11 UNL     1     -31.978  32.690   2.548  1.00  0.00     0.111 A 
HETATM   18  C12 UNL     1     -31.516  33.971   2.504  1.00  0.00     0.107 A 
HETATM   19  N4  UNL     1     -31.909  34.458   1.329  1.00  0.00    -0.342 N 
HETATM   20  C13 UNL     1     -32.609  33.526   0.622  1.00  0.00     0.178 A 
ATOM     21  H4  UNL     1     -31.711  35.404   1.001  1.00  0.00     0.167 HD
HETATM   22  S1  UNL     1     -33.246  33.780  -0.861  1.00  0.00    -0.040 SA
ENDBRANCH   4  16
TORSDOF 2
ENDMDL
