MODEL 1
REMARK VINA RESULT: -7.229231509      0.000      0.000
REMARK  3 active torsions:
REMARK  status: ('A' for Active; 'I' for Inactive)
REMARK    1  A    between atoms: C2_2  and  O1_3 
REMARK    2  A    between atoms: O1_3  and  C3_4 
REMARK       I    between atoms: C3_4  and  N1_6 
REMARK    3  A    between atoms: C15_18  and  O3_19 
ROOT
HETATM    1  C3  UNL     1     -32.022  29.838   1.576  1.00  0.00     0.366 C 
HETATM    2  O2  UNL     1     -31.125  30.153   2.358  1.00  0.00    -0.238 OA
HETATM    3  N1  UNL     1     -33.147  30.633   1.318  1.00  0.00    -0.299 N 
HETATM    4  C4  UNL     1     -34.079  30.030   0.381  1.00  0.00     0.149 C 
HETATM    5  C5  UNL     1     -34.820  31.020  -0.401  1.00  0.00     0.069 C 
HETATM    6  C6  UNL     1     -35.470  32.037   0.548  1.00  0.00     0.031 C 
HETATM    7  C7  UNL     1     -34.301  32.831   1.099  1.00  0.00     0.078 C 
HETATM    8  C8  UNL     1     -33.447  31.888   1.880  1.00  0.00     0.002 C 
HETATM    9  C9  UNL     1     -32.396  32.592   2.690  1.00  0.00     0.054 C 
HETATM   10  C10 UNL     1     -31.210  33.116   1.992  1.00  0.00     0.010 C 
HETATM   11  C11 UNL     1     -31.161  34.620   1.859  1.00  0.00    -0.018 C 
HETATM   12  C12 UNL     1     -30.777  35.300   3.148  1.00  0.00     0.010 C 
HETATM   13  C13 UNL     1     -32.442  35.124   1.279  1.00  0.00     0.008 C 
HETATM   14  C14 UNL     1     -32.654  34.417  -0.031  1.00  0.00     0.050 C 
HETATM   15  C15 UNL     1     -33.791  33.512  -0.080  1.00  0.00     0.115 C 
HETATM   16  S1  UNL     1     -33.597  32.102  -1.244  1.00  0.00    -0.124 SA
ENDROOT
BRANCH   1  17
HETATM   17  O1  UNL     1     -31.821  28.582   0.947  1.00  0.00    -0.304 OA
BRANCH  17  18
HETATM   18  C2  UNL     1     -30.798  28.413  -0.037  1.00  0.00     0.176 C 
HETATM   19  C1  UNL     1     -30.252  27.011   0.080  1.00  0.00     0.034 C 
ENDBRANCH  17  18
ENDBRANCH   1  17
BRANCH  15  20
HETATM   20  O3  UNL     1     -34.893  34.236  -0.623  1.00  0.00    -0.379 OA
ATOM     21  H3  UNL     1     -34.643  34.466  -1.510  1.00  0.00     0.211 HD
ENDBRANCH  15  20
TORSDOF 3
ENDMDL
MODEL 2
REMARK VINA RESULT: -6.751316571      2.069      4.543
REMARK  3 active torsions:
REMARK  status: ('A' for Active; 'I' for Inactive)
REMARK    1  A    between atoms: C2_2  and  O1_3 
REMARK    2  A    between atoms: O1_3  and  C3_4 
REMARK       I    between atoms: C3_4  and  N1_6 
REMARK    3  A    between atoms: C15_18  and  O3_19 
ROOT
HETATM    1  C3  UNL     1     -35.951  31.828  -0.147  1.00  0.00     0.366 C 
HETATM    2  O2  UNL     1     -35.890  32.971   0.304  1.00  0.00    -0.238 OA
HETATM    3  N1  UNL     1     -34.830  31.078  -0.528  1.00  0.00    -0.299 N 
HETATM    4  C4  UNL     1     -35.162  29.769  -1.060  1.00  0.00     0.149 C 
HETATM    5  C5  UNL     1     -34.119  28.773  -0.813  1.00  0.00     0.069 C 
HETATM    6  C6  UNL     1     -32.770  29.315  -1.308  1.00  0.00     0.031 C 
HETATM    7  C7  UNL     1     -32.434  30.423  -0.327  1.00  0.00     0.078 C 
HETATM    8  C8  UNL     1     -33.481  31.477  -0.466  1.00  0.00     0.002 C 
HETATM    9  C9  UNL     1     -33.130  32.743   0.262  1.00  0.00     0.054 C 
HETATM   10  C10 UNL     1     -33.272  32.770   1.727  1.00  0.00     0.010 C 
HETATM   11  C11 UNL     1     -31.971  32.760   2.495  1.00  0.00    -0.018 C 
HETATM   12  C12 UNL     1     -31.281  34.100   2.477  1.00  0.00     0.010 C 
HETATM   13  C13 UNL     1     -31.105  31.639   2.018  1.00  0.00     0.008 C 
HETATM   14  C14 UNL     1     -31.893  30.367   2.165  1.00  0.00     0.050 C 
HETATM   15  C15 UNL     1     -32.248  29.702   0.922  1.00  0.00     0.115 C 
HETATM   16  S1  UNL     1     -33.804  28.723   0.996  1.00  0.00    -0.124 SA
ENDROOT
BRANCH   1  17
HETATM   17  O1  UNL     1     -37.272  31.321  -0.252  1.00  0.00    -0.304 OA
BRANCH  17  18
HETATM   18  C2  UNL     1     -38.053  31.068   0.918  1.00  0.00     0.176 C 
HETATM   19  C1  UNL     1     -38.289  29.580   1.020  1.00  0.00     0.034 C 
ENDBRANCH  17  18
ENDBRANCH   1  17
BRANCH  15  20
HETATM   20  O3  UNL     1     -31.253  28.715   0.661  1.00  0.00    -0.379 OA
ATOM     21  H3  UNL     1     -30.418  29.163   0.729  1.00  0.00     0.211 HD
ENDBRANCH  15  20
TORSDOF 3
ENDMDL
MODEL 3
REMARK VINA RESULT: -6.554432240      1.925      5.120
REMARK  3 active torsions:
REMARK  status: ('A' for Active; 'I' for Inactive)
REMARK    1  A    between atoms: C2_2  and  O1_3 
REMARK    2  A    between atoms: O1_3  and  C3_4 
REMARK       I    between atoms: C3_4  and  N1_6 
REMARK    3  A    between atoms: C15_18  and  O3_19 
ROOT
HETATM    1  C3  UNL     1     -31.968  32.017   1.636  1.00  0.00     0.366 C 
HETATM    2  O2  UNL     1     -30.876  31.516   1.900  1.00  0.00    -0.238 OA
HETATM    3  N1  UNL     1     -32.715  31.702   0.492  1.00  0.00    -0.299 N 
HETATM    4  C4  UNL     1     -33.956  32.449   0.388  1.00  0.00     0.149 C 
HETATM    5  C5  UNL     1     -35.006  31.713  -0.318  1.00  0.00     0.069 C 
HETATM    6  C6  UNL     1     -34.464  31.223  -1.670  1.00  0.00     0.031 C 
HETATM    7  C7  UNL     1     -33.467  30.142  -1.300  1.00  0.00     0.078 C 
HETATM    8  C8  UNL     1     -32.370  30.790  -0.524  1.00  0.00     0.002 C 
HETATM    9  C9  UNL     1     -31.191  29.882  -0.316  1.00  0.00     0.054 C 
HETATM   10  C10 UNL     1     -31.300  28.816   0.694  1.00  0.00     0.010 C 
HETATM   11  C11 UNL     1     -31.427  27.418   0.135  1.00  0.00    -0.018 C 
HETATM   12  C12 UNL     1     -30.114  26.882  -0.378  1.00  0.00     0.010 C 
HETATM   13  C13 UNL     1     -32.525  27.370  -0.877  1.00  0.00     0.008 C 
HETATM   14  C14 UNL     1     -33.779  27.859  -0.205  1.00  0.00     0.050 C 
HETATM   15  C15 UNL     1     -34.310  29.117  -0.706  1.00  0.00     0.115 C 
HETATM   16  S1  UNL     1     -35.239  30.104   0.538  1.00  0.00    -0.124 SA
ENDROOT
BRANCH   1  17
HETATM   17  O1  UNL     1     -32.418  32.956   2.599  1.00  0.00    -0.304 OA
BRANCH  17  18
HETATM   18  C2  UNL     1     -31.582  34.040   3.009  1.00  0.00     0.176 C 
HETATM   19  C1  UNL     1     -31.602  35.093   1.927  1.00  0.00     0.034 C 
ENDBRANCH  17  18
ENDBRANCH   1  17
BRANCH  15  20
HETATM   20  O3  UNL     1     -35.300  28.807  -1.684  1.00  0.00    -0.379 OA
ATOM     21  H3  UNL     1     -35.877  29.561  -1.719  1.00  0.00     0.211 HD
ENDBRANCH  15  20
TORSDOF 3
ENDMDL
MODEL 4
REMARK VINA RESULT: -6.538354697      2.323      4.538
REMARK  3 active torsions:
REMARK  status: ('A' for Active; 'I' for Inactive)
REMARK    1  A    between atoms: C2_2  and  O1_3 
REMARK    2  A    between atoms: O1_3  and  C3_4 
REMARK       I    between atoms: C3_4  and  N1_6 
REMARK    3  A    between atoms: C15_18  and  O3_19 
ROOT
HETATM    1  C3  UNL     1     -35.537  30.427  -1.473  1.00  0.00     0.366 C 
HETATM    2  O2  UNL     1     -35.779  31.614  -1.689  1.00  0.00    -0.238 OA
HETATM    3  N1  UNL     1     -34.273  29.943  -1.109  1.00  0.00    -0.299 N 
HETATM    4  C4  UNL     1     -34.232  28.501  -0.941  1.00  0.00     0.149 C 
HETATM    5  C5  UNL     1     -33.239  28.071   0.044  1.00  0.00     0.069 C 
HETATM    6  C6  UNL     1     -31.876  28.690  -0.302  1.00  0.00     0.031 C 
HETATM    7  C7  UNL     1     -32.052  30.167   0.001  1.00  0.00     0.078 C 
HETATM    8  C8  UNL     1     -33.095  30.693  -0.927  1.00  0.00     0.002 C 
HETATM    9  C9  UNL     1     -33.185  32.193  -0.909  1.00  0.00     0.054 C 
HETATM   10  C10 UNL     1     -33.850  32.840   0.234  1.00  0.00     0.010 C 
HETATM   11  C11 UNL     1     -32.924  33.552   1.192  1.00  0.00    -0.018 C 
HETATM   12  C12 UNL     1     -32.439  34.873   0.649  1.00  0.00     0.010 C 
HETATM   13  C13 UNL     1     -31.818  32.638   1.608  1.00  0.00     0.008 C 
HETATM   14  C14 UNL     1     -32.448  31.405   2.195  1.00  0.00     0.050 C 
HETATM   15  C15 UNL     1     -32.248  30.178   1.442  1.00  0.00     0.115 C 
HETATM   16  S1  UNL     1     -33.597  28.940   1.623  1.00  0.00    -0.124 SA
ENDROOT
BRANCH   1  17
HETATM   17  O1  UNL     1     -36.660  29.574  -1.626  1.00  0.00    -0.304 OA
BRANCH  17  18
HETATM   18  C2  UNL     1     -37.847  29.783  -0.859  1.00  0.00     0.176 C 
HETATM   19  C1  UNL     1     -37.497  29.655   0.604  1.00  0.00     0.034 C 
ENDBRANCH  17  18
ENDBRANCH   1  17
BRANCH  15  20
HETATM   20  O3  UNL     1     -31.116  29.512   1.996  1.00  0.00    -0.379 OA
ATOM     21  H3  UNL     1     -30.699  30.142   2.572  1.00  0.00     0.211 HD
ENDBRANCH  15  20
TORSDOF 3
ENDMDL
MODEL 5
REMARK VINA RESULT: -6.499988578      1.933      5.232
REMARK  3 active torsions:
REMARK  status: ('A' for Active; 'I' for Inactive)
REMARK    1  A    between atoms: C2_2  and  O1_3 
REMARK    2  A    between atoms: O1_3  and  C3_4 
REMARK       I    between atoms: C3_4  and  N1_6 
REMARK    3  A    between atoms: C15_18  and  O3_19 
ROOT
HETATM    1  C3  UNL     1     -32.679  33.125   1.254  1.00  0.00     0.366 C 
HETATM    2  O2  UNL     1     -33.445  33.984   0.819  1.00  0.00    -0.238 OA
HETATM    3  N1  UNL     1     -33.021  31.774   1.398  1.00  0.00    -0.299 N 
HETATM    4  C4  UNL     1     -31.957  30.964   1.963  1.00  0.00     0.149 C 
HETATM    5  C5  UNL     1     -31.993  29.575   1.502  1.00  0.00     0.069 C 
HETATM    6  C6  UNL     1     -33.398  28.998   1.735  1.00  0.00     0.031 C 
HETATM    7  C7  UNL     1     -34.268  29.723   0.726  1.00  0.00     0.078 C 
HETATM    8  C8  UNL     1     -34.255  31.172   1.083  1.00  0.00     0.002 C 
HETATM    9  C9  UNL     1     -35.278  31.967   0.322  1.00  0.00     0.054 C 
HETATM   10  C10 UNL     1     -35.003  32.293  -1.087  1.00  0.00     0.010 C 
HETATM   11  C11 UNL     1     -35.830  31.527  -2.093  1.00  0.00    -0.018 C 
HETATM   12  C12 UNL     1     -37.244  32.042  -2.187  1.00  0.00     0.010 C 
HETATM   13  C13 UNL     1     -35.749  30.062  -1.811  1.00  0.00     0.008 C 
HETATM   14  C14 UNL     1     -34.294  29.681  -1.824  1.00  0.00     0.050 C 
HETATM   15  C15 UNL     1     -33.746  29.253  -0.547  1.00  0.00     0.115 C 
HETATM   16  S1  UNL     1     -31.950  29.589  -0.334  1.00  0.00    -0.124 SA
ENDROOT
BRANCH   1  17
HETATM   17  O1  UNL     1     -31.397  33.623   1.605  1.00  0.00    -0.304 OA
BRANCH  17  18
HETATM   18  C2  UNL     1     -31.217  34.417   2.780  1.00  0.00     0.176 C 
HETATM   19  C1  UNL     1     -30.758  35.792   2.360  1.00  0.00     0.034 C 
ENDBRANCH  17  18
ENDBRANCH   1  17
BRANCH  15  20
HETATM   20  O3  UNL     1     -33.821  27.830  -0.500  1.00  0.00    -0.379 OA
ATOM     21  H3  UNL     1     -34.136  27.614   0.370  1.00  0.00     0.211 HD
ENDBRANCH  15  20
TORSDOF 3
ENDMDL
