MODEL 1
REMARK VINA RESULT: -5.773289641      0.000      0.000
REMARK  5 active torsions:
REMARK  status: ('A' for Active; 'I' for Inactive)
REMARK    1  A    between atoms: C2_2  and  C3_3 
REMARK    2  A    between atoms: C2_2  and  N5_19 
REMARK    3  A    between atoms: N3_8  and  C4_9 
REMARK    4  A    between atoms: C8_13  and  N4_14 
REMARK    5  A    between atoms: N4_14  and  C9_15 
ROOT
HETATM    1  C3  UNL     1     -36.105  30.314  -1.584  1.00  0.00     0.108 A 
HETATM    2  N1  UNL     1     -36.899  30.385  -2.680  1.00  0.00    -0.283 N 
ATOM      3  H1  UNL     1     -37.590  31.113  -2.861  1.00  0.00     0.188 HD
HETATM    4  N2  UNL     1     -36.643  29.369  -3.477  1.00  0.00    -0.237 N 
ATOM      5  H2  UNL     1     -37.113  29.204  -4.366  1.00  0.00     0.208 HD
HETATM    6  N3  UNL     1     -35.710  28.599  -2.982  1.00  0.00    -0.240 N 
HETATM    7  C8  UNL     1     -35.344  29.181  -1.766  1.00  0.00     0.218 A 
ENDROOT
BRANCH   1   8
HETATM    8  C2  UNL     1     -36.100  31.277  -0.469  1.00  0.00     0.136 C 
HETATM    9  C1  UNL     1     -37.137  32.372  -0.668  1.00  0.00     0.039 C 
BRANCH   8  10
HETATM   10  N5  UNL     1     -34.832  31.960  -0.360  1.00  0.00    -0.383 N 
HETATM   11  C13 UNL     1     -34.482  32.338   0.955  1.00  0.00     0.122 C 
HETATM   12  C14 UNL     1     -33.247  33.142   1.122  1.00  0.00     0.020 C 
HETATM   13  C15 UNL     1     -32.848  33.975  -0.052  1.00  0.00     0.007 C 
HETATM   14  C16 UNL     1     -33.928  34.134  -1.084  1.00  0.00     0.044 C 
HETATM   15  C17 UNL     1     -34.463  32.778  -1.423  1.00  0.00     0.059 C 
ENDBRANCH   8  10
ENDBRANCH   1   8
BRANCH   7  16
HETATM   16  N4  UNL     1     -34.488  28.678  -1.069  1.00  0.00    -0.417 NA
BRANCH  16  17
HETATM   17  C9  UNL     1     -33.384  28.538  -0.314  1.00  0.00     0.085 C 
HETATM   18  C10 UNL     1     -32.572  27.236  -0.477  1.00  0.00     0.053 C 
HETATM   19  C11 UNL     1     -33.597  28.685   1.212  1.00  0.00     0.053 C 
HETATM   20  C12 UNL     1     -32.295  29.624  -0.547  1.00  0.00     0.053 C 
ENDBRANCH  16  17
ENDBRANCH   7  16
BRANCH   6  21
HETATM   21  C4  UNL     1     -35.184  27.411  -3.576  1.00  0.00     0.047 C 
HETATM   22  C5  UNL     1     -35.457  26.214  -2.663  1.00  0.00     0.040 C 
HETATM   23  C6  UNL     1     -35.943  27.129  -4.860  1.00  0.00     0.040 C 
HETATM   24  C7  UNL     1     -33.735  27.472  -3.925  1.00  0.00     0.040 C 
ENDBRANCH   6  21
TORSDOF 5
ENDMDL
MODEL 2
REMARK VINA RESULT: -5.743580471      2.030      3.620
REMARK  5 active torsions:
REMARK  status: ('A' for Active; 'I' for Inactive)
REMARK    1  A    between atoms: C2_2  and  C3_3 
REMARK    2  A    between atoms: C2_2  and  N5_19 
REMARK    3  A    between atoms: N3_8  and  C4_9 
REMARK    4  A    between atoms: C8_13  and  N4_14 
REMARK    5  A    between atoms: N4_14  and  C9_15 
ROOT
HETATM    1  C3  UNL     1     -34.460  29.488  -1.194  1.00  0.00     0.108 A 
HETATM    2  N1  UNL     1     -33.496  29.236  -2.113  1.00  0.00    -0.283 N 
ATOM      3  H1  UNL     1     -32.531  29.564  -2.058  1.00  0.00     0.188 HD
HETATM    4  N2  UNL     1     -33.994  28.506  -3.087  1.00  0.00    -0.237 N 
ATOM      5  H2  UNL     1     -33.462  28.187  -3.896  1.00  0.00     0.208 HD
HETATM    6  N3  UNL     1     -35.258  28.241  -2.885  1.00  0.00    -0.240 N 
HETATM    7  C8  UNL     1     -35.586  28.858  -1.677  1.00  0.00     0.218 A 
ENDROOT
BRANCH   1   8
HETATM    8  C2  UNL     1     -34.281  30.271   0.040  1.00  0.00     0.136 C 
HETATM    9  C1  UNL     1     -34.766  31.703  -0.128  1.00  0.00     0.039 C 
BRANCH   8  10
HETATM   10  N5  UNL     1     -32.889  30.375   0.410  1.00  0.00    -0.383 N 
HETATM   11  C13 UNL     1     -32.351  29.212   1.003  1.00  0.00     0.122 C 
HETATM   12  C14 UNL     1     -30.958  29.292   1.507  1.00  0.00     0.020 C 
HETATM   13  C15 UNL     1     -30.488  30.650   1.910  1.00  0.00     0.007 C 
HETATM   14  C16 UNL     1     -31.590  31.660   2.063  1.00  0.00     0.044 C 
HETATM   15  C17 UNL     1     -32.440  31.623   0.832  1.00  0.00     0.059 C 
ENDBRANCH   8  10
ENDBRANCH   1   8
BRANCH   7  16
HETATM   16  N4  UNL     1     -36.710  28.787  -1.227  1.00  0.00    -0.417 NA
BRANCH  16  17
HETATM   17  C9  UNL     1     -37.901  29.151  -0.717  1.00  0.00     0.085 C 
HETATM   18  C10 UNL     1     -39.055  28.131  -0.809  1.00  0.00     0.053 C 
HETATM   19  C11 UNL     1     -38.490  30.469  -1.277  1.00  0.00     0.053 C 
HETATM   20  C12 UNL     1     -37.885  29.479   0.803  1.00  0.00     0.053 C 
ENDBRANCH  16  17
ENDBRANCH   7  16
BRANCH   6  21
HETATM   21  C4  UNL     1     -36.113  27.475  -3.736  1.00  0.00     0.047 C 
HETATM   22  C5  UNL     1     -37.196  28.381  -4.327  1.00  0.00     0.040 C 
HETATM   23  C6  UNL     1     -35.305  26.976  -4.920  1.00  0.00     0.040 C 
HETATM   24  C7  UNL     1     -36.735  26.283  -3.092  1.00  0.00     0.040 C 
ENDBRANCH   6  21
TORSDOF 5
ENDMDL
MODEL 3
REMARK VINA RESULT: -5.725281849      2.463      4.196
REMARK  5 active torsions:
REMARK  status: ('A' for Active; 'I' for Inactive)
REMARK    1  A    between atoms: C2_2  and  C3_3 
REMARK    2  A    between atoms: C2_2  and  N5_19 
REMARK    3  A    between atoms: N3_8  and  C4_9 
REMARK    4  A    between atoms: C8_13  and  N4_14 
REMARK    5  A    between atoms: N4_14  and  C9_15 
ROOT
HETATM    1  C3  UNL     1     -33.948  32.044  -1.295  1.00  0.00     0.108 A 
HETATM    2  N1  UNL     1     -34.156  31.095  -2.240  1.00  0.00    -0.283 N 
ATOM      3  H1  UNL     1     -34.587  31.256  -3.150  1.00  0.00     0.188 HD
HETATM    4  N2  UNL     1     -33.718  29.933  -1.804  1.00  0.00    -0.237 N 
ATOM      5  H2  UNL     1     -33.764  29.065  -2.336  1.00  0.00     0.208 HD
HETATM    6  N3  UNL     1     -33.217  30.035  -0.601  1.00  0.00    -0.240 N 
HETATM    7  C8  UNL     1     -33.350  31.379  -0.247  1.00  0.00     0.218 A 
ENDROOT
BRANCH   1   8
HETATM    8  C2  UNL     1     -34.303  33.467  -1.421  1.00  0.00     0.136 C 
HETATM    9  C1  UNL     1     -33.086  34.366  -1.257  1.00  0.00     0.039 C 
BRANCH   8  10
HETATM   10  N5  UNL     1     -35.229  33.880  -0.392  1.00  0.00    -0.383 N 
HETATM   11  C13 UNL     1     -36.357  33.044  -0.250  1.00  0.00     0.122 C 
HETATM   12  C14 UNL     1     -37.402  33.474   0.712  1.00  0.00     0.020 C 
HETATM   13  C15 UNL     1     -37.496  34.944   0.956  1.00  0.00     0.007 C 
HETATM   14  C16 UNL     1     -36.759  35.781  -0.051  1.00  0.00     0.044 C 
HETATM   15  C17 UNL     1     -35.366  35.248  -0.179  1.00  0.00     0.059 C 
ENDBRANCH   8  10
ENDBRANCH   1   8
BRANCH   7  16
HETATM   16  N4  UNL     1     -32.970  31.778   0.833  1.00  0.00    -0.417 NA
BRANCH  16  17
HETATM   17  C9  UNL     1     -32.245  32.417   1.769  1.00  0.00     0.085 C 
HETATM   18  C10 UNL     1     -32.153  33.955   1.668  1.00  0.00     0.053 C 
HETATM   19  C11 UNL     1     -30.780  31.940   1.917  1.00  0.00     0.053 C 
HETATM   20  C12 UNL     1     -32.748  32.223   3.228  1.00  0.00     0.053 C 
ENDBRANCH  16  17
ENDBRANCH   7  16
BRANCH   6  21
HETATM   21  C4  UNL     1     -32.653  28.977   0.177  1.00  0.00     0.047 C 
HETATM   22  C5  UNL     1     -33.334  28.926   1.546  1.00  0.00     0.040 C 
HETATM   23  C6  UNL     1     -32.974  27.653  -0.491  1.00  0.00     0.040 C 
HETATM   24  C7  UNL     1     -31.172  29.041   0.342  1.00  0.00     0.040 C 
ENDBRANCH   6  21
TORSDOF 5
ENDMDL
MODEL 4
REMARK VINA RESULT: -5.699614871      2.030      5.556
REMARK  5 active torsions:
REMARK  status: ('A' for Active; 'I' for Inactive)
REMARK    1  A    between atoms: C2_2  and  C3_3 
REMARK    2  A    between atoms: C2_2  and  N5_19 
REMARK    3  A    between atoms: N3_8  and  C4_9 
REMARK    4  A    between atoms: C8_13  and  N4_14 
REMARK    5  A    between atoms: N4_14  and  C9_15 
ROOT
HETATM    1  C3  UNL     1     -34.090  32.483  -0.807  1.00  0.00     0.108 A 
HETATM    2  N1  UNL     1     -34.155  33.812  -0.550  1.00  0.00    -0.283 N 
ATOM      3  H1  UNL     1     -34.721  34.484  -1.067  1.00  0.00     0.188 HD
HETATM    4  N2  UNL     1     -33.375  34.104   0.469  1.00  0.00    -0.237 N 
ATOM      5  H2  UNL     1     -33.255  35.041   0.852  1.00  0.00     0.208 HD
HETATM    6  N3  UNL     1     -32.773  33.038   0.929  1.00  0.00    -0.240 N 
HETATM    7  C8  UNL     1     -33.212  31.981   0.130  1.00  0.00     0.218 A 
ENDROOT
BRANCH   1   8
HETATM    8  C2  UNL     1     -34.827  31.781  -1.870  1.00  0.00     0.136 C 
HETATM    9  C1  UNL     1     -35.714  32.731  -2.660  1.00  0.00     0.039 C 
BRANCH   8  10
HETATM   10  N5  UNL     1     -35.717  30.779  -1.332  1.00  0.00    -0.383 N 
HETATM   11  C13 UNL     1     -36.048  29.744  -2.234  1.00  0.00     0.122 C 
HETATM   12  C14 UNL     1     -37.045  28.744  -1.781  1.00  0.00     0.020 C 
HETATM   13  C15 UNL     1     -38.026  29.219  -0.760  1.00  0.00     0.007 C 
HETATM   14  C16 UNL     1     -38.068  30.712  -0.600  1.00  0.00     0.044 C 
HETATM   15  C17 UNL     1     -36.668  31.208  -0.413  1.00  0.00     0.059 C 
ENDBRANCH   8  10
ENDBRANCH   1   8
BRANCH   7  16
HETATM   16  N4  UNL     1     -32.815  30.851   0.320  1.00  0.00    -0.417 NA
BRANCH  16  17
HETATM   17  C9  UNL     1     -32.807  29.513   0.463  1.00  0.00     0.085 C 
HETATM   18  C10 UNL     1     -33.983  28.874   1.231  1.00  0.00     0.053 C 
HETATM   19  C11 UNL     1     -31.536  28.922   1.120  1.00  0.00     0.053 C 
HETATM   20  C12 UNL     1     -32.826  28.715  -0.871  1.00  0.00     0.053 C 
ENDBRANCH  16  17
ENDBRANCH   7  16
BRANCH   6  21
HETATM   21  C4  UNL     1     -31.857  32.985   2.024  1.00  0.00     0.047 C 
HETATM   22  C5  UNL     1     -31.472  34.405   2.442  1.00  0.00     0.040 C 
HETATM   23  C6  UNL     1     -32.563  32.381   3.223  1.00  0.00     0.040 C 
HETATM   24  C7  UNL     1     -30.631  32.171   1.778  1.00  0.00     0.040 C 
ENDBRANCH   6  21
TORSDOF 5
ENDMDL
MODEL 5
REMARK VINA RESULT: -5.677631952      2.513      5.975
REMARK  5 active torsions:
REMARK  status: ('A' for Active; 'I' for Inactive)
REMARK    1  A    between atoms: C2_2  and  C3_3 
REMARK    2  A    between atoms: C2_2  and  N5_19 
REMARK    3  A    between atoms: N3_8  and  C4_9 
REMARK    4  A    between atoms: C8_13  and  N4_14 
REMARK    5  A    between atoms: N4_14  and  C9_15 
ROOT
HETATM    1  C3  UNL     1     -33.270  31.868   1.034  1.00  0.00     0.108 A 
HETATM    2  N1  UNL     1     -32.477  32.965   0.956  1.00  0.00    -0.283 N 
ATOM      3  H1  UNL     1     -31.504  33.009   1.259  1.00  0.00     0.188 HD
HETATM    4  N2  UNL     1     -33.153  33.963   0.430  1.00  0.00    -0.237 N 
ATOM      5  H2  UNL     1     -32.771  34.894   0.269  1.00  0.00     0.208 HD
HETATM    6  N3  UNL     1     -34.378  33.609   0.141  1.00  0.00    -0.240 N 
HETATM    7  C8  UNL     1     -34.483  32.268   0.517  1.00  0.00     0.218 A 
ENDROOT
BRANCH   1   8
HETATM    8  C2  UNL     1     -32.865  30.556   1.564  1.00  0.00     0.136 C 
HETATM    9  C1  UNL     1     -31.527  30.630   2.284  1.00  0.00     0.039 C 
BRANCH   8  10
HETATM   10  N5  UNL     1     -32.683  29.587   0.509  1.00  0.00    -0.383 N 
HETATM   11  C13 UNL     1     -33.611  28.523   0.523  1.00  0.00     0.122 C 
HETATM   12  C14 UNL     1     -33.411  27.436  -0.466  1.00  0.00     0.020 C 
HETATM   13  C15 UNL     1     -32.006  27.226  -0.927  1.00  0.00     0.007 C 
HETATM   14  C16 UNL     1     -30.974  27.912  -0.077  1.00  0.00     0.044 C 
HETATM   15  C17 UNL     1     -31.377  29.342   0.095  1.00  0.00     0.059 C 
ENDBRANCH   8  10
ENDBRANCH   1   8
BRANCH   7  16
HETATM   16  N4  UNL     1     -35.523  31.661   0.370  1.00  0.00    -0.417 NA
BRANCH  16  17
HETATM   17  C9  UNL     1     -36.439  30.811  -0.129  1.00  0.00     0.085 C 
HETATM   18  C10 UNL     1     -36.848  29.611   0.751  1.00  0.00     0.053 C 
HETATM   19  C11 UNL     1     -36.095  30.195  -1.506  1.00  0.00     0.053 C 
HETATM   20  C12 UNL     1     -37.817  31.455  -0.451  1.00  0.00     0.053 C 
ENDBRANCH  16  17
ENDBRANCH   7  16
BRANCH   6  21
HETATM   21  C4  UNL     1     -35.388  34.436  -0.440  1.00  0.00     0.047 C 
HETATM   22  C5  UNL     1     -36.604  34.491   0.486  1.00  0.00     0.040 C 
HETATM   23  C6  UNL     1     -34.868  35.859  -0.520  1.00  0.00     0.040 C 
HETATM   24  C7  UNL     1     -35.807  34.041  -1.816  1.00  0.00     0.040 C 
ENDBRANCH   6  21
TORSDOF 5
ENDMDL
