MODEL 1
REMARK VINA RESULT: -6.174764005      0.000      0.000
REMARK  4 active torsions:
REMARK  status: ('A' for Active; 'I' for Inactive)
REMARK    1  A    between atoms: C2_2  and  C3_3 
REMARK    2  A    between atoms: C3_3  and  C4_4 
REMARK       I    between atoms: C4_4  and  N1_6 
REMARK    3  A    between atoms: N1_6  and  C5_8 
REMARK    4  A    between atoms: C5_8  and  N2_10 
ROOT
HETATM    1  C4  UNL     1     -31.195  30.398   1.653  1.00  0.00     0.227 C 
HETATM    2  O1  UNL     1     -30.088  30.924   1.394  1.00  0.00    -0.273 OA
HETATM    3  N1  UNL     1     -32.340  31.223   1.752  1.00  0.00    -0.304 N 
ATOM      4  H1  UNL     1     -33.239  30.791   1.963  1.00  0.00     0.171 HD
ENDROOT
BRANCH   1   5
HETATM    5  C3  UNL     1     -31.285  28.935   1.850  1.00  0.00     0.137 C 
BRANCH   5   6
HETATM    6  C2  UNL     1     -31.403  28.199   0.579  1.00  0.00    -0.062 C 
HETATM    7  C1  UNL     1     -30.223  27.522  -0.020  1.00  0.00     0.045 C 
HETATM    8  C10 UNL     1     -32.551  28.129  -0.049  1.00  0.00    -0.019 C 
HETATM    9  C11 UNL     1     -32.892  27.448  -1.330  1.00  0.00     0.047 C 
HETATM   10  S3  UNL     1     -34.134  28.858   0.459  1.00  0.00    -0.134 SA
HETATM   11  C12 UNL     1     -33.907  28.303  -2.042  1.00  0.00     0.015 C 
HETATM   12  C13 UNL     1     -35.074  28.489  -1.080  1.00  0.00     0.079 C 
ENDBRANCH   5   6
ENDBRANCH   1   5
BRANCH   3  13
HETATM   13  C5  UNL     1     -32.283  32.631   1.567  1.00  0.00     0.176 C 
HETATM   14  S1  UNL     1     -31.544  33.601   2.670  1.00  0.00    -0.041 SA
BRANCH  13  15
HETATM   15  N2  UNL     1     -32.868  33.230   0.422  1.00  0.00    -0.357 N 
HETATM   16  C6  UNL     1     -33.207  32.412  -0.700  1.00  0.00     0.135 C 
HETATM   17  C7  UNL     1     -34.631  32.580  -1.177  1.00  0.00     0.093 C 
HETATM   18  S2  UNL     1     -35.080  34.353  -1.276  1.00  0.00    -0.166 SA
HETATM   19  C8  UNL     1     -33.548  35.252  -0.815  1.00  0.00     0.093 C 
HETATM   20  C9  UNL     1     -33.079  34.658   0.478  1.00  0.00     0.135 C 
ENDBRANCH  13  15
ENDBRANCH   3  13
TORSDOF 4
ENDMDL
MODEL 2
REMARK VINA RESULT: -5.992139961      0.789      1.215
REMARK  4 active torsions:
REMARK  status: ('A' for Active; 'I' for Inactive)
REMARK    1  A    between atoms: C2_2  and  C3_3 
REMARK    2  A    between atoms: C3_3  and  C4_4 
REMARK       I    between atoms: C4_4  and  N1_6 
REMARK    3  A    between atoms: N1_6  and  C5_8 
REMARK    4  A    between atoms: C5_8  and  N2_10 
ROOT
HETATM    1  C4  UNL     1     -31.367  30.614   1.762  1.00  0.00     0.227 C 
HETATM    2  O1  UNL     1     -30.360  31.143   1.235  1.00  0.00    -0.273 OA
HETATM    3  N1  UNL     1     -32.441  31.439   2.170  1.00  0.00    -0.304 N 
ATOM      4  H1  UNL     1     -33.258  31.004   2.598  1.00  0.00     0.171 HD
ENDROOT
BRANCH   1   5
HETATM    5  C3  UNL     1     -31.414  29.147   1.945  1.00  0.00     0.137 C 
BRANCH   5   6
HETATM    6  C2  UNL     1     -31.517  28.420   0.667  1.00  0.00    -0.062 C 
HETATM    7  C1  UNL     1     -30.324  27.769   0.064  1.00  0.00     0.045 C 
HETATM    8  C10 UNL     1     -32.663  28.335   0.037  1.00  0.00    -0.019 C 
HETATM    9  C11 UNL     1     -32.990  27.659  -1.250  1.00  0.00     0.047 C 
HETATM   10  S3  UNL     1     -34.260  29.031   0.549  1.00  0.00    -0.134 SA
HETATM   11  C12 UNL     1     -34.019  28.502  -1.956  1.00  0.00     0.015 C 
HETATM   12  C13 UNL     1     -35.190  28.659  -0.995  1.00  0.00     0.079 C 
ENDBRANCH   5   6
ENDBRANCH   1   5
BRANCH   3  13
HETATM   13  C5  UNL     1     -32.423  32.851   2.007  1.00  0.00     0.176 C 
HETATM   14  S1  UNL     1     -31.376  33.789   2.859  1.00  0.00    -0.041 SA
BRANCH  13  15
HETATM   15  N2  UNL     1     -33.315  33.481   1.101  1.00  0.00    -0.357 N 
HETATM   16  C6  UNL     1     -32.880  34.635   0.379  1.00  0.00     0.135 C 
HETATM   17  C7  UNL     1     -33.088  34.541  -1.114  1.00  0.00     0.093 C 
HETATM   18  S2  UNL     1     -34.760  33.901  -1.501  1.00  0.00    -0.166 SA
HETATM   19  C8  UNL     1     -35.572  33.693   0.131  1.00  0.00     0.093 C 
HETATM   20  C9  UNL     1     -34.628  32.893   0.977  1.00  0.00     0.135 C 
ENDBRANCH  13  15
ENDBRANCH   3  13
TORSDOF 4
ENDMDL
MODEL 3
REMARK VINA RESULT: -5.975629272      3.085      6.863
REMARK  4 active torsions:
REMARK  status: ('A' for Active; 'I' for Inactive)
REMARK    1  A    between atoms: C2_2  and  C3_3 
REMARK    2  A    between atoms: C3_3  and  C4_4 
REMARK       I    between atoms: C4_4  and  N1_6 
REMARK    3  A    between atoms: N1_6  and  C5_8 
REMARK    4  A    between atoms: C5_8  and  N2_10 
ROOT
HETATM    1  C4  UNL     1     -32.917  34.145   0.475  1.00  0.00     0.227 C 
HETATM    2  O1  UNL     1     -32.594  33.790  -0.682  1.00  0.00    -0.273 OA
HETATM    3  N1  UNL     1     -33.922  33.425   1.159  1.00  0.00    -0.304 N 
ATOM      4  H1  UNL     1     -34.182  33.718   2.101  1.00  0.00     0.171 HD
ENDROOT
BRANCH   1   5
HETATM    5  C3  UNL     1     -32.244  35.305   1.101  1.00  0.00     0.137 C 
BRANCH   5   6
HETATM    6  C2  UNL     1     -31.440  34.926   2.277  1.00  0.00    -0.062 C 
HETATM    7  C1  UNL     1     -31.066  33.507   2.517  1.00  0.00     0.045 C 
HETATM    8  C10 UNL     1     -31.041  35.833   3.134  1.00  0.00    -0.019 C 
HETATM    9  C11 UNL     1     -30.231  35.674   4.375  1.00  0.00     0.047 C 
HETATM   10  S3  UNL     1     -31.355  37.620   3.079  1.00  0.00    -0.134 SA
HETATM   11  C12 UNL     1     -30.754  36.659   5.387  1.00  0.00     0.015 C 
HETATM   12  C13 UNL     1     -30.676  38.035   4.738  1.00  0.00     0.079 C 
ENDBRANCH   5   6
ENDBRANCH   1   5
BRANCH   3  13
HETATM   13  C5  UNL     1     -34.586  32.307   0.583  1.00  0.00     0.176 C 
HETATM   14  S1  UNL     1     -36.187  32.370   0.216  1.00  0.00    -0.041 SA
BRANCH  13  15
HETATM   15  N2  UNL     1     -33.875  31.109   0.314  1.00  0.00    -0.357 N 
HETATM   16  C6  UNL     1     -33.112  30.499   1.356  1.00  0.00     0.135 C 
HETATM   17  C7  UNL     1     -33.417  29.035   1.566  1.00  0.00     0.093 C 
HETATM   18  S2  UNL     1     -33.494  28.148  -0.035  1.00  0.00    -0.166 SA
HETATM   19  C8  UNL     1     -33.081  29.417  -1.294  1.00  0.00     0.093 C 
HETATM   20  C9  UNL     1     -33.978  30.588  -1.029  1.00  0.00     0.135 C 
ENDBRANCH  13  15
ENDBRANCH   3  13
TORSDOF 4
ENDMDL
MODEL 4
REMARK VINA RESULT: -5.936419134      2.187      3.149
REMARK  4 active torsions:
REMARK  status: ('A' for Active; 'I' for Inactive)
REMARK    1  A    between atoms: C2_2  and  C3_3 
REMARK    2  A    between atoms: C3_3  and  C4_4 
REMARK       I    between atoms: C4_4  and  N1_6 
REMARK    3  A    between atoms: N1_6  and  C5_8 
REMARK    4  A    between atoms: C5_8  and  N2_10 
ROOT
HETATM    1  C4  UNL     1     -32.853  32.714   1.896  1.00  0.00     0.227 C 
HETATM    2  O1  UNL     1     -32.436  33.843   2.242  1.00  0.00    -0.273 OA
HETATM    3  N1  UNL     1     -33.729  32.614   0.790  1.00  0.00    -0.304 N 
ATOM      4  H1  UNL     1     -34.066  31.692   0.512  1.00  0.00     0.171 HD
ENDROOT
BRANCH   1   5
HETATM    5  C3  UNL     1     -32.425  31.511   2.645  1.00  0.00     0.137 C 
BRANCH   5   6
HETATM    6  C2  UNL     1     -31.526  30.646   1.860  1.00  0.00    -0.062 C 
HETATM    7  C1  UNL     1     -30.071  30.941   1.773  1.00  0.00     0.045 C 
HETATM    8  C10 UNL     1     -31.993  29.601   1.223  1.00  0.00    -0.019 C 
HETATM    9  C11 UNL     1     -31.274  28.604   0.381  1.00  0.00     0.047 C 
HETATM   10  S3  UNL     1     -33.712  29.019   1.164  1.00  0.00    -0.134 SA
HETATM   11  C12 UNL     1     -32.192  28.217  -0.749  1.00  0.00     0.015 C 
HETATM   12  C13 UNL     1     -33.481  27.714  -0.111  1.00  0.00     0.079 C 
ENDBRANCH   5   6
ENDBRANCH   1   5
BRANCH   3  13
HETATM   13  C5  UNL     1     -34.158  33.751   0.052  1.00  0.00     0.176 C 
HETATM   14  S1  UNL     1     -33.105  34.599  -0.883  1.00  0.00    -0.041 SA
BRANCH  13  15
HETATM   15  N2  UNL     1     -35.510  34.177   0.109  1.00  0.00    -0.357 N 
HETATM   16  C6  UNL     1     -35.858  35.470  -0.390  1.00  0.00     0.135 C 
HETATM   17  C7  UNL     1     -36.997  35.461  -1.382  1.00  0.00     0.093 C 
HETATM   18  S2  UNL     1     -38.369  34.403  -0.789  1.00  0.00    -0.166 SA
HETATM   19  C8  UNL     1     -37.829  33.816   0.863  1.00  0.00     0.093 C 
HETATM   20  C9  UNL     1     -36.454  33.248   0.685  1.00  0.00     0.135 C 
ENDBRANCH  13  15
ENDBRANCH   3  13
TORSDOF 4
ENDMDL
MODEL 5
REMARK VINA RESULT: -5.872198456      2.657      4.045
REMARK  4 active torsions:
REMARK  status: ('A' for Active; 'I' for Inactive)
REMARK    1  A    between atoms: C2_2  and  C3_3 
REMARK    2  A    between atoms: C3_3  and  C4_4 
REMARK       I    between atoms: C4_4  and  N1_6 
REMARK    3  A    between atoms: N1_6  and  C5_8 
REMARK    4  A    between atoms: C5_8  and  N2_10 
ROOT
HETATM    1  C4  UNL     1     -33.482  28.324  -0.023  1.00  0.00     0.227 C 
HETATM    2  O1  UNL     1     -33.858  28.122   1.155  1.00  0.00    -0.273 OA
HETATM    3  N1  UNL     1     -32.500  29.310  -0.270  1.00  0.00    -0.304 N 
ATOM      4  H1  UNL     1     -32.197  29.472  -1.231  1.00  0.00     0.171 HD
ENDROOT
BRANCH   1   5
HETATM    5  C3  UNL     1     -34.069  27.533  -1.127  1.00  0.00     0.137 C 
BRANCH   5   6
HETATM    6  C2  UNL     1     -35.213  28.211  -1.763  1.00  0.00    -0.062 C 
HETATM    7  C1  UNL     1     -36.110  29.093  -0.970  1.00  0.00     0.045 C 
HETATM    8  C10 UNL     1     -35.462  28.047  -3.038  1.00  0.00    -0.019 C 
HETATM    9  C11 UNL     1     -36.551  28.628  -3.875  1.00  0.00     0.047 C 
HETATM   10  S3  UNL     1     -34.534  27.034  -4.225  1.00  0.00    -0.134 SA
HETATM   11  C12 UNL     1     -36.960  27.581  -4.877  1.00  0.00     0.015 C 
HETATM   12  C13 UNL     1     -35.701  27.189  -5.639  1.00  0.00     0.079 C 
ENDBRANCH   5   6
ENDBRANCH   1   5
BRANCH   3  13
HETATM   13  C5  UNL     1     -31.918  30.086   0.770  1.00  0.00     0.176 C 
HETATM   14  S1  UNL     1     -30.655  29.510   1.650  1.00  0.00    -0.041 SA
BRANCH  13  15
HETATM   15  N2  UNL     1     -32.420  31.379   1.069  1.00  0.00    -0.357 N 
HETATM   16  C6  UNL     1     -32.118  31.971   2.334  1.00  0.00     0.135 C 
HETATM   17  C7  UNL     1     -31.539  33.363   2.239  1.00  0.00     0.093 C 
HETATM   18  S2  UNL     1     -32.485  34.384   1.048  1.00  0.00    -0.166 SA
HETATM   19  C8  UNL     1     -33.852  33.298   0.483  1.00  0.00     0.093 C 
HETATM   20  C9  UNL     1     -33.220  32.011   0.047  1.00  0.00     0.135 C 
ENDBRANCH  13  15
ENDBRANCH   3  13
TORSDOF 4
ENDMDL
