MODEL 1
REMARK VINA RESULT: -6.676087792      0.000      0.000
REMARK  4 active torsions:
REMARK  status: ('A' for Active; 'I' for Inactive)
REMARK    1  A    between atoms: C2_2  and  O1_3 
REMARK    2  A    between atoms: O1_3  and  C3_4 
REMARK    3  A    between atoms: C3_4  and  C4_6 
REMARK    4  A    between atoms: C10_13  and  C11_14 
ROOT
HETATM    1  C4  UNL     1     -32.324  32.477   1.176  1.00  0.00     0.144 C 
HETATM    2  C5  UNL     1     -33.786  32.132   1.502  1.00  0.00     0.292 C 
HETATM    3  N1  UNL     1     -34.269  31.395   0.377  1.00  0.00     0.122 N 
HETATM    4  C6  UNL     1     -35.709  31.384   0.381  1.00  0.00     0.313 C 
HETATM    5  C7  UNL     1     -33.663  30.125   0.173  1.00  0.00     0.320 C 
HETATM    6  C8  UNL     1     -33.060  30.004  -1.208  1.00  0.00     0.073 C 
HETATM    7  C9  UNL     1     -34.045  29.516  -2.238  1.00  0.00     0.010 C 
HETATM    8  C10 UNL     1     -34.825  28.329  -1.808  1.00  0.00    -0.007 C 
HETATM    9  C15 UNL     1     -34.265  27.834  -0.497  1.00  0.00     0.010 C 
HETATM   10  C16 UNL     1     -34.559  28.953   0.514  1.00  0.00     0.073 C 
HETATM   11  N2  UNL     1     -32.532  30.030   1.111  1.00  0.00    -0.033 N 
ATOM     12  H21 UNL     1     -32.041  29.142   1.017  1.00  0.00     0.280 HD
ATOM     13  H22 UNL     1     -32.852  29.932   2.075  1.00  0.00     0.280 HD
HETATM   14  C17 UNL     1     -31.632  31.152   0.963  1.00  0.00     0.200 C 
HETATM   15  C18 UNL     1     -30.537  30.983   1.992  1.00  0.00     0.041 C 
ENDROOT
BRANCH   1  16
HETATM   16  C3  UNL     1     -31.719  33.310   2.212  1.00  0.00     0.266 C 
HETATM   17  O2  UNL     1     -32.051  33.124   3.409  1.00  0.00    -0.265 OA
BRANCH  16  18
HETATM   18  O1  UNL     1     -30.786  34.309   1.974  1.00  0.00    -0.321 OA
BRANCH  18  19
HETATM   19  C2  UNL     1     -31.045  35.667   2.364  1.00  0.00     0.174 C 
HETATM   20  C1  UNL     1     -30.458  35.979   3.699  1.00  0.00     0.034 C 
ENDBRANCH  18  19
ENDBRANCH  16  18
ENDBRANCH   1  16
BRANCH   8  21
HETATM   21  C11 UNL     1     -34.938  27.245  -2.838  1.00  0.00    -0.048 C 
HETATM   22  C12 UNL     1     -34.633  25.899  -2.212  1.00  0.00     0.015 C 
HETATM   23  C13 UNL     1     -33.926  27.438  -3.959  1.00  0.00     0.015 C 
HETATM   24  C14 UNL     1     -36.291  27.160  -3.465  1.00  0.00     0.015 C 
ENDBRANCH   8  21
TORSDOF 4
ENDMDL
MODEL 2
REMARK VINA RESULT: -6.521124424      1.730      2.689
REMARK  4 active torsions:
REMARK  status: ('A' for Active; 'I' for Inactive)
REMARK    1  A    between atoms: C2_2  and  O1_3 
REMARK    2  A    between atoms: O1_3  and  C3_4 
REMARK    3  A    between atoms: C3_4  and  C4_6 
REMARK    4  A    between atoms: C10_13  and  C11_14 
ROOT
HETATM    1  C4  UNL     1     -32.939  32.802   1.529  1.00  0.00     0.144 C 
HETATM    2  C5  UNL     1     -32.479  31.340   1.410  1.00  0.00     0.292 C 
HETATM    3  N1  UNL     1     -33.661  30.582   1.147  1.00  0.00     0.122 N 
HETATM    4  C6  UNL     1     -33.425  29.190   1.430  1.00  0.00     0.313 C 
HETATM    5  C7  UNL     1     -34.286  30.840  -0.105  1.00  0.00     0.320 C 
HETATM    6  C8  UNL     1     -35.730  31.255   0.061  1.00  0.00     0.073 C 
HETATM    7  C9  UNL     1     -36.675  30.083   0.105  1.00  0.00     0.010 C 
HETATM    8  C10 UNL     1     -36.447  29.085  -0.970  1.00  0.00    -0.007 C 
HETATM    9  C15 UNL     1     -35.420  29.638  -1.928  1.00  0.00     0.010 C 
HETATM   10  C16 UNL     1     -34.119  29.726  -1.117  1.00  0.00     0.073 C 
HETATM   11  N2  UNL     1     -33.603  32.003  -0.697  1.00  0.00    -0.033 N 
ATOM     12  H21 UNL     1     -34.004  32.252  -1.600  1.00  0.00     0.280 HD
ATOM     13  H22 UNL     1     -32.659  31.766  -1.003  1.00  0.00     0.280 HD
HETATM   14  C17 UNL     1     -33.600  33.127   0.211  1.00  0.00     0.200 C 
HETATM   15  C18 UNL     1     -32.844  34.246  -0.470  1.00  0.00     0.041 C 
ENDROOT
BRANCH   1  16
HETATM   16  C3  UNL     1     -31.836  33.691   1.883  1.00  0.00     0.266 C 
HETATM   17  O2  UNL     1     -30.660  33.253   1.817  1.00  0.00    -0.265 OA
BRANCH  16  18
HETATM   18  O1  UNL     1     -31.986  35.007   2.294  1.00  0.00    -0.321 OA
BRANCH  18  19
HETATM   19  C2  UNL     1     -30.841  35.847   2.513  1.00  0.00     0.174 C 
HETATM   20  C1  UNL     1     -30.461  35.897   3.954  1.00  0.00     0.034 C 
ENDBRANCH  18  19
ENDBRANCH  16  18
ENDBRANCH   1  16
BRANCH   8  21
HETATM   21  C11 UNL     1     -37.691  28.611  -1.660  1.00  0.00    -0.048 C 
HETATM   22  C12 UNL     1     -37.440  27.269  -2.319  1.00  0.00     0.015 C 
HETATM   23  C13 UNL     1     -38.107  29.565  -2.772  1.00  0.00     0.015 C 
HETATM   24  C14 UNL     1     -38.858  28.456  -0.742  1.00  0.00     0.015 C 
ENDBRANCH   8  21
TORSDOF 4
ENDMDL
MODEL 3
REMARK VINA RESULT: -6.434221128      3.871      7.799
REMARK  4 active torsions:
REMARK  status: ('A' for Active; 'I' for Inactive)
REMARK    1  A    between atoms: C2_2  and  O1_3 
REMARK    2  A    between atoms: O1_3  and  C3_4 
REMARK    3  A    between atoms: C3_4  and  C4_6 
REMARK    4  A    between atoms: C10_13  and  C11_14 
ROOT
HETATM    1  C4  UNL     1     -35.239  27.489  -2.941  1.00  0.00     0.144 C 
HETATM    2  C5  UNL     1     -34.325  26.824  -1.899  1.00  0.00     0.292 C 
HETATM    3  N1  UNL     1     -33.506  27.872  -1.378  1.00  0.00     0.122 N 
HETATM    4  C6  UNL     1     -32.353  27.313  -0.720  1.00  0.00     0.313 C 
HETATM    5  C7  UNL     1     -34.192  28.872  -0.634  1.00  0.00     0.320 C 
HETATM    6  C8  UNL     1     -33.956  30.255  -1.196  1.00  0.00     0.073 C 
HETATM    7  C9  UNL     1     -32.724  30.915  -0.633  1.00  0.00     0.010 C 
HETATM    8  C10 UNL     1     -32.620  30.832   0.845  1.00  0.00    -0.007 C 
HETATM    9  C15 UNL     1     -33.903  30.249   1.385  1.00  0.00     0.010 C 
HETATM   10  C16 UNL     1     -33.943  28.807   0.859  1.00  0.00     0.073 C 
HETATM   11  N2  UNL     1     -35.633  28.617  -0.795  1.00  0.00    -0.033 N 
ATOM     12  H21 UNL     1     -36.193  29.303  -0.290  1.00  0.00     0.280 HD
ATOM     13  H22 UNL     1     -35.923  27.777  -0.293  1.00  0.00     0.280 HD
HETATM   14  C17 UNL     1     -36.002  28.554  -2.191  1.00  0.00     0.200 C 
HETATM   15  C18 UNL     1     -37.482  28.249  -2.247  1.00  0.00     0.041 C 
ENDROOT
BRANCH   1  16
HETATM   16  C3  UNL     1     -36.084  26.513  -3.623  1.00  0.00     0.266 C 
HETATM   17  O2  UNL     1     -36.416  25.468  -3.012  1.00  0.00    -0.265 OA
BRANCH  16  18
HETATM   18  O1  UNL     1     -36.561  26.653  -4.919  1.00  0.00    -0.321 OA
BRANCH  18  19
HETATM   19  C2  UNL     1     -35.666  26.610  -6.042  1.00  0.00     0.174 C 
HETATM   20  C1  UNL     1     -35.572  25.239  -6.621  1.00  0.00     0.034 C 
ENDBRANCH  18  19
ENDBRANCH  16  18
ENDBRANCH   1  16
BRANCH   8  21
HETATM   21  C11 UNL     1     -32.234  32.114   1.519  1.00  0.00    -0.048 C 
HETATM   22  C12 UNL     1     -33.006  32.274   2.814  1.00  0.00     0.015 C 
HETATM   23  C13 UNL     1     -32.583  33.321   0.659  1.00  0.00     0.015 C 
HETATM   24  C14 UNL     1     -30.778  32.201   1.844  1.00  0.00     0.015 C 
ENDBRANCH   8  21
TORSDOF 4
ENDMDL
MODEL 4
REMARK VINA RESULT: -6.381441608      1.322      1.820
REMARK  4 active torsions:
REMARK  status: ('A' for Active; 'I' for Inactive)
REMARK    1  A    between atoms: C2_2  and  O1_3 
REMARK    2  A    between atoms: O1_3  and  C3_4 
REMARK    3  A    between atoms: C3_4  and  C4_6 
REMARK    4  A    between atoms: C10_13  and  C11_14 
ROOT
HETATM    1  C4  UNL     1     -32.495  33.126   0.317  1.00  0.00     0.144 C 
HETATM    2  C5  UNL     1     -33.837  33.344  -0.400  1.00  0.00     0.292 C 
HETATM    3  N1  UNL     1     -34.005  32.215  -1.258  1.00  0.00     0.122 N 
HETATM    4  C6  UNL     1     -34.992  32.506  -2.266  1.00  0.00     0.313 C 
HETATM    5  C7  UNL     1     -34.178  30.966  -0.598  1.00  0.00     0.320 C 
HETATM    6  C8  UNL     1     -33.147  29.951  -1.035  1.00  0.00     0.073 C 
HETATM    7  C9  UNL     1     -33.570  29.176  -2.256  1.00  0.00     0.010 C 
HETATM    8  C10 UNL     1     -34.954  28.647  -2.183  1.00  0.00    -0.007 C 
HETATM    9  C15 UNL     1     -35.492  28.895  -0.795  1.00  0.00     0.010 C 
HETATM   10  C16 UNL     1     -35.589  30.422  -0.668  1.00  0.00     0.073 C 
HETATM   11  N2  UNL     1     -33.926  31.198   0.835  1.00  0.00    -0.033 N 
ATOM     12  H21 UNL     1     -34.025  30.339   1.376  1.00  0.00     0.280 HD
ATOM     13  H22 UNL     1     -34.675  31.742   1.264  1.00  0.00     0.280 HD
HETATM   14  C17 UNL     1     -32.635  31.812   1.048  1.00  0.00     0.200 C 
HETATM   15  C18 UNL     1     -32.493  32.044   2.535  1.00  0.00     0.041 C 
ENDROOT
BRANCH   1  16
HETATM   16  C3  UNL     1     -32.148  34.256   1.175  1.00  0.00     0.266 C 
HETATM   17  O2  UNL     1     -32.886  35.272   1.166  1.00  0.00    -0.265 OA
BRANCH  16  18
HETATM   18  O1  UNL     1     -31.047  34.296   2.018  1.00  0.00    -0.321 OA
BRANCH  18  19
HETATM   19  C2  UNL     1     -30.530  35.548   2.496  1.00  0.00     0.174 C 
HETATM   20  C1  UNL     1     -30.695  35.685   3.972  1.00  0.00     0.034 C 
ENDBRANCH  18  19
ENDBRANCH  16  18
ENDBRANCH   1  16
BRANCH   8  21
HETATM   21  C11 UNL     1     -35.105  27.220  -2.619  1.00  0.00    -0.048 C 
HETATM   22  C12 UNL     1     -34.666  27.069  -4.063  1.00  0.00     0.015 C 
HETATM   23  C13 UNL     1     -36.559  26.773  -2.562  1.00  0.00     0.015 C 
HETATM   24  C14 UNL     1     -34.308  26.260  -1.799  1.00  0.00     0.015 C 
ENDBRANCH   8  21
TORSDOF 4
ENDMDL
MODEL 5
REMARK VINA RESULT: -6.300858868      3.903      7.935
REMARK  4 active torsions:
REMARK  status: ('A' for Active; 'I' for Inactive)
REMARK    1  A    between atoms: C2_2  and  O1_3 
REMARK    2  A    between atoms: O1_3  and  C3_4 
REMARK    3  A    between atoms: C3_4  and  C4_6 
REMARK    4  A    between atoms: C10_13  and  C11_14 
ROOT
HETATM    1  C4  UNL     1     -35.087  27.478  -3.104  1.00  0.00     0.144 C 
HETATM    2  C5  UNL     1     -34.256  26.806  -1.999  1.00  0.00     0.292 C 
HETATM    3  N1  UNL     1     -33.449  27.842  -1.437  1.00  0.00     0.122 N 
HETATM    4  C6  UNL     1     -32.353  27.266  -0.701  1.00  0.00     0.313 C 
HETATM    5  C7  UNL     1     -34.160  28.864  -0.747  1.00  0.00     0.320 C 
HETATM    6  C8  UNL     1     -33.859  30.235  -1.307  1.00  0.00     0.073 C 
HETATM    7  C9  UNL     1     -32.652  30.875  -0.672  1.00  0.00     0.010 C 
HETATM    8  C10 UNL     1     -32.644  30.806   0.810  1.00  0.00    -0.007 C 
HETATM    9  C15 UNL     1     -33.971  30.256   1.273  1.00  0.00     0.010 C 
HETATM   10  C16 UNL     1     -34.008  28.810   0.758  1.00  0.00     0.073 C 
HETATM   11  N2  UNL     1     -35.593  28.637  -0.998  1.00  0.00    -0.033 N 
ATOM     12  H21 UNL     1     -36.170  29.340  -0.537  1.00  0.00     0.280 HD
ATOM     13  H22 UNL     1     -35.933  27.809  -0.508  1.00  0.00     0.280 HD
HETATM   14  C17 UNL     1     -35.873  28.567  -2.414  1.00  0.00     0.200 C 
HETATM   15  C18 UNL     1     -37.353  28.292  -2.562  1.00  0.00     0.041 C 
ENDROOT
BRANCH   1  16
HETATM   16  C3  UNL     1     -35.908  26.513  -3.830  1.00  0.00     0.266 C 
HETATM   17  O2  UNL     1     -36.095  26.681  -5.060  1.00  0.00    -0.265 OA
BRANCH  16  18
HETATM   18  O1  UNL     1     -36.509  25.401  -3.257  1.00  0.00    -0.321 OA
BRANCH  18  19
HETATM   19  C2  UNL     1     -37.649  24.780  -3.872  1.00  0.00     0.174 C 
HETATM   20  C1  UNL     1     -38.184  23.664  -3.041  1.00  0.00     0.034 C 
ENDBRANCH  18  19
ENDBRANCH  16  18
ENDBRANCH   1  16
BRANCH   8  21
HETATM   21  C11 UNL     1     -32.274  32.087   1.496  1.00  0.00    -0.048 C 
HETATM   22  C12 UNL     1     -33.071  32.241   2.776  1.00  0.00     0.015 C 
HETATM   23  C13 UNL     1     -32.610  33.296   0.633  1.00  0.00     0.015 C 
HETATM   24  C14 UNL     1     -30.826  32.177   1.849  1.00  0.00     0.015 C 
ENDBRANCH   8  21
TORSDOF 4
ENDMDL
