MODEL 1
REMARK VINA RESULT: -7.327911823      0.000      0.000
REMARK  4 active torsions:
REMARK  status: ('A' for Active; 'I' for Inactive)
REMARK    1  A    between atoms: C2_3  and  C3_4 
REMARK    2  A    between atoms: C10_11  and  O1_12 
REMARK    3  A    between atoms: C14_17  and  C15_18 
REMARK    4  A    between atoms: C15_18  and  O2_21 
ROOT
HETATM    1  C1  UNL     1     -35.292  29.416   0.547  1.00  0.00     0.314 C 
HETATM    2  N1  UNL     1     -34.464  29.547  -0.607  1.00  0.00     0.118 N 
HETATM    3  C2  UNL     1     -34.423  28.351  -1.436  1.00  0.00     0.232 C 
HETATM    4  C9  UNL     1     -33.867  27.176  -0.684  1.00  0.00     0.068 C 
HETATM    5  C10 UNL     1     -32.443  27.496  -0.260  1.00  0.00     0.128 C 
HETATM    6  C11 UNL     1     -32.446  28.757   0.529  1.00  0.00     0.074 C 
HETATM    7  C12 UNL     1     -31.038  29.207   0.863  1.00  0.00     0.014 C 
HETATM    8  C13 UNL     1     -31.153  30.432   1.737  1.00  0.00     0.036 C 
HETATM    9  C14 UNL     1     -31.980  31.444   0.985  1.00  0.00     0.158 C 
HETATM   10  O3  UNL     1     -33.232  30.972   0.679  1.00  0.00    -0.348 OA
HETATM   11  C18 UNL     1     -33.130  29.892  -0.215  1.00  0.00     0.365 C 
ENDROOT
BRANCH   3  12
HETATM   12  C3  UNL     1     -35.791  28.016  -1.964  1.00  0.00     0.019 C 
HETATM   13  C4  UNL     1     -36.216  28.980  -3.060  1.00  0.00     0.007 C 
HETATM   14  C5  UNL     1     -36.301  28.285  -4.396  1.00  0.00     0.000 C 
HETATM   15  C6  UNL     1     -34.973  27.615  -4.666  1.00  0.00     0.000 C 
HETATM   16  C7  UNL     1     -34.826  26.471  -3.668  1.00  0.00     0.000 C 
HETATM   17  C8  UNL     1     -35.814  26.624  -2.531  1.00  0.00     0.007 C 
ENDBRANCH   3  12
BRANCH   5  18
HETATM   18  O1  UNL     1     -31.586  27.532  -1.356  1.00  0.00    -0.395 OA
ATOM     19  H1  UNL     1     -30.823  26.985  -1.215  1.00  0.00     0.210 HD
ENDBRANCH   5  18
BRANCH   9  20
HETATM   20  C15 UNL     1     -32.057  32.776   1.694  1.00  0.00     0.076 C 
HETATM   21  C16 UNL     1     -33.035  33.635   0.887  1.00  0.00     0.048 C 
HETATM   22  C17 UNL     1     -32.713  32.543   3.038  1.00  0.00     0.048 C 
BRANCH  20  23
HETATM   23  O2  UNL     1     -30.827  33.378   1.810  1.00  0.00    -0.388 OA
ATOM     24  H2  UNL     1     -30.556  33.804   1.005  1.00  0.00     0.210 HD
ENDBRANCH  20  23
ENDBRANCH   9  20
TORSDOF 4
ENDMDL
MODEL 2
REMARK VINA RESULT: -7.128901043      1.573      2.086
REMARK  4 active torsions:
REMARK  status: ('A' for Active; 'I' for Inactive)
REMARK    1  A    between atoms: C2_3  and  C3_4 
REMARK    2  A    between atoms: C10_11  and  O1_12 
REMARK    3  A    between atoms: C14_17  and  C15_18 
REMARK    4  A    between atoms: C15_18  and  O2_21 
ROOT
HETATM    1  C1  UNL     1     -35.782  30.893  -0.175  1.00  0.00     0.314 C 
HETATM    2  N1  UNL     1     -34.633  30.489  -0.917  1.00  0.00     0.118 N 
HETATM    3  C2  UNL     1     -34.384  29.055  -0.875  1.00  0.00     0.232 C 
HETATM    4  C9  UNL     1     -34.134  28.579   0.527  1.00  0.00     0.068 C 
HETATM    5  C10 UNL     1     -32.901  29.280   1.070  1.00  0.00     0.128 C 
HETATM    6  C11 UNL     1     -33.099  30.751   0.970  1.00  0.00     0.074 C 
HETATM    7  C12 UNL     1     -31.847  31.508   1.365  1.00  0.00     0.014 C 
HETATM    8  C13 UNL     1     -32.179  32.980   1.320  1.00  0.00     0.036 C 
HETATM    9  C14 UNL     1     -32.692  33.283  -0.064  1.00  0.00     0.158 C 
HETATM   10  O3  UNL     1     -33.805  32.545  -0.382  1.00  0.00    -0.348 OA
HETATM   11  C18 UNL     1     -33.474  31.180  -0.439  1.00  0.00     0.365 C 
ENDROOT
BRANCH   3  12
HETATM   12  C3  UNL     1     -35.534  28.292  -1.474  1.00  0.00     0.019 C 
HETATM   13  C4  UNL     1     -35.960  28.886  -2.807  1.00  0.00     0.007 C 
HETATM   14  C5  UNL     1     -35.658  27.944  -3.946  1.00  0.00     0.000 C 
HETATM   15  C6  UNL     1     -34.190  27.587  -3.889  1.00  0.00     0.000 C 
HETATM   16  C7  UNL     1     -33.975  26.735  -2.643  1.00  0.00     0.000 C 
HETATM   17  C8  UNL     1     -35.154  26.855  -1.702  1.00  0.00     0.007 C 
ENDBRANCH   3  12
BRANCH   5  18
HETATM   18  O1  UNL     1     -31.746  28.834   0.435  1.00  0.00    -0.395 OA
ATOM     19  H1  UNL     1     -31.001  28.846   1.025  1.00  0.00     0.210 HD
ENDBRANCH   5  18
BRANCH   9  20
HETATM   20  C15 UNL     1     -32.933  34.758  -0.287  1.00  0.00     0.076 C 
HETATM   21  C16 UNL     1     -34.448  34.928  -0.428  1.00  0.00     0.048 C 
HETATM   22  C17 UNL     1     -32.545  35.483   0.983  1.00  0.00     0.048 C 
BRANCH  20  23
HETATM   23  O2  UNL     1     -32.263  35.236  -1.388  1.00  0.00    -0.388 OA
ATOM     24  H2  UNL     1     -32.644  36.039  -1.722  1.00  0.00     0.210 HD
ENDBRANCH  20  23
ENDBRANCH   9  20
TORSDOF 4
ENDMDL
MODEL 3
REMARK VINA RESULT: -6.976659296      1.374      1.901
REMARK  4 active torsions:
REMARK  status: ('A' for Active; 'I' for Inactive)
REMARK    1  A    between atoms: C2_3  and  C3_4 
REMARK    2  A    between atoms: C10_11  and  O1_12 
REMARK    3  A    between atoms: C14_17  and  C15_18 
REMARK    4  A    between atoms: C15_18  and  O2_21 
ROOT
HETATM    1  C1  UNL     1     -35.768  30.435   0.043  1.00  0.00     0.314 C 
HETATM    2  N1  UNL     1     -34.681  30.202  -0.852  1.00  0.00     0.118 N 
HETATM    3  C2  UNL     1     -34.378  28.792  -1.048  1.00  0.00     0.232 C 
HETATM    4  C9  UNL     1     -33.978  28.129   0.238  1.00  0.00     0.068 C 
HETATM    5  C10 UNL     1     -32.724  28.803   0.768  1.00  0.00     0.128 C 
HETATM    6  C11 UNL     1     -32.983  30.262   0.909  1.00  0.00     0.074 C 
HETATM    7  C12 UNL     1     -31.727  31.014   1.299  1.00  0.00     0.014 C 
HETATM    8  C13 UNL     1     -32.115  32.459   1.506  1.00  0.00     0.036 C 
HETATM    9  C14 UNL     1     -32.770  32.935   0.234  1.00  0.00     0.158 C 
HETATM   10  O3  UNL     1     -33.880  32.196  -0.089  1.00  0.00    -0.348 OA
HETATM   11  C18 UNL     1     -33.507  30.873  -0.380  1.00  0.00     0.365 C 
ENDROOT
BRANCH   3  12
HETATM   12  C3  UNL     1     -35.552  28.068  -1.650  1.00  0.00     0.019 C 
HETATM   13  C4  UNL     1     -36.028  28.746  -2.925  1.00  0.00     0.007 C 
HETATM   14  C5  UNL     1     -35.772  27.879  -4.132  1.00  0.00     0.000 C 
HETATM   15  C6  UNL     1     -34.304  27.519  -4.155  1.00  0.00     0.000 C 
HETATM   16  C7  UNL     1     -34.043  26.589  -2.975  1.00  0.00     0.000 C 
HETATM   17  C8  UNL     1     -35.185  26.649  -1.983  1.00  0.00     0.007 C 
ENDBRANCH   3  12
BRANCH   5  18
HETATM   18  O1  UNL     1     -31.620  28.514  -0.028  1.00  0.00    -0.395 OA
ATOM     19  H1  UNL     1     -31.416  29.235  -0.612  1.00  0.00     0.210 HD
ENDBRANCH   5  18
BRANCH   9  20
HETATM   20  C15 UNL     1     -33.084  34.413   0.259  1.00  0.00     0.076 C 
HETATM   21  C16 UNL     1     -32.213  35.018   1.364  1.00  0.00     0.048 C 
HETATM   22  C17 UNL     1     -32.588  35.008  -1.041  1.00  0.00     0.048 C 
BRANCH  20  23
HETATM   23  O2  UNL     1     -34.419  34.659   0.471  1.00  0.00    -0.388 OA
ATOM     24  H2  UNL     1     -34.563  35.331   1.127  1.00  0.00     0.210 HD
ENDBRANCH  20  23
ENDBRANCH   9  20
TORSDOF 4
ENDMDL
MODEL 4
REMARK VINA RESULT: -6.902593469      2.939      5.755
REMARK  4 active torsions:
REMARK  status: ('A' for Active; 'I' for Inactive)
REMARK    1  A    between atoms: C2_3  and  C3_4 
REMARK    2  A    between atoms: C10_11  and  O1_12 
REMARK    3  A    between atoms: C14_17  and  C15_18 
REMARK    4  A    between atoms: C15_18  and  O2_21 
ROOT
HETATM    1  C1  UNL     1     -35.640  30.605   0.288  1.00  0.00     0.314 C 
HETATM    2  N1  UNL     1     -34.392  30.897  -0.339  1.00  0.00     0.118 N 
HETATM    3  C2  UNL     1     -33.251  30.814   0.562  1.00  0.00     0.232 C 
HETATM    4  C9  UNL     1     -33.366  31.799   1.690  1.00  0.00     0.068 C 
HETATM    5  C10 UNL     1     -33.399  33.203   1.111  1.00  0.00     0.128 C 
HETATM    6  C11 UNL     1     -34.513  33.295   0.129  1.00  0.00     0.074 C 
HETATM    7  C12 UNL     1     -34.513  34.629  -0.589  1.00  0.00     0.014 C 
HETATM    8  C13 UNL     1     -35.726  34.657  -1.486  1.00  0.00     0.036 C 
HETATM    9  C14 UNL     1     -35.645  33.452  -2.389  1.00  0.00     0.158 C 
HETATM   10  O3  UNL     1     -35.613  32.274  -1.685  1.00  0.00    -0.348 OA
HETATM   11  C18 UNL     1     -34.433  32.202  -0.924  1.00  0.00     0.365 C 
ENDROOT
BRANCH   3  12
HETATM   12  C3  UNL     1     -33.104  29.422   1.115  1.00  0.00     0.019 C 
HETATM   13  C4  UNL     1     -32.992  28.392   0.003  1.00  0.00     0.007 C 
HETATM   14  C5  UNL     1     -31.619  27.768  -0.027  1.00  0.00     0.000 C 
HETATM   15  C6  UNL     1     -30.597  28.877  -0.131  1.00  0.00     0.000 C 
HETATM   16  C7  UNL     1     -30.620  29.646   1.186  1.00  0.00     0.000 C 
HETATM   17  C8  UNL     1     -31.872  29.321   1.972  1.00  0.00     0.007 C 
ENDBRANCH   3  12
BRANCH   5  18
HETATM   18  O1  UNL     1     -32.163  33.560   0.578  1.00  0.00    -0.395 OA
ATOM     19  H1  UNL     1     -32.016  33.141  -0.262  1.00  0.00     0.210 HD
ENDBRANCH   5  18
BRANCH   9  20
HETATM   20  C15 UNL     1     -36.734  33.434  -3.436  1.00  0.00     0.076 C 
HETATM   21  C16 UNL     1     -37.804  32.464  -2.925  1.00  0.00     0.048 C 
HETATM   22  C17 UNL     1     -37.379  34.802  -3.451  1.00  0.00     0.048 C 
BRANCH  20  23
HETATM   23  O2  UNL     1     -36.262  33.064  -4.673  1.00  0.00    -0.388 OA
ATOM     24  H2  UNL     1     -36.790  33.417  -5.380  1.00  0.00     0.210 HD
ENDBRANCH  20  23
ENDBRANCH   9  20
TORSDOF 4
ENDMDL
MODEL 5
REMARK VINA RESULT: -6.715764775      1.198      1.516
REMARK  4 active torsions:
REMARK  status: ('A' for Active; 'I' for Inactive)
REMARK    1  A    between atoms: C2_3  and  C3_4 
REMARK    2  A    between atoms: C10_11  and  O1_12 
REMARK    3  A    between atoms: C14_17  and  C15_18 
REMARK    4  A    between atoms: C15_18  and  O2_21 
ROOT
HETATM    1  C1  UNL     1     -36.036  29.706  -0.172  1.00  0.00     0.314 C 
HETATM    2  N1  UNL     1     -35.056  29.662  -1.208  1.00  0.00     0.118 N 
HETATM    3  C2  UNL     1     -34.804  28.322  -1.717  1.00  0.00     0.232 C 
HETATM    4  C9  UNL     1     -34.281  27.412  -0.642  1.00  0.00     0.068 C 
HETATM    5  C10 UNL     1     -32.964  27.969  -0.127  1.00  0.00     0.128 C 
HETATM    6  C11 UNL     1     -33.179  29.368   0.332  1.00  0.00     0.074 C 
HETATM    7  C12 UNL     1     -31.873  30.029   0.727  1.00  0.00     0.014 C 
HETATM    8  C13 UNL     1     -32.208  31.401   1.262  1.00  0.00     0.036 C 
HETATM    9  C14 UNL     1     -32.986  32.123   0.192  1.00  0.00     0.158 C 
HETATM   10  O3  UNL     1     -34.140  31.463  -0.151  1.00  0.00    -0.348 OA
HETATM   11  C18 UNL     1     -33.826  30.226  -0.742  1.00  0.00     0.365 C 
ENDROOT
BRANCH   3  12
HETATM   12  C3  UNL     1     -36.050  27.732  -2.320  1.00  0.00     0.019 C 
HETATM   13  C4  UNL     1     -36.592  28.607  -3.439  1.00  0.00     0.007 C 
HETATM   14  C5  UNL     1     -36.466  27.922  -4.777  1.00  0.00     0.000 C 
HETATM   15  C6  UNL     1     -35.021  27.526  -4.972  1.00  0.00     0.000 C 
HETATM   16  C7  UNL     1     -34.709  26.422  -3.966  1.00  0.00     0.000 C 
HETATM   17  C8  UNL     1     -35.769  26.368  -2.887  1.00  0.00     0.007 C 
ENDBRANCH   3  12
BRANCH   5  18
HETATM   18  O1  UNL     1     -31.958  27.850  -1.081  1.00  0.00    -0.395 OA
ATOM     19  H1  UNL     1     -32.271  28.091  -1.945  1.00  0.00     0.210 HD
ENDBRANCH   5  18
BRANCH   9  20
HETATM   20  C15 UNL     1     -33.267  33.564   0.548  1.00  0.00     0.076 C 
HETATM   21  C16 UNL     1     -32.276  33.933   1.655  1.00  0.00     0.048 C 
HETATM   22  C17 UNL     1     -32.895  34.413  -0.649  1.00  0.00     0.048 C 
BRANCH  20  23
HETATM   23  O2  UNL     1     -34.568  33.760   0.944  1.00  0.00    -0.388 OA
ATOM     24  H2  UNL     1     -35.130  33.030   0.712  1.00  0.00     0.210 HD
ENDBRANCH  20  23
ENDBRANCH   9  20
TORSDOF 4
ENDMDL
