MODEL 1
REMARK VINA RESULT: -6.186136220      0.000      0.000
REMARK  2 active torsions:
REMARK  status: ('A' for Active; 'I' for Inactive)
REMARK       I    between atoms: C1_4  and  N3_6 
REMARK    1  A    between atoms: N3_6  and  C2_8 
REMARK    2  A    between atoms: C2_8  and  N4_10 
ROOT
HETATM    1  C2  UNL     1       1.049  66.802  66.544  1.00  0.00     0.200 C 
HETATM    2  S1  UNL     1       0.883  66.803  68.192  1.00  0.00    -0.038 SA
ENDROOT
BRANCH   1   3
HETATM    3  N3  UNL     1      -0.117  66.613  65.727  1.00  0.00    -0.306 N 
HETATM    4  C1  UNL     1      -0.828  67.736  65.241  1.00  0.00     0.188 C 
HETATM    5  N1  UNL     1      -0.888  67.926  63.973  1.00  0.00    -0.373 N 
HETATM    6  N2  UNL     1      -1.454  68.615  66.160  1.00  0.00    -0.064 NA
ATOM      7  H12 UNL     1      -1.400  68.735  63.624  1.00  0.00     0.158 HD
ATOM      8  H11 UNL     1      -0.437  67.293  63.312  1.00  0.00     0.158 HD
ATOM      9  H3  UNL     1      -0.432  65.671  65.497  1.00  0.00     0.171 HD
ENDBRANCH   1   3
BRANCH   1  10
HETATM   10  N4  UNL     1       2.323  66.985  65.945  1.00  0.00    -0.232 N 
HETATM   11  C3  UNL     1       3.491  66.899  66.797  1.00  0.00     0.159 C 
HETATM   12  C4  UNL     1       4.657  67.458  65.970  1.00  0.00     0.024 C 
HETATM   13  C5  UNL     1       4.082  68.738  65.348  1.00  0.00     0.030 C 
HETATM   14  C6  UNL     1       3.149  68.277  64.253  1.00  0.00     0.201 C 
HETATM   15  O1  UNL     1       2.365  67.227  64.623  1.00  0.00    -0.276 OA
ENDBRANCH   1  10
TORSDOF 2
ENDMDL
MODEL 2
REMARK VINA RESULT: -6.180138968      3.596      4.476
REMARK  2 active torsions:
REMARK  status: ('A' for Active; 'I' for Inactive)
REMARK       I    between atoms: C1_4  and  N3_6 
REMARK    1  A    between atoms: N3_6  and  C2_8 
REMARK    2  A    between atoms: C2_8  and  N4_10 
ROOT
HETATM    1  C2  UNL     1       4.083  65.114  63.929  1.00  0.00     0.200 C 
HETATM    2  S1  UNL     1       3.442  63.665  64.410  1.00  0.00    -0.038 SA
ENDROOT
BRANCH   1   3
HETATM    3  N3  UNL     1       4.499  65.272  62.563  1.00  0.00    -0.306 N 
HETATM    4  C1  UNL     1       4.443  66.546  61.952  1.00  0.00     0.188 C 
HETATM    5  N1  UNL     1       5.539  67.092  61.565  1.00  0.00    -0.373 N 
HETATM    6  N2  UNL     1       3.188  67.183  61.780  1.00  0.00    -0.064 NA
ATOM      7  H12 UNL     1       5.498  68.011  61.124  1.00  0.00     0.158 HD
ATOM      8  H11 UNL     1       6.442  66.634  61.689  1.00  0.00     0.158 HD
ATOM      9  H3  UNL     1       4.834  64.466  62.036  1.00  0.00     0.171 HD
ENDBRANCH   1   3
BRANCH   1  10
HETATM   10  N4  UNL     1       4.221  66.185  64.850  1.00  0.00    -0.232 N 
HETATM   11  C3  UNL     1       3.015  66.766  65.402  1.00  0.00     0.159 C 
HETATM   12  C4  UNL     1       3.447  68.076  66.074  1.00  0.00     0.024 C 
HETATM   13  C5  UNL     1       4.374  68.728  65.039  1.00  0.00     0.030 C 
HETATM   14  C6  UNL     1       5.663  67.941  65.091  1.00  0.00     0.201 C 
HETATM   15  O1  UNL     1       5.466  66.594  65.153  1.00  0.00    -0.276 OA
ENDBRANCH   1  10
TORSDOF 2
ENDMDL
MODEL 3
REMARK VINA RESULT: -6.119673330      3.164      3.607
REMARK  2 active torsions:
REMARK  status: ('A' for Active; 'I' for Inactive)
REMARK       I    between atoms: C1_4  and  N3_6 
REMARK    1  A    between atoms: N3_6  and  C2_8 
REMARK    2  A    between atoms: C2_8  and  N4_10 
ROOT
HETATM    1  C2  UNL     1       1.794  66.508  68.882  1.00  0.00     0.200 C 
HETATM    2  S1  UNL     1       0.269  65.934  69.178  1.00  0.00    -0.038 SA
ENDROOT
BRANCH   1   3
HETATM    3  N3  UNL     1       2.054  67.911  69.044  1.00  0.00    -0.306 N 
HETATM    4  C1  UNL     1       1.858  68.796  67.958  1.00  0.00     0.188 C 
HETATM    5  N1  UNL     1       0.964  69.712  68.063  1.00  0.00    -0.373 N 
HETATM    6  N2  UNL     1       2.648  68.652  66.790  1.00  0.00    -0.064 NA
ATOM      7  H12 UNL     1       0.822  70.349  67.280  1.00  0.00     0.158 HD
ATOM      8  H11 UNL     1       0.395  69.815  68.904  1.00  0.00     0.158 HD
ATOM      9  H3  UNL     1       2.379  68.269  69.943  1.00  0.00     0.171 HD
ENDBRANCH   1   3
BRANCH   1  10
HETATM   10  N4  UNL     1       2.831  65.629  68.473  1.00  0.00    -0.232 N 
HETATM   11  C3  UNL     1       3.937  65.415  69.383  1.00  0.00     0.159 C 
HETATM   12  C4  UNL     1       5.028  64.716  68.561  1.00  0.00     0.024 C 
HETATM   13  C5  UNL     1       5.074  65.520  67.255  1.00  0.00     0.030 C 
HETATM   14  C6  UNL     1       3.836  65.120  66.486  1.00  0.00     0.201 C 
HETATM   15  O1  UNL     1       2.721  65.049  67.265  1.00  0.00    -0.276 OA
ENDBRANCH   1  10
TORSDOF 2
ENDMDL
MODEL 4
REMARK VINA RESULT: -6.076189287      2.294      2.573
REMARK  2 active torsions:
REMARK  status: ('A' for Active; 'I' for Inactive)
REMARK       I    between atoms: C1_4  and  N3_6 
REMARK    1  A    between atoms: N3_6  and  C2_8 
REMARK    2  A    between atoms: C2_8  and  N4_10 
ROOT
HETATM    1  C2  UNL     1       2.831  65.087  64.470  1.00  0.00     0.200 C 
HETATM    2  S1  UNL     1       3.399  63.532  64.528  1.00  0.00    -0.038 SA
ENDROOT
BRANCH   1   3
HETATM    3  N3  UNL     1       1.415  65.314  64.556  1.00  0.00    -0.306 N 
HETATM    4  C1  UNL     1       0.920  66.420  65.285  1.00  0.00     0.188 C 
HETATM    5  N1  UNL     1       0.273  67.333  64.656  1.00  0.00    -0.373 N 
HETATM    6  N2  UNL     1       1.149  66.493  66.682  1.00  0.00    -0.064 NA
ATOM      7  H12 UNL     1      -0.083  68.131  65.182  1.00  0.00     0.158 HD
ATOM      8  H11 UNL     1       0.109  67.281  63.650  1.00  0.00     0.158 HD
ATOM      9  H3  UNL     1       0.767  64.678  64.091  1.00  0.00     0.171 HD
ENDBRANCH   1   3
BRANCH   1  10
HETATM   10  N4  UNL     1       3.726  66.180  64.337  1.00  0.00    -0.232 N 
HETATM   11  C3  UNL     1       4.700  66.391  65.388  1.00  0.00     0.159 C 
HETATM   12  C4  UNL     1       5.279  67.792  65.150  1.00  0.00     0.024 C 
HETATM   13  C5  UNL     1       4.042  68.657  64.876  1.00  0.00     0.030 C 
HETATM   14  C6  UNL     1       3.590  68.293  63.481  1.00  0.00     0.201 C 
HETATM   15  O1  UNL     1       3.614  66.952  63.242  1.00  0.00    -0.276 OA
ENDBRANCH   1  10
TORSDOF 2
ENDMDL
MODEL 5
REMARK VINA RESULT: -5.987169013      4.195      5.095
REMARK  2 active torsions:
REMARK  status: ('A' for Active; 'I' for Inactive)
REMARK       I    between atoms: C1_4  and  N3_6 
REMARK    1  A    between atoms: N3_6  and  C2_8 
REMARK    2  A    between atoms: C2_8  and  N4_10 
ROOT
HETATM    1  C2  UNL     1       4.622  67.214  62.615  1.00  0.00     0.200 C 
HETATM    2  S1  UNL     1       5.207  68.655  63.184  1.00  0.00    -0.038 SA
ENDROOT
BRANCH   1   3
HETATM    3  N3  UNL     1       4.156  67.139  61.258  1.00  0.00    -0.306 N 
HETATM    4  C1  UNL     1       3.269  68.122  60.761  1.00  0.00     0.188 C 
HETATM    5  N1  UNL     1       3.659  68.874  59.797  1.00  0.00    -0.373 N 
HETATM    6  N2  UNL     1       1.979  68.251  61.336  1.00  0.00    -0.064 NA
ATOM      7  H12 UNL     1       3.019  69.583  59.439  1.00  0.00     0.158 HD
ATOM      8  H11 UNL     1       4.588  68.781  59.384  1.00  0.00     0.158 HD
ATOM      9  H3  UNL     1       4.465  66.378  60.654  1.00  0.00     0.171 HD
ENDBRANCH   1   3
BRANCH   1  10
HETATM   10  N4  UNL     1       4.581  66.069  63.453  1.00  0.00    -0.232 N 
HETATM   11  C3  UNL     1       4.493  64.769  62.821  1.00  0.00     0.159 C 
HETATM   12  C4  UNL     1       4.131  63.781  63.938  1.00  0.00     0.024 C 
HETATM   13  C5  UNL     1       3.008  64.493  64.705  1.00  0.00     0.030 C 
HETATM   14  C6  UNL     1       3.684  65.587  65.497  1.00  0.00     0.201 C 
HETATM   15  O1  UNL     1       4.626  66.264  64.782  1.00  0.00    -0.276 OA
ENDBRANCH   1  10
TORSDOF 2
ENDMDL
