MODEL 1
REMARK VINA RESULT: -7.423239405      0.000      0.000
REMARK  3 active torsions:
REMARK  status: ('A' for Active; 'I' for Inactive)
REMARK    1  A    between atoms: N1_1  and  C1_5 
REMARK    2  A    between atoms: C3_7  and  N2_8 
REMARK    3  A    between atoms: C10_18  and  N3_19 
ROOT
HETATM    1  C1  UNL     1       4.438  67.096  62.822  1.00  0.00     0.221 C 
HETATM    2  C2  UNL     1       4.030  65.734  63.188  1.00  0.00     0.073 C 
HETATM    3  C3  UNL     1       3.425  65.539  64.525  1.00  0.00     0.126 C 
HETATM    4  C4  UNL     1       2.458  66.591  64.948  1.00  0.00     0.043 C 
HETATM    5  C5  UNL     1       3.048  67.759  65.644  1.00  0.00    -0.009 C 
HETATM    6  C6  UNL     1       4.076  67.421  66.683  1.00  0.00     0.009 C 
HETATM    7  C7  UNL     1       5.147  66.584  66.007  1.00  0.00    -0.009 C 
HETATM    8  C8  UNL     1       4.498  65.295  65.578  1.00  0.00     0.043 C 
HETATM    9  C9  UNL     1       5.804  67.331  64.903  1.00  0.00     0.045 C 
HETATM   10  C10 UNL     1       4.869  67.985  63.939  1.00  0.00     0.152 C 
HETATM   11  C11 UNL     1       3.691  68.663  64.628  1.00  0.00     0.045 C 
ENDROOT
BRANCH   1  12
HETATM   12  N1  UNL     1       5.521  66.996  61.829  1.00  0.00    -0.072 N 
ATOM     13  H13 UNL     1       5.696  66.036  61.531  1.00  0.00     0.274 HD
ATOM     14  H12 UNL     1       5.259  67.375  60.920  1.00  0.00     0.274 HD
ATOM     15  H11 UNL     1       6.349  67.443  62.221  1.00  0.00     0.274 HD
ENDBRANCH   1  12
BRANCH  10  16
HETATM   16  N3  UNL     1       5.629  69.095  63.333  1.00  0.00    -0.068 N 
ATOM     17  H33 UNL     1       5.068  69.668  62.703  1.00  0.00     0.275 HD
ATOM     18  H32 UNL     1       5.865  69.831  64.000  1.00  0.00     0.275 HD
ATOM     19  H31 UNL     1       6.446  68.684  62.882  1.00  0.00     0.275 HD
ENDBRANCH  10  16
BRANCH   3  20
HETATM   20  N2  UNL     1       2.662  64.278  64.465  1.00  0.00    -0.070 N 
ATOM     21  H23 UNL     1       3.254  63.447  64.479  1.00  0.00     0.275 HD
ATOM     22  H22 UNL     1       2.144  64.080  65.321  1.00  0.00     0.275 HD
ATOM     23  H21 UNL     1       2.067  64.334  63.639  1.00  0.00     0.275 HD
ENDBRANCH   3  20
TORSDOF 3
ENDMDL
MODEL 2
REMARK VINA RESULT: -7.334965832      1.304      1.853
REMARK  3 active torsions:
REMARK  status: ('A' for Active; 'I' for Inactive)
REMARK    1  A    between atoms: N1_1  and  C1_5 
REMARK    2  A    between atoms: C3_7  and  N2_8 
REMARK    3  A    between atoms: C10_18  and  N3_19 
ROOT
HETATM    1  C1  UNL     1       3.789  65.487  63.348  1.00  0.00     0.221 C 
HETATM    2  C2  UNL     1       3.677  65.060  64.748  1.00  0.00     0.073 C 
HETATM    3  C3  UNL     1       3.423  66.108  65.763  1.00  0.00     0.126 C 
HETATM    4  C4  UNL     1       2.434  67.151  65.370  1.00  0.00     0.043 C 
HETATM    5  C5  UNL     1       2.988  68.318  64.644  1.00  0.00    -0.009 C 
HETATM    6  C6  UNL     1       4.262  68.868  65.215  1.00  0.00     0.009 C 
HETATM    7  C7  UNL     1       5.263  67.729  65.273  1.00  0.00    -0.009 C 
HETATM    8  C8  UNL     1       4.730  66.719  66.253  1.00  0.00     0.043 C 
HETATM    9  C9  UNL     1       5.538  67.178  63.920  1.00  0.00     0.045 C 
HETATM   10  C10 UNL     1       4.326  66.857  63.110  1.00  0.00     0.152 C 
HETATM   11  C11 UNL     1       3.247  67.928  63.214  1.00  0.00     0.045 C 
ENDROOT
BRANCH   1  12
HETATM   12  N1  UNL     1       4.623  64.503  62.638  1.00  0.00    -0.072 N 
ATOM     13  H13 UNL     1       5.385  64.144  63.212  1.00  0.00     0.274 HD
ATOM     14  H12 UNL     1       4.142  63.618  62.481  1.00  0.00     0.274 HD
ATOM     15  H11 UNL     1       4.950  64.933  61.773  1.00  0.00     0.274 HD
ENDBRANCH   1  12
BRANCH  10  16
HETATM   16  N3  UNL     1       4.760  66.908  61.701  1.00  0.00    -0.068 N 
ATOM     17  H33 UNL     1       5.275  66.078  61.409  1.00  0.00     0.275 HD
ATOM     18  H32 UNL     1       3.987  66.820  61.039  1.00  0.00     0.275 HD
ATOM     19  H31 UNL     1       5.290  67.772  61.585  1.00  0.00     0.275 HD
ENDBRANCH  10  16
BRANCH   3  20
HETATM   20  N2  UNL     1       2.858  65.428  66.943  1.00  0.00    -0.070 N 
ATOM     21  H23 UNL     1       2.612  66.069  67.698  1.00  0.00     0.275 HD
ATOM     22  H22 UNL     1       1.923  65.054  66.783  1.00  0.00     0.275 HD
ATOM     23  H21 UNL     1       3.533  64.717  67.224  1.00  0.00     0.275 HD
ENDBRANCH   3  20
TORSDOF 3
ENDMDL
MODEL 3
REMARK VINA RESULT: -7.296529769      1.019      3.395
REMARK  3 active torsions:
REMARK  status: ('A' for Active; 'I' for Inactive)
REMARK    1  A    between atoms: N1_1  and  C1_5 
REMARK    2  A    between atoms: C3_7  and  N2_8 
REMARK    3  A    between atoms: C10_18  and  N3_19 
ROOT
HETATM    1  C1  UNL     1       4.403  65.052  64.217  1.00  0.00     0.221 C 
HETATM    2  C2  UNL     1       4.575  65.791  62.959  1.00  0.00     0.073 C 
HETATM    3  C3  UNL     1       4.777  67.255  63.050  1.00  0.00     0.126 C 
HETATM    4  C4  UNL     1       5.684  67.707  64.142  1.00  0.00     0.043 C 
HETATM    5  C5  UNL     1       5.035  67.952  65.452  1.00  0.00    -0.009 C 
HETATM    6  C6  UNL     1       3.739  68.705  65.382  1.00  0.00     0.009 C 
HETATM    7  C7  UNL     1       2.820  67.942  64.445  1.00  0.00    -0.009 C 
HETATM    8  C8  UNL     1       3.443  67.989  63.076  1.00  0.00     0.043 C 
HETATM    9  C9  UNL     1       2.554  66.568  64.947  1.00  0.00     0.045 C 
HETATM   10  C10 UNL     1       3.768  65.794  65.343  1.00  0.00     0.152 C 
HETATM   11  C11 UNL     1       4.772  66.632  66.124  1.00  0.00     0.045 C 
ENDROOT
BRANCH   1  12
HETATM   12  N1  UNL     1       3.623  63.837  63.928  1.00  0.00    -0.072 N 
ATOM     13  H13 UNL     1       2.712  63.834  64.386  1.00  0.00     0.274 HD
ATOM     14  H12 UNL     1       3.290  63.802  62.964  1.00  0.00     0.274 HD
ATOM     15  H11 UNL     1       4.193  63.030  64.178  1.00  0.00     0.274 HD
ENDBRANCH   1  12
BRANCH  10  16
HETATM   16  N3  UNL     1       3.301  64.784  66.312  1.00  0.00    -0.068 N 
ATOM     17  H33 UNL     1       2.983  63.921  65.870  1.00  0.00     0.275 HD
ATOM     18  H32 UNL     1       4.057  64.376  66.863  1.00  0.00     0.275 HD
ATOM     19  H31 UNL     1       2.584  65.230  66.883  1.00  0.00     0.275 HD
ENDBRANCH  10  16
BRANCH   3  20
HETATM   20  N2  UNL     1       5.413  67.674  61.786  1.00  0.00    -0.070 N 
ATOM     21  H23 UNL     1       5.725  68.645  61.795  1.00  0.00     0.275 HD
ATOM     22  H22 UNL     1       6.327  67.248  61.635  1.00  0.00     0.275 HD
ATOM     23  H21 UNL     1       4.747  67.472  61.041  1.00  0.00     0.275 HD
ENDBRANCH   3  20
TORSDOF 3
ENDMDL
MODEL 4
REMARK VINA RESULT: -7.287063344      2.563      4.140
REMARK  3 active torsions:
REMARK  status: ('A' for Active; 'I' for Inactive)
REMARK    1  A    between atoms: N1_1  and  C1_5 
REMARK    2  A    between atoms: C3_7  and  N2_8 
REMARK    3  A    between atoms: C10_18  and  N3_19 
ROOT
HETATM    1  C1  UNL     1       0.621  67.269  65.930  1.00  0.00     0.221 C 
HETATM    2  C2  UNL     1       0.838  67.411  67.376  1.00  0.00     0.073 C 
HETATM    3  C3  UNL     1       2.174  67.869  67.823  1.00  0.00     0.126 C 
HETATM    4  C4  UNL     1       2.777  68.965  67.012  1.00  0.00     0.043 C 
HETATM    5  C5  UNL     1       3.577  68.530  65.843  1.00  0.00    -0.009 C 
HETATM    6  C6  UNL     1       4.506  67.382  66.107  1.00  0.00     0.009 C 
HETATM    7  C7  UNL     1       3.673  66.241  66.661  1.00  0.00    -0.009 C 
HETATM    8  C8  UNL     1       3.126  66.692  67.988  1.00  0.00     0.043 C 
HETATM    9  C9  UNL     1       2.634  65.807  65.690  1.00  0.00     0.045 C 
HETATM   10  C10 UNL     1       1.812  66.911  65.109  1.00  0.00     0.152 C 
HETATM   11  C11 UNL     1       2.645  68.130  64.732  1.00  0.00     0.045 C 
ENDROOT
BRANCH   1  12
HETATM   12  N1  UNL     1      -0.437  66.265  65.726  1.00  0.00    -0.072 N 
ATOM     13  H13 UNL     1      -1.011  66.122  66.557  1.00  0.00     0.274 HD
ATOM     14  H12 UNL     1      -1.176  66.591  65.104  1.00  0.00     0.274 HD
ATOM     15  H11 UNL     1       0.004  65.406  65.399  1.00  0.00     0.274 HD
ENDBRANCH   1  12
BRANCH  10  16
HETATM   16  N3  UNL     1       1.306  66.399  63.821  1.00  0.00    -0.068 N 
ATOM     17  H33 UNL     1       2.040  66.022  63.223  1.00  0.00     0.275 HD
ATOM     18  H32 UNL     1       0.762  65.540  63.916  1.00  0.00     0.275 HD
ATOM     19  H31 UNL     1       0.783  67.159  63.385  1.00  0.00     0.275 HD
ENDBRANCH  10  16
BRANCH   3  20
HETATM   20  N2  UNL     1       2.002  68.410  69.184  1.00  0.00    -0.070 N 
ATOM     21  H23 UNL     1       2.061  67.697  69.912  1.00  0.00     0.275 HD
ATOM     22  H22 UNL     1       2.792  68.976  69.495  1.00  0.00     0.275 HD
ATOM     23  H21 UNL     1       1.118  68.918  69.189  1.00  0.00     0.275 HD
ENDBRANCH   3  20
TORSDOF 3
ENDMDL
MODEL 5
REMARK VINA RESULT: -7.284280240      1.582      3.554
REMARK  3 active torsions:
REMARK  status: ('A' for Active; 'I' for Inactive)
REMARK    1  A    between atoms: N1_1  and  C1_5 
REMARK    2  A    between atoms: C3_7  and  N2_8 
REMARK    3  A    between atoms: C10_18  and  N3_19 
ROOT
HETATM    1  C1  UNL     1       2.196  67.267  63.437  1.00  0.00     0.221 C 
HETATM    2  C2  UNL     1       3.206  68.308  63.207  1.00  0.00     0.073 C 
HETATM    3  C3  UNL     1       4.467  68.217  63.979  1.00  0.00     0.126 C 
HETATM    4  C4  UNL     1       5.034  66.846  64.114  1.00  0.00     0.043 C 
HETATM    5  C5  UNL     1       4.543  66.061  65.273  1.00  0.00    -0.009 C 
HETATM    6  C6  UNL     1       4.469  66.823  66.563  1.00  0.00     0.009 C 
HETATM    7  C7  UNL     1       3.605  68.047  66.320  1.00  0.00    -0.009 C 
HETATM    8  C8  UNL     1       4.332  68.913  65.327  1.00  0.00     0.043 C 
HETATM    9  C9  UNL     1       2.230  67.666  65.904  1.00  0.00     0.045 C 
HETATM   10  C10 UNL     1       2.158  66.664  64.799  1.00  0.00     0.152 C 
HETATM   11  C11 UNL     1       3.168  65.535  64.962  1.00  0.00     0.045 C 
ENDROOT
BRANCH   1  12
HETATM   12  N1  UNL     1       0.876  67.837  63.115  1.00  0.00    -0.072 N 
ATOM     13  H13 UNL     1       0.740  67.977  62.115  1.00  0.00     0.274 HD
ATOM     14  H12 UNL     1       0.115  67.176  63.266  1.00  0.00     0.274 HD
ATOM     15  H11 UNL     1       0.765  68.696  63.652  1.00  0.00     0.274 HD
ENDBRANCH   1  12
BRANCH  10  16
HETATM   16  N3  UNL     1       0.846  66.005  64.940  1.00  0.00    -0.068 N 
ATOM     17  H33 UNL     1       0.254  66.436  65.650  1.00  0.00     0.275 HD
ATOM     18  H32 UNL     1       0.229  66.165  64.143  1.00  0.00     0.275 HD
ATOM     19  H31 UNL     1       1.027  65.017  65.114  1.00  0.00     0.275 HD
ENDBRANCH  10  16
BRANCH   3  20
HETATM   20  N2  UNL     1       5.472  69.007  63.244  1.00  0.00    -0.070 N 
ATOM     21  H23 UNL     1       6.402  68.966  63.663  1.00  0.00     0.275 HD
ATOM     22  H22 UNL     1       5.720  68.604  62.341  1.00  0.00     0.275 HD
ATOM     23  H21 UNL     1       5.105  69.956  63.174  1.00  0.00     0.275 HD
ENDBRANCH   3  20
TORSDOF 3
ENDMDL
