MODEL 1
REMARK VINA RESULT: -5.929542881      0.000      0.000
REMARK  3 active torsions:
REMARK  status: ('A' for Active; 'I' for Inactive)
REMARK    1  A    between atoms: C2_2  and  N1_5 
REMARK       I    between atoms: C5_7  and  N3_9 
REMARK    2  A    between atoms: N3_9  and  S1_11 
REMARK    3  A    between atoms: S1_11  and  N4_13 
ROOT
HETATM    1  N1  UNL     1       2.481  66.320  65.952  1.00  0.00    -0.356 N 
ATOM      2  H1  UNL     1       2.358  65.568  66.630  1.00  0.00     0.163 HD
HETATM    3  C5  UNL     1       1.452  66.848  65.396  1.00  0.00     0.197 C 
HETATM    4  N2  UNL     1       1.546  67.896  64.446  1.00  0.00    -0.063 NA
HETATM    5  N3  UNL     1       0.184  66.333  65.775  1.00  0.00    -0.275 N 
ATOM      6  H3  UNL     1       0.040  65.335  65.932  1.00  0.00     0.179 HD
ENDROOT
BRANCH   1   7
HETATM    7  C2  UNL     1       3.797  66.772  65.634  1.00  0.00     0.021 C 
HETATM    8  C1  UNL     1       3.846  68.265  65.884  1.00  0.00     0.037 C 
HETATM    9  C3  UNL     1       4.135  66.460  64.175  1.00  0.00     0.037 C 
HETATM   10  C4  UNL     1       4.796  66.033  66.488  1.00  0.00     0.037 C 
ENDBRANCH   1   7
BRANCH   5  11
HETATM   11  S1  UNL     1      -0.984  67.365  65.941  1.00  0.00     0.102 S 
HETATM   12  C6  UNL     1      -2.347  66.554  66.693  1.00  0.00     0.160 C 
HETATM   13  O1  UNL     1      -0.455  68.502  66.765  1.00  0.00    -0.229 OA
BRANCH  11  14
HETATM   14  N4  UNL     1      -1.350  67.954  64.363  1.00  0.00    -0.345 N 
ATOM     15  H42 UNL     1      -0.873  67.691  63.501  1.00  0.00     0.167 HD
ATOM     16  H41 UNL     1      -2.127  68.606  64.468  1.00  0.00     0.167 HD
ENDBRANCH  11  14
ENDBRANCH   5  11
TORSDOF 3
ENDMDL
MODEL 2
REMARK VINA RESULT: -5.924211858      6.451      7.581
REMARK  3 active torsions:
REMARK  status: ('A' for Active; 'I' for Inactive)
REMARK    1  A    between atoms: C2_2  and  N1_5 
REMARK       I    between atoms: C5_7  and  N3_9 
REMARK    2  A    between atoms: N3_9  and  S1_11 
REMARK    3  A    between atoms: S1_11  and  N4_13 
ROOT
HETATM    1  N1  UNL     1       3.535  63.050  68.310  1.00  0.00    -0.356 N 
ATOM      2  H1  UNL     1       3.564  62.724  67.343  1.00  0.00     0.163 HD
HETATM    3  C5  UNL     1       3.241  62.225  69.247  1.00  0.00     0.197 C 
HETATM    4  N2  UNL     1       3.181  62.605  70.612  1.00  0.00    -0.063 NA
HETATM    5  N3  UNL     1       2.971  60.886  68.862  1.00  0.00    -0.275 N 
ATOM      6  H3  UNL     1       2.447  60.671  68.013  1.00  0.00     0.179 HD
ENDROOT
BRANCH   1   7
HETATM    7  C2  UNL     1       3.821  64.417  68.601  1.00  0.00     0.021 C 
HETATM    8  C1  UNL     1       5.024  64.452  69.521  1.00  0.00     0.037 C 
HETATM    9  C3  UNL     1       2.618  65.090  69.263  1.00  0.00     0.037 C 
HETATM   10  C4  UNL     1       4.087  65.154  67.312  1.00  0.00     0.037 C 
ENDBRANCH   1   7
BRANCH   5  11
HETATM   11  S1  UNL     1       3.513  59.752  69.798  1.00  0.00     0.102 S 
HETATM   12  C6  UNL     1       2.292  59.389  71.007  1.00  0.00     0.160 C 
HETATM   13  O1  UNL     1       3.835  58.574  68.925  1.00  0.00    -0.229 OA
BRANCH  11  14
HETATM   14  N4  UNL     1       4.977  60.339  70.490  1.00  0.00    -0.345 N 
ATOM     15  H42 UNL     1       5.149  61.294  70.806  1.00  0.00     0.167 HD
ATOM     16  H41 UNL     1       5.625  59.552  70.518  1.00  0.00     0.167 HD
ENDBRANCH  11  14
ENDBRANCH   5  11
TORSDOF 3
ENDMDL
MODEL 3
REMARK VINA RESULT: -5.922889422      0.057      1.256
REMARK  3 active torsions:
REMARK  status: ('A' for Active; 'I' for Inactive)
REMARK    1  A    between atoms: C2_2  and  N1_5 
REMARK       I    between atoms: C5_7  and  N3_9 
REMARK    2  A    between atoms: N3_9  and  S1_11 
REMARK    3  A    between atoms: S1_11  and  N4_13 
ROOT
HETATM    1  N1  UNL     1       2.454  66.319  65.917  1.00  0.00    -0.356 N 
ATOM      2  H1  UNL     1       2.334  65.560  66.588  1.00  0.00     0.163 HD
HETATM    3  C5  UNL     1       1.422  66.854  65.374  1.00  0.00     0.197 C 
HETATM    4  N2  UNL     1       1.512  67.911  64.434  1.00  0.00    -0.063 NA
HETATM    5  N3  UNL     1       0.156  66.337  65.755  1.00  0.00    -0.275 N 
ATOM      6  H3  UNL     1       0.012  65.338  65.902  1.00  0.00     0.179 HD
ENDROOT
BRANCH   1   7
HETATM    7  C2  UNL     1       3.769  66.773  65.596  1.00  0.00     0.021 C 
HETATM    8  C1  UNL     1       4.046  66.404  64.154  1.00  0.00     0.037 C 
HETATM    9  C3  UNL     1       4.801  66.130  66.524  1.00  0.00     0.037 C 
HETATM   10  C4  UNL     1       3.846  68.264  65.812  1.00  0.00     0.037 C 
ENDBRANCH   1   7
BRANCH   5  11
HETATM   11  S1  UNL     1      -1.009  67.369  65.938  1.00  0.00     0.102 S 
HETATM   12  C6  UNL     1      -2.368  66.553  66.693  1.00  0.00     0.160 C 
HETATM   13  O1  UNL     1      -0.473  68.498  66.769  1.00  0.00    -0.229 OA
BRANCH  11  14
HETATM   14  N4  UNL     1      -1.387  67.972  64.368  1.00  0.00    -0.345 N 
ATOM     15  H42 UNL     1      -0.741  68.449  63.740  1.00  0.00     0.167 HD
ATOM     16  H41 UNL     1      -2.370  67.758  64.202  1.00  0.00     0.167 HD
ENDBRANCH  11  14
ENDBRANCH   5  11
TORSDOF 3
ENDMDL
MODEL 4
REMARK VINA RESULT: -5.740999275      1.964      2.557
REMARK  3 active torsions:
REMARK  status: ('A' for Active; 'I' for Inactive)
REMARK    1  A    between atoms: C2_2  and  N1_5 
REMARK       I    between atoms: C5_7  and  N3_9 
REMARK    2  A    between atoms: N3_9  and  S1_11 
REMARK    3  A    between atoms: S1_11  and  N4_13 
ROOT
HETATM    1  N1  UNL     1       3.559  67.159  65.712  1.00  0.00    -0.356 N 
ATOM      2  H1  UNL     1       3.533  68.071  65.254  1.00  0.00     0.163 HD
HETATM    3  C5  UNL     1       2.552  66.770  66.405  1.00  0.00     0.197 C 
HETATM    4  N2  UNL     1       2.516  65.517  67.068  1.00  0.00    -0.063 NA
HETATM    5  N3  UNL     1       1.449  67.659  66.489  1.00  0.00    -0.275 N 
ATOM      6  H3  UNL     1       1.582  68.667  66.577  1.00  0.00     0.179 HD
ENDROOT
BRANCH   1   7
HETATM    7  C2  UNL     1       4.713  66.333  65.571  1.00  0.00     0.021 C 
HETATM    8  C1  UNL     1       4.403  65.277  64.530  1.00  0.00     0.037 C 
HETATM    9  C3  UNL     1       5.075  65.681  66.906  1.00  0.00     0.037 C 
HETATM   10  C4  UNL     1       5.888  67.187  65.162  1.00  0.00     0.037 C 
ENDBRANCH   1   7
BRANCH   5  11
HETATM   11  S1  UNL     1       0.016  67.025  66.440  1.00  0.00     0.102 S 
HETATM   12  C6  UNL     1      -1.162  68.312  66.248  1.00  0.00     0.160 C 
HETATM   13  O1  UNL     1       0.004  66.049  65.298  1.00  0.00    -0.229 OA
BRANCH  11  14
HETATM   14  N4  UNL     1      -0.188  66.151  67.911  1.00  0.00    -0.345 N 
ATOM     15  H42 UNL     1       0.558  65.743  68.473  1.00  0.00     0.167 HD
ATOM     16  H41 UNL     1      -1.190  66.127  68.099  1.00  0.00     0.167 HD
ENDBRANCH  11  14
ENDBRANCH   5  11
TORSDOF 3
ENDMDL
MODEL 5
REMARK VINA RESULT: -5.724885780      1.746      2.083
REMARK  3 active torsions:
REMARK  status: ('A' for Active; 'I' for Inactive)
REMARK    1  A    between atoms: C2_2  and  N1_5 
REMARK       I    between atoms: C5_7  and  N3_9 
REMARK    2  A    between atoms: N3_9  and  S1_11 
REMARK    3  A    between atoms: S1_11  and  N4_13 
ROOT
HETATM    1  N1  UNL     1       1.941  65.080  64.831  1.00  0.00    -0.356 N 
ATOM      2  H1  UNL     1       1.286  64.438  64.383  1.00  0.00     0.163 HD
HETATM    3  C5  UNL     1       1.494  66.118  65.438  1.00  0.00     0.197 C 
HETATM    4  N2  UNL     1       2.342  67.054  66.082  1.00  0.00    -0.063 NA
HETATM    5  N3  UNL     1       0.086  66.303  65.441  1.00  0.00    -0.275 N 
ATOM      6  H3  UNL     1      -0.480  66.091  64.620  1.00  0.00     0.179 HD
ENDROOT
BRANCH   1   7
HETATM    7  C2  UNL     1       3.341  64.811  64.775  1.00  0.00     0.021 C 
HETATM    8  C1  UNL     1       3.965  65.805  63.818  1.00  0.00     0.037 C 
HETATM    9  C3  UNL     1       3.594  63.378  64.303  1.00  0.00     0.037 C 
HETATM   10  C4  UNL     1       3.926  64.931  66.160  1.00  0.00     0.037 C 
ENDBRANCH   1   7
BRANCH   5  11
HETATM   11  S1  UNL     1      -0.558  66.847  66.763  1.00  0.00     0.102 S 
HETATM   12  C6  UNL     1      -2.303  66.705  66.636  1.00  0.00     0.160 C 
HETATM   13  O1  UNL     1       0.011  66.043  67.896  1.00  0.00    -0.229 OA
BRANCH  11  14
HETATM   14  N4  UNL     1      -0.035  68.481  66.931  1.00  0.00    -0.345 N 
ATOM     15  H42 UNL     1      -0.236  69.243  66.284  1.00  0.00     0.167 HD
ATOM     16  H41 UNL     1       0.506  68.527  67.794  1.00  0.00     0.167 HD
ENDBRANCH  11  14
ENDBRANCH   5  11
TORSDOF 3
ENDMDL
