MODEL 1
REMARK VINA RESULT: -7.177028231      0.000      0.000
REMARK  1 active torsions:
REMARK  status: ('A' for Active; 'I' for Inactive)
REMARK       I    between atoms: C1_4  and  N3_6 
REMARK       I    between atoms: C2_8  and  N4_9 
REMARK       I    between atoms: C2_8  and  N5_13 
REMARK    1  A    between atoms: N4_9  and  O1_11 
ROOT
HETATM    1  N1  UNL     1      -2.758  67.394  66.672  1.00  0.00    -0.373 N 
ATOM      2  H11 UNL     1      -3.003  67.157  67.633  1.00  0.00     0.158 HD
ATOM      3  H12 UNL     1      -3.479  67.784  66.067  1.00  0.00     0.158 HD
HETATM    4  C1  UNL     1      -1.554  67.210  66.207  1.00  0.00     0.200 C 
HETATM    5  N2  UNL     1      -1.212  67.539  64.869  1.00  0.00    -0.063 NA
HETATM    6  N3  UNL     1      -0.548  66.666  67.051  1.00  0.00    -0.162 N 
ATOM      7  H3  UNL     1      -0.539  65.666  67.252  1.00  0.00     0.187 HD
HETATM    8  C2  UNL     1       0.343  67.425  67.555  1.00  0.00     0.702 C 
HETATM    9  N4  UNL     1       0.340  68.828  67.280  1.00  0.00    -0.099 N 
ATOM     10  H4  UNL     1       0.079  69.161  66.352  1.00  0.00     0.213 HD
HETATM   11  N5  UNL     1       1.360  66.923  68.397  1.00  0.00    -0.216 N 
HETATM   12  C3  UNL     1       2.714  67.402  68.187  1.00  0.00     0.141 C 
HETATM   13  C4  UNL     1       3.551  66.147  67.906  1.00  0.00     0.020 C 
HETATM   14  C5  UNL     1       3.575  65.385  69.219  1.00  0.00     0.003 C 
HETATM   15  C6  UNL     1       2.169  64.861  69.455  1.00  0.00     0.020 C 
HETATM   16  C7  UNL     1       1.141  65.963  69.457  1.00  0.00     0.141 C 
ENDROOT
BRANCH   9  17
HETATM   17  O1  UNL     1       0.681  69.721  68.241  1.00  0.00    -0.276 OA
ATOM     18  H1  UNL     1       0.840  70.632  68.021  1.00  0.00     0.245 HD
ENDBRANCH   9  17
TORSDOF 1
ENDMDL
MODEL 2
REMARK VINA RESULT: -7.159267821      1.788      2.431
REMARK  1 active torsions:
REMARK  status: ('A' for Active; 'I' for Inactive)
REMARK       I    between atoms: C1_4  and  N3_6 
REMARK       I    between atoms: C2_8  and  N4_9 
REMARK       I    between atoms: C2_8  and  N5_13 
REMARK    1  A    between atoms: N4_9  and  O1_11 
ROOT
HETATM    1  N1  UNL     1      -1.526  66.021  67.592  1.00  0.00    -0.373 N 
ATOM      2  H11 UNL     1      -1.029  65.543  68.343  1.00  0.00     0.158 HD
ATOM      3  H12 UNL     1      -2.544  66.065  67.631  1.00  0.00     0.158 HD
HETATM    4  C1  UNL     1      -0.892  66.572  66.594  1.00  0.00     0.200 C 
HETATM    5  N2  UNL     1      -1.584  67.238  65.548  1.00  0.00    -0.063 NA
HETATM    6  N3  UNL     1       0.526  66.511  66.539  1.00  0.00    -0.162 N 
ATOM      7  H3  UNL     1       0.988  65.648  66.254  1.00  0.00     0.187 HD
HETATM    8  C2  UNL     1       1.222  67.534  66.846  1.00  0.00     0.702 C 
HETATM    9  N4  UNL     1       0.586  68.750  67.248  1.00  0.00    -0.099 N 
ATOM     10  H4  UNL     1      -0.284  69.038  66.799  1.00  0.00     0.213 HD
HETATM   11  N5  UNL     1       2.634  67.515  66.804  1.00  0.00    -0.216 N 
HETATM   12  C3  UNL     1       3.312  68.659  66.222  1.00  0.00     0.141 C 
HETATM   13  C4  UNL     1       4.151  68.092  65.068  1.00  0.00     0.020 C 
HETATM   14  C5  UNL     1       5.230  67.260  65.736  1.00  0.00     0.003 C 
HETATM   15  C6  UNL     1       4.547  66.047  66.343  1.00  0.00     0.020 C 
HETATM   16  C7  UNL     1       3.450  66.430  67.302  1.00  0.00     0.141 C 
ENDROOT
BRANCH   9  17
HETATM   17  O1  UNL     1       1.127  69.524  68.220  1.00  0.00    -0.276 OA
ATOM     18  H1  UNL     1       0.965  69.333  69.136  1.00  0.00     0.245 HD
ENDBRANCH   9  17
TORSDOF 1
ENDMDL
MODEL 3
REMARK VINA RESULT: -6.911843507      2.171      3.121
REMARK  1 active torsions:
REMARK  status: ('A' for Active; 'I' for Inactive)
REMARK       I    between atoms: C1_4  and  N3_6 
REMARK       I    between atoms: C2_8  and  N4_9 
REMARK       I    between atoms: C2_8  and  N5_13 
REMARK    1  A    between atoms: N4_9  and  O1_11 
ROOT
HETATM    1  N1  UNL     1      -0.329  65.535  68.870  1.00  0.00    -0.373 N 
ATOM      2  H11 UNL     1       0.430  65.069  69.366  1.00  0.00     0.158 HD
ATOM      3  H12 UNL     1      -1.276  65.453  69.239  1.00  0.00     0.158 HD
HETATM    4  C1  UNL     1      -0.116  66.225  67.785  1.00  0.00     0.200 C 
HETATM    5  N2  UNL     1      -1.173  66.875  67.094  1.00  0.00    -0.063 NA
HETATM    6  N3  UNL     1       1.203  66.339  67.269  1.00  0.00    -0.162 N 
ATOM      7  H3  UNL     1       1.621  65.559  66.761  1.00  0.00     0.187 HD
HETATM    8  C2  UNL     1       1.866  67.414  67.440  1.00  0.00     0.702 C 
HETATM    9  N4  UNL     1       1.292  68.515  68.151  1.00  0.00    -0.099 N 
ATOM     10  H4  UNL     1       0.301  68.726  68.040  1.00  0.00     0.213 HD
HETATM   11  N5  UNL     1       3.179  67.567  66.943  1.00  0.00    -0.216 N 
HETATM   12  C3  UNL     1       3.519  68.822  66.297  1.00  0.00     0.141 C 
HETATM   13  C4  UNL     1       3.975  68.441  64.882  1.00  0.00     0.020 C 
HETATM   14  C5  UNL     1       5.286  67.700  65.075  1.00  0.00     0.003 C 
HETATM   15  C6  UNL     1       4.955  66.375  65.738  1.00  0.00     0.020 C 
HETATM   16  C7  UNL     1       4.209  66.556  67.035  1.00  0.00     0.141 C 
ENDROOT
BRANCH   9  17
HETATM   17  O1  UNL     1       2.053  69.279  68.972  1.00  0.00    -0.276 OA
ATOM     18  H1  UNL     1       2.433  70.092  68.661  1.00  0.00     0.245 HD
ENDBRANCH   9  17
TORSDOF 1
ENDMDL
MODEL 4
REMARK VINA RESULT: -6.901349424      3.401      4.262
REMARK  1 active torsions:
REMARK  status: ('A' for Active; 'I' for Inactive)
REMARK       I    between atoms: C1_4  and  N3_6 
REMARK       I    between atoms: C2_8  and  N4_9 
REMARK       I    between atoms: C2_8  and  N5_13 
REMARK    1  A    between atoms: N4_9  and  O1_11 
ROOT
HETATM    1  N1  UNL     1      -1.591  68.040  64.549  1.00  0.00    -0.373 N 
ATOM      2  H11 UNL     1      -1.343  68.302  63.595  1.00  0.00     0.158 HD
ATOM      3  H12 UNL     1      -2.576  67.916  64.781  1.00  0.00     0.158 HD
HETATM    4  C1  UNL     1      -0.683  67.861  65.468  1.00  0.00     0.200 C 
HETATM    5  N2  UNL     1      -1.028  67.494  66.795  1.00  0.00    -0.063 NA
HETATM    6  N3  UNL     1       0.690  68.033  65.145  1.00  0.00    -0.162 N 
ATOM      7  H3  UNL     1       1.078  68.972  65.056  1.00  0.00     0.187 HD
HETATM    8  C2  UNL     1       1.438  67.016  64.968  1.00  0.00     0.702 C 
HETATM    9  N4  UNL     1       0.905  65.694  65.090  1.00  0.00    -0.099 N 
ATOM     10  H4  UNL     1       0.205  65.496  65.804  1.00  0.00     0.213 HD
HETATM   11  N5  UNL     1       2.807  67.145  64.647  1.00  0.00    -0.216 N 
HETATM   12  C3  UNL     1       3.749  66.279  65.333  1.00  0.00     0.141 C 
HETATM   13  C4  UNL     1       4.734  67.224  66.036  1.00  0.00     0.020 C 
HETATM   14  C5  UNL     1       5.513  67.889  64.915  1.00  0.00     0.003 C 
HETATM   15  C6  UNL     1       4.550  68.812  64.190  1.00  0.00     0.020 C 
HETATM   16  C7  UNL     1       3.333  68.083  63.681  1.00  0.00     0.141 C 
ENDROOT
BRANCH   9  17
HETATM   17  O1  UNL     1       1.323  64.703  64.266  1.00  0.00    -0.276 OA
ATOM     18  H1  UNL     1       1.405  63.812  64.585  1.00  0.00     0.245 HD
ENDBRANCH   9  17
TORSDOF 1
ENDMDL
MODEL 5
REMARK VINA RESULT: -6.858439662      3.508      4.796
REMARK  1 active torsions:
REMARK  status: ('A' for Active; 'I' for Inactive)
REMARK       I    between atoms: C1_4  and  N3_6 
REMARK       I    between atoms: C2_8  and  N4_9 
REMARK       I    between atoms: C2_8  and  N5_13 
REMARK    1  A    between atoms: N4_9  and  O1_11 
ROOT
HETATM    1  N1  UNL     1       0.825  69.713  68.045  1.00  0.00    -0.373 N 
ATOM      2  H11 UNL     1       0.497  70.280  67.264  1.00  0.00     0.158 HD
ATOM      3  H12 UNL     1       0.442  69.893  68.973  1.00  0.00     0.158 HD
HETATM    4  C1  UNL     1       1.714  68.773  67.884  1.00  0.00     0.200 C 
HETATM    5  N2  UNL     1       2.170  67.983  68.972  1.00  0.00    -0.063 NA
HETATM    6  N3  UNL     1       2.248  68.521  66.591  1.00  0.00    -0.162 N 
ATOM      7  H3  UNL     1       2.953  69.147  66.202  1.00  0.00     0.187 HD
HETATM    8  C2  UNL     1       1.847  67.516  65.918  1.00  0.00     0.702 C 
HETATM    9  N4  UNL     1       0.859  66.632  66.454  1.00  0.00    -0.099 N 
ATOM     10  H4  UNL     1       0.866  66.409  67.449  1.00  0.00     0.213 HD
HETATM   11  N5  UNL     1       2.354  67.231  64.631  1.00  0.00    -0.216 N 
HETATM   12  C3  UNL     1       2.684  65.852  64.321  1.00  0.00     0.141 C 
HETATM   13  C4  UNL     1       4.170  65.866  63.936  1.00  0.00     0.020 C 
HETATM   14  C5  UNL     1       4.231  66.619  62.619  1.00  0.00     0.003 C 
HETATM   15  C6  UNL     1       3.902  68.070  62.920  1.00  0.00     0.020 C 
HETATM   16  C7  UNL     1       2.566  68.224  63.601  1.00  0.00     0.141 C 
ENDROOT
BRANCH   9  17
HETATM   17  O1  UNL     1      -0.088  66.088  65.651  1.00  0.00    -0.276 OA
ATOM     18  H1  UNL     1      -0.942  66.497  65.565  1.00  0.00     0.245 HD
ENDBRANCH   9  17
TORSDOF 1
ENDMDL
