MODEL 1
REMARK VINA RESULT: -7.823848494      0.000      0.000
REMARK  2 active torsions:
REMARK  status: ('A' for Active; 'I' for Inactive)
REMARK    1  A    between atoms: C3_3  and  C5_5 
REMARK       I    between atoms: C5_5  and  N1_7 
REMARK    2  A    between atoms: N1_7  and  C6_9 
ROOT
HETATM    1  C6  UNL     1     -26.875  82.588   9.662  1.00  0.00     0.146 C 
HETATM    2  C7  UNL     1     -25.709  83.094   8.890  1.00  0.00     0.036 C 
HETATM    3  C8  UNL     1     -24.975  82.017   8.132  1.00  0.00     0.003 C 
HETATM    4  C9  UNL     1     -23.999  82.556   7.158  1.00  0.00     0.000 C 
HETATM    5  C10 UNL     1     -23.087  83.611   7.663  1.00  0.00     0.000 C 
HETATM    6  C11 UNL     1     -21.767  83.045   8.206  1.00  0.00     0.000 C 
HETATM    7  C12 UNL     1     -21.970  82.660   9.628  1.00  0.00     0.001 C 
HETATM    8  C13 UNL     1     -20.775  82.801  10.504  1.00  0.00     0.010 C 
HETATM    9  C14 UNL     1     -21.007  81.913  11.732  1.00  0.00     0.073 C 
HETATM   10  S1  UNL     1     -22.204  82.597  12.860  1.00  0.00    -0.169 SA
HETATM   11  C15 UNL     1     -23.615  81.461  13.150  1.00  0.00     0.074 C 
HETATM   12  C16 UNL     1     -24.474  81.509  11.934  1.00  0.00     0.020 C 
HETATM   13  C17 UNL     1     -25.917  81.207  12.151  1.00  0.00     0.077 C 
HETATM   14  S2  UNL     1     -26.617  81.005  10.462  1.00  0.00    -0.144 SA
ENDROOT
BRANCH   1  15
HETATM   15  N1  UNL     1     -28.012  82.483   8.790  1.00  0.00    -0.344 N 
HETATM   16  C5  UNL     1     -29.327  82.484   9.314  1.00  0.00     0.247 C 
HETATM   17  O1  UNL     1     -29.551  82.577  10.554  1.00  0.00    -0.268 OA
ATOM     18  H1  UNL     1     -27.871  82.406   7.783  1.00  0.00     0.164 HD
BRANCH  16  19
HETATM   19  C3  UNL     1     -30.470  82.377   8.425  1.00  0.00     0.002 C 
HETATM   20  C2  UNL     1     -30.474  83.029   7.286  1.00  0.00    -0.019 C 
HETATM   21  C1  UNL     1     -31.628  82.935   6.366  1.00  0.00     0.036 C 
HETATM   22  C4  UNL     1     -31.613  81.543   8.804  1.00  0.00     0.054 C 
ENDBRANCH  16  19
ENDBRANCH   1  15
TORSDOF 2
ENDMDL
MODEL 2
REMARK VINA RESULT: -7.045962296      1.428      2.098
REMARK  2 active torsions:
REMARK  status: ('A' for Active; 'I' for Inactive)
REMARK    1  A    between atoms: C3_3  and  C5_5 
REMARK       I    between atoms: C5_5  and  N1_7 
REMARK    2  A    between atoms: N1_7  and  C6_9 
ROOT
HETATM    1  C6  UNL     1     -26.429  82.601   9.816  1.00  0.00     0.146 C 
HETATM    2  C7  UNL     1     -25.794  82.790   8.485  1.00  0.00     0.036 C 
HETATM    3  C8  UNL     1     -25.243  81.516   7.895  1.00  0.00     0.003 C 
HETATM    4  C9  UNL     1     -24.866  81.654   6.470  1.00  0.00     0.000 C 
HETATM    5  C10 UNL     1     -24.043  82.837   6.123  1.00  0.00     0.000 C 
HETATM    6  C11 UNL     1     -22.536  82.548   6.175  1.00  0.00     0.000 C 
HETATM    7  C12 UNL     1     -22.068  82.740   7.574  1.00  0.00     0.001 C 
HETATM    8  C13 UNL     1     -20.670  83.230   7.718  1.00  0.00     0.010 C 
HETATM    9  C14 UNL     1     -20.213  82.883   9.140  1.00  0.00     0.073 C 
HETATM   10  S1  UNL     1     -20.955  83.929  10.376  1.00  0.00    -0.169 SA
HETATM   11  C15 UNL     1     -21.887  82.969  11.631  1.00  0.00     0.074 C 
HETATM   12  C16 UNL     1     -23.157  82.528  10.991  1.00  0.00     0.020 C 
HETATM   13  C17 UNL     1     -24.304  82.308  11.918  1.00  0.00     0.077 C 
HETATM   14  S2  UNL     1     -25.577  81.456  10.901  1.00  0.00    -0.144 SA
ENDROOT
BRANCH   1  15
HETATM   15  N1  UNL     1     -27.781  82.147   9.638  1.00  0.00    -0.344 N 
HETATM   16  C5  UNL     1     -28.759  82.995   9.065  1.00  0.00     0.247 C 
HETATM   17  O1  UNL     1     -28.486  84.170   8.692  1.00  0.00    -0.268 OA
ATOM     18  H1  UNL     1     -28.038  81.203   9.927  1.00  0.00     0.164 HD
BRANCH  16  19
HETATM   19  C3  UNL     1     -30.121  82.526   8.888  1.00  0.00     0.002 C 
HETATM   20  C2  UNL     1     -30.767  82.000   9.901  1.00  0.00    -0.019 C 
HETATM   21  C1  UNL     1     -32.155  81.516   9.742  1.00  0.00     0.036 C 
HETATM   22  C4  UNL     1     -30.767  82.642   7.578  1.00  0.00     0.054 C 
ENDBRANCH  16  19
ENDBRANCH   1  15
TORSDOF 2
ENDMDL
MODEL 3
REMARK VINA RESULT: -7.018088626      4.919      6.494
REMARK  2 active torsions:
REMARK  status: ('A' for Active; 'I' for Inactive)
REMARK    1  A    between atoms: C3_3  and  C5_5 
REMARK       I    between atoms: C5_5  and  N1_7 
REMARK    2  A    between atoms: N1_7  and  C6_9 
ROOT
HETATM    1  C6  UNL     1     -27.467  85.036   5.893  1.00  0.00     0.146 C 
HETATM    2  C7  UNL     1     -27.463  85.493   4.478  1.00  0.00     0.036 C 
HETATM    3  C8  UNL     1     -26.791  84.527   3.535  1.00  0.00     0.003 C 
HETATM    4  C9  UNL     1     -27.030  84.847   2.109  1.00  0.00     0.000 C 
HETATM    5  C10 UNL     1     -26.819  86.260   1.713  1.00  0.00     0.000 C 
HETATM    6  C11 UNL     1     -25.392  86.531   1.215  1.00  0.00     0.000 C 
HETATM    7  C12 UNL     1     -24.531  86.822   2.393  1.00  0.00     0.001 C 
HETATM    8  C13 UNL     1     -23.415  87.775   2.146  1.00  0.00     0.010 C 
HETATM    9  C14 UNL     1     -22.381  87.559   3.258  1.00  0.00     0.073 C 
HETATM   10  S1  UNL     1     -22.909  88.219   4.827  1.00  0.00    -0.169 SA
HETATM   11  C15 UNL     1     -22.952  86.938   6.140  1.00  0.00     0.074 C 
HETATM   12  C16 UNL     1     -24.155  86.097   5.891  1.00  0.00     0.020 C 
HETATM   13  C17 UNL     1     -24.745  85.443   7.094  1.00  0.00     0.077 C 
HETATM   14  S2  UNL     1     -25.957  84.231   6.427  1.00  0.00    -0.144 SA
ENDROOT
BRANCH   1  15
HETATM   15  N1  UNL     1     -28.566  84.133   6.097  1.00  0.00    -0.344 N 
HETATM   16  C5  UNL     1     -29.212  84.054   7.355  1.00  0.00     0.247 C 
HETATM   17  O1  UNL     1     -28.853  84.765   8.335  1.00  0.00    -0.268 OA
ATOM     18  H1  UNL     1     -28.885  83.543   5.329  1.00  0.00     0.164 HD
BRANCH  16  19
HETATM   19  C3  UNL     1     -30.322  83.140   7.551  1.00  0.00     0.002 C 
HETATM   20  C2  UNL     1     -30.394  82.426   8.650  1.00  0.00    -0.019 C 
HETATM   21  C1  UNL     1     -31.516  81.489   8.869  1.00  0.00     0.036 C 
HETATM   22  C4  UNL     1     -31.357  83.018   6.521  1.00  0.00     0.054 C 
ENDBRANCH  16  19
ENDBRANCH   1  15
TORSDOF 2
ENDMDL
MODEL 4
REMARK VINA RESULT: -6.982486799      1.850      2.807
REMARK  2 active torsions:
REMARK  status: ('A' for Active; 'I' for Inactive)
REMARK    1  A    between atoms: C3_3  and  C5_5 
REMARK       I    between atoms: C5_5  and  N1_7 
REMARK    2  A    between atoms: N1_7  and  C6_9 
ROOT
HETATM    1  C6  UNL     1     -26.232  82.985   9.075  1.00  0.00     0.146 C 
HETATM    2  C7  UNL     1     -25.725  83.219   7.696  1.00  0.00     0.036 C 
HETATM    3  C8  UNL     1     -25.074  82.007   7.079  1.00  0.00     0.003 C 
HETATM    4  C9  UNL     1     -24.825  82.159   5.628  1.00  0.00     0.000 C 
HETATM    5  C10 UNL     1     -24.176  83.424   5.205  1.00  0.00     0.000 C 
HETATM    6  C11 UNL     1     -22.645  83.315   5.144  1.00  0.00     0.000 C 
HETATM    7  C12 UNL     1     -22.099  83.588   6.501  1.00  0.00     0.001 C 
HETATM    8  C13 UNL     1     -20.762  84.240   6.530  1.00  0.00     0.010 C 
HETATM    9  C14 UNL     1     -20.161  83.978   7.916  1.00  0.00     0.073 C 
HETATM   10  S1  UNL     1     -20.926  84.955   9.195  1.00  0.00    -0.169 SA
HETATM   11  C15 UNL     1     -21.640  83.917  10.529  1.00  0.00     0.074 C 
HETATM   12  C16 UNL     1     -22.894  83.318   9.994  1.00  0.00     0.020 C 
HETATM   13  C17 UNL     1     -23.934  82.984  11.008  1.00  0.00     0.077 C 
HETATM   14  S2  UNL     1     -25.170  81.968  10.102  1.00  0.00    -0.144 SA
ENDROOT
BRANCH   1  15
HETATM   15  N1  UNL     1     -27.529  82.372   9.006  1.00  0.00    -0.344 N 
HETATM   16  C5  UNL     1     -28.676  83.141   8.695  1.00  0.00     0.247 C 
HETATM   17  O1  UNL     1     -28.606  84.381   8.467  1.00  0.00    -0.268 OA
ATOM     18  H1  UNL     1     -27.625  81.372   9.184  1.00  0.00     0.164 HD
BRANCH  16  19
HETATM   19  C3  UNL     1     -29.983  82.512   8.627  1.00  0.00     0.002 C 
HETATM   20  C2  UNL     1     -30.392  81.750   9.613  1.00  0.00    -0.019 C 
HETATM   21  C1  UNL     1     -31.720  81.100   9.564  1.00  0.00     0.036 C 
HETATM   22  C4  UNL     1     -30.837  82.732   7.458  1.00  0.00     0.054 C 
ENDBRANCH  16  19
ENDBRANCH   1  15
TORSDOF 2
ENDMDL
MODEL 5
REMARK VINA RESULT: -6.970817570      2.853      4.076
REMARK  2 active torsions:
REMARK  status: ('A' for Active; 'I' for Inactive)
REMARK    1  A    between atoms: C3_3  and  C5_5 
REMARK       I    between atoms: C5_5  and  N1_7 
REMARK    2  A    between atoms: N1_7  and  C6_9 
ROOT
HETATM    1  C6  UNL     1     -26.527  83.813   8.051  1.00  0.00     0.146 C 
HETATM    2  C7  UNL     1     -26.293  84.957   7.130  1.00  0.00     0.036 C 
HETATM    3  C8  UNL     1     -25.971  84.538   5.718  1.00  0.00     0.003 C 
HETATM    4  C9  UNL     1     -26.012  85.662   4.756  1.00  0.00     0.000 C 
HETATM    5  C10 UNL     1     -25.289  86.893   5.157  1.00  0.00     0.000 C 
HETATM    6  C11 UNL     1     -23.838  86.920   4.654  1.00  0.00     0.000 C 
HETATM    7  C12 UNL     1     -22.986  86.200   5.638  1.00  0.00     0.001 C 
HETATM    8  C13 UNL     1     -21.591  86.706   5.763  1.00  0.00     0.010 C 
HETATM    9  C14 UNL     1     -20.757  85.582   6.390  1.00  0.00     0.073 C 
HETATM   10  S1  UNL     1     -21.085  85.370   8.128  1.00  0.00    -0.169 SA
HETATM   11  C15 UNL     1     -21.647  83.669   8.527  1.00  0.00     0.074 C 
HETATM   12  C16 UNL     1     -23.059  83.555   8.068  1.00  0.00     0.020 C 
HETATM   13  C17 UNL     1     -23.900  82.570   8.805  1.00  0.00     0.077 C 
HETATM   14  S2  UNL     1     -25.434  82.414   7.803  1.00  0.00    -0.144 SA
ENDROOT
BRANCH   1  15
HETATM   15  N1  UNL     1     -27.886  83.365   7.916  1.00  0.00    -0.344 N 
HETATM   16  C5  UNL     1     -28.584  82.830   9.025  1.00  0.00     0.247 C 
HETATM   17  O1  UNL     1     -28.048  82.728  10.164  1.00  0.00    -0.268 OA
ATOM     18  H1  UNL     1     -28.352  83.433   7.011  1.00  0.00     0.164 HD
BRANCH  16  19
HETATM   19  C3  UNL     1     -29.956  82.381   8.879  1.00  0.00     0.002 C 
HETATM   20  C2  UNL     1     -30.547  81.755   9.869  1.00  0.00    -0.019 C 
HETATM   21  C1  UNL     1     -31.945  81.289   9.740  1.00  0.00     0.036 C 
HETATM   22  C4  UNL     1     -30.674  82.628   7.626  1.00  0.00     0.054 C 
ENDBRANCH  16  19
ENDBRANCH   1  15
TORSDOF 2
ENDMDL
