MODEL 1
REMARK VINA RESULT: -6.364505783      0.000      0.000
REMARK  4 active torsions:
REMARK  status: ('A' for Active; 'I' for Inactive)
REMARK    1  A    between atoms: C2_2  and  O2_4 
REMARK    2  A    between atoms: O2_4  and  C3_5 
REMARK    3  A    between atoms: C3_5  and  C4_6 
REMARK    4  A    between atoms: C19_21  and  O3_23 
ROOT
HETATM    1  C4  UNL     1     -21.652  84.950  12.220  1.00  0.00    -0.018 C 
HETATM    2  C5  UNL     1     -20.428  84.119  11.794  1.00  0.00     0.018 C 
HETATM    3  C6  UNL     1     -22.842  84.232  11.675  1.00  0.00     0.012 C 
HETATM    4  C7  UNL     1     -23.185  84.782  10.328  1.00  0.00     0.002 C 
HETATM    5  C8  UNL     1     -23.621  86.198  10.474  1.00  0.00     0.010 C 
HETATM    6  C9  UNL     1     -22.771  87.035  11.366  1.00  0.00    -0.035 C 
HETATM    7  C10 UNL     1     -23.614  87.343  12.619  1.00  0.00     0.016 C 
HETATM    8  C11 UNL     1     -21.522  86.373  11.852  1.00  0.00     0.004 C 
HETATM    9  C12 UNL     1     -20.343  86.543  10.924  1.00  0.00     0.007 C 
HETATM   10  C13 UNL     1     -20.120  87.991  10.551  1.00  0.00     0.013 C 
HETATM   11  C14 UNL     1     -21.364  88.456   9.830  1.00  0.00    -0.009 C 
HETATM   12  C15 UNL     1     -21.522  87.867   8.478  1.00  0.00     0.019 C 
HETATM   13  C16 UNL     1     -22.518  88.358  10.734  1.00  0.00     0.005 C 
HETATM   14  C17 UNL     1     -22.232  89.452  11.767  1.00  0.00     0.009 C 
HETATM   15  C18 UNL     1     -21.636  90.585  10.931  1.00  0.00     0.038 C 
HETATM   16  C19 UNL     1     -21.175  89.967   9.654  1.00  0.00     0.062 C 
HETATM   17  C20 UNL     1     -21.911  90.474   8.446  1.00  0.00     0.046 C 
ENDROOT
BRANCH   1  18
HETATM   18  C3  UNL     1     -21.701  84.778  13.747  1.00  0.00     0.188 C 
BRANCH  18  19
HETATM   19  O2  UNL     1     -22.236  83.508  14.078  1.00  0.00    -0.321 OA
BRANCH  19  20
HETATM   20  C2  UNL     1     -22.942  83.369  15.265  1.00  0.00     0.254 C 
HETATM   21  C1  UNL     1     -24.088  84.287  15.569  1.00  0.00     0.126 C 
HETATM   22  O1  UNL     1     -22.630  82.465  16.107  1.00  0.00    -0.266 OA
ENDBRANCH  19  20
ENDBRANCH  18  19
ENDBRANCH   1  18
BRANCH  16  23
HETATM   23  O3  UNL     1     -19.811  90.208   9.455  1.00  0.00    -0.389 OA
ATOM     24  H3  UNL     1     -19.581  90.992   9.939  1.00  0.00     0.210 HD
ENDBRANCH  16  23
TORSDOF 4
ENDMDL
MODEL 2
REMARK VINA RESULT: -6.270861011      2.866      4.975
REMARK  4 active torsions:
REMARK  status: ('A' for Active; 'I' for Inactive)
REMARK    1  A    between atoms: C2_2  and  O2_4 
REMARK    2  A    between atoms: O2_4  and  C3_5 
REMARK    3  A    between atoms: C3_5  and  C4_6 
REMARK    4  A    between atoms: C19_21  and  O3_23 
ROOT
HETATM    1  C4  UNL     1     -21.941  88.312  10.833  1.00  0.00    -0.018 C 
HETATM    2  C5  UNL     1     -23.064  88.717  11.804  1.00  0.00     0.018 C 
HETATM    3  C6  UNL     1     -20.744  89.107  11.239  1.00  0.00     0.012 C 
HETATM    4  C7  UNL     1     -20.697  90.377  10.452  1.00  0.00     0.002 C 
HETATM    5  C8  UNL     1     -20.477  90.056   9.015  1.00  0.00     0.010 C 
HETATM    6  C9  UNL     1     -21.310  88.942   8.480  1.00  0.00    -0.035 C 
HETATM    7  C10 UNL     1     -20.353  87.767   8.203  1.00  0.00     0.016 C 
HETATM    8  C11 UNL     1     -22.351  88.424   9.420  1.00  0.00     0.004 C 
HETATM    9  C12 UNL     1     -23.666  89.162   9.338  1.00  0.00     0.007 C 
HETATM   10  C13 UNL     1     -24.171  89.264   7.917  1.00  0.00     0.013 C 
HETATM   11  C14 UNL     1     -23.139  90.044   7.137  1.00  0.00    -0.009 C 
HETATM   12  C15 UNL     1     -23.088  91.484   7.493  1.00  0.00     0.019 C 
HETATM   13  C16 UNL     1     -21.863  89.314   7.150  1.00  0.00     0.005 C 
HETATM   14  C17 UNL     1     -22.167  88.090   6.282  1.00  0.00     0.009 C 
HETATM   15  C18 UNL     1     -23.053  88.651   5.171  1.00  0.00     0.038 C 
HETATM   16  C19 UNL     1     -23.592  89.947   5.677  1.00  0.00     0.062 C 
HETATM   17  C20 UNL     1     -23.133  91.135   4.880  1.00  0.00     0.046 C 
ENDROOT
BRANCH   1  18
HETATM   18  C3  UNL     1     -21.640  86.851  11.205  1.00  0.00     0.188 C 
BRANCH  18  19
HETATM   19  O2  UNL     1     -20.304  86.728  11.659  1.00  0.00    -0.321 OA
BRANCH  19  20
HETATM   20  C2  UNL     1     -19.641  85.523  11.468  1.00  0.00     0.254 C 
HETATM   21  C1  UNL     1     -19.966  84.667  10.282  1.00  0.00     0.126 C 
HETATM   22  O1  UNL     1     -18.752  85.131  12.292  1.00  0.00    -0.266 OA
ENDBRANCH  19  20
ENDBRANCH  18  19
ENDBRANCH   1  18
BRANCH  16  23
HETATM   23  O3  UNL     1     -24.991  89.938   5.662  1.00  0.00    -0.389 OA
ATOM     24  H3  UNL     1     -25.290  90.804   5.914  1.00  0.00     0.210 HD
ENDBRANCH  16  23
TORSDOF 4
ENDMDL
MODEL 3
REMARK VINA RESULT: -6.220140982      2.086      3.082
REMARK  4 active torsions:
REMARK  status: ('A' for Active; 'I' for Inactive)
REMARK    1  A    between atoms: C2_2  and  O2_4 
REMARK    2  A    between atoms: O2_4  and  C3_5 
REMARK    3  A    between atoms: C3_5  and  C4_6 
REMARK    4  A    between atoms: C19_21  and  O3_23 
ROOT
HETATM    1  C4  UNL     1     -22.473  83.656  12.178  1.00  0.00    -0.018 C 
HETATM    2  C5  UNL     1     -22.191  83.797  13.684  1.00  0.00     0.018 C 
HETATM    3  C6  UNL     1     -21.263  83.004  11.595  1.00  0.00     0.012 C 
HETATM    4  C7  UNL     1     -20.310  84.052  11.118  1.00  0.00     0.002 C 
HETATM    5  C8  UNL     1     -20.928  84.798   9.988  1.00  0.00     0.010 C 
HETATM    6  C9  UNL     1     -22.349  85.197  10.192  1.00  0.00    -0.035 C 
HETATM    7  C10 UNL     1     -23.192  84.349   9.221  1.00  0.00     0.016 C 
HETATM    8  C11 UNL     1     -22.888  84.931  11.561  1.00  0.00     0.004 C 
HETATM    9  C12 UNL     1     -22.653  86.058  12.538  1.00  0.00     0.007 C 
HETATM   10  C13 UNL     1     -23.110  87.390  11.987  1.00  0.00     0.013 C 
HETATM   11  C14 UNL     1     -22.291  87.658  10.746  1.00  0.00    -0.009 C 
HETATM   12  C15 UNL     1     -20.870  87.974  11.029  1.00  0.00     0.019 C 
HETATM   13  C16 UNL     1     -22.550  86.604   9.754  1.00  0.00     0.005 C 
HETATM   14  C17 UNL     1     -23.997  86.883   9.336  1.00  0.00     0.009 C 
HETATM   15  C18 UNL     1     -24.071  88.410   9.302  1.00  0.00     0.038 C 
HETATM   16  C19 UNL     1     -22.924  88.904  10.118  1.00  0.00     0.062 C 
HETATM   17  C20 UNL     1     -21.919  89.686   9.320  1.00  0.00     0.046 C 
ENDROOT
BRANCH   1  18
HETATM   18  C3  UNL     1     -23.604  82.617  12.109  1.00  0.00     0.188 C 
BRANCH  18  19
HETATM   19  O2  UNL     1     -24.547  82.853  13.139  1.00  0.00    -0.321 OA
BRANCH  19  20
HETATM   20  C2  UNL     1     -25.554  81.922  13.350  1.00  0.00     0.254 C 
HETATM   21  C1  UNL     1     -25.363  80.820  14.348  1.00  0.00     0.126 C 
HETATM   22  O1  UNL     1     -26.650  81.989  12.703  1.00  0.00    -0.266 OA
ENDBRANCH  19  20
ENDBRANCH  18  19
ENDBRANCH   1  18
BRANCH  16  23
HETATM   23  O3  UNL     1     -23.376  89.725  11.157  1.00  0.00    -0.389 OA
ATOM     24  H3  UNL     1     -24.323  89.775  11.097  1.00  0.00     0.210 HD
ENDBRANCH  16  23
TORSDOF 4
ENDMDL
MODEL 4
REMARK VINA RESULT: -6.191044988      2.631      3.956
REMARK  4 active torsions:
REMARK  status: ('A' for Active; 'I' for Inactive)
REMARK    1  A    between atoms: C2_2  and  O2_4 
REMARK    2  A    between atoms: O2_4  and  C3_5 
REMARK    3  A    between atoms: C3_5  and  C4_6 
REMARK    4  A    between atoms: C19_21  and  O3_23 
ROOT
HETATM    1  C4  UNL     1     -22.871  82.412  12.642  1.00  0.00    -0.018 C 
HETATM    2  C5  UNL     1     -22.609  82.617  14.144  1.00  0.00     0.018 C 
HETATM    3  C6  UNL     1     -21.717  81.614  12.131  1.00  0.00     0.012 C 
HETATM    4  C7  UNL     1     -20.659  82.537  11.618  1.00  0.00     0.002 C 
HETATM    5  C8  UNL     1     -21.179  83.267  10.430  1.00  0.00     0.010 C 
HETATM    6  C9  UNL     1     -22.560  83.809  10.573  1.00  0.00    -0.035 C 
HETATM    7  C10 UNL     1     -23.459  82.986   9.632  1.00  0.00     0.016 C 
HETATM    8  C11 UNL     1     -23.150  83.679  11.940  1.00  0.00     0.004 C 
HETATM    9  C12 UNL     1     -22.829  84.837  12.855  1.00  0.00     0.007 C 
HETATM   10  C13 UNL     1     -23.146  86.170  12.214  1.00  0.00     0.013 C 
HETATM   11  C14 UNL     1     -22.279  86.283  10.982  1.00  0.00    -0.009 C 
HETATM   12  C15 UNL     1     -20.841  86.481  11.283  1.00  0.00     0.019 C 
HETATM   13  C16 UNL     1     -22.617  85.200  10.047  1.00  0.00     0.005 C 
HETATM   14  C17 UNL     1     -24.022  85.587   9.575  1.00  0.00     0.009 C 
HETATM   15  C18 UNL     1     -23.949  87.109   9.450  1.00  0.00     0.038 C 
HETATM   16  C19 UNL     1     -22.777  87.542  10.265  1.00  0.00     0.062 C 
HETATM   17  C20 UNL     1     -21.686  88.176   9.449  1.00  0.00     0.046 C 
ENDROOT
BRANCH   1  18
HETATM   18  C3  UNL     1     -24.094  81.480  12.605  1.00  0.00     0.188 C 
BRANCH  18  19
HETATM   19  O2  UNL     1     -25.287  82.235  12.728  1.00  0.00    -0.321 OA
BRANCH  19  20
HETATM   20  C2  UNL     1     -26.506  81.587  12.590  1.00  0.00     0.254 C 
HETATM   21  C1  UNL     1     -26.696  80.215  13.162  1.00  0.00     0.126 C 
HETATM   22  O1  UNL     1     -27.476  82.145  11.979  1.00  0.00    -0.266 OA
ENDBRANCH  19  20
ENDBRANCH  18  19
ENDBRANCH   1  18
BRANCH  16  23
HETATM   23  O3  UNL     1     -23.171  88.464  11.241  1.00  0.00    -0.389 OA
ATOM     24  H3  UNL     1     -23.860  89.003  10.871  1.00  0.00     0.210 HD
ENDBRANCH  16  23
TORSDOF 4
ENDMDL
MODEL 5
REMARK VINA RESULT: -6.065987870      2.652      6.608
REMARK  4 active torsions:
REMARK  status: ('A' for Active; 'I' for Inactive)
REMARK    1  A    between atoms: C2_2  and  O2_4 
REMARK    2  A    between atoms: O2_4  and  C3_5 
REMARK    3  A    between atoms: C3_5  and  C4_6 
REMARK    4  A    between atoms: C19_21  and  O3_23 
ROOT
HETATM    1  C4  UNL     1     -19.825  83.362   8.569  1.00  0.00    -0.018 C 
HETATM    2  C5  UNL     1     -20.493  82.385   7.585  1.00  0.00     0.018 C 
HETATM    3  C6  UNL     1     -18.506  82.754   8.914  1.00  0.00     0.012 C 
HETATM    4  C7  UNL     1     -18.647  81.919  10.147  1.00  0.00     0.002 C 
HETATM    5  C8  UNL     1     -18.979  82.801  11.299  1.00  0.00     0.010 C 
HETATM    6  C9  UNL     1     -20.029  83.824  11.033  1.00  0.00    -0.035 C 
HETATM    7  C10 UNL     1     -19.326  85.194  11.044  1.00  0.00     0.016 C 
HETATM    8  C11 UNL     1     -20.702  83.707   9.703  1.00  0.00     0.004 C 
HETATM    9  C12 UNL     1     -21.900  82.787   9.706  1.00  0.00     0.007 C 
HETATM   10  C13 UNL     1     -22.870  83.124  10.816  1.00  0.00     0.013 C 
HETATM   11  C14 UNL     1     -22.129  82.942  12.119  1.00  0.00    -0.009 C 
HETATM   12  C15 UNL     1     -21.847  81.524  12.450  1.00  0.00     0.019 C 
HETATM   13  C16 UNL     1     -20.991  83.872  12.167  1.00  0.00     0.005 C 
HETATM   14  C17 UNL     1     -21.676  85.236  12.293  1.00  0.00     0.009 C 
HETATM   15  C18 UNL     1     -22.856  84.959  13.224  1.00  0.00     0.038 C 
HETATM   16  C19 UNL     1     -23.080  83.485  13.192  1.00  0.00     0.062 C 
HETATM   17  C20 UNL     1     -22.848  82.817  14.518  1.00  0.00     0.046 C 
ENDROOT
BRANCH   1  18
HETATM   18  C3  UNL     1     -19.522  84.601   7.709  1.00  0.00     0.188 C 
BRANCH  18  19
HETATM   19  O2  UNL     1     -20.620  85.494   7.737  1.00  0.00    -0.321 OA
BRANCH  19  20
HETATM   20  C2  UNL     1     -20.379  86.855   7.605  1.00  0.00     0.254 C 
HETATM   21  C1  UNL     1     -20.721  87.790   8.725  1.00  0.00     0.126 C 
HETATM   22  O1  UNL     1     -19.866  87.326   6.538  1.00  0.00    -0.266 OA
ENDBRANCH  19  20
ENDBRANCH  18  19
ENDBRANCH   1  18
BRANCH  16  23
HETATM   23  O3  UNL     1     -24.388  83.194  12.791  1.00  0.00    -0.389 OA
ATOM     24  H3  UNL     1     -24.458  82.251  12.688  1.00  0.00     0.210 HD
ENDBRANCH  16  23
TORSDOF 4
ENDMDL
