MODEL 1
REMARK VINA RESULT: -7.956300886      0.000      0.000
REMARK  4 active torsions:
REMARK  status: ('A' for Active; 'I' for Inactive)
REMARK    1  A    between atoms: C2_2  and  C3_3 
REMARK    2  A    between atoms: C10_10  and  O1_12 
REMARK    3  A    between atoms: C17_19  and  O2_20 
REMARK    4  A    between atoms: O2_20  and  C18_21 
ROOT
HETATM    1  C3  UNL     1     -25.408  82.673   9.529  1.00  0.00    -0.040 C 
HETATM    2  C4  UNL     1     -25.118  84.069   8.953  1.00  0.00     0.015 C 
HETATM    3  C5  UNL     1     -24.528  82.538  10.746  1.00  0.00     0.017 C 
HETATM    4  C6  UNL     1     -24.967  81.345  11.503  1.00  0.00     0.025 C 
HETATM    5  C7  UNL     1     -26.402  81.494  11.892  1.00  0.00     0.001 C 
HETATM    6  C8  UNL     1     -26.633  80.349  12.810  1.00  0.00     0.009 C 
HETATM    7  C9  UNL     1     -25.243  80.031  13.384  1.00  0.00     0.038 C 
HETATM    8  C10 UNL     1     -24.350  81.177  12.870  1.00  0.00     0.058 C 
HETATM    9  C11 UNL     1     -24.586  82.330  13.789  1.00  0.00     0.046 C 
HETATM   10  C12 UNL     1     -27.348  81.535  10.706  1.00  0.00    -0.035 C 
HETATM   11  C13 UNL     1     -27.368  80.183  10.091  1.00  0.00     0.016 C 
HETATM   12  C14 UNL     1     -28.691  81.886  11.310  1.00  0.00     0.010 C 
HETATM   13  C15 UNL     1     -29.866  81.536  10.487  1.00  0.00     0.003 C 
HETATM   14  C16 UNL     1     -29.853  81.923   9.058  1.00  0.00     0.032 C 
HETATM   15  C17 UNL     1     -29.089  83.194   8.873  1.00  0.00     0.132 C 
HETATM   16  C20 UNL     1     -27.644  82.787   8.552  1.00  0.00     0.038 C 
HETATM   17  C21 UNL     1     -26.856  82.641   9.830  1.00  0.00     0.005 C 
ENDROOT
BRANCH  15  18
HETATM   18  O2  UNL     1     -29.642  83.958   7.818  1.00  0.00    -0.316 OA
BRANCH  18  19
HETATM   19  C18 UNL     1     -30.987  83.828   7.481  1.00  0.00     0.255 C 
HETATM   20  C19 UNL     1     -31.451  83.057   6.297  1.00  0.00     0.126 C 
HETATM   21  O3  UNL     1     -31.813  84.411   8.249  1.00  0.00    -0.266 OA
ENDBRANCH  18  19
ENDBRANCH  15  18
BRANCH   1  22
HETATM   22  C2  UNL     1     -24.973  81.698   8.464  1.00  0.00     0.005 C 
HETATM   23  C1  UNL     1     -24.216  82.399   7.354  1.00  0.00     0.006 C 
ENDBRANCH   1  22
BRANCH   8  24
HETATM   24  O1  UNL     1     -23.022  80.782  12.818  1.00  0.00    -0.390 OA
ATOM     25  H1  UNL     1     -22.567  80.905  13.643  1.00  0.00     0.210 HD
ENDBRANCH   8  24
TORSDOF 4
ENDMDL
MODEL 2
REMARK VINA RESULT: -7.009365193      3.136      5.262
REMARK  4 active torsions:
REMARK  status: ('A' for Active; 'I' for Inactive)
REMARK    1  A    between atoms: C2_2  and  C3_3 
REMARK    2  A    between atoms: C10_10  and  O1_12 
REMARK    3  A    between atoms: C17_19  and  O2_20 
REMARK    4  A    between atoms: O2_20  and  C18_21 
ROOT
HETATM    1  C3  UNL     1     -29.376  83.330   7.827  1.00  0.00    -0.040 C 
HETATM    2  C4  UNL     1     -30.628  82.682   7.214  1.00  0.00     0.015 C 
HETATM    3  C5  UNL     1     -28.993  82.461   8.998  1.00  0.00     0.017 C 
HETATM    4  C6  UNL     1     -27.643  82.864   9.449  1.00  0.00     0.025 C 
HETATM    5  C7  UNL     1     -26.668  82.712   8.326  1.00  0.00     0.001 C 
HETATM    6  C8  UNL     1     -25.352  82.938   8.976  1.00  0.00     0.009 C 
HETATM    7  C9  UNL     1     -25.580  82.560  10.448  1.00  0.00     0.038 C 
HETATM    8  C10 UNL     1     -26.998  81.956  10.468  1.00  0.00     0.058 C 
HETATM    9  C11 UNL     1     -26.851  80.541  10.014  1.00  0.00     0.046 C 
HETATM   10  C12 UNL     1     -26.948  83.637   7.156  1.00  0.00    -0.035 C 
HETATM   11  C13 UNL     1     -26.651  85.027   7.592  1.00  0.00     0.016 C 
HETATM   12  C14 UNL     1     -25.986  83.181   6.080  1.00  0.00     0.010 C 
HETATM   13  C15 UNL     1     -25.700  84.173   5.024  1.00  0.00     0.003 C 
HETATM   14  C16 UNL     1     -26.845  84.870   4.397  1.00  0.00     0.032 C 
HETATM   15  C17 UNL     1     -28.038  83.971   4.356  1.00  0.00     0.132 C 
HETATM   16  C20 UNL     1     -28.841  84.260   5.632  1.00  0.00     0.038 C 
HETATM   17  C21 UNL     1     -28.360  83.370   6.752  1.00  0.00     0.005 C 
ENDROOT
BRANCH  15  18
HETATM   18  O2  UNL     1     -28.816  84.231   3.203  1.00  0.00    -0.316 OA
BRANCH  18  19
HETATM   19  C18 UNL     1     -28.665  83.453   2.058  1.00  0.00     0.255 C 
HETATM   20  C19 UNL     1     -27.783  82.257   2.006  1.00  0.00     0.126 C 
HETATM   21  O3  UNL     1     -29.331  83.823   1.041  1.00  0.00    -0.266 OA
ENDBRANCH  18  19
ENDBRANCH  15  18
BRANCH   1  22
HETATM   22  C2  UNL     1     -29.820  84.687   8.313  1.00  0.00     0.005 C 
HETATM   23  C1  UNL     1     -31.326  84.836   8.227  1.00  0.00     0.006 C 
ENDBRANCH   1  22
BRANCH   8  24
HETATM   24  O1  UNL     1     -27.565  82.070  11.728  1.00  0.00    -0.390 OA
ATOM     25  H1  UNL     1     -28.296  81.478  11.860  1.00  0.00     0.210 HD
ENDBRANCH   8  24
TORSDOF 4
ENDMDL
MODEL 3
REMARK VINA RESULT: -6.840278837      2.458      4.083
REMARK  4 active torsions:
REMARK  status: ('A' for Active; 'I' for Inactive)
REMARK    1  A    between atoms: C2_2  and  C3_3 
REMARK    2  A    between atoms: C10_10  and  O1_12 
REMARK    3  A    between atoms: C17_19  and  O2_20 
REMARK    4  A    between atoms: O2_20  and  C18_21 
ROOT
HETATM    1  C3  UNL     1     -22.901  83.695  11.864  1.00  0.00    -0.040 C 
HETATM    2  C4  UNL     1     -22.998  84.825  10.826  1.00  0.00     0.015 C 
HETATM    3  C5  UNL     1     -22.629  84.371  13.184  1.00  0.00     0.017 C 
HETATM    4  C6  UNL     1     -22.811  83.371  14.259  1.00  0.00     0.025 C 
HETATM    5  C7  UNL     1     -24.201  82.824  14.212  1.00  0.00     0.001 C 
HETATM    6  C8  UNL     1     -24.299  82.016  15.454  1.00  0.00     0.009 C 
HETATM    7  C9  UNL     1     -23.273  82.651  16.407  1.00  0.00     0.038 C 
HETATM    8  C10 UNL     1     -22.803  83.918  15.666  1.00  0.00     0.058 C 
HETATM    9  C11 UNL     1     -23.845  84.957  15.920  1.00  0.00     0.046 C 
HETATM   10  C12 UNL     1     -24.499  82.046  12.943  1.00  0.00    -0.035 C 
HETATM   11  C13 UNL     1     -23.710  80.788  12.982  1.00  0.00     0.016 C 
HETATM   12  C14 UNL     1     -25.986  81.766  13.017  1.00  0.00     0.010 C 
HETATM   13  C15 UNL     1     -26.461  80.644  12.182  1.00  0.00     0.003 C 
HETATM   14  C16 UNL     1     -26.020  80.594  10.770  1.00  0.00     0.032 C 
HETATM   15  C17 UNL     1     -25.842  81.978  10.235  1.00  0.00     0.132 C 
HETATM   16  C20 UNL     1     -24.365  82.339  10.455  1.00  0.00     0.038 C 
HETATM   17  C21 UNL     1     -24.191  82.973  11.814  1.00  0.00     0.005 C 
ENDROOT
BRANCH  15  18
HETATM   18  O2  UNL     1     -26.170  82.025   8.859  1.00  0.00    -0.316 OA
BRANCH  18  19
HETATM   19  C18 UNL     1     -27.183  82.864   8.402  1.00  0.00     0.255 C 
HETATM   20  C19 UNL     1     -28.546  82.879   8.995  1.00  0.00     0.126 C 
HETATM   21  O3  UNL     1     -26.878  83.631   7.437  1.00  0.00    -0.266 OA
ENDBRANCH  18  19
ENDBRANCH  15  18
BRANCH   1  22
HETATM   22  C2  UNL     1     -21.710  82.869  11.450  1.00  0.00     0.005 C 
HETATM   23  C1  UNL     1     -20.454  83.713  11.376  1.00  0.00     0.006 C 
ENDBRANCH   1  22
BRANCH   8  24
HETATM   24  O1  UNL     1     -21.538  84.296  16.091  1.00  0.00    -0.390 OA
ATOM     25  H1  UNL     1     -21.446  85.237  16.186  1.00  0.00     0.210 HD
ENDBRANCH   8  24
TORSDOF 4
ENDMDL
MODEL 4
REMARK VINA RESULT: -6.798555534      1.661      6.547
REMARK  4 active torsions:
REMARK  status: ('A' for Active; 'I' for Inactive)
REMARK    1  A    between atoms: C2_2  and  C3_3 
REMARK    2  A    between atoms: C10_10  and  O1_12 
REMARK    3  A    between atoms: C17_19  and  O2_20 
REMARK    4  A    between atoms: O2_20  and  C18_21 
ROOT
HETATM    1  C3  UNL     1     -27.043  81.796  10.269  1.00  0.00    -0.040 C 
HETATM    2  C4  UNL     1     -27.113  81.701  11.801  1.00  0.00     0.015 C 
HETATM    3  C5  UNL     1     -28.418  82.219   9.818  1.00  0.00     0.017 C 
HETATM    4  C6  UNL     1     -28.338  82.605   8.392  1.00  0.00     0.025 C 
HETATM    5  C7  UNL     1     -27.353  83.716   8.224  1.00  0.00     0.001 C 
HETATM    6  C8  UNL     1     -27.539  84.134   6.811  1.00  0.00     0.009 C 
HETATM    7  C9  UNL     1     -28.983  83.727   6.477  1.00  0.00     0.038 C 
HETATM    8  C10 UNL     1     -29.569  83.270   7.827  1.00  0.00     0.058 C 
HETATM    9  C11 UNL     1     -29.970  84.516   8.546  1.00  0.00     0.046 C 
HETATM   10  C12 UNL     1     -25.930  83.318   8.569  1.00  0.00    -0.035 C 
HETATM   11  C13 UNL     1     -25.456  82.370   7.528  1.00  0.00     0.016 C 
HETATM   12  C14 UNL     1     -25.156  84.618   8.524  1.00  0.00     0.010 C 
HETATM   13  C15 UNL     1     -23.696  84.480   8.351  1.00  0.00     0.003 C 
HETATM   14  C16 UNL     1     -22.983  83.513   9.215  1.00  0.00     0.032 C 
HETATM   15  C17 UNL     1     -23.648  83.423  10.550  1.00  0.00     0.132 C 
HETATM   16  C20 UNL     1     -24.653  82.266  10.455  1.00  0.00     0.038 C 
HETATM   17  C21 UNL     1     -25.982  82.782   9.962  1.00  0.00     0.005 C 
ENDROOT
BRANCH  15  18
HETATM   18  O2  UNL     1     -22.693  83.178  11.566  1.00  0.00    -0.316 OA
BRANCH  18  19
HETATM   19  C18 UNL     1     -23.038  83.314  12.907  1.00  0.00     0.255 C 
HETATM   20  C19 UNL     1     -22.619  82.341  13.950  1.00  0.00     0.126 C 
HETATM   21  O3  UNL     1     -23.742  84.329  13.202  1.00  0.00    -0.266 OA
ENDBRANCH  18  19
ENDBRANCH  15  18
BRANCH   1  22
HETATM   22  C2  UNL     1     -26.748  80.397   9.790  1.00  0.00     0.005 C 
HETATM   23  C1  UNL     1     -26.743  79.412  10.941  1.00  0.00     0.006 C 
ENDBRANCH   1  22
BRANCH   8  24
HETATM   24  O1  UNL     1     -30.620  82.387   7.635  1.00  0.00    -0.390 OA
ATOM     25  H1  UNL     1     -31.465  82.766   7.847  1.00  0.00     0.210 HD
ENDBRANCH   8  24
TORSDOF 4
ENDMDL
MODEL 5
REMARK VINA RESULT: -6.716119564      1.352      1.694
REMARK  4 active torsions:
REMARK  status: ('A' for Active; 'I' for Inactive)
REMARK    1  A    between atoms: C2_2  and  C3_3 
REMARK    2  A    between atoms: C10_10  and  O1_12 
REMARK    3  A    between atoms: C17_19  and  O2_20 
REMARK    4  A    between atoms: O2_20  and  C18_21 
ROOT
HETATM    1  C3  UNL     1     -25.204  83.082   8.916  1.00  0.00    -0.040 C 
HETATM    2  C4  UNL     1     -25.483  84.429   8.229  1.00  0.00     0.015 C 
HETATM    3  C5  UNL     1     -23.987  83.302   9.778  1.00  0.00     0.017 C 
HETATM    4  C6  UNL     1     -23.842  82.136  10.678  1.00  0.00     0.025 C 
HETATM    5  C7  UNL     1     -25.072  81.986  11.514  1.00  0.00     0.001 C 
HETATM    6  C8  UNL     1     -24.699  80.936  12.495  1.00  0.00     0.009 C 
HETATM    7  C9  UNL     1     -23.167  81.025  12.589  1.00  0.00     0.038 C 
HETATM    8  C10 UNL     1     -22.811  82.280  11.770  1.00  0.00     0.058 C 
HETATM    9  C11 UNL     1     -23.043  83.445  12.676  1.00  0.00     0.046 C 
HETATM   10  C12 UNL     1     -26.315  81.664  10.704  1.00  0.00    -0.035 C 
HETATM   11  C13 UNL     1     -26.170  80.282  10.176  1.00  0.00     0.016 C 
HETATM   12  C14 UNL     1     -27.447  81.755  11.705  1.00  0.00     0.010 C 
HETATM   13  C15 UNL     1     -28.685  81.043  11.327  1.00  0.00     0.003 C 
HETATM   14  C16 UNL     1     -29.217  81.252   9.962  1.00  0.00     0.032 C 
HETATM   15  C17 UNL     1     -28.908  82.637   9.493  1.00  0.00     0.132 C 
HETATM   16  C20 UNL     1     -27.580  82.548   8.727  1.00  0.00     0.038 C 
HETATM   17  C21 UNL     1     -26.426  82.743   9.679  1.00  0.00     0.005 C 
ENDROOT
BRANCH  15  18
HETATM   18  O2  UNL     1     -29.941  83.119   8.653  1.00  0.00    -0.316 OA
BRANCH  18  19
HETATM   19  C18 UNL     1     -31.195  82.515   8.658  1.00  0.00     0.255 C 
HETATM   20  C19 UNL     1     -31.995  82.325   9.896  1.00  0.00     0.126 C 
HETATM   21  O3  UNL     1     -31.630  82.126   7.530  1.00  0.00    -0.266 OA
ENDBRANCH  18  19
ENDBRANCH  15  18
BRANCH   1  22
HETATM   22  C2  UNL     1     -24.881  82.119   7.801  1.00  0.00     0.005 C 
HETATM   23  C1  UNL     1     -23.681  82.586   7.003  1.00  0.00     0.006 C 
ENDBRANCH   1  22
BRANCH   8  24
HETATM   24  O1  UNL     1     -21.509  82.207  11.297  1.00  0.00    -0.390 OA
ATOM     25  H1  UNL     1     -20.867  82.494  11.935  1.00  0.00     0.210 HD
ENDBRANCH   8  24
TORSDOF 4
ENDMDL
