MODEL 1
REMARK VINA RESULT: -6.946806976      0.000      0.000
REMARK  7 active torsions:
REMARK  status: ('A' for Active; 'I' for Inactive)
REMARK    1  A    between atoms: C2_2  and  O1_3 
REMARK    2  A    between atoms: O1_3  and  C3_4 
REMARK       I    between atoms: C3_4  and  N1_6 
REMARK    3  A    between atoms: N1_6  and  C4_7 
REMARK    4  A    between atoms: N1_6  and  N2_9 
REMARK    5  A    between atoms: C6_13  and  C7_14 
REMARK    6  A    between atoms: C10_21  and  C11_22 
REMARK    7  A    between atoms: C11_22  and  O6_24 
ROOT
HETATM    1  N2  UNL     1      20.296  84.127   1.936  1.00  0.00    -0.261 N 
ATOM      2  H2  UNL     1      20.722  84.386   1.047  1.00  0.00     0.190 HD
HETATM    3  C5  UNL     1      20.751  84.667   2.988  1.00  0.00     0.203 C 
HETATM    4  O4  UNL     1      20.258  84.398   4.247  1.00  0.00    -0.312 OA
HETATM    5  C6  UNL     1      20.363  85.443   5.233  1.00  0.00     0.222 C 
HETATM    6  C10 UNL     1      21.746  85.687   5.671  1.00  0.00     0.065 C 
HETATM    7  C13 UNL     1      22.639  85.891   4.724  1.00  0.00    -0.002 C 
HETATM    8  C14 UNL     1      24.044  86.145   4.987  1.00  0.00     0.057 C 
HETATM    9  S1  UNL     1      22.107  85.865   2.982  1.00  0.00    -0.050 SA
ENDROOT
BRANCH   1  10
HETATM   10  N1  UNL     1      19.255  83.203   1.913  1.00  0.00    -0.171 N 
HETATM   11  C3  UNL     1      19.539  81.839   2.099  1.00  0.00     0.388 C 
HETATM   12  O2  UNL     1      20.725  81.475   2.283  1.00  0.00    -0.236 OA
BRANCH  11  13
HETATM   13  O1  UNL     1      18.502  80.922   2.076  1.00  0.00    -0.303 OA
BRANCH  13  14
HETATM   14  C2  UNL     1      18.072  80.332   0.863  1.00  0.00     0.176 C 
HETATM   15  C1  UNL     1      16.807  79.559   1.127  1.00  0.00     0.034 C 
ENDBRANCH  13  14
ENDBRANCH  11  13
BRANCH  10  16
HETATM   16  C4  UNL     1      17.917  83.624   1.705  1.00  0.00     0.381 C 
HETATM   17  O3  UNL     1      17.459  83.755   0.538  1.00  0.00    -0.281 OA
ENDBRANCH  10  16
ENDBRANCH   1  10
BRANCH   5  18
HETATM   18  C7  UNL     1      19.408  85.058   6.292  1.00  0.00     0.061 A 
HETATM   19  C8  UNL     1      18.895  83.790   6.587  1.00  0.00     0.048 A 
HETATM   20  C9  UNL     1      18.009  83.897   7.632  1.00  0.00     0.109 A 
HETATM   21  N3  UNL     1      17.986  85.193   7.963  1.00  0.00    -0.312 N 
HETATM   22  N4  UNL     1      18.811  85.876   7.172  1.00  0.00    -0.302 N 
ATOM     23  H3  UNL     1      17.420  85.597   8.710  1.00  0.00     0.186 HD
ATOM     24  H4  UNL     1      18.967  86.882   7.228  1.00  0.00     0.186 HD
ENDBRANCH   5  18
BRANCH   6  25
HETATM   25  C11 UNL     1      22.150  85.725   7.053  1.00  0.00     0.292 C 
HETATM   26  O5  UNL     1      22.068  86.800   7.747  1.00  0.00    -0.259 OA
BRANCH  25  27
HETATM   27  O6  UNL     1      22.653  84.650   7.769  1.00  0.00    -0.323 OA
HETATM   28  C12 UNL     1      21.844  83.971   8.701  1.00  0.00     0.213 C 
ENDBRANCH  25  27
ENDBRANCH   6  25
TORSDOF 7
ENDMDL
MODEL 2
REMARK VINA RESULT: -6.899331246      1.354      1.733
REMARK  7 active torsions:
REMARK  status: ('A' for Active; 'I' for Inactive)
REMARK    1  A    between atoms: C2_2  and  O1_3 
REMARK    2  A    between atoms: O1_3  and  C3_4 
REMARK       I    between atoms: C3_4  and  N1_6 
REMARK    3  A    between atoms: N1_6  and  C4_7 
REMARK    4  A    between atoms: N1_6  and  N2_9 
REMARK    5  A    between atoms: C6_13  and  C7_14 
REMARK    6  A    between atoms: C10_21  and  C11_22 
REMARK    7  A    between atoms: C11_22  and  O6_24 
ROOT
HETATM    1  N2  UNL     1      19.472  82.846   2.236  1.00  0.00    -0.261 N 
ATOM      2  H2  UNL     1      19.706  82.946   1.249  1.00  0.00     0.190 HD
HETATM    3  C5  UNL     1      19.922  83.714   3.041  1.00  0.00     0.203 C 
HETATM    4  O4  UNL     1      19.673  83.685   4.397  1.00  0.00    -0.312 OA
HETATM    5  C6  UNL     1      19.660  84.948   5.092  1.00  0.00     0.222 C 
HETATM    6  C10 UNL     1      20.993  85.559   5.205  1.00  0.00     0.065 C 
HETATM    7  C13 UNL     1      21.683  85.683   4.089  1.00  0.00    -0.002 C 
HETATM    8  C14 UNL     1      23.013  86.264   4.027  1.00  0.00     0.057 C 
HETATM    9  S1  UNL     1      20.950  85.110   2.523  1.00  0.00    -0.050 SA
ENDROOT
BRANCH   1  10
HETATM   10  N1  UNL     1      18.680  81.763   2.608  1.00  0.00    -0.171 N 
HETATM   11  C3  UNL     1      17.984  81.047   1.619  1.00  0.00     0.388 C 
HETATM   12  O2  UNL     1      18.086  81.393   0.419  1.00  0.00    -0.236 OA
BRANCH  11  13
HETATM   13  O1  UNL     1      17.197  79.970   1.991  1.00  0.00    -0.303 OA
BRANCH  13  14
HETATM   14  C2  UNL     1      16.298  79.368   1.078  1.00  0.00     0.176 C 
HETATM   15  C1  UNL     1      16.991  78.204   0.420  1.00  0.00     0.034 C 
ENDBRANCH  13  14
ENDBRANCH  11  13
BRANCH  10  16
HETATM   16  C4  UNL     1      18.571  81.378   3.968  1.00  0.00     0.381 C 
HETATM   17  O3  UNL     1      17.455  81.392   4.552  1.00  0.00    -0.281 OA
ENDBRANCH  10  16
ENDBRANCH   1  10
BRANCH   5  18
HETATM   18  C7  UNL     1      18.966  84.668   6.365  1.00  0.00     0.061 A 
HETATM   19  C8  UNL     1      18.654  83.430   6.937  1.00  0.00     0.048 A 
HETATM   20  C9  UNL     1      17.974  83.638   8.112  1.00  0.00     0.109 A 
HETATM   21  N3  UNL     1      17.878  84.965   8.253  1.00  0.00    -0.312 N 
HETATM   22  N4  UNL     1      18.464  85.571   7.222  1.00  0.00    -0.302 N 
ATOM     23  H3  UNL     1      17.424  85.440   9.032  1.00  0.00     0.186 HD
ATOM     24  H4  UNL     1      18.522  86.582   7.100  1.00  0.00     0.186 HD
ENDBRANCH   5  18
BRANCH   6  25
HETATM   25  C11 UNL     1      21.554  86.026   6.446  1.00  0.00     0.292 C 
HETATM   26  O5  UNL     1      21.229  87.162   6.944  1.00  0.00    -0.259 OA
BRANCH  25  27
HETATM   27  O6  UNL     1      22.471  85.333   7.220  1.00  0.00    -0.323 OA
HETATM   28  C12 UNL     1      22.074  84.726   8.427  1.00  0.00     0.213 C 
ENDBRANCH  25  27
ENDBRANCH   6  25
TORSDOF 7
ENDMDL
MODEL 3
REMARK VINA RESULT: -6.729886626      2.625      6.558
REMARK  7 active torsions:
REMARK  status: ('A' for Active; 'I' for Inactive)
REMARK    1  A    between atoms: C2_2  and  O1_3 
REMARK    2  A    between atoms: O1_3  and  C3_4 
REMARK       I    between atoms: C3_4  and  N1_6 
REMARK    3  A    between atoms: N1_6  and  C4_7 
REMARK    4  A    between atoms: N1_6  and  N2_9 
REMARK    5  A    between atoms: C6_13  and  C7_14 
REMARK    6  A    between atoms: C10_21  and  C11_22 
REMARK    7  A    between atoms: C11_22  and  O6_24 
ROOT
HETATM    1  N2  UNL     1      22.676  84.365   1.993  1.00  0.00    -0.261 N 
ATOM      2  H2  UNL     1      23.516  84.459   1.422  1.00  0.00     0.190 HD
HETATM    3  C5  UNL     1      21.816  83.505   1.641  1.00  0.00     0.203 C 
HETATM    4  O4  UNL     1      20.643  83.286   2.331  1.00  0.00    -0.312 OA
HETATM    5  C6  UNL     1      20.076  81.963   2.265  1.00  0.00     0.222 C 
HETATM    6  C10 UNL     1      19.524  81.637   0.940  1.00  0.00     0.065 C 
HETATM    7  C13 UNL     1      20.320  81.823  -0.093  1.00  0.00    -0.002 C 
HETATM    8  C14 UNL     1      19.930  81.551  -1.466  1.00  0.00     0.057 C 
HETATM    9  S1  UNL     1      22.008  82.447   0.186  1.00  0.00    -0.050 SA
ENDROOT
BRANCH   1  10
HETATM   10  N1  UNL     1      22.553  85.191   3.107  1.00  0.00    -0.171 N 
HETATM   11  C3  UNL     1      23.558  85.177   4.090  1.00  0.00     0.388 C 
HETATM   12  O2  UNL     1      24.548  84.422   3.950  1.00  0.00    -0.236 OA
BRANCH  11  13
HETATM   13  O1  UNL     1      23.434  86.000   5.197  1.00  0.00    -0.303 OA
BRANCH  13  14
HETATM   14  C2  UNL     1      23.311  85.463   6.500  1.00  0.00     0.176 C 
HETATM   15  C1  UNL     1      22.166  86.149   7.197  1.00  0.00     0.034 C 
ENDBRANCH  13  14
ENDBRANCH  11  13
BRANCH  10  16
HETATM   16  C4  UNL     1      21.430  86.043   3.257  1.00  0.00     0.381 C 
HETATM   17  O3  UNL     1      20.556  85.805   4.133  1.00  0.00    -0.281 OA
ENDBRANCH  10  16
ENDBRANCH   1  10
BRANCH   5  18
HETATM   18  C7  UNL     1      19.126  81.903   3.394  1.00  0.00     0.061 A 
HETATM   19  C8  UNL     1      18.781  82.913   4.300  1.00  0.00     0.048 A 
HETATM   20  C9  UNL     1      17.883  82.410   5.210  1.00  0.00     0.109 A 
HETATM   21  N3  UNL     1      17.686  81.133   4.866  1.00  0.00    -0.312 N 
HETATM   22  N4  UNL     1      18.419  80.836   3.795  1.00  0.00    -0.302 N 
ATOM     23  H3  UNL     1      17.066  80.484   5.351  1.00  0.00     0.186 HD
ATOM     24  H4  UNL     1      18.440  79.922   3.342  1.00  0.00     0.186 HD
ENDBRANCH   5  18
BRANCH   6  25
HETATM   25  C11 UNL     1      18.194  81.125   0.735  1.00  0.00     0.292 C 
HETATM   26  O5  UNL     1      17.222  81.895   0.405  1.00  0.00    -0.259 OA
BRANCH  25  27
HETATM   27  O6  UNL     1      17.820  79.797   0.860  1.00  0.00    -0.323 OA
HETATM   28  C12 UNL     1      16.472  79.451   1.079  1.00  0.00     0.213 C 
ENDBRANCH  25  27
ENDBRANCH   6  25
TORSDOF 7
ENDMDL
MODEL 4
REMARK VINA RESULT: -6.709957171      2.490      4.016
REMARK  7 active torsions:
REMARK  status: ('A' for Active; 'I' for Inactive)
REMARK    1  A    between atoms: C2_2  and  O1_3 
REMARK    2  A    between atoms: O1_3  and  C3_4 
REMARK       I    between atoms: C3_4  and  N1_6 
REMARK    3  A    between atoms: N1_6  and  C4_7 
REMARK    4  A    between atoms: N1_6  and  N2_9 
REMARK    5  A    between atoms: C6_13  and  C7_14 
REMARK    6  A    between atoms: C10_21  and  C11_22 
REMARK    7  A    between atoms: C11_22  and  O6_24 
ROOT
HETATM    1  N2  UNL     1      17.697  81.061   4.003  1.00  0.00    -0.261 N 
ATOM      2  H2  UNL     1      17.284  80.235   4.436  1.00  0.00     0.190 HD
HETATM    3  C5  UNL     1      18.138  81.971   4.765  1.00  0.00     0.203 C 
HETATM    4  O4  UNL     1      18.717  83.131   4.297  1.00  0.00    -0.312 OA
HETATM    5  C6  UNL     1      19.703  83.761   5.138  1.00  0.00     0.222 C 
HETATM    6  C10 UNL     1      19.128  84.368   6.348  1.00  0.00     0.065 C 
HETATM    7  C13 UNL     1      18.355  83.597   7.086  1.00  0.00    -0.002 C 
HETATM    8  C14 UNL     1      17.710  84.041   8.309  1.00  0.00     0.057 C 
HETATM    9  S1  UNL     1      18.069  81.873   6.571  1.00  0.00    -0.050 SA
ENDROOT
BRANCH   1  10
HETATM   10  N1  UNL     1      17.738  81.111   2.612  1.00  0.00    -0.171 N 
HETATM   11  C3  UNL     1      16.892  80.270   1.867  1.00  0.00     0.388 C 
HETATM   12  O2  UNL     1      16.115  79.489   2.466  1.00  0.00    -0.236 OA
BRANCH  11  13
HETATM   13  O1  UNL     1      16.934  80.322   0.484  1.00  0.00    -0.303 OA
BRANCH  13  14
HETATM   14  C2  UNL     1      17.279  79.183  -0.282  1.00  0.00     0.176 C 
HETATM   15  C1  UNL     1      16.606  79.286  -1.626  1.00  0.00     0.034 C 
ENDBRANCH  13  14
ENDBRANCH  11  13
BRANCH  10  16
HETATM   16  C4  UNL     1      18.619  81.998   1.944  1.00  0.00     0.381 C 
HETATM   17  O3  UNL     1      19.783  81.632   1.630  1.00  0.00    -0.281 OA
ENDBRANCH  10  16
ENDBRANCH   1  10
BRANCH   5  18
HETATM   18  C7  UNL     1      20.433  84.678   4.239  1.00  0.00     0.061 A 
HETATM   19  C8  UNL     1      21.730  85.186   4.374  1.00  0.00     0.048 A 
HETATM   20  C9  UNL     1      21.992  86.031   3.323  1.00  0.00     0.109 A 
HETATM   21  N3  UNL     1      20.887  86.034   2.569  1.00  0.00    -0.312 N 
HETATM   22  N4  UNL     1      19.969  85.237   3.110  1.00  0.00    -0.302 N 
ATOM     23  H3  UNL     1      20.767  86.569   1.709  1.00  0.00     0.186 HD
ATOM     24  H4  UNL     1      19.041  85.072   2.721  1.00  0.00     0.186 HD
ENDBRANCH   5  18
BRANCH   6  25
HETATM   25  C11 UNL     1      19.378  85.726   6.755  1.00  0.00     0.292 C 
HETATM   26  O5  UNL     1      18.601  86.686   6.406  1.00  0.00    -0.259 OA
BRANCH  25  27
HETATM   27  O6  UNL     1      20.440  86.143   7.542  1.00  0.00    -0.323 OA
HETATM   28  C12 UNL     1      21.387  85.213   8.014  1.00  0.00     0.213 C 
ENDBRANCH  25  27
ENDBRANCH   6  25
TORSDOF 7
ENDMDL
MODEL 5
REMARK VINA RESULT: -6.687714139      1.736      2.418
REMARK  7 active torsions:
REMARK  status: ('A' for Active; 'I' for Inactive)
REMARK    1  A    between atoms: C2_2  and  O1_3 
REMARK    2  A    between atoms: O1_3  and  C3_4 
REMARK       I    between atoms: C3_4  and  N1_6 
REMARK    3  A    between atoms: N1_6  and  C4_7 
REMARK    4  A    between atoms: N1_6  and  N2_9 
REMARK    5  A    between atoms: C6_13  and  C7_14 
REMARK    6  A    between atoms: C10_21  and  C11_22 
REMARK    7  A    between atoms: C11_22  and  O6_24 
ROOT
HETATM    1  N2  UNL     1      20.366  83.847   1.550  1.00  0.00    -0.261 N 
ATOM      2  H2  UNL     1      20.679  84.508   0.840  1.00  0.00     0.190 HD
HETATM    3  C5  UNL     1      20.245  84.270   2.738  1.00  0.00     0.203 C 
HETATM    4  O4  UNL     1      19.831  83.472   3.783  1.00  0.00    -0.312 OA
HETATM    5  C6  UNL     1      19.142  84.117   4.872  1.00  0.00     0.222 C 
HETATM    6  C10 UNL     1      20.021  84.972   5.686  1.00  0.00     0.065 C 
HETATM    7  C13 UNL     1      20.743  85.863   5.038  1.00  0.00    -0.002 C 
HETATM    8  C14 UNL     1      21.659  86.782   5.690  1.00  0.00     0.057 C 
HETATM    9  S1  UNL     1      20.599  85.976   3.225  1.00  0.00    -0.050 SA
ENDROOT
BRANCH   1  10
HETATM   10  N1  UNL     1      20.101  82.541   1.149  1.00  0.00    -0.171 N 
HETATM   11  C3  UNL     1      18.773  82.151   0.904  1.00  0.00     0.388 C 
HETATM   12  O2  UNL     1      17.848  82.984   1.052  1.00  0.00    -0.236 OA
BRANCH  11  13
HETATM   13  O1  UNL     1      18.512  80.851   0.505  1.00  0.00    -0.303 OA
BRANCH  13  14
HETATM   14  C2  UNL     1      17.185  80.371   0.391  1.00  0.00     0.176 C 
HETATM   15  C1  UNL     1      16.907  79.448   1.548  1.00  0.00     0.034 C 
ENDBRANCH  13  14
ENDBRANCH  11  13
BRANCH  10  16
HETATM   16  C4  UNL     1      21.154  81.606   0.983  1.00  0.00     0.381 C 
HETATM   17  O3  UNL     1      22.185  81.666   1.705  1.00  0.00    -0.281 OA
ENDBRANCH  10  16
ENDBRANCH   1  10
BRANCH   5  18
HETATM   18  C7  UNL     1      18.462  83.020   5.589  1.00  0.00     0.061 A 
HETATM   19  C8  UNL     1      17.938  81.830   5.072  1.00  0.00     0.048 A 
HETATM   20  C9  UNL     1      17.363  81.113   6.093  1.00  0.00     0.109 A 
HETATM   21  N3  UNL     1      17.534  81.845   7.199  1.00  0.00    -0.312 N 
HETATM   22  N4  UNL     1      18.182  82.969   6.901  1.00  0.00    -0.302 N 
ATOM     23  H3  UNL     1      17.215  81.581   8.131  1.00  0.00     0.186 HD
ATOM     24  H4  UNL     1      18.432  83.691   7.576  1.00  0.00     0.186 HD
ENDBRANCH   5  18
BRANCH   6  25
HETATM   25  C11 UNL     1      20.111  84.887   7.120  1.00  0.00     0.292 C 
HETATM   26  O5  UNL     1      19.290  85.510   7.883  1.00  0.00    -0.259 OA
BRANCH  25  27
HETATM   27  O6  UNL     1      21.055  84.151   7.819  1.00  0.00    -0.323 OA
HETATM   28  C12 UNL     1      22.204  84.775   8.343  1.00  0.00     0.213 C 
ENDBRANCH  25  27
ENDBRANCH   6  25
TORSDOF 7
ENDMDL
