MODEL 1
REMARK VINA RESULT: -7.881032646      0.000      0.000
REMARK  7 active torsions:
REMARK  status: ('A' for Active; 'I' for Inactive)
REMARK    1  A    between atoms: O1_2  and  C2_3 
REMARK    2  A    between atoms: C2_3  and  C3_5 
REMARK    3  A    between atoms: C5_8  and  C6_9 
REMARK    4  A    between atoms: C7_12  and  N2_13 
REMARK       I    between atoms: N2_13  and  C8_15 
REMARK    5  A    between atoms: C8_15  and  C9_17 
REMARK    6  A    between atoms: C9_17  and  S2_18 
REMARK    7  A    between atoms: C11_24  and  C12_25 
ROOT
HETATM    1  S2  UNL     1      16.998  78.247  -1.917  1.00  0.00    -0.042 SA
HETATM    2  C10 UNL     1      17.151  76.662  -2.666  1.00  0.00     0.134 C 
HETATM    3  N3  UNL     1      17.270  75.600  -3.158  1.00  0.00    -0.184 NA
ENDROOT
BRANCH   1   4
HETATM    4  C9  UNL     1      17.283  78.069  -0.152  1.00  0.00     0.193 C 
BRANCH   4   5
HETATM    5  C8  UNL     1      16.936  79.348   0.515  1.00  0.00     0.246 C 
HETATM    6  N2  UNL     1      17.185  79.455   1.909  1.00  0.00    -0.157 N 
ATOM      7  H2  UNL     1      16.816  78.740   2.535  1.00  0.00     0.187 HD
HETATM    8  O3  UNL     1      16.441  80.313  -0.110  1.00  0.00    -0.272 OA
BRANCH   6   9
HETATM    9  C7  UNL     1      17.866  80.434   2.405  1.00  0.00     0.707 A 
HETATM   10  N1  UNL     1      17.643  81.067   3.580  1.00  0.00    -0.165 N 
HETATM   11  C6  UNL     1      18.564  82.028   3.743  1.00  0.00     0.203 A 
ATOM     12  H1  UNL     1      16.895  80.847   4.237  1.00  0.00     0.186 HD
HETATM   13  O4  UNL     1      19.323  81.975   2.688  1.00  0.00    -0.203 OA
HETATM   14  N4  UNL     1      18.939  81.040   1.871  1.00  0.00    -0.089 N 
ATOM     15  H4  UNL     1      19.376  80.807   0.980  1.00  0.00     0.213 HD
BRANCH  11  16
HETATM   16  C5  UNL     1      18.638  82.932   4.916  1.00  0.00     0.073 A 
HETATM   17  S1  UNL     1      18.230  82.606   6.532  1.00  0.00    -0.096 SA
HETATM   18  C4  UNL     1      18.591  84.125   7.215  1.00  0.00     0.069 A 
HETATM   19  C3  UNL     1      19.028  84.863   6.146  1.00  0.00     0.061 A 
HETATM   20  C11 UNL     1      19.050  84.230   4.942  1.00  0.00     0.048 A 
BRANCH  19  21
HETATM   21  C2  UNL     1      19.443  86.285   6.369  1.00  0.00     0.294 C 
HETATM   22  O2  UNL     1      18.601  87.196   6.440  1.00  0.00    -0.259 OA
BRANCH  21  23
HETATM   23  O1  UNL     1      20.776  86.628   6.504  1.00  0.00    -0.322 OA
HETATM   24  C1  UNL     1      21.759  85.799   7.047  1.00  0.00     0.213 C 
ENDBRANCH  21  23
ENDBRANCH  19  21
BRANCH  20  25
HETATM   25  C12 UNL     1      19.503  84.916   3.694  1.00  0.00     0.158 C 
HETATM   26  C13 UNL     1      20.930  85.118   3.376  1.00  0.00     0.097 C 
HETATM   27  O5  UNL     1      18.633  85.330   2.895  1.00  0.00    -0.293 OA
ENDBRANCH  20  25
ENDBRANCH  11  16
ENDBRANCH   6   9
ENDBRANCH   4   5
ENDBRANCH   1   4
TORSDOF 7
ENDMDL
MODEL 2
REMARK VINA RESULT: -7.411117543      2.313      2.938
REMARK  7 active torsions:
REMARK  status: ('A' for Active; 'I' for Inactive)
REMARK    1  A    between atoms: O1_2  and  C2_3 
REMARK    2  A    between atoms: C2_3  and  C3_5 
REMARK    3  A    between atoms: C5_8  and  C6_9 
REMARK    4  A    between atoms: C7_12  and  N2_13 
REMARK       I    between atoms: N2_13  and  C8_15 
REMARK    5  A    between atoms: C8_15  and  C9_17 
REMARK    6  A    between atoms: C9_17  and  S2_18 
REMARK    7  A    between atoms: C11_24  and  C12_25 
ROOT
HETATM    1  S2  UNL     1      17.446  82.659  -2.082  1.00  0.00    -0.042 SA
HETATM    2  C10 UNL     1      17.127  83.391  -0.514  1.00  0.00     0.134 C 
HETATM    3  N3  UNL     1      16.916  83.863   0.544  1.00  0.00    -0.184 NA
ENDROOT
BRANCH   1   4
HETATM    4  C9  UNL     1      18.956  81.695  -1.960  1.00  0.00     0.193 C 
BRANCH   4   5
HETATM    5  C8  UNL     1      18.879  80.845  -0.745  1.00  0.00     0.246 C 
HETATM    6  N2  UNL     1      19.629  81.245   0.391  1.00  0.00    -0.157 N 
ATOM      7  H2  UNL     1      20.625  81.438   0.285  1.00  0.00     0.187 HD
HETATM    8  O3  UNL     1      18.180  79.806  -0.703  1.00  0.00    -0.272 OA
BRANCH   6   9
HETATM    9  C7  UNL     1      19.085  81.373   1.555  1.00  0.00     0.707 A 
HETATM   10  N1  UNL     1      19.373  82.309   2.489  1.00  0.00    -0.165 N 
HETATM   11  C6  UNL     1      18.596  82.110   3.564  1.00  0.00     0.203 A 
ATOM     12  H1  UNL     1      20.069  83.047   2.391  1.00  0.00     0.186 HD
HETATM   13  O4  UNL     1      17.858  81.078   3.282  1.00  0.00    -0.203 OA
HETATM   14  N4  UNL     1      18.120  80.613   2.097  1.00  0.00    -0.089 N 
ATOM     15  H4  UNL     1      17.671  79.811   1.656  1.00  0.00     0.213 HD
BRANCH  11  16
HETATM   16  C5  UNL     1      18.629  82.942   4.791  1.00  0.00     0.073 A 
HETATM   17  S1  UNL     1      18.141  82.529   6.364  1.00  0.00    -0.096 SA
HETATM   18  C4  UNL     1      18.493  83.998   7.153  1.00  0.00     0.069 A 
HETATM   19  C3  UNL     1      18.990  84.790   6.151  1.00  0.00     0.061 A 
HETATM   20  C11 UNL     1      19.059  84.228   4.914  1.00  0.00     0.048 A 
BRANCH  19  21
HETATM   21  C2  UNL     1      19.417  86.188   6.478  1.00  0.00     0.294 C 
HETATM   22  O2  UNL     1      18.602  87.125   6.469  1.00  0.00    -0.259 OA
BRANCH  21  23
HETATM   23  O1  UNL     1      20.731  86.479   6.798  1.00  0.00    -0.322 OA
HETATM   24  C1  UNL     1      21.665  85.543   7.245  1.00  0.00     0.213 C 
ENDBRANCH  21  23
ENDBRANCH  19  21
BRANCH  20  25
HETATM   25  C12 UNL     1      19.581  84.978   3.731  1.00  0.00     0.158 C 
HETATM   26  C13 UNL     1      21.018  85.254   3.540  1.00  0.00     0.097 C 
HETATM   27  O5  UNL     1      18.761  85.383   2.876  1.00  0.00    -0.293 OA
ENDBRANCH  20  25
ENDBRANCH  11  16
ENDBRANCH   6   9
ENDBRANCH   4   5
ENDBRANCH   1   4
TORSDOF 7
ENDMDL
MODEL 3
REMARK VINA RESULT: -7.334350118      4.520      6.017
REMARK  7 active torsions:
REMARK  status: ('A' for Active; 'I' for Inactive)
REMARK    1  A    between atoms: O1_2  and  C2_3 
REMARK    2  A    between atoms: C2_3  and  C3_5 
REMARK    3  A    between atoms: C5_8  and  C6_9 
REMARK    4  A    between atoms: C7_12  and  N2_13 
REMARK       I    between atoms: N2_13  and  C8_15 
REMARK    5  A    between atoms: C8_15  and  C9_17 
REMARK    6  A    between atoms: C9_17  and  S2_18 
REMARK    7  A    between atoms: C11_24  and  C12_25 
ROOT
HETATM    1  S2  UNL     1      22.963  81.956  -1.094  1.00  0.00    -0.042 SA
HETATM    2  C10 UNL     1      22.383  81.930   0.567  1.00  0.00     0.134 C 
HETATM    3  N3  UNL     1      22.013  81.918   1.684  1.00  0.00    -0.184 NA
ENDROOT
BRANCH   1   4
HETATM    4  C9  UNL     1      23.759  83.539  -1.390  1.00  0.00     0.193 C 
BRANCH   4   5
HETATM    5  C8  UNL     1      24.644  83.847  -0.239  1.00  0.00     0.246 C 
HETATM    6  N2  UNL     1      24.308  84.962   0.573  1.00  0.00    -0.157 N 
ATOM      7  H2  UNL     1      24.149  85.868   0.132  1.00  0.00     0.187 HD
HETATM    8  O3  UNL     1      25.657  83.160   0.026  1.00  0.00    -0.272 OA
BRANCH   6   9
HETATM    9  C7  UNL     1      24.197  84.860   1.856  1.00  0.00     0.707 A 
HETATM   10  N1  UNL     1      23.237  85.409   2.635  1.00  0.00    -0.165 N 
HETATM   11  C6  UNL     1      23.466  85.076   3.914  1.00  0.00     0.203 A 
ATOM     12  H1  UNL     1      22.462  85.983   2.303  1.00  0.00     0.186 HD
HETATM   13  O4  UNL     1      24.540  84.344   3.903  1.00  0.00    -0.203 OA
HETATM   14  N4  UNL     1      25.003  84.194   2.698  1.00  0.00    -0.089 N 
ATOM     15  H4  UNL     1      25.833  83.663   2.438  1.00  0.00     0.213 HD
BRANCH  11  16
HETATM   16  C5  UNL     1      22.620  85.496   5.057  1.00  0.00     0.073 A 
HETATM   17  S1  UNL     1      23.105  86.030   6.595  1.00  0.00    -0.096 SA
HETATM   18  C4  UNL     1      21.571  86.301   7.286  1.00  0.00     0.069 A 
HETATM   19  C3  UNL     1      20.702  85.961   6.282  1.00  0.00     0.061 A 
HETATM   20  C11 UNL     1      21.260  85.540   5.115  1.00  0.00     0.048 A 
BRANCH  19  21
HETATM   21  C2  UNL     1      19.229  86.074   6.531  1.00  0.00     0.294 C 
HETATM   22  O2  UNL     1      18.635  87.155   6.384  1.00  0.00    -0.259 OA
BRANCH  21  23
HETATM   23  O1  UNL     1      18.485  84.979   6.932  1.00  0.00    -0.322 OA
HETATM   24  C1  UNL     1      18.531  84.412   8.207  1.00  0.00     0.213 C 
ENDBRANCH  21  23
ENDBRANCH  19  21
BRANCH  20  25
HETATM   25  C12 UNL     1      20.429  85.139   3.939  1.00  0.00     0.158 C 
HETATM   26  C13 UNL     1      19.673  83.872   3.900  1.00  0.00     0.097 C 
HETATM   27  O5  UNL     1      20.378  85.913   2.956  1.00  0.00    -0.293 OA
ENDBRANCH  20  25
ENDBRANCH  11  16
ENDBRANCH   6   9
ENDBRANCH   4   5
ENDBRANCH   1   4
TORSDOF 7
ENDMDL
MODEL 4
REMARK VINA RESULT: -7.324517105      3.420      3.780
REMARK  7 active torsions:
REMARK  status: ('A' for Active; 'I' for Inactive)
REMARK    1  A    between atoms: O1_2  and  C2_3 
REMARK    2  A    between atoms: C2_3  and  C3_5 
REMARK    3  A    between atoms: C5_8  and  C6_9 
REMARK    4  A    between atoms: C7_12  and  N2_13 
REMARK       I    between atoms: N2_13  and  C8_15 
REMARK    5  A    between atoms: C8_15  and  C9_17 
REMARK    6  A    between atoms: C9_17  and  S2_18 
REMARK    7  A    between atoms: C11_24  and  C12_25 
ROOT
HETATM    1  S2  UNL     1      17.783  83.207  -2.781  1.00  0.00    -0.042 SA
HETATM    2  C10 UNL     1      17.384  83.373  -1.075  1.00  0.00     0.134 C 
HETATM    3  N3  UNL     1      17.132  83.471   0.070  1.00  0.00    -0.184 NA
ENDROOT
BRANCH   1   4
HETATM    4  C9  UNL     1      19.557  83.414  -2.970  1.00  0.00     0.193 C 
BRANCH   4   5
HETATM    5  C8  UNL     1      20.245  82.497  -2.027  1.00  0.00     0.246 C 
HETATM    6  N2  UNL     1      20.984  83.077  -0.963  1.00  0.00    -0.157 N 
ATOM      7  H2  UNL     1      21.685  83.786  -1.175  1.00  0.00     0.187 HD
HETATM    8  O3  UNL     1      20.186  81.252  -2.146  1.00  0.00    -0.272 OA
BRANCH   6   9
HETATM    9  C7  UNL     1      20.794  82.729   0.266  1.00  0.00     0.707 A 
HETATM   10  N1  UNL     1      20.190  83.458   1.233  1.00  0.00    -0.165 N 
HETATM   11  C6  UNL     1      20.186  82.754   2.375  1.00  0.00     0.203 A 
ATOM     12  H1  UNL     1      19.799  84.392   1.112  1.00  0.00     0.186 HD
HETATM   13  O4  UNL     1      20.776  81.629   2.100  1.00  0.00    -0.203 OA
HETATM   14  N4  UNL     1      21.151  81.577   0.857  1.00  0.00    -0.089 N 
ATOM     15  H4  UNL     1      21.632  80.798   0.409  1.00  0.00     0.213 HD
BRANCH  11  16
HETATM   16  C5  UNL     1      19.608  83.231   3.655  1.00  0.00     0.073 A 
HETATM   17  S1  UNL     1      18.446  82.478   4.638  1.00  0.00    -0.096 SA
HETATM   18  C4  UNL     1      18.337  83.646   5.874  1.00  0.00     0.069 A 
HETATM   19  C3  UNL     1      19.225  84.613   5.481  1.00  0.00     0.061 A 
HETATM   20  C11 UNL     1      19.889  84.388   4.316  1.00  0.00     0.048 A 
BRANCH  19  21
HETATM   21  C2  UNL     1      19.403  85.826   6.343  1.00  0.00     0.294 C 
HETATM   22  O2  UNL     1      18.702  86.838   6.178  1.00  0.00    -0.259 OA
BRANCH  21  23
HETATM   23  O1  UNL     1      20.352  85.857   7.348  1.00  0.00    -0.322 OA
HETATM   24  C1  UNL     1      21.083  84.749   7.785  1.00  0.00     0.213 C 
ENDBRANCH  21  23
ENDBRANCH  19  21
BRANCH  20  25
HETATM   25  C12 UNL     1      20.885  85.360   3.771  1.00  0.00     0.158 C 
HETATM   26  C13 UNL     1      22.243  85.499   4.333  1.00  0.00     0.097 C 
HETATM   27  O5  UNL     1      20.548  86.076   2.802  1.00  0.00    -0.293 OA
ENDBRANCH  20  25
ENDBRANCH  11  16
ENDBRANCH   6   9
ENDBRANCH   4   5
ENDBRANCH   1   4
TORSDOF 7
ENDMDL
MODEL 5
REMARK VINA RESULT: -7.314549747      1.612      1.928
REMARK  7 active torsions:
REMARK  status: ('A' for Active; 'I' for Inactive)
REMARK    1  A    between atoms: O1_2  and  C2_3 
REMARK    2  A    between atoms: C2_3  and  C3_5 
REMARK    3  A    between atoms: C5_8  and  C6_9 
REMARK    4  A    between atoms: C7_12  and  N2_13 
REMARK       I    between atoms: N2_13  and  C8_15 
REMARK    5  A    between atoms: C8_15  and  C9_17 
REMARK    6  A    between atoms: C9_17  and  S2_18 
REMARK    7  A    between atoms: C11_24  and  C12_25 
ROOT
HETATM    1  S2  UNL     1      16.925  78.804  -2.027  1.00  0.00    -0.042 SA
HETATM    2  C10 UNL     1      16.917  78.435  -0.306  1.00  0.00     0.134 C 
HETATM    3  N3  UNL     1      16.927  78.199   0.846  1.00  0.00    -0.184 NA
ENDROOT
BRANCH   1   4
HETATM    4  C9  UNL     1      17.010  80.588  -2.223  1.00  0.00     0.193 C 
BRANCH   4   5
HETATM    5  C8  UNL     1      18.114  81.105  -1.375  1.00  0.00     0.246 C 
HETATM    6  N2  UNL     1      17.783  82.028  -0.350  1.00  0.00    -0.157 N 
ATOM      7  H2  UNL     1      17.241  82.859  -0.587  1.00  0.00     0.187 HD
HETATM    8  O3  UNL     1      19.303  80.750  -1.542  1.00  0.00    -0.272 OA
BRANCH   6   9
HETATM    9  C7  UNL     1      18.149  81.846   0.875  1.00  0.00     0.707 A 
HETATM   10  N1  UNL     1      18.053  82.731   1.893  1.00  0.00    -0.165 N 
HETATM   11  C6  UNL     1      18.540  82.170   3.010  1.00  0.00     0.203 A 
ATOM     12  H1  UNL     1      17.671  83.674   1.823  1.00  0.00     0.186 HD
HETATM   13  O4  UNL     1      18.921  80.974   2.670  1.00  0.00    -0.203 OA
HETATM   14  N4  UNL     1      18.704  80.746   1.409  1.00  0.00    -0.089 N 
ATOM     15  H4  UNL     1      18.918  79.882   0.912  1.00  0.00     0.213 HD
BRANCH  11  16
HETATM   16  C5  UNL     1      18.600  82.841   4.331  1.00  0.00     0.073 A 
HETATM   17  S1  UNL     1      18.109  82.247   5.844  1.00  0.00    -0.096 SA
HETATM   18  C4  UNL     1      18.503  83.597   6.808  1.00  0.00     0.069 A 
HETATM   19  C3  UNL     1      19.016  84.494   5.908  1.00  0.00     0.061 A 
HETATM   20  C11 UNL     1      19.065  84.090   4.610  1.00  0.00     0.048 A 
BRANCH  19  21
HETATM   21  C2  UNL     1      19.481  85.830   6.403  1.00  0.00     0.294 C 
HETATM   22  O2  UNL     1      18.693  86.783   6.511  1.00  0.00    -0.259 OA
BRANCH  21  23
HETATM   23  O1  UNL     1      20.801  86.043   6.756  1.00  0.00    -0.322 OA
HETATM   24  C1  UNL     1      21.385  85.609   7.948  1.00  0.00     0.213 C 
ENDBRANCH  21  23
ENDBRANCH  19  21
BRANCH  20  25
HETATM   25  C12 UNL     1      19.601  84.969   3.526  1.00  0.00     0.158 C 
HETATM   26  C13 UNL     1      21.044  85.226   3.358  1.00  0.00     0.097 C 
HETATM   27  O5  UNL     1      18.788  85.501   2.737  1.00  0.00    -0.293 OA
ENDBRANCH  20  25
ENDBRANCH  11  16
ENDBRANCH   6   9
ENDBRANCH   4   5
ENDBRANCH   1   4
TORSDOF 7
ENDMDL
