MODEL 1
REMARK VINA RESULT: -6.458922442      0.000      0.000
REMARK  9 active torsions:
REMARK  status: ('A' for Active; 'I' for Inactive)
REMARK    1  A    between atoms: O1_2  and  C2_3 
REMARK    2  A    between atoms: C2_3  and  C3_5 
REMARK    3  A    between atoms: C4_6  and  C5_7 
REMARK    4  A    between atoms: C7_9  and  N1_10 
REMARK    5  A    between atoms: N1_10  and  O3_11 
REMARK    6  A    between atoms: N1_10  and  O4_13 
REMARK    7  A    between atoms: C12_21  and  O7_22 
REMARK    8  A    between atoms: C12_21  and  C13_24 
REMARK    9  A    between atoms: C13_24  and  C14_25 
ROOT
HETATM    1  C3  UNL     1      19.824  82.214   0.981  1.00  0.00     0.166 C 
HETATM    2  C4  UNL     1      19.202  82.867  -0.166  1.00  0.00     0.138 C 
HETATM    3  C11 UNL     1      17.955  83.414   0.514  1.00  0.00     0.271 C 
HETATM    4  O5  UNL     1      16.786  83.496   0.022  1.00  0.00    -0.264 OA
HETATM    5  O6  UNL     1      18.365  83.795   1.778  1.00  0.00    -0.282 OA
HETATM    6  C12 UNL     1      19.619  83.224   2.087  1.00  0.00     0.185 C 
ENDROOT
BRANCH   2   7
HETATM    7  C5  UNL     1      18.632  82.046  -1.273  1.00  0.00    -0.028 A 
HETATM    8  C6  UNL     1      18.209  80.784  -1.128  1.00  0.00     0.051 A 
HETATM    9  C7  UNL     1      17.570  80.171  -2.167  1.00  0.00     0.129 A 
HETATM   10  S1  UNL     1      17.583  81.427  -3.377  1.00  0.00    -0.072 SA
HETATM   11  C9  UNL     1      18.371  82.651  -2.532  1.00  0.00    -0.012 A 
HETATM   12  C10 UNL     1      18.776  84.027  -2.936  1.00  0.00     0.057 C 
BRANCH   9  13
HETATM   13  N1  UNL     1      16.942  78.889  -2.309  1.00  0.00    -0.120 N 
BRANCH  13  14
HETATM   14  O3  UNL     1      15.915  78.854  -3.077  1.00  0.00    -0.262 OA
ATOM     15  H3  UNL     1      15.263  79.527  -2.924  1.00  0.00     0.247 HD
ENDBRANCH  13  14
BRANCH  13  16
HETATM   16  O4  UNL     1      17.394  77.758  -1.672  1.00  0.00    -0.258 OA
HETATM   17  C8  UNL     1      16.968  77.452  -0.337  1.00  0.00     0.240 C 
ENDBRANCH  13  16
ENDBRANCH   9  13
ENDBRANCH   2   7
BRANCH   1  18
HETATM   18  C2  UNL     1      21.373  82.236   0.746  1.00  0.00     0.269 C 
HETATM   19  O2  UNL     1      22.071  81.660   1.654  1.00  0.00    -0.265 OA
BRANCH  18  20
HETATM   20  O1  UNL     1      21.962  82.805  -0.315  1.00  0.00    -0.326 OA
HETATM   21  C1  UNL     1      23.357  82.821  -0.569  1.00  0.00     0.213 C 
ENDBRANCH  18  20
ENDBRANCH   1  18
BRANCH   6  22
HETATM   22  O7  UNL     1      20.620  84.197   2.003  1.00  0.00    -0.364 OA
ATOM     23  H7  UNL     1      21.292  84.003   2.645  1.00  0.00     0.213 HD
ENDBRANCH   6  22
BRANCH   6  24
HETATM   24  C13 UNL     1      19.578  82.546   3.408  1.00  0.00     0.073 C 
BRANCH  24  25
HETATM   25  C14 UNL     1      18.432  82.775   4.282  1.00  0.00    -0.018 C 
HETATM   26  C15 UNL     1      18.769  83.826   5.320  1.00  0.00     0.009 C 
HETATM   27  C16 UNL     1      17.820  81.615   4.946  1.00  0.00     0.009 C 
ENDBRANCH  24  25
ENDBRANCH   6  24
TORSDOF 9
ENDMDL
MODEL 2
REMARK VINA RESULT: -6.280289998      0.893      1.002
REMARK  9 active torsions:
REMARK  status: ('A' for Active; 'I' for Inactive)
REMARK    1  A    between atoms: O1_2  and  C2_3 
REMARK    2  A    between atoms: C2_3  and  C3_5 
REMARK    3  A    between atoms: C4_6  and  C5_7 
REMARK    4  A    between atoms: C7_9  and  N1_10 
REMARK    5  A    between atoms: N1_10  and  O3_11 
REMARK    6  A    between atoms: N1_10  and  O4_13 
REMARK    7  A    between atoms: C12_21  and  O7_22 
REMARK    8  A    between atoms: C12_21  and  C13_24 
REMARK    9  A    between atoms: C13_24  and  C14_25 
ROOT
HETATM    1  C3  UNL     1      19.880  82.450   1.467  1.00  0.00     0.166 C 
HETATM    2  C4  UNL     1      19.213  82.838   0.229  1.00  0.00     0.138 C 
HETATM    3  C11 UNL     1      17.996  83.538   0.818  1.00  0.00     0.271 C 
HETATM    4  O5  UNL     1      16.808  83.522   0.367  1.00  0.00    -0.264 OA
HETATM    5  O6  UNL     1      18.459  84.187   1.947  1.00  0.00    -0.282 OA
HETATM    6  C12 UNL     1      19.723  83.685   2.326  1.00  0.00     0.185 C 
ENDROOT
BRANCH   2   7
HETATM    7  C5  UNL     1      18.595  81.798  -0.643  1.00  0.00    -0.028 A 
HETATM    8  C6  UNL     1      18.252  80.575  -0.220  1.00  0.00     0.051 A 
HETATM    9  C7  UNL     1      17.560  79.748  -1.059  1.00  0.00     0.129 A 
HETATM   10  S1  UNL     1      17.407  80.743  -2.483  1.00  0.00    -0.072 SA
HETATM   11  C9  UNL     1      18.199  82.135  -1.965  1.00  0.00    -0.012 A 
HETATM   12  C10 UNL     1      18.495  83.419  -2.661  1.00  0.00     0.057 C 
BRANCH   9  13
HETATM   13  N1  UNL     1      16.990  78.442  -0.894  1.00  0.00    -0.120 N 
BRANCH  13  14
HETATM   14  O3  UNL     1      16.234  78.291   0.132  1.00  0.00    -0.262 OA
ATOM     15  H3  UNL     1      15.358  78.652   0.054  1.00  0.00     0.247 HD
ENDBRANCH  13  14
BRANCH  13  16
HETATM   16  O4  UNL     1      17.225  77.406  -1.765  1.00  0.00    -0.258 OA
HETATM   17  C8  UNL     1      17.373  76.064  -1.281  1.00  0.00     0.240 C 
ENDBRANCH  13  16
ENDBRANCH   9  13
ENDBRANCH   2   7
BRANCH   1  18
HETATM   18  C2  UNL     1      21.418  82.401   1.171  1.00  0.00     0.269 C 
HETATM   19  O2  UNL     1      22.131  81.848   2.082  1.00  0.00    -0.265 OA
BRANCH  18  20
HETATM   20  O1  UNL     1      21.983  82.891   0.060  1.00  0.00    -0.326 OA
HETATM   21  C1  UNL     1      23.365  82.830  -0.254  1.00  0.00     0.213 C 
ENDBRANCH  18  20
ENDBRANCH   1  18
BRANCH   6  22
HETATM   22  O7  UNL     1      20.723  84.602   1.987  1.00  0.00    -0.364 OA
ATOM     23  H7  UNL     1      21.480  84.128   1.666  1.00  0.00     0.213 HD
ENDBRANCH   6  22
BRANCH   6  24
HETATM   24  C13 UNL     1      19.736  83.319   3.766  1.00  0.00     0.073 C 
BRANCH  24  25
HETATM   25  C14 UNL     1      18.476  82.973   4.415  1.00  0.00    -0.018 C 
HETATM   26  C15 UNL     1      18.518  83.360   5.879  1.00  0.00     0.009 C 
HETATM   27  C16 UNL     1      17.986  81.592   4.292  1.00  0.00     0.009 C 
ENDBRANCH  24  25
ENDBRANCH   6  24
TORSDOF 9
ENDMDL
MODEL 3
REMARK VINA RESULT: -6.046315589      3.772      5.338
REMARK  9 active torsions:
REMARK  status: ('A' for Active; 'I' for Inactive)
REMARK    1  A    between atoms: O1_2  and  C2_3 
REMARK    2  A    between atoms: C2_3  and  C3_5 
REMARK    3  A    between atoms: C4_6  and  C5_7 
REMARK    4  A    between atoms: C7_9  and  N1_10 
REMARK    5  A    between atoms: N1_10  and  O3_11 
REMARK    6  A    between atoms: N1_10  and  O4_13 
REMARK    7  A    between atoms: C12_21  and  O7_22 
REMARK    8  A    between atoms: C12_21  and  C13_24 
REMARK    9  A    between atoms: C13_24  and  C14_25 
ROOT
HETATM    1  C3  UNL     1      22.244  82.152   1.130  1.00  0.00     0.166 C 
HETATM    2  C4  UNL     1      22.474  82.154  -0.311  1.00  0.00     0.138 C 
HETATM    3  C11 UNL     1      21.194  81.464  -0.762  1.00  0.00     0.271 C 
HETATM    4  O5  UNL     1      21.064  80.636  -1.718  1.00  0.00    -0.264 OA
HETATM    5  O6  UNL     1      20.210  81.926   0.091  1.00  0.00    -0.282 OA
HETATM    6  C12 UNL     1      20.784  82.532   1.230  1.00  0.00     0.185 C 
ENDROOT
BRANCH   2   7
HETATM    7  C5  UNL     1      23.533  81.283  -0.898  1.00  0.00    -0.028 A 
HETATM    8  C6  UNL     1      23.860  80.076  -0.419  1.00  0.00     0.051 A 
HETATM    9  C7  UNL     1      24.740  79.298  -1.115  1.00  0.00     0.129 A 
HETATM   10  S1  UNL     1      25.111  80.321  -2.477  1.00  0.00    -0.072 SA
HETATM   11  C9  UNL     1      24.150  81.657  -2.121  1.00  0.00    -0.012 A 
HETATM   12  C10 UNL     1      23.969  82.958  -2.825  1.00  0.00     0.057 C 
BRANCH   9  13
HETATM   13  N1  UNL     1      25.229  77.963  -0.923  1.00  0.00    -0.120 N 
BRANCH  13  14
HETATM   14  O3  UNL     1      25.183  77.521   0.281  1.00  0.00    -0.262 OA
ATOM     15  H3  UNL     1      25.733  77.977   0.908  1.00  0.00     0.247 HD
ENDBRANCH  13  14
BRANCH  13  16
HETATM   16  O4  UNL     1      25.717  77.188  -1.948  1.00  0.00    -0.258 OA
HETATM   17  C8  UNL     1      26.985  76.529  -1.824  1.00  0.00     0.240 C 
ENDBRANCH  13  16
ENDBRANCH   9  13
ENDBRANCH   2   7
BRANCH   1  18
HETATM   18  C2  UNL     1      22.989  83.396   1.722  1.00  0.00     0.269 C 
HETATM   19  O2  UNL     1      23.912  83.884   0.979  1.00  0.00    -0.265 OA
BRANCH  18  20
HETATM   20  O1  UNL     1      22.710  83.938   2.915  1.00  0.00    -0.326 OA
HETATM   21  C1  UNL     1      23.052  85.253   3.320  1.00  0.00     0.213 C 
ENDBRANCH  18  20
ENDBRANCH   1  18
BRANCH   6  22
HETATM   22  O7  UNL     1      20.671  83.923   1.138  1.00  0.00    -0.364 OA
ATOM     23  H7  UNL     1      21.050  84.209   0.315  1.00  0.00     0.213 HD
ENDBRANCH   6  22
BRANCH   6  24
HETATM   24  C13 UNL     1      20.189  81.983   2.476  1.00  0.00     0.073 C 
BRANCH  24  25
HETATM   25  C14 UNL     1      18.751  82.115   2.687  1.00  0.00    -0.018 C 
HETATM   26  C15 UNL     1      18.477  82.779   4.021  1.00  0.00     0.009 C 
HETATM   27  C16 UNL     1      17.916  80.912   2.563  1.00  0.00     0.009 C 
ENDBRANCH  24  25
ENDBRANCH   6  24
TORSDOF 9
ENDMDL
MODEL 4
REMARK VINA RESULT: -5.985893846      3.206      6.424
REMARK  9 active torsions:
REMARK  status: ('A' for Active; 'I' for Inactive)
REMARK    1  A    between atoms: O1_2  and  C2_3 
REMARK    2  A    between atoms: C2_3  and  C3_5 
REMARK    3  A    between atoms: C4_6  and  C5_7 
REMARK    4  A    between atoms: C7_9  and  N1_10 
REMARK    5  A    between atoms: N1_10  and  O3_11 
REMARK    6  A    between atoms: N1_10  and  O4_13 
REMARK    7  A    between atoms: C12_21  and  O7_22 
REMARK    8  A    between atoms: C12_21  and  C13_24 
REMARK    9  A    between atoms: C13_24  and  C14_25 
ROOT
HETATM    1  C3  UNL     1      19.712  82.989  -0.921  1.00  0.00     0.166 C 
HETATM    2  C4  UNL     1      18.660  82.455  -0.063  1.00  0.00     0.138 C 
HETATM    3  C11 UNL     1      17.550  83.442  -0.396  1.00  0.00     0.271 C 
HETATM    4  O5  UNL     1      16.681  83.916   0.401  1.00  0.00    -0.264 OA
HETATM    5  O6  UNL     1      17.695  83.714  -1.742  1.00  0.00    -0.282 OA
HETATM    6  C12 UNL     1      18.965  83.301  -2.199  1.00  0.00     0.185 C 
ENDROOT
BRANCH   2   7
HETATM    7  C5  UNL     1      18.771  82.583   1.419  1.00  0.00    -0.028 A 
HETATM    8  C6  UNL     1      19.245  83.669   2.043  1.00  0.00     0.051 A 
HETATM    9  C7  UNL     1      19.169  83.742   3.405  1.00  0.00     0.129 A 
HETATM   10  S1  UNL     1      18.411  82.221   3.796  1.00  0.00    -0.072 SA
HETATM   11  C9  UNL     1      18.218  81.575   2.254  1.00  0.00    -0.012 A 
HETATM   12  C10 UNL     1      17.664  80.271   1.793  1.00  0.00     0.057 C 
BRANCH   9  13
HETATM   13  N1  UNL     1      19.504  84.770   4.349  1.00  0.00    -0.120 N 
BRANCH  13  14
HETATM   14  O3  UNL     1      18.901  84.705   5.479  1.00  0.00    -0.262 OA
ATOM     15  H3  UNL     1      19.249  85.265   6.164  1.00  0.00     0.247 HD
ENDBRANCH  13  14
BRANCH  13  16
HETATM   16  O4  UNL     1      20.411  85.767   4.080  1.00  0.00    -0.258 OA
HETATM   17  C8  UNL     1      21.718  85.744   4.670  1.00  0.00     0.240 C 
ENDBRANCH  13  16
ENDBRANCH   9  13
ENDBRANCH   2   7
BRANCH   1  18
HETATM   18  C2  UNL     1      20.640  81.792  -1.321  1.00  0.00     0.269 C 
HETATM   19  O2  UNL     1      20.156  80.626  -1.093  1.00  0.00    -0.265 OA
BRANCH  18  20
HETATM   20  O1  UNL     1      21.857  81.936  -1.863  1.00  0.00    -0.326 OA
HETATM   21  C1  UNL     1      22.793  82.945  -1.523  1.00  0.00     0.213 C 
ENDBRANCH  18  20
ENDBRANCH   1  18
BRANCH   6  22
HETATM   22  O7  UNL     1      18.844  82.127  -2.950  1.00  0.00    -0.364 OA
ATOM     23  H7  UNL     1      18.136  82.233  -3.574  1.00  0.00     0.213 HD
ENDBRANCH   6  22
BRANCH   6  24
HETATM   24  C13 UNL     1      19.642  84.396  -2.941  1.00  0.00     0.073 C 
BRANCH  24  25
HETATM   25  C14 UNL     1      18.825  85.366  -3.663  1.00  0.00    -0.018 C 
HETATM   26  C15 UNL     1      18.241  84.731  -4.909  1.00  0.00     0.009 C 
HETATM   27  C16 UNL     1      19.427  86.660  -4.014  1.00  0.00     0.009 C 
ENDBRANCH  24  25
ENDBRANCH   6  24
TORSDOF 9
ENDMDL
MODEL 5
REMARK VINA RESULT: -5.965744160      1.038      1.258
REMARK  9 active torsions:
REMARK  status: ('A' for Active; 'I' for Inactive)
REMARK    1  A    between atoms: O1_2  and  C2_3 
REMARK    2  A    between atoms: C2_3  and  C3_5 
REMARK    3  A    between atoms: C4_6  and  C5_7 
REMARK    4  A    between atoms: C7_9  and  N1_10 
REMARK    5  A    between atoms: N1_10  and  O3_11 
REMARK    6  A    between atoms: N1_10  and  O4_13 
REMARK    7  A    between atoms: C12_21  and  O7_22 
REMARK    8  A    between atoms: C12_21  and  C13_24 
REMARK    9  A    between atoms: C13_24  and  C14_25 
ROOT
HETATM    1  C3  UNL     1      19.983  82.145   0.729  1.00  0.00     0.166 C 
HETATM    2  C4  UNL     1      19.483  82.901  -0.414  1.00  0.00     0.138 C 
HETATM    3  C11 UNL     1      18.160  83.377   0.169  1.00  0.00     0.271 C 
HETATM    4  O5  UNL     1      17.053  83.501  -0.443  1.00  0.00    -0.264 OA
HETATM    5  O6  UNL     1      18.421  83.639   1.500  1.00  0.00    -0.282 OA
HETATM    6  C12 UNL     1      19.640  83.046   1.894  1.00  0.00     0.185 C 
ENDROOT
BRANCH   2   7
HETATM    7  C5  UNL     1      19.053  82.186  -1.650  1.00  0.00    -0.028 A 
HETATM    8  C6  UNL     1      18.460  80.985  -1.652  1.00  0.00     0.051 A 
HETATM    9  C7  UNL     1      17.974  80.483  -2.825  1.00  0.00     0.129 A 
HETATM   10  S1  UNL     1      18.381  81.755  -3.947  1.00  0.00    -0.072 SA
HETATM   11  C9  UNL     1      19.124  82.848  -2.905  1.00  0.00    -0.012 A 
HETATM   12  C10 UNL     1      19.764  84.171  -3.155  1.00  0.00     0.057 C 
BRANCH   9  13
HETATM   13  N1  UNL     1      17.238  79.295  -3.149  1.00  0.00    -0.120 N 
BRANCH  13  14
HETATM   14  O3  UNL     1      17.942  78.243  -3.358  1.00  0.00    -0.262 OA
ATOM     15  H3  UNL     1      18.075  77.680  -2.604  1.00  0.00     0.247 HD
ENDBRANCH  13  14
BRANCH  13  16
HETATM   16  O4  UNL     1      15.866  79.263  -3.235  1.00  0.00    -0.258 OA
HETATM   17  C8  UNL     1      15.106  80.479  -3.231  1.00  0.00     0.240 C 
ENDBRANCH  13  16
ENDBRANCH   9  13
ENDBRANCH   2   7
BRANCH   1  18
HETATM   18  C2  UNL     1      21.547  82.195   0.674  1.00  0.00     0.269 C 
HETATM   19  O2  UNL     1      22.147  81.603   1.640  1.00  0.00    -0.265 OA
BRANCH  18  20
HETATM   20  O1  UNL     1      22.244  82.802  -0.296  1.00  0.00    -0.326 OA
HETATM   21  C1  UNL     1      23.630  83.098  -0.251  1.00  0.00     0.213 C 
ENDBRANCH  18  20
ENDBRANCH   1  18
BRANCH   6  22
HETATM   22  O7  UNL     1      20.630  84.026   2.015  1.00  0.00    -0.364 OA
ATOM     23  H7  UNL     1      21.411  83.631   2.384  1.00  0.00     0.213 HD
ENDBRANCH   6  22
BRANCH   6  24
HETATM   24  C13 UNL     1      19.461  82.247   3.134  1.00  0.00     0.073 C 
BRANCH  24  25
HETATM   25  C14 UNL     1      18.364  82.582   4.036  1.00  0.00    -0.018 C 
HETATM   26  C15 UNL     1      18.778  83.703   4.967  1.00  0.00     0.009 C 
HETATM   27  C16 UNL     1      17.753  81.500   4.820  1.00  0.00     0.009 C 
ENDBRANCH  24  25
ENDBRANCH   6  24
TORSDOF 9
ENDMDL
