MODEL 1
REMARK VINA RESULT: -8.934961306      0.000      0.000
REMARK  16 active torsions:
REMARK  status: ('A' for Active; 'I' for Inactive)
REMARK    1  A    between atoms: C3_3  and  C4_4 
REMARK    2  A    between atoms: C4_4  and  C5_5 
REMARK    3  A    between atoms: C11_18  and  C12_19 
REMARK    4  A    between atoms: C14_24  and  O4_25 
REMARK    5  A    between atoms: C16_28  and  O5_29 
REMARK    6  A    between atoms: C17_31  and  O6_32 
REMARK    7  A    between atoms: O6_32  and  C18_33 
REMARK    8  A    between atoms: C19_37  and  O7_38 
REMARK    9  A    between atoms: C20_41  and  N6_42 
REMARK   10  A    between atoms: N7_44  and  O9_46 
REMARK   11  A    between atoms: O9_46  and  C21_47 
REMARK   12  A    between atoms: C21_47  and  C22_48 
REMARK   13  A    between atoms: C22_48  and  N8_49 
REMARK   14  A    between atoms: C23_53  and  N9_54 
REMARK   15  A    between atoms: N9_54  and  O10_55 
REMARK   16  A    between atoms: N9_54  and  O11_57 
ROOT
HETATM    1  C1  UNL     1      14.436   9.563  21.773  1.00  0.00     0.051 C 
HETATM    2  C2  UNL     1      14.230  11.024  22.000  1.00  0.00    -0.021 A 
HETATM    3  C3  UNL     1      13.227  11.648  21.270  1.00  0.00     0.009 A 
HETATM    4  C16 UNL     1      13.059  13.020  21.503  1.00  0.00     0.112 A 
HETATM    5  C17 UNL     1      13.850  13.694  22.404  1.00  0.00     0.138 A 
HETATM    6  C20 UNL     1      14.830  13.030  23.102  1.00  0.00     0.112 A 
HETATM    7  C23 UNL     1      15.032  11.682  22.906  1.00  0.00     0.103 A 
ENDROOT
BRANCH   3   8
HETATM    8  C4  UNL     1      12.414  11.050  20.277  1.00  0.00     0.032 C 
BRANCH   8   9
HETATM    9  C5  UNL     1      12.449  10.178  19.353  1.00  0.00     0.043 A 
HETATM   10  C6  UNL     1      13.149  10.382  18.122  1.00  0.00     0.141 A 
HETATM   11  N1  UNL     1      13.872  11.412  17.656  1.00  0.00    -0.327 N 
HETATM   12  N3  UNL     1      13.002   9.302  17.365  1.00  0.00    -0.243 N 
HETATM   13  C7  UNL     1      14.446  11.386  16.459  1.00  0.00     0.101 A 
ATOM     14  H1  UNL     1      13.985  12.241  18.239  1.00  0.00     0.169 HD
HETATM   15  N2  UNL     1      15.148  12.401  16.018  1.00  0.00    -0.385 N 
HETATM   16  C8  UNL     1      14.306  10.279  15.660  1.00  0.00     0.067 A 
ATOM     17  H22 UNL     1      15.252  13.224  16.612  1.00  0.00     0.157 HD
ATOM     18  H21 UNL     1      15.589  12.382  15.098  1.00  0.00     0.157 HD
HETATM   19  C9  UNL     1      13.571   9.240  16.142  1.00  0.00     0.122 A 
HETATM   20  N4  UNL     1      12.264   8.423  18.009  1.00  0.00    -0.255 N 
HETATM   21  C10 UNL     1      11.857   7.186  17.629  1.00  0.00     0.140 A 
HETATM   22  C15 UNL     1      11.912   8.927  19.223  1.00  0.00     0.107 A 
HETATM   23  C11 UNL     1      11.072   6.372  18.435  1.00  0.00     0.111 A 
HETATM   24  C13 UNL     1      10.701   6.855  19.666  1.00  0.00     0.225 A 
HETATM   25  O3  UNL     1       9.990   6.153  20.430  1.00  0.00    -0.284 OA
HETATM   26  C14 UNL     1      11.125   8.114  20.034  1.00  0.00     0.147 A 
BRANCH  23  27
HETATM   27  C12 UNL     1      10.685   5.062  17.942  1.00  0.00     0.215 C 
HETATM   28  O1  UNL     1      10.717   4.073  18.717  1.00  0.00    -0.644 OA
HETATM   29  O2  UNL     1      10.274   4.842  16.638  1.00  0.00    -0.644 OA
ENDBRANCH  23  27
BRANCH  26  30
HETATM   30  O4  UNL     1      10.740   8.559  21.256  1.00  0.00    -0.355 OA
ATOM     31  H4  UNL     1      10.978   8.022  22.003  1.00  0.00     0.218 HD
ENDBRANCH  26  30
ENDBRANCH   8   9
ENDBRANCH   3   8
BRANCH   4  32
HETATM   32  O5  UNL     1      12.093  13.754  20.837  1.00  0.00    -0.357 OA
ATOM     33  H5  UNL     1      12.169  14.696  20.732  1.00  0.00     0.217 HD
ENDBRANCH   4  32
BRANCH   7  34
HETATM   34  N9  UNL     1      16.052  11.012  23.637  1.00  0.00    -0.033 NA
BRANCH  34  35
HETATM   35  O10 UNL     1      17.181  10.862  22.903  1.00  0.00    -0.284 OA
ATOM     36  H10 UNL     1      17.701  11.657  22.888  1.00  0.00     0.240 HD
ENDBRANCH  34  35
BRANCH  34  37
HETATM   37  O11 UNL     1      15.629   9.839  24.164  1.00  0.00    -0.284 OA
ATOM     38  H11 UNL     1      16.143   9.098  23.863  1.00  0.00     0.240 HD
ENDBRANCH  34  37
ENDBRANCH   7  34
BRANCH   5  39
HETATM   39  O6  UNL     1      13.710  15.057  22.660  1.00  0.00    -0.291 OA
BRANCH  39  40
HETATM   40  C18 UNL     1      14.497  16.042  22.045  1.00  0.00     0.484 C 
HETATM   41  N5  UNL     1      14.951  17.055  22.983  1.00  0.00     0.026 N 
HETATM   42  C19 UNL     1      16.326  16.734  22.632  1.00  0.00     0.476 C 
ATOM     43  H52 UNL     1      14.611  18.014  22.910  1.00  0.00     0.289 HD
ATOM     44  H51 UNL     1      14.647  17.029  23.956  1.00  0.00     0.289 HD
HETATM   45  O8  UNL     1      15.846  15.671  21.861  1.00  0.00    -0.283 OA
BRANCH  42  46
HETATM   46  O7  UNL     1      17.088  16.327  23.731  1.00  0.00    -0.349 OA
ATOM     47  H7  UNL     1      16.974  16.888  24.489  1.00  0.00     0.214 HD
ENDBRANCH  42  46
ENDBRANCH  39  40
ENDBRANCH   5  39
BRANCH   6  48
HETATM   48  N6  UNL     1      15.665  13.708  24.047  1.00  0.00    -0.277 N 
HETATM   49  N7  UNL     1      15.119  14.033  25.146  1.00  0.00    -0.207 N 
ATOM     50  H7  UNL     1      14.137  13.795  25.287  1.00  0.00     0.216 HD
ATOM     51  H6  UNL     1      16.642  13.919  23.849  1.00  0.00     0.189 HD
BRANCH  49  52
HETATM   52  O9  UNL     1      15.774  14.682  26.145  1.00  0.00    -0.263 OA
BRANCH  52  53
HETATM   53  C21 UNL     1      15.289  15.918  26.614  1.00  0.00     0.230 C 
BRANCH  53  54
HETATM   54  C22 UNL     1      13.825  16.064  26.216  1.00  0.00     0.258 C 
BRANCH  54  55
HETATM   55  N8  UNL     1      13.147  17.065  26.999  1.00  0.00    -0.077 N 
ATOM     56  H83 UNL     1      13.809  17.722  27.413  1.00  0.00     0.274 HD
ATOM     57  H82 UNL     1      12.629  17.711  26.404  1.00  0.00     0.274 HD
ATOM     58  H81 UNL     1      12.544  16.652  27.710  1.00  0.00     0.274 HD
ENDBRANCH  54  55
ENDBRANCH  53  54
ENDBRANCH  52  53
ENDBRANCH  49  52
ENDBRANCH   6  48
TORSDOF 16
ENDMDL
MODEL 2
REMARK VINA RESULT: -8.852248008      1.636      2.696
REMARK  16 active torsions:
REMARK  status: ('A' for Active; 'I' for Inactive)
REMARK    1  A    between atoms: C3_3  and  C4_4 
REMARK    2  A    between atoms: C4_4  and  C5_5 
REMARK    3  A    between atoms: C11_18  and  C12_19 
REMARK    4  A    between atoms: C14_24  and  O4_25 
REMARK    5  A    between atoms: C16_28  and  O5_29 
REMARK    6  A    between atoms: C17_31  and  O6_32 
REMARK    7  A    between atoms: O6_32  and  C18_33 
REMARK    8  A    between atoms: C19_37  and  O7_38 
REMARK    9  A    between atoms: C20_41  and  N6_42 
REMARK   10  A    between atoms: N7_44  and  O9_46 
REMARK   11  A    between atoms: O9_46  and  C21_47 
REMARK   12  A    between atoms: C21_47  and  C22_48 
REMARK   13  A    between atoms: C22_48  and  N8_49 
REMARK   14  A    between atoms: C23_53  and  N9_54 
REMARK   15  A    between atoms: N9_54  and  O10_55 
REMARK   16  A    between atoms: N9_54  and  O11_57 
ROOT
HETATM    1  C1  UNL     1      14.207  10.706  22.627  1.00  0.00     0.051 C 
HETATM    2  C2  UNL     1      13.840  12.059  22.114  1.00  0.00    -0.021 A 
HETATM    3  C3  UNL     1      12.847  12.126  21.146  1.00  0.00     0.009 A 
HETATM    4  C16 UNL     1      12.525  13.410  20.683  1.00  0.00     0.112 A 
HETATM    5  C17 UNL     1      13.165  14.526  21.168  1.00  0.00     0.138 A 
HETATM    6  C20 UNL     1      14.142  14.405  22.127  1.00  0.00     0.112 A 
HETATM    7  C23 UNL     1      14.492  13.165  22.612  1.00  0.00     0.103 A 
ENDROOT
BRANCH   3   8
HETATM    8  C4  UNL     1      12.184  11.029  20.543  1.00  0.00     0.032 C 
BRANCH   8   9
HETATM    9  C5  UNL     1      12.296  10.203  19.583  1.00  0.00     0.043 A 
HETATM   10  C6  UNL     1      13.029  10.498  18.390  1.00  0.00     0.141 A 
HETATM   11  N1  UNL     1      13.716  11.581  17.997  1.00  0.00    -0.327 N 
HETATM   12  N3  UNL     1      12.963   9.448  17.581  1.00  0.00    -0.243 N 
HETATM   13  C7  UNL     1      14.332  11.638  16.823  1.00  0.00     0.101 A 
ATOM     14  H1  UNL     1      13.766  12.387  18.621  1.00  0.00     0.169 HD
HETATM   15  N2  UNL     1      14.998  12.706  16.455  1.00  0.00    -0.385 N 
HETATM   16  C8  UNL     1      14.277  10.564  15.972  1.00  0.00     0.067 A 
ATOM     17  H22 UNL     1      15.039  13.504  17.087  1.00  0.00     0.157 HD
ATOM     18  H21 UNL     1      15.472  12.749  15.552  1.00  0.00     0.157 HD
HETATM   19  C9  UNL     1      13.578   9.469  16.379  1.00  0.00     0.122 A 
HETATM   20  N4  UNL     1      12.248   8.506  18.157  1.00  0.00    -0.255 N 
HETATM   21  C10 UNL     1      11.917   7.269  17.709  1.00  0.00     0.140 A 
HETATM   22  C15 UNL     1      11.828   8.935  19.378  1.00  0.00     0.107 A 
HETATM   23  C11 UNL     1      11.145   6.382  18.448  1.00  0.00     0.111 A 
HETATM   24  C13 UNL     1      10.707   6.789  19.684  1.00  0.00     0.225 A 
HETATM   25  O3  UNL     1      10.005   6.019  20.388  1.00  0.00    -0.284 OA
HETATM   26  C14 UNL     1      11.054   8.049  20.122  1.00  0.00     0.147 A 
BRANCH  23  27
HETATM   27  C12 UNL     1      10.842   5.078  17.883  1.00  0.00     0.215 C 
HETATM   28  O1  UNL     1      11.124   4.040  18.533  1.00  0.00    -0.644 OA
HETATM   29  O2  UNL     1      10.247   4.917  16.643  1.00  0.00    -0.644 OA
ENDBRANCH  23  27
BRANCH  26  30
HETATM   30  O4  UNL     1      10.604   8.418  21.347  1.00  0.00    -0.355 OA
ATOM     31  H4  UNL     1      11.131   9.046  21.827  1.00  0.00     0.218 HD
ENDBRANCH  26  30
ENDBRANCH   8   9
ENDBRANCH   3   8
BRANCH   4  32
HETATM   32  O5  UNL     1      11.552  13.609  19.719  1.00  0.00    -0.357 OA
ATOM     33  H5  UNL     1      11.717  14.142  18.949  1.00  0.00     0.217 HD
ENDBRANCH   4  32
BRANCH   7  34
HETATM   34  N9  UNL     1      15.506  13.060  23.604  1.00  0.00    -0.033 NA
BRANCH  34  35
HETATM   35  O10 UNL     1      15.121  13.617  24.778  1.00  0.00    -0.284 OA
ATOM     36  H10 UNL     1      14.388  14.211  24.664  1.00  0.00     0.240 HD
ENDBRANCH  34  35
BRANCH  34  37
HETATM   37  O11 UNL     1      16.699  13.541  23.181  1.00  0.00    -0.284 OA
ATOM     38  H11 UNL     1      17.435  13.060  23.542  1.00  0.00     0.240 HD
ENDBRANCH  34  37
ENDBRANCH   7  34
BRANCH   5  39
HETATM   39  O6  UNL     1      12.871  15.817  20.730  1.00  0.00    -0.291 OA
BRANCH  39  40
HETATM   40  C18 UNL     1      11.809  16.579  21.236  1.00  0.00     0.484 C 
HETATM   41  N5  UNL     1      10.533  16.217  20.641  1.00  0.00     0.026 N 
HETATM   42  C19 UNL     1      10.023  15.912  21.969  1.00  0.00     0.476 C 
ATOM     43  H52 UNL     1      10.040  16.875  20.039  1.00  0.00     0.289 HD
ATOM     44  H51 UNL     1      10.490  15.518  19.900  1.00  0.00     0.289 HD
HETATM   45  O8  UNL     1      11.310  16.123  22.475  1.00  0.00    -0.283 OA
BRANCH  42  46
HETATM   46  O7  UNL     1       9.584  14.591  22.095  1.00  0.00    -0.349 OA
ATOM     47  H7  UNL     1       9.020  14.458  22.848  1.00  0.00     0.214 HD
ENDBRANCH  42  46
ENDBRANCH  39  40
ENDBRANCH   5  39
BRANCH   6  48
HETATM   48  N6  UNL     1      14.822  15.552  22.650  1.00  0.00    -0.277 N 
HETATM   49  N7  UNL     1      15.818  15.967  21.983  1.00  0.00    -0.207 N 
ATOM     50  H7  UNL     1      16.070  15.469  21.130  1.00  0.00     0.216 HD
ATOM     51  H6  UNL     1      14.522  16.010  23.511  1.00  0.00     0.189 HD
BRANCH  49  52
HETATM   52  O9  UNL     1      16.567  17.042  22.345  1.00  0.00    -0.263 OA
BRANCH  52  53
HETATM   53  C21 UNL     1      17.737  16.855  23.107  1.00  0.00     0.230 C 
BRANCH  53  54
HETATM   54  C22 UNL     1      17.396  16.986  24.587  1.00  0.00     0.258 C 
BRANCH  54  55
HETATM   55  N8  UNL     1      17.125  15.710  25.196  1.00  0.00    -0.077 N 
ATOM     56  H83 UNL     1      16.738  15.052  24.520  1.00  0.00     0.274 HD
ATOM     57  H82 UNL     1      17.990  15.218  25.423  1.00  0.00     0.274 HD
ATOM     58  H81 UNL     1      16.523  15.795  26.014  1.00  0.00     0.274 HD
ENDBRANCH  54  55
ENDBRANCH  53  54
ENDBRANCH  52  53
ENDBRANCH  49  52
ENDBRANCH   6  48
TORSDOF 16
ENDMDL
MODEL 3
REMARK VINA RESULT: -8.764089273      2.764      8.929
REMARK  16 active torsions:
REMARK  status: ('A' for Active; 'I' for Inactive)
REMARK    1  A    between atoms: C3_3  and  C4_4 
REMARK    2  A    between atoms: C4_4  and  C5_5 
REMARK    3  A    between atoms: C11_18  and  C12_19 
REMARK    4  A    between atoms: C14_24  and  O4_25 
REMARK    5  A    between atoms: C16_28  and  O5_29 
REMARK    6  A    between atoms: C17_31  and  O6_32 
REMARK    7  A    between atoms: O6_32  and  C18_33 
REMARK    8  A    between atoms: C19_37  and  O7_38 
REMARK    9  A    between atoms: C20_41  and  N6_42 
REMARK   10  A    between atoms: N7_44  and  O9_46 
REMARK   11  A    between atoms: O9_46  and  C21_47 
REMARK   12  A    between atoms: C21_47  and  C22_48 
REMARK   13  A    between atoms: C22_48  and  N8_49 
REMARK   14  A    between atoms: C23_53  and  N9_54 
REMARK   15  A    between atoms: N9_54  and  O10_55 
REMARK   16  A    between atoms: N9_54  and  O11_57 
ROOT
HETATM    1  C1  UNL     1      13.814  12.098  17.886  1.00  0.00     0.051 C 
HETATM    2  C2  UNL     1      13.686  11.342  19.166  1.00  0.00    -0.021 A 
HETATM    3  C3  UNL     1      14.126  11.970  20.324  1.00  0.00     0.009 A 
HETATM    4  C16 UNL     1      13.994  11.235  21.510  1.00  0.00     0.112 A 
HETATM    5  C17 UNL     1      13.459   9.968  21.510  1.00  0.00     0.138 A 
HETATM    6  C20 UNL     1      13.038   9.391  20.337  1.00  0.00     0.112 A 
HETATM    7  C23 UNL     1      13.148  10.075  19.146  1.00  0.00     0.103 A 
ENDROOT
BRANCH   3   8
HETATM    8  C4  UNL     1      14.749  13.239  20.408  1.00  0.00     0.032 C 
BRANCH   8   9
HETATM    9  C5  UNL     1      15.695  13.848  21.000  1.00  0.00     0.043 A 
HETATM   10  C6  UNL     1      17.004  13.976  20.437  1.00  0.00     0.141 A 
HETATM   11  N1  UNL     1      17.535  13.550  19.280  1.00  0.00    -0.327 N 
HETATM   12  N3  UNL     1      17.766  14.656  21.284  1.00  0.00    -0.243 N 
HETATM   13  C7  UNL     1      18.800  13.787  18.955  1.00  0.00     0.101 A 
ATOM     14  H1  UNL     1      16.947  13.027  18.630  1.00  0.00     0.169 HD
HETATM   15  N2  UNL     1      19.302  13.362  17.821  1.00  0.00    -0.385 N 
HETATM   16  C8  UNL     1      19.605  14.488  19.817  1.00  0.00     0.067 A 
ATOM     17  H22 UNL     1      18.704  12.841  17.181  1.00  0.00     0.157 HD
ATOM     18  H21 UNL     1      20.275  13.544  17.571  1.00  0.00     0.157 HD
HETATM   19  C9  UNL     1      19.057  14.916  20.987  1.00  0.00     0.122 A 
HETATM   20  N4  UNL     1      17.053  14.974  22.343  1.00  0.00    -0.255 N 
HETATM   21  C10 UNL     1      17.410  15.663  23.456  1.00  0.00     0.140 A 
HETATM   22  C15 UNL     1      15.787  14.496  22.200  1.00  0.00     0.107 A 
HETATM   23  C11 UNL     1      16.528  15.918  24.498  1.00  0.00     0.111 A 
HETATM   24  C13 UNL     1      15.243  15.447  24.381  1.00  0.00     0.225 A 
HETATM   25  O3  UNL     1      14.410  15.654  25.299  1.00  0.00    -0.284 OA
HETATM   26  C14 UNL     1      14.900  14.750  23.242  1.00  0.00     0.147 A 
BRANCH  23  27
HETATM   27  C12 UNL     1      17.002  16.664  25.650  1.00  0.00     0.215 C 
HETATM   28  O1  UNL     1      18.170  16.475  26.074  1.00  0.00    -0.644 OA
HETATM   29  O2  UNL     1      16.219  17.590  26.319  1.00  0.00    -0.644 OA
ENDBRANCH  23  27
BRANCH  26  30
HETATM   30  O4  UNL     1      13.623  14.299  23.160  1.00  0.00    -0.355 OA
ATOM     31  H4  UNL     1      13.301  14.078  22.294  1.00  0.00     0.218 HD
ENDBRANCH  26  30
ENDBRANCH   8   9
ENDBRANCH   3   8
BRANCH   4  32
HETATM   32  O5  UNL     1      14.397  11.751  22.730  1.00  0.00    -0.357 OA
ATOM     33  H5  UNL     1      15.298  12.008  22.888  1.00  0.00     0.217 HD
ENDBRANCH   4  32
BRANCH   7  34
HETATM   34  N9  UNL     1      12.707   9.460  17.941  1.00  0.00    -0.033 NA
BRANCH  34  35
HETATM   35  O10 UNL     1      11.400   9.107  18.006  1.00  0.00    -0.284 OA
ATOM     36  H10 UNL     1      10.899   9.705  18.548  1.00  0.00     0.240 HD
ENDBRANCH  34  35
BRANCH  34  37
HETATM   37  O11 UNL     1      13.495   8.426  17.567  1.00  0.00    -0.284 OA
ATOM     38  H11 UNL     1      13.037   7.593  17.587  1.00  0.00     0.240 HD
ENDBRANCH  34  37
ENDBRANCH   7  34
BRANCH   5  39
HETATM   39  O6  UNL     1      13.314   9.209  22.671  1.00  0.00    -0.291 OA
BRANCH  39  40
HETATM   40  C18 UNL     1      14.179   8.163  23.022  1.00  0.00     0.484 C 
HETATM   41  N5  UNL     1      15.552   8.612  23.189  1.00  0.00     0.026 N 
HETATM   42  C19 UNL     1      15.528   8.112  24.555  1.00  0.00     0.476 C 
ATOM     43  H52 UNL     1      16.277   8.304  22.540  1.00  0.00     0.289 HD
ATOM     44  H51 UNL     1      15.804   9.581  22.998  1.00  0.00     0.289 HD
HETATM   45  O8  UNL     1      14.166   7.839  24.395  1.00  0.00    -0.283 OA
BRANCH  42  46
HETATM   46  O7  UNL     1      15.791   9.105  25.503  1.00  0.00    -0.349 OA
ATOM     47  H7  UNL     1      15.511   8.865  26.379  1.00  0.00     0.214 HD
ENDBRANCH  42  46
ENDBRANCH  39  40
ENDBRANCH   5  39
BRANCH   6  48
HETATM   48  N6  UNL     1      12.475   8.074  20.311  1.00  0.00    -0.277 N 
HETATM   49  N7  UNL     1      11.243   7.984  20.602  1.00  0.00    -0.207 N 
ATOM     50  H7  UNL     1      10.737   8.839  20.833  1.00  0.00     0.216 HD
ATOM     51  H6  UNL     1      13.033   7.254  20.072  1.00  0.00     0.189 HD
BRANCH  49  52
HETATM   52  O9  UNL     1      10.563   6.809  20.624  1.00  0.00    -0.263 OA
BRANCH  52  53
HETATM   53  C21 UNL     1      10.632   5.938  19.518  1.00  0.00     0.230 C 
BRANCH  53  54
HETATM   54  C22 UNL     1       9.220   5.536  19.111  1.00  0.00     0.258 C 
BRANCH  54  55
HETATM   55  N8  UNL     1       8.916   4.176  19.477  1.00  0.00    -0.077 N 
ATOM     56  H83 UNL     1       8.997   3.550  18.676  1.00  0.00     0.274 HD
ATOM     57  H82 UNL     1       9.648   3.780  20.066  1.00  0.00     0.274 HD
ATOM     58  H81 UNL     1       8.001   4.093  19.919  1.00  0.00     0.274 HD
ENDBRANCH  54  55
ENDBRANCH  53  54
ENDBRANCH  52  53
ENDBRANCH  49  52
ENDBRANCH   6  48
TORSDOF 16
ENDMDL
MODEL 4
REMARK VINA RESULT: -8.697064477      2.847      9.229
REMARK  16 active torsions:
REMARK  status: ('A' for Active; 'I' for Inactive)
REMARK    1  A    between atoms: C3_3  and  C4_4 
REMARK    2  A    between atoms: C4_4  and  C5_5 
REMARK    3  A    between atoms: C11_18  and  C12_19 
REMARK    4  A    between atoms: C14_24  and  O4_25 
REMARK    5  A    between atoms: C16_28  and  O5_29 
REMARK    6  A    between atoms: C17_31  and  O6_32 
REMARK    7  A    between atoms: O6_32  and  C18_33 
REMARK    8  A    between atoms: C19_37  and  O7_38 
REMARK    9  A    between atoms: C20_41  and  N6_42 
REMARK   10  A    between atoms: N7_44  and  O9_46 
REMARK   11  A    between atoms: O9_46  and  C21_47 
REMARK   12  A    between atoms: C21_47  and  C22_48 
REMARK   13  A    between atoms: C22_48  and  N8_49 
REMARK   14  A    between atoms: C23_53  and  N9_54 
REMARK   15  A    between atoms: N9_54  and  O10_55 
REMARK   16  A    between atoms: N9_54  and  O11_57 
ROOT
HETATM    1  C1  UNL     1      13.833  12.387  18.279  1.00  0.00     0.051 C 
HETATM    2  C2  UNL     1      13.690  11.599  19.539  1.00  0.00    -0.021 A 
HETATM    3  C3  UNL     1      14.035  12.229  20.727  1.00  0.00     0.009 A 
HETATM    4  C16 UNL     1      13.891  11.464  21.893  1.00  0.00     0.112 A 
HETATM    5  C17 UNL     1      13.434  10.168  21.846  1.00  0.00     0.138 A 
HETATM    6  C20 UNL     1      13.106   9.591  20.643  1.00  0.00     0.112 A 
HETATM    7  C23 UNL     1      13.231  10.303  19.471  1.00  0.00     0.103 A 
ENDROOT
BRANCH   3   8
HETATM    8  C4  UNL     1      14.575  13.532  20.863  1.00  0.00     0.032 C 
BRANCH   8   9
HETATM    9  C5  UNL     1      15.541  14.159  21.401  1.00  0.00     0.043 A 
HETATM   10  C6  UNL     1      15.443  14.772  22.690  1.00  0.00     0.141 A 
HETATM   11  N1  UNL     1      14.441  14.848  23.579  1.00  0.00    -0.327 N 
HETATM   12  N3  UNL     1      16.605  15.345  22.977  1.00  0.00    -0.243 N 
HETATM   13  C7  UNL     1      14.574  15.481  24.739  1.00  0.00     0.101 A 
ATOM     14  H1  UNL     1      13.549  14.406  23.357  1.00  0.00     0.169 HD
HETATM   15  N2  UNL     1      13.583  15.546  25.596  1.00  0.00    -0.385 N 
HETATM   16  C8  UNL     1      15.766  16.080  25.055  1.00  0.00     0.067 A 
ATOM     17  H22 UNL     1      12.697  15.100  25.361  1.00  0.00     0.157 HD
ATOM     18  H21 UNL     1      13.685  16.033  26.487  1.00  0.00     0.157 HD
HETATM   19  C9  UNL     1      16.776  15.997  24.147  1.00  0.00     0.122 A 
HETATM   20  N4  UNL     1      17.438  15.151  21.978  1.00  0.00    -0.255 N 
HETATM   21  C10 UNL     1      18.726  15.552  21.830  1.00  0.00     0.140 A 
HETATM   22  C15 UNL     1      16.820  14.431  21.003  1.00  0.00     0.107 A 
HETATM   23  C11 UNL     1      19.479  15.262  20.700  1.00  0.00     0.111 A 
HETATM   24  C13 UNL     1      18.880  14.536  19.699  1.00  0.00     0.225 A 
HETATM   25  O3  UNL     1      19.524  14.250  18.657  1.00  0.00    -0.284 OA
HETATM   26  C14 UNL     1      17.572  14.138  19.868  1.00  0.00     0.147 A 
BRANCH  23  27
HETATM   27  C12 UNL     1      20.851  15.734  20.632  1.00  0.00     0.215 C 
HETATM   28  O1  UNL     1      21.767  15.060  21.167  1.00  0.00    -0.644 OA
HETATM   29  O2  UNL     1      21.208  16.911  19.996  1.00  0.00    -0.644 OA
ENDBRANCH  23  27
BRANCH  26  30
HETATM   30  O4  UNL     1      17.012  13.424  18.860  1.00  0.00    -0.355 OA
ATOM     31  H4  UNL     1      16.087  13.221  18.939  1.00  0.00     0.218 HD
ENDBRANCH  26  30
ENDBRANCH   8   9
ENDBRANCH   3   8
BRANCH   4  32
HETATM   32  O5  UNL     1      14.203  11.979  23.140  1.00  0.00    -0.357 OA
ATOM     33  H5  UNL     1      13.631  11.848  23.888  1.00  0.00     0.217 HD
ENDBRANCH   4  32
BRANCH   7  34
HETATM   34  N9  UNL     1      12.887   9.688  18.236  1.00  0.00    -0.033 NA
BRANCH  34  35
HETATM   35  O10 UNL     1      11.564   9.400  18.169  1.00  0.00    -0.284 OA
ATOM     36  H10 UNL     1      11.040  10.179  18.018  1.00  0.00     0.240 HD
ENDBRANCH  34  35
BRANCH  34  37
HETATM   37  O11 UNL     1      13.656   8.608  17.961  1.00  0.00    -0.284 OA
ATOM     38  H11 UNL     1      13.499   8.261  17.090  1.00  0.00     0.240 HD
ENDBRANCH  34  37
ENDBRANCH   7  34
BRANCH   5  39
HETATM   39  O6  UNL     1      13.280   9.379  22.985  1.00  0.00    -0.291 OA
BRANCH  39  40
HETATM   40  C18 UNL     1      14.061   8.245  23.250  1.00  0.00     0.484 C 
HETATM   41  N5  UNL     1      15.478   8.557  23.340  1.00  0.00     0.026 N 
HETATM   42  C19 UNL     1      15.490   8.015  24.690  1.00  0.00     0.476 C 
ATOM     43  H52 UNL     1      16.129   8.205  22.638  1.00  0.00     0.289 HD
ATOM     44  H51 UNL     1      15.810   9.504  23.162  1.00  0.00     0.289 HD
HETATM   45  O8  UNL     1      14.101   7.877  24.611  1.00  0.00    -0.283 OA
BRANCH  42  46
HETATM   46  O7  UNL     1      15.905   8.945  25.647  1.00  0.00    -0.349 OA
ATOM     47  H7  UNL     1      15.463   8.840  26.482  1.00  0.00     0.214 HD
ENDBRANCH  42  46
ENDBRANCH  39  40
ENDBRANCH   5  39
BRANCH   6  48
HETATM   48  N6  UNL     1      12.626   8.243  20.568  1.00  0.00    -0.277 N 
HETATM   49  N7  UNL     1      11.368   8.090  20.644  1.00  0.00    -0.207 N 
ATOM     50  H7  UNL     1      10.786   8.920  20.753  1.00  0.00     0.216 HD
ATOM     51  H6  UNL     1      13.259   7.451  20.458  1.00  0.00     0.189 HD
BRANCH  49  52
HETATM   52  O9  UNL     1      10.757   6.878  20.590  1.00  0.00    -0.263 OA
BRANCH  52  53
HETATM   53  C21 UNL     1      10.106   6.474  19.408  1.00  0.00     0.230 C 
BRANCH  53  54
HETATM   54  C22 UNL     1      11.039   5.574  18.607  1.00  0.00     0.258 C 
BRANCH  54  55
HETATM   55  N8  UNL     1      11.994   6.330  17.838  1.00  0.00    -0.077 N 
ATOM     56  H83 UNL     1      11.899   6.140  16.840  1.00  0.00     0.274 HD
ATOM     57  H82 UNL     1      11.764   7.323  17.837  1.00  0.00     0.274 HD
ATOM     58  H81 UNL     1      12.951   6.173  18.154  1.00  0.00     0.274 HD
ENDBRANCH  54  55
ENDBRANCH  53  54
ENDBRANCH  52  53
ENDBRANCH  49  52
ENDBRANCH   6  48
TORSDOF 16
ENDMDL
MODEL 5
REMARK VINA RESULT: -8.692735661      1.265      3.549
REMARK  16 active torsions:
REMARK  status: ('A' for Active; 'I' for Inactive)
REMARK    1  A    between atoms: C3_3  and  C4_4 
REMARK    2  A    between atoms: C4_4  and  C5_5 
REMARK    3  A    between atoms: C11_18  and  C12_19 
REMARK    4  A    between atoms: C14_24  and  O4_25 
REMARK    5  A    between atoms: C16_28  and  O5_29 
REMARK    6  A    between atoms: C17_31  and  O6_32 
REMARK    7  A    between atoms: O6_32  and  C18_33 
REMARK    8  A    between atoms: C19_37  and  O7_38 
REMARK    9  A    between atoms: C20_41  and  N6_42 
REMARK   10  A    between atoms: N7_44  and  O9_46 
REMARK   11  A    between atoms: O9_46  and  C21_47 
REMARK   12  A    between atoms: C21_47  and  C22_48 
REMARK   13  A    between atoms: C22_48  and  N8_49 
REMARK   14  A    between atoms: C23_53  and  N9_54 
REMARK   15  A    between atoms: N9_54  and  O10_55 
REMARK   16  A    between atoms: N9_54  and  O11_57 
ROOT
HETATM    1  C1  UNL     1      12.562  14.197  20.176  1.00  0.00     0.051 C 
HETATM    2  C2  UNL     1      13.249  13.293  21.145  1.00  0.00    -0.021 A 
HETATM    3  C3  UNL     1      13.155  11.926  20.918  1.00  0.00     0.009 A 
HETATM    4  C16 UNL     1      13.808  11.103  21.846  1.00  0.00     0.112 A 
HETATM    5  C17 UNL     1      14.497  11.633  22.911  1.00  0.00     0.138 A 
HETATM    6  C20 UNL     1      14.560  12.994  23.091  1.00  0.00     0.112 A 
HETATM    7  C23 UNL     1      13.933  13.843  22.206  1.00  0.00     0.103 A 
ENDROOT
BRANCH   3   8
HETATM    8  C4  UNL     1      12.415  11.293  19.890  1.00  0.00     0.032 C 
BRANCH   8   9
HETATM    9  C5  UNL     1      12.503  10.365  19.026  1.00  0.00     0.043 A 
HETATM   10  C6  UNL     1      13.255  10.503  17.817  1.00  0.00     0.141 A 
HETATM   11  N1  UNL     1      13.984  11.513  17.318  1.00  0.00    -0.327 N 
HETATM   12  N3  UNL     1      13.157   9.375  17.124  1.00  0.00    -0.243 N 
HETATM   13  C7  UNL     1      14.611  11.421  16.151  1.00  0.00     0.101 A 
ATOM     14  H1  UNL     1      14.059  12.379  17.851  1.00  0.00     0.169 HD
HETATM   15  N2  UNL     1      15.318  12.419  15.678  1.00  0.00    -0.385 N 
HETATM   16  C8  UNL     1      14.522  10.265  15.419  1.00  0.00     0.067 A 
ATOM     17  H22 UNL     1      15.384  13.278  16.221  1.00  0.00     0.157 HD
ATOM     18  H21 UNL     1      15.800  12.348  14.781  1.00  0.00     0.157 HD
HETATM   19  C9  UNL     1      13.780   9.246  15.934  1.00  0.00     0.122 A 
HETATM   20  N4  UNL     1      12.403   8.527  17.790  1.00  0.00    -0.255 N 
HETATM   21  C10 UNL     1      12.031   7.261  17.473  1.00  0.00     0.140 A 
HETATM   22  C15 UNL     1      11.990   9.100  18.953  1.00  0.00     0.107 A 
HETATM   23  C11 UNL     1      11.222   6.487  18.294  1.00  0.00     0.111 A 
HETATM   24  C13 UNL     1      10.789   7.040  19.474  1.00  0.00     0.225 A 
HETATM   25  O3  UNL     1      10.054   6.376  20.249  1.00  0.00    -0.284 OA
HETATM   26  C14 UNL     1      11.179   8.327  19.779  1.00  0.00     0.147 A 
BRANCH  23  27
HETATM   27  C12 UNL     1      10.875   5.142  17.869  1.00  0.00     0.215 C 
HETATM   28  O1  UNL     1      11.173   4.165  18.600  1.00  0.00    -0.644 OA
HETATM   29  O2  UNL     1      10.220   4.876  16.678  1.00  0.00    -0.644 OA
ENDBRANCH  23  27
BRANCH  26  30
HETATM   30  O4  UNL     1      10.734   8.842  20.952  1.00  0.00    -0.355 OA
ATOM     31  H4  UNL     1      10.844   9.777  21.080  1.00  0.00     0.218 HD
ENDBRANCH  26  30
ENDBRANCH   8   9
ENDBRANCH   3   8
BRANCH   4  32
HETATM   32  O5  UNL     1      13.789   9.724  21.729  1.00  0.00    -0.357 OA
ATOM     33  H5  UNL     1      13.073   9.206  22.080  1.00  0.00     0.217 HD
ENDBRANCH   4  32
BRANCH   7  34
HETATM   34  N9  UNL     1      14.009  15.248  22.409  1.00  0.00    -0.033 NA
BRANCH  34  35
HETATM   35  O10 UNL     1      15.293  15.678  22.478  1.00  0.00    -0.284 OA
ATOM     36  H10 UNL     1      15.366  16.605  22.279  1.00  0.00     0.240 HD
ENDBRANCH  34  35
BRANCH  34  37
HETATM   37  O11 UNL     1      13.278  15.660  23.471  1.00  0.00    -0.284 OA
ATOM     38  H11 UNL     1      13.095  16.593  23.448  1.00  0.00     0.240 HD
ENDBRANCH  34  37
ENDBRANCH   7  34
BRANCH   5  39
HETATM   39  O6  UNL     1      15.158  10.844  23.852  1.00  0.00    -0.291 OA
BRANCH  39  40
HETATM   40  C18 UNL     1      15.679   9.574  23.564  1.00  0.00     0.484 C 
HETATM   41  N5  UNL     1      16.170   8.894  24.751  1.00  0.00     0.026 N 
HETATM   42  C19 UNL     1      15.245   7.802  24.483  1.00  0.00     0.476 C 
ATOM     43  H52 UNL     1      17.166   8.708  24.864  1.00  0.00     0.289 HD
ATOM     44  H51 UNL     1      16.162   9.365  25.655  1.00  0.00     0.289 HD
HETATM   45  O8  UNL     1      14.702   8.563  23.443  1.00  0.00    -0.283 OA
BRANCH  42  46
HETATM   46  O7  UNL     1      14.352   7.574  25.533  1.00  0.00    -0.349 OA
ATOM     47  H7  UNL     1      13.629   7.008  25.287  1.00  0.00     0.214 HD
ENDBRANCH  42  46
ENDBRANCH  39  40
ENDBRANCH   5  39
BRANCH   6  48
HETATM   48  N6  UNL     1      15.273  13.570  24.191  1.00  0.00    -0.277 N 
HETATM   49  N7  UNL     1      14.579  13.886  25.206  1.00  0.00    -0.207 N 
ATOM     50  H7  UNL     1      13.575  13.712  25.177  1.00  0.00     0.216 HD
ATOM     51  H6  UNL     1      16.281  13.719  24.162  1.00  0.00     0.189 HD
BRANCH  49  52
HETATM   52  O9  UNL     1      15.104  14.442  26.329  1.00  0.00    -0.263 OA
BRANCH  52  53
HETATM   53  C21 UNL     1      14.803  15.779  26.656  1.00  0.00     0.230 C 
BRANCH  53  54
HETATM   54  C22 UNL     1      15.789  16.701  25.949  1.00  0.00     0.258 C 
BRANCH  54  55
HETATM   55  N8  UNL     1      15.199  17.356  24.810  1.00  0.00    -0.077 N 
ATOM     56  H83 UNL     1      14.295  16.947  24.576  1.00  0.00     0.274 HD
ATOM     57  H82 UNL     1      14.894  18.301  25.045  1.00  0.00     0.274 HD
ATOM     58  H81 UNL     1      15.823  17.359  24.004  1.00  0.00     0.274 HD
ENDBRANCH  54  55
ENDBRANCH  53  54
ENDBRANCH  52  53
ENDBRANCH  49  52
ENDBRANCH   6  48
TORSDOF 16
ENDMDL
