MODEL 1
REMARK VINA RESULT: -9.536032193      0.000      0.000
REMARK  17 active torsions:
REMARK  status: ('A' for Active; 'I' for Inactive)
REMARK    1  A    between atoms: C1_2  and  C2_3 
REMARK    2  A    between atoms: C1_2  and  C17_29 
REMARK    3  A    between atoms: C2_3  and  N1_4 
REMARK    4  A    between atoms: N2_7  and  C5_8 
REMARK    5  A    between atoms: C5_8  and  C6_9 
REMARK    6  A    between atoms: C6_9  and  O2_10 
REMARK    7  A    between atoms: C6_9  and  C7_12 
REMARK    8  A    between atoms: C7_12  and  N3_13 
REMARK    9  A    between atoms: C9_15  and  O3_16 
REMARK   10  A    between atoms: C13_21  and  O4_22 
REMARK   11  A    between atoms: C17_29  and  N5_30 
REMARK   12  A    between atoms: C18_31  and  O6_32 
REMARK   13  A    between atoms: C21_36  and  O7_37 
REMARK   14  A    between atoms: C22_39  and  O8_40 
REMARK   15  A    between atoms: C23_42  and  O9_43 
REMARK   16  A    between atoms: C24_45  and  O10_46 
REMARK   17  A    between atoms: C25_48  and  O11_49 
ROOT
HETATM    1  C2  UNL     1      14.006  10.773  21.974  1.00  0.00     0.138 C 
ENDROOT
BRANCH   1   2
HETATM    2  C1  UNL     1      14.437  11.859  21.101  1.00  0.00     0.182 C 
HETATM    3  O1  UNL     1      14.326  11.768  19.895  1.00  0.00    -0.290 OA
BRANCH   2   4
HETATM    4  C17 UNL     1      15.026  13.105  21.643  1.00  0.00     0.217 C 
BRANCH   4   5
HETATM    5  N5  UNL     1      16.150  13.562  20.813  1.00  0.00    -0.300 N 
HETATM    6  C18 UNL     1      16.309  14.641  20.072  1.00  0.00     0.151 A 
HETATM    7  C19 UNL     1      17.545  14.651  19.472  1.00  0.00     0.009 A 
HETATM    8  C20 UNL     1      18.187  13.506  19.868  1.00  0.00     0.035 A 
HETATM    9  C26 UNL     1      17.997  15.740  18.582  1.00  0.00     0.078 C 
HETATM   10  C21 UNL     1      17.303  12.838  20.703  1.00  0.00     0.154 A 
HETATM   11  C22 UNL     1      19.538  12.972  19.552  1.00  0.00     0.187 C 
HETATM   12  C23 UNL     1      20.217  13.958  18.610  1.00  0.00     0.182 C 
HETATM   13  C24 UNL     1      19.371  14.017  17.367  1.00  0.00     0.178 C 
HETATM   14  C25 UNL     1      18.530  15.243  17.265  1.00  0.00     0.153 C 
BRANCH   6  15
HETATM   15  O6  UNL     1      15.352  15.633  19.922  1.00  0.00    -0.345 OA
ATOM     16  H6  UNL     1      15.472  16.537  20.189  1.00  0.00     0.219 HD
ENDBRANCH   6  15
BRANCH  10  17
HETATM   17  O7  UNL     1      17.578  11.623  21.317  1.00  0.00    -0.345 OA
ATOM     18  H7  UNL     1      18.437  11.290  21.551  1.00  0.00     0.219 HD
ENDBRANCH  10  17
BRANCH  11  19
HETATM   19  O8  UNL     1      20.279  12.744  20.687  1.00  0.00    -0.388 OA
ATOM     20  H8  UNL     1      21.210  12.840  20.528  1.00  0.00     0.210 HD
ENDBRANCH  11  19
BRANCH  12  21
HETATM   21  O9  UNL     1      21.497  13.487  18.293  1.00  0.00    -0.390 OA
ATOM     22  H9  UNL     1      21.886  14.053  17.636  1.00  0.00     0.210 HD
ENDBRANCH  12  21
BRANCH  13  23
HETATM   23  O10 UNL     1      20.251  13.998  16.257  1.00  0.00    -0.390 OA
ATOM     24  H10 UNL     1      19.950  13.314  15.669  1.00  0.00     0.210 HD
ENDBRANCH  13  23
BRANCH  14  25
HETATM   25  O11 UNL     1      17.558  15.041  16.306  1.00  0.00    -0.393 OA
ATOM     26  H11 UNL     1      16.724  15.348  16.642  1.00  0.00     0.210 HD
ENDBRANCH  14  25
ENDBRANCH   4   5
ENDBRANCH   2   4
ENDBRANCH   1   2
BRANCH   1  27
HETATM   27  N1  UNL     1      13.104   9.826  21.497  1.00  0.00    -0.383 N 
HETATM   28  C3  UNL     1      11.793  10.161  21.126  1.00  0.00     0.152 C 
HETATM   29  C4  UNL     1      11.249   9.262  20.012  1.00  0.00     0.292 C 
HETATM   30  N2  UNL     1      11.602   7.881  20.265  1.00  0.00     0.094 N 
HETATM   31  C15 UNL     1      12.041   7.672  21.627  1.00  0.00     0.292 C 
HETATM   32  C16 UNL     1      13.316   8.449  21.835  1.00  0.00     0.152 C 
BRANCH  30  33
HETATM   33  C5  UNL     1      12.516   7.315  19.335  1.00  0.00     0.305 C 
BRANCH  33  34
HETATM   34  C6  UNL     1      11.810   6.596  18.182  1.00  0.00     0.164 C 
BRANCH  34  35
HETATM   35  O2  UNL     1      12.821   6.015  17.433  1.00  0.00    -0.392 OA
ATOM     36  H2  UNL     1      12.472   5.181  17.140  1.00  0.00     0.210 HD
ENDBRANCH  34  35
BRANCH  34  37
HETATM   37  C7  UNL     1      10.953   5.493  18.812  1.00  0.00     0.166 C 
BRANCH  37  38
HETATM   38  N3  UNL     1       9.602   5.535  18.299  1.00  0.00    -0.304 N 
HETATM   39  C8  UNL     1       9.201   6.448  17.389  1.00  0.00     0.134 A 
HETATM   40  C9  UNL     1       7.889   6.446  16.928  1.00  0.00     0.108 A 
HETATM   41  C10 UNL     1       7.004   5.506  17.404  1.00  0.00     0.081 A 
HETATM   42  C11 UNL     1       5.680   5.259  17.147  1.00  0.00     0.037 A 
HETATM   43  N4  UNL     1       7.420   4.605  18.308  1.00  0.00    -0.241 N 
HETATM   44  C12 UNL     1       5.280   4.183  17.910  1.00  0.00     0.059 A 
HETATM   45  C13 UNL     1       6.395   3.795  18.629  1.00  0.00     0.151 A 
HETATM   46  C14 UNL     1       8.714   4.629  18.745  1.00  0.00     0.335 A 
HETATM   47  O5  UNL     1       9.077   3.766  19.600  1.00  0.00    -0.246 OA
BRANCH  40  48
HETATM   48  O3  UNL     1       7.469   7.380  15.995  1.00  0.00    -0.357 OA
ATOM     49  H3  UNL     1       7.441   7.160  15.071  1.00  0.00     0.217 HD
ENDBRANCH  40  48
BRANCH  45  50
HETATM   50  O4  UNL     1       6.474   2.743  19.542  1.00  0.00    -0.346 OA
ATOM     51  H4  UNL     1       7.207   2.538  20.110  1.00  0.00     0.219 HD
ENDBRANCH  45  50
ENDBRANCH  37  38
ENDBRANCH  34  37
ENDBRANCH  33  34
ENDBRANCH  30  33
ENDBRANCH   1  27
TORSDOF 17
ENDMDL
MODEL 2
REMARK VINA RESULT: -9.360405773      3.329      4.422
REMARK  17 active torsions:
REMARK  status: ('A' for Active; 'I' for Inactive)
REMARK    1  A    between atoms: C1_2  and  C2_3 
REMARK    2  A    between atoms: C1_2  and  C17_29 
REMARK    3  A    between atoms: C2_3  and  N1_4 
REMARK    4  A    between atoms: N2_7  and  C5_8 
REMARK    5  A    between atoms: C5_8  and  C6_9 
REMARK    6  A    between atoms: C6_9  and  O2_10 
REMARK    7  A    between atoms: C6_9  and  C7_12 
REMARK    8  A    between atoms: C7_12  and  N3_13 
REMARK    9  A    between atoms: C9_15  and  O3_16 
REMARK   10  A    between atoms: C13_21  and  O4_22 
REMARK   11  A    between atoms: C17_29  and  N5_30 
REMARK   12  A    between atoms: C18_31  and  O6_32 
REMARK   13  A    between atoms: C21_36  and  O7_37 
REMARK   14  A    between atoms: C22_39  and  O8_40 
REMARK   15  A    between atoms: C23_42  and  O9_43 
REMARK   16  A    between atoms: C24_45  and  O10_46 
REMARK   17  A    between atoms: C25_48  and  O11_49 
ROOT
HETATM    1  C2  UNL     1      11.855  11.942  20.899  1.00  0.00     0.138 C 
ENDROOT
BRANCH   1   2
HETATM    2  C1  UNL     1      12.585  13.180  20.658  1.00  0.00     0.182 C 
HETATM    3  O1  UNL     1      11.996  14.203  20.375  1.00  0.00    -0.290 OA
BRANCH   2   4
HETATM    4  C17 UNL     1      14.062  13.242  20.744  1.00  0.00     0.217 C 
BRANCH   4   5
HETATM    5  N5  UNL     1      14.491  14.107  21.851  1.00  0.00    -0.300 N 
HETATM    6  C18 UNL     1      14.782  15.393  21.895  1.00  0.00     0.151 A 
HETATM    7  C19 UNL     1      15.132  15.777  23.167  1.00  0.00     0.009 A 
HETATM    8  C20 UNL     1      15.051  14.659  23.956  1.00  0.00     0.035 A 
HETATM    9  C26 UNL     1      15.510  17.163  23.511  1.00  0.00     0.078 C 
HETATM   10  C21 UNL     1      14.651  13.627  23.119  1.00  0.00     0.154 A 
HETATM   11  C22 UNL     1      15.304  14.453  25.405  1.00  0.00     0.187 C 
HETATM   12  C23 UNL     1      15.729  15.792  25.996  1.00  0.00     0.182 C 
HETATM   13  C24 UNL     1      16.998  16.190  25.292  1.00  0.00     0.178 C 
HETATM   14  C25 UNL     1      16.812  17.250  24.263  1.00  0.00     0.153 C 
BRANCH   6  15
HETATM   15  O6  UNL     1      14.739  16.241  20.798  1.00  0.00    -0.345 OA
ATOM     16  H6  UNL     1      15.199  17.070  20.746  1.00  0.00     0.219 HD
ENDBRANCH   6  15
BRANCH  10  17
HETATM   17  O7  UNL     1      14.451  12.318  23.538  1.00  0.00    -0.345 OA
ATOM     18  H7  UNL     1      14.065  12.039  24.360  1.00  0.00     0.219 HD
ENDBRANCH  10  17
BRANCH  11  19
HETATM   19  O8  UNL     1      14.211  13.925  26.049  1.00  0.00    -0.388 OA
ATOM     20  H8  UNL     1      14.303  12.991  26.197  1.00  0.00     0.210 HD
ENDBRANCH  11  19
BRANCH  12  21
HETATM   21  O9  UNL     1      15.974  15.635  27.366  1.00  0.00    -0.390 OA
ATOM     22  H9  UNL     1      15.373  16.185  27.856  1.00  0.00     0.210 HD
ENDBRANCH  12  21
BRANCH  13  23
HETATM   23  O10 UNL     1      17.888  16.687  26.276  1.00  0.00    -0.390 OA
ATOM     24  H10 UNL     1      18.616  16.078  26.332  1.00  0.00     0.210 HD
ENDBRANCH  13  23
BRANCH  14  25
HETATM   25  O11 UNL     1      17.928  17.288  23.451  1.00  0.00    -0.393 OA
ATOM     26  H11 UNL     1      17.770  17.896  22.738  1.00  0.00     0.210 HD
ENDBRANCH  14  25
ENDBRANCH   4   5
ENDBRANCH   2   4
ENDBRANCH   1   2
BRANCH   1  27
HETATM   27  N1  UNL     1      12.394  10.732  20.469  1.00  0.00    -0.383 N 
HETATM   28  C3  UNL     1      13.128   9.894  21.322  1.00  0.00     0.152 C 
HETATM   29  C4  UNL     1      12.989   8.415  20.955  1.00  0.00     0.292 C 
HETATM   30  N2  UNL     1      13.073   8.243  19.520  1.00  0.00     0.094 N 
HETATM   31  C15 UNL     1      13.607   9.415  18.862  1.00  0.00     0.292 C 
HETATM   32  C16 UNL     1      12.639  10.553  19.068  1.00  0.00     0.152 C 
BRANCH  30  33
HETATM   33  C5  UNL     1      11.874   7.803  18.897  1.00  0.00     0.305 C 
BRANCH  33  34
HETATM   34  C6  UNL     1      11.220   6.636  19.643  1.00  0.00     0.164 C 
BRANCH  34  35
HETATM   35  O2  UNL     1       9.965   7.090  20.014  1.00  0.00    -0.392 OA
ATOM     36  H2  UNL     1      10.104   7.613  20.794  1.00  0.00     0.210 HD
ENDBRANCH  34  35
BRANCH  34  37
HETATM   37  C7  UNL     1      11.064   5.498  18.628  1.00  0.00     0.166 C 
BRANCH  37  38
HETATM   38  N3  UNL     1       9.735   5.495  18.059  1.00  0.00    -0.304 N 
HETATM   39  C8  UNL     1       9.383   6.304  17.037  1.00  0.00     0.134 A 
HETATM   40  C9  UNL     1       8.090   6.263  16.526  1.00  0.00     0.108 A 
HETATM   41  C10 UNL     1       7.174   5.391  17.068  1.00  0.00     0.081 A 
HETATM   42  C11 UNL     1       5.858   5.129  16.786  1.00  0.00     0.037 A 
HETATM   43  N4  UNL     1       7.541   4.593  18.083  1.00  0.00    -0.241 N 
HETATM   44  C12 UNL     1       5.413   4.150  17.648  1.00  0.00     0.059 A 
HETATM   45  C13 UNL     1       6.494   3.834  18.451  1.00  0.00     0.151 A 
HETATM   46  C14 UNL     1       8.817   4.654  18.567  1.00  0.00     0.335 A 
HETATM   47  O5  UNL     1       9.134   3.889  19.528  1.00  0.00    -0.246 OA
BRANCH  40  48
HETATM   48  O3  UNL     1       7.721   7.089  15.477  1.00  0.00    -0.357 OA
ATOM     49  H3  UNL     1       8.379   7.545  14.967  1.00  0.00     0.217 HD
ENDBRANCH  40  48
BRANCH  45  50
HETATM   50  O4  UNL     1       6.522   2.891  19.478  1.00  0.00    -0.346 OA
ATOM     51  H4  UNL     1       7.182   2.221  19.617  1.00  0.00     0.219 HD
ENDBRANCH  45  50
ENDBRANCH  37  38
ENDBRANCH  34  37
ENDBRANCH  33  34
ENDBRANCH  30  33
ENDBRANCH   1  27
TORSDOF 17
ENDMDL
MODEL 3
REMARK VINA RESULT: -9.335382106      1.432      1.756
REMARK  17 active torsions:
REMARK  status: ('A' for Active; 'I' for Inactive)
REMARK    1  A    between atoms: C1_2  and  C2_3 
REMARK    2  A    between atoms: C1_2  and  C17_29 
REMARK    3  A    between atoms: C2_3  and  N1_4 
REMARK    4  A    between atoms: N2_7  and  C5_8 
REMARK    5  A    between atoms: C5_8  and  C6_9 
REMARK    6  A    between atoms: C6_9  and  O2_10 
REMARK    7  A    between atoms: C6_9  and  C7_12 
REMARK    8  A    between atoms: C7_12  and  N3_13 
REMARK    9  A    between atoms: C9_15  and  O3_16 
REMARK   10  A    between atoms: C13_21  and  O4_22 
REMARK   11  A    between atoms: C17_29  and  N5_30 
REMARK   12  A    between atoms: C18_31  and  O6_32 
REMARK   13  A    between atoms: C21_36  and  O7_37 
REMARK   14  A    between atoms: C22_39  and  O8_40 
REMARK   15  A    between atoms: C23_42  and  O9_43 
REMARK   16  A    between atoms: C24_45  and  O10_46 
REMARK   17  A    between atoms: C25_48  and  O11_49 
ROOT
HETATM    1  C2  UNL     1      15.015  10.747  20.654  1.00  0.00     0.138 C 
ENDROOT
BRANCH   1   2
HETATM    2  C1  UNL     1      14.933  12.004  21.386  1.00  0.00     0.182 C 
HETATM    3  O1  UNL     1      14.903  12.015  22.600  1.00  0.00    -0.290 OA
BRANCH   2   4
HETATM    4  C17 UNL     1      14.881  13.310  20.688  1.00  0.00     0.217 C 
BRANCH   4   5
HETATM    5  N5  UNL     1      16.191  13.655  20.118  1.00  0.00    -0.300 N 
HETATM    6  C18 UNL     1      16.633  13.656  18.875  1.00  0.00     0.151 A 
HETATM    7  C19 UNL     1      17.942  14.066  18.817  1.00  0.00     0.009 A 
HETATM    8  C20 UNL     1      18.332  14.335  20.103  1.00  0.00     0.035 A 
HETATM    9  C26 UNL     1      18.697  14.163  17.550  1.00  0.00     0.078 C 
HETATM   10  C21 UNL     1      17.228  14.073  20.902  1.00  0.00     0.154 A 
HETATM   11  C22 UNL     1      19.622  14.813  20.664  1.00  0.00     0.187 C 
HETATM   12  C23 UNL     1      20.596  14.985  19.505  1.00  0.00     0.182 C 
HETATM   13  C24 UNL     1      20.765  13.627  18.880  1.00  0.00     0.178 C 
HETATM   14  C25 UNL     1      20.025  13.454  17.600  1.00  0.00     0.153 C 
BRANCH   6  15
HETATM   15  O6  UNL     1      15.870  13.290  17.776  1.00  0.00    -0.345 OA
ATOM     16  H6  UNL     1      15.769  12.397  17.470  1.00  0.00     0.219 HD
ENDBRANCH   6  15
BRANCH  10  17
HETATM   17  O7  UNL     1      17.213  14.222  22.283  1.00  0.00    -0.345 OA
ATOM     18  H7  UNL     1      17.704  14.859  22.788  1.00  0.00     0.219 HD
ENDBRANCH  10  17
BRANCH  11  19
HETATM   19  O8  UNL     1      19.470  15.969  21.391  1.00  0.00    -0.388 OA
ATOM     20  H8  UNL     1      19.012  15.817  22.209  1.00  0.00     0.210 HD
ENDBRANCH  11  19
BRANCH  12  21
HETATM   21  O9  UNL     1      21.826  15.439  19.999  1.00  0.00    -0.390 OA
ATOM     22  H9  UNL     1      22.230  14.751  20.515  1.00  0.00     0.210 HD
ENDBRANCH  12  21
BRANCH  13  23
HETATM   23  O10 UNL     1      22.146  13.455  18.613  1.00  0.00    -0.390 OA
ATOM     24  H10 UNL     1      22.269  12.557  18.326  1.00  0.00     0.210 HD
ENDBRANCH  13  23
BRANCH  14  25
HETATM   25  O11 UNL     1      19.954  12.107  17.302  1.00  0.00    -0.393 OA
ATOM     26  H11 UNL     1      19.047  11.828  17.349  1.00  0.00     0.210 HD
ENDBRANCH  14  25
ENDBRANCH   4   5
ENDBRANCH   2   4
ENDBRANCH   1   2
BRANCH   1  27
HETATM   27  N1  UNL     1      13.871  10.224  20.056  1.00  0.00    -0.383 N 
HETATM   28  C3  UNL     1      13.458  10.604  18.770  1.00  0.00     0.152 C 
HETATM   29  C4  UNL     1      12.716   9.484  18.037  1.00  0.00     0.292 C 
HETATM   30  N2  UNL     1      11.788   8.827  18.933  1.00  0.00     0.094 N 
HETATM   31  C15 UNL     1      11.550   9.598  20.132  1.00  0.00     0.292 C 
HETATM   32  C16 UNL     1      12.844   9.687  20.900  1.00  0.00     0.152 C 
BRANCH  30  33
HETATM   33  C5  UNL     1      12.108   7.476  19.243  1.00  0.00     0.305 C 
BRANCH  33  34
HETATM   34  C6  UNL     1      11.833   6.525  18.074  1.00  0.00     0.164 C 
BRANCH  34  35
HETATM   35  O2  UNL     1      13.073   6.044  17.689  1.00  0.00    -0.392 OA
ATOM     36  H2  UNL     1      12.893   5.312  17.110  1.00  0.00     0.210 HD
ENDBRANCH  34  35
BRANCH  34  37
HETATM   37  C7  UNL     1      10.997   5.371  18.636  1.00  0.00     0.166 C 
BRANCH  37  38
HETATM   38  N3  UNL     1       9.628   5.456  18.176  1.00  0.00    -0.304 N 
HETATM   39  C8  UNL     1       9.222   6.378  17.277  1.00  0.00     0.134 A 
HETATM   40  C9  UNL     1       7.894   6.418  16.868  1.00  0.00     0.108 A 
HETATM   41  C10 UNL     1       6.997   5.511  17.385  1.00  0.00     0.081 A 
HETATM   42  C11 UNL     1       5.656   5.308  17.182  1.00  0.00     0.037 A 
HETATM   43  N4  UNL     1       7.418   4.601  18.277  1.00  0.00    -0.241 N 
HETATM   44  C12 UNL     1       5.251   4.250  17.967  1.00  0.00     0.059 A 
HETATM   45  C13 UNL     1       6.380   3.828  18.644  1.00  0.00     0.151 A 
HETATM   46  C14 UNL     1       8.728   4.583  18.663  1.00  0.00     0.335 A 
HETATM   47  O5  UNL     1       9.095   3.712  19.508  1.00  0.00    -0.246 OA
BRANCH  40  48
HETATM   48  O3  UNL     1       7.469   7.361  15.946  1.00  0.00    -0.357 OA
ATOM     49  H3  UNL     1       7.121   7.090  15.104  1.00  0.00     0.217 HD
ENDBRANCH  40  48
BRANCH  45  50
HETATM   50  O4  UNL     1       6.460   2.778  19.559  1.00  0.00    -0.346 OA
ATOM     51  H4  UNL     1       7.230   2.261  19.765  1.00  0.00     0.219 HD
ENDBRANCH  45  50
ENDBRANCH  37  38
ENDBRANCH  34  37
ENDBRANCH  33  34
ENDBRANCH  30  33
ENDBRANCH   1  27
TORSDOF 17
ENDMDL
MODEL 4
REMARK VINA RESULT: -9.297593220      4.056     11.426
REMARK  17 active torsions:
REMARK  status: ('A' for Active; 'I' for Inactive)
REMARK    1  A    between atoms: C1_2  and  C2_3 
REMARK    2  A    between atoms: C1_2  and  C17_29 
REMARK    3  A    between atoms: C2_3  and  N1_4 
REMARK    4  A    between atoms: N2_7  and  C5_8 
REMARK    5  A    between atoms: C5_8  and  C6_9 
REMARK    6  A    between atoms: C6_9  and  O2_10 
REMARK    7  A    between atoms: C6_9  and  C7_12 
REMARK    8  A    between atoms: C7_12  and  N3_13 
REMARK    9  A    between atoms: C9_15  and  O3_16 
REMARK   10  A    between atoms: C13_21  and  O4_22 
REMARK   11  A    between atoms: C17_29  and  N5_30 
REMARK   12  A    between atoms: C18_31  and  O6_32 
REMARK   13  A    between atoms: C21_36  and  O7_37 
REMARK   14  A    between atoms: C22_39  and  O8_40 
REMARK   15  A    between atoms: C23_42  and  O9_43 
REMARK   16  A    between atoms: C24_45  and  O10_46 
REMARK   17  A    between atoms: C25_48  and  O11_49 
ROOT
HETATM    1  C2  UNL     1       7.340   4.775  19.306  1.00  0.00     0.138 C 
ENDROOT
BRANCH   1   2
HETATM    2  C1  UNL     1       6.623   4.141  18.207  1.00  0.00     0.182 C 
HETATM    3  O1  UNL     1       7.181   3.346  17.478  1.00  0.00    -0.290 OA
BRANCH   2   4
HETATM    4  C17 UNL     1       5.198   4.438  17.933  1.00  0.00     0.217 C 
BRANCH   4   5
HETATM    5  N5  UNL     1       5.046   5.750  17.288  1.00  0.00    -0.300 N 
HETATM    6  C18 UNL     1       4.351   6.818  17.629  1.00  0.00     0.151 A 
HETATM    7  C19 UNL     1       4.520   7.829  16.714  1.00  0.00     0.009 A 
HETATM    8  C20 UNL     1       5.372   7.355  15.751  1.00  0.00     0.035 A 
HETATM    9  C26 UNL     1       3.858   9.144  16.841  1.00  0.00     0.078 C 
HETATM   10  C21 UNL     1       5.690   6.057  16.124  1.00  0.00     0.154 A 
HETATM   11  C22 UNL     1       5.922   7.986  14.523  1.00  0.00     0.187 C 
HETATM   12  C23 UNL     1       5.355   9.397  14.433  1.00  0.00     0.182 C 
HETATM   13  C24 UNL     1       3.861   9.255  14.327  1.00  0.00     0.178 C 
HETATM   14  C25 UNL     1       3.133   9.562  15.589  1.00  0.00     0.153 C 
BRANCH   6  15
HETATM   15  O6  UNL     1       3.557   6.903  18.762  1.00  0.00    -0.345 OA
ATOM     16  H6  UNL     1       3.234   7.718  19.129  1.00  0.00     0.219 HD
ENDBRANCH   6  15
BRANCH  10  17
HETATM   17  O7  UNL     1       6.535   5.224  15.402  1.00  0.00    -0.345 OA
ATOM     18  H7  UNL     1       7.455   5.374  15.217  1.00  0.00     0.219 HD
ENDBRANCH  10  17
BRANCH  11  19
HETATM   19  O8  UNL     1       7.296   7.975  14.511  1.00  0.00    -0.388 OA
ATOM     20  H8  UNL     1       7.643   7.773  13.649  1.00  0.00     0.210 HD
ENDBRANCH  11  19
BRANCH  12  21
HETATM   21  O9  UNL     1       5.857  10.023  13.285  1.00  0.00    -0.390 OA
ATOM     22  H9  UNL     1       6.767  10.257  13.428  1.00  0.00     0.210 HD
ENDBRANCH  12  21
BRANCH  13  23
HETATM   23  O10 UNL     1       3.420  10.166  13.335  1.00  0.00    -0.390 OA
ATOM     24  H10 UNL     1       3.570  11.042  13.671  1.00  0.00     0.210 HD
ENDBRANCH  13  23
BRANCH  14  25
HETATM   25  O11 UNL     1       1.846   9.071  15.496  1.00  0.00    -0.393 OA
ATOM     26  H11 UNL     1       1.682   8.492  16.231  1.00  0.00     0.210 HD
ENDBRANCH  14  25
ENDBRANCH   4   5
ENDBRANCH   2   4
ENDBRANCH   1   2
BRANCH   1  27
HETATM   27  N1  UNL     1       8.556   5.405  19.059  1.00  0.00    -0.383 N 
HETATM   28  C3  UNL     1       8.688   6.439  18.120  1.00  0.00     0.152 C 
HETATM   29  C4  UNL     1       9.785   7.438  18.495  1.00  0.00     0.292 C 
HETATM   30  N2  UNL     1      10.959   6.739  18.972  1.00  0.00     0.094 N 
HETATM   31  C15 UNL     1      10.924   5.331  18.644  1.00  0.00     0.292 C 
HETATM   32  C16 UNL     1       9.766   4.703  19.376  1.00  0.00     0.152 C 
BRANCH  30  33
HETATM   33  C5  UNL     1      11.259   6.941  20.347  1.00  0.00     0.305 C 
BRANCH  33  34
HETATM   34  C6  UNL     1      12.242   8.095  20.569  1.00  0.00     0.164 C 
BRANCH  34  35
HETATM   35  O2  UNL     1      12.784   7.882  21.826  1.00  0.00    -0.392 OA
ATOM     36  H2  UNL     1      13.705   7.700  21.678  1.00  0.00     0.210 HD
ENDBRANCH  34  35
BRANCH  34  37
HETATM   37  C7  UNL     1      13.342   7.942  19.514  1.00  0.00     0.166 C 
BRANCH  37  38
HETATM   38  N3  UNL     1      13.423   9.122  18.680  1.00  0.00    -0.304 N 
HETATM   39  C8  UNL     1      13.258  10.368  19.173  1.00  0.00     0.134 A 
HETATM   40  C9  UNL     1      13.344  11.470  18.329  1.00  0.00     0.108 A 
HETATM   41  C10 UNL     1      13.599  11.281  16.990  1.00  0.00     0.081 A 
HETATM   42  C11 UNL     1      13.736  12.147  15.936  1.00  0.00     0.037 A 
HETATM   43  N4  UNL     1      13.761  10.034  16.517  1.00  0.00    -0.241 N 
HETATM   44  C12 UNL     1      13.987  11.414  14.797  1.00  0.00     0.059 A 
HETATM   45  C13 UNL     1      13.996  10.089  15.195  1.00  0.00     0.151 A 
HETATM   46  C14 UNL     1      13.671   8.969  17.368  1.00  0.00     0.335 A 
HETATM   47  O5  UNL     1      13.828   7.804  16.892  1.00  0.00    -0.246 OA
BRANCH  40  48
HETATM   48  O3  UNL     1      13.176  12.752  18.825  1.00  0.00    -0.357 OA
ATOM     49  H3  UNL     1      12.609  13.371  18.382  1.00  0.00     0.217 HD
ENDBRANCH  40  48
BRANCH  45  50
HETATM   50  O4  UNL     1      14.211   8.976  14.382  1.00  0.00    -0.346 OA
ATOM     51  H4  UNL     1      14.918   8.346  14.458  1.00  0.00     0.219 HD
ENDBRANCH  45  50
ENDBRANCH  37  38
ENDBRANCH  34  37
ENDBRANCH  33  34
ENDBRANCH  30  33
ENDBRANCH   1  27
TORSDOF 17
ENDMDL
MODEL 5
REMARK VINA RESULT: -9.275795292      3.933     11.396
REMARK  17 active torsions:
REMARK  status: ('A' for Active; 'I' for Inactive)
REMARK    1  A    between atoms: C1_2  and  C2_3 
REMARK    2  A    between atoms: C1_2  and  C17_29 
REMARK    3  A    between atoms: C2_3  and  N1_4 
REMARK    4  A    between atoms: N2_7  and  C5_8 
REMARK    5  A    between atoms: C5_8  and  C6_9 
REMARK    6  A    between atoms: C6_9  and  O2_10 
REMARK    7  A    between atoms: C6_9  and  C7_12 
REMARK    8  A    between atoms: C7_12  and  N3_13 
REMARK    9  A    between atoms: C9_15  and  O3_16 
REMARK   10  A    between atoms: C13_21  and  O4_22 
REMARK   11  A    between atoms: C17_29  and  N5_30 
REMARK   12  A    between atoms: C18_31  and  O6_32 
REMARK   13  A    between atoms: C21_36  and  O7_37 
REMARK   14  A    between atoms: C22_39  and  O8_40 
REMARK   15  A    between atoms: C23_42  and  O9_43 
REMARK   16  A    between atoms: C24_45  and  O10_46 
REMARK   17  A    between atoms: C25_48  and  O11_49 
ROOT
HETATM    1  C2  UNL     1       7.246   4.639  19.223  1.00  0.00     0.138 C 
ENDROOT
BRANCH   1   2
HETATM    2  C1  UNL     1       6.355   4.277  18.128  1.00  0.00     0.182 C 
HETATM    3  O1  UNL     1       6.728   3.531  17.245  1.00  0.00    -0.290 OA
BRANCH   2   4
HETATM    4  C17 UNL     1       4.972   4.801  18.044  1.00  0.00     0.217 C 
BRANCH   4   5
HETATM    5  N5  UNL     1       4.881   5.898  17.071  1.00  0.00    -0.300 N 
HETATM    6  C18 UNL     1       5.163   5.952  15.783  1.00  0.00     0.151 A 
HETATM    7  C19 UNL     1       4.913   7.204  15.275  1.00  0.00     0.009 A 
HETATM    8  C20 UNL     1       4.448   7.969  16.314  1.00  0.00     0.035 A 
HETATM    9  C26 UNL     1       5.139   7.555  13.858  1.00  0.00     0.078 C 
HETATM   10  C21 UNL     1       4.435   7.139  17.426  1.00  0.00     0.154 A 
HETATM   11  C22 UNL     1       4.012   9.388  16.377  1.00  0.00     0.187 C 
HETATM   12  C23 UNL     1       4.167   9.982  14.983  1.00  0.00     0.182 C 
HETATM   13  C24 UNL     1       5.630   9.896  14.639  1.00  0.00     0.178 C 
HETATM   14  C25 UNL     1       5.963   8.803  13.684  1.00  0.00     0.153 C 
BRANCH   6  15
HETATM   15  O6  UNL     1       5.648   4.883  15.045  1.00  0.00    -0.345 OA
ATOM     16  H6  UNL     1       5.418   4.712  14.139  1.00  0.00     0.219 HD
ENDBRANCH   6  15
BRANCH  10  17
HETATM   17  O7  UNL     1       4.026   7.539  18.692  1.00  0.00    -0.345 OA
ATOM     18  H7  UNL     1       4.022   8.427  19.031  1.00  0.00     0.219 HD
ENDBRANCH  10  17
BRANCH  11  19
HETATM   19  O8  UNL     1       2.730   9.511  16.855  1.00  0.00    -0.388 OA
ATOM     20  H8  UNL     1       2.231  10.160  16.372  1.00  0.00     0.210 HD
ENDBRANCH  11  19
BRANCH  12  21
HETATM   21  O9  UNL     1       3.761  11.323  15.005  1.00  0.00    -0.390 OA
ATOM     22  H9  UNL     1       4.501  11.878  14.790  1.00  0.00     0.210 HD
ENDBRANCH  12  21
BRANCH  13  23
HETATM   23  O10 UNL     1       5.995  11.127  14.039  1.00  0.00    -0.390 OA
ATOM     24  H10 UNL     1       6.866  11.346  14.350  1.00  0.00     0.210 HD
ENDBRANCH  13  23
BRANCH  14  25
HETATM   25  O11 UNL     1       7.326   8.585  13.710  1.00  0.00    -0.393 OA
ATOM     26  H11 UNL     1       7.696   8.844  12.875  1.00  0.00     0.210 HD
ENDBRANCH  14  25
ENDBRANCH   4   5
ENDBRANCH   2   4
ENDBRANCH   1   2
BRANCH   1  27
HETATM   27  N1  UNL     1       8.452   5.277  18.946  1.00  0.00    -0.383 N 
HETATM   28  C3  UNL     1       8.549   6.328  18.021  1.00  0.00     0.152 C 
HETATM   29  C4  UNL     1       9.657   7.322  18.376  1.00  0.00     0.292 C 
HETATM   30  N2  UNL     1      10.848   6.617  18.799  1.00  0.00     0.094 N 
HETATM   31  C15 UNL     1      10.804   5.215  18.446  1.00  0.00     0.292 C 
HETATM   32  C16 UNL     1       9.673   4.572  19.208  1.00  0.00     0.152 C 
BRANCH  30  33
HETATM   33  C5  UNL     1      11.196   6.794  20.166  1.00  0.00     0.305 C 
BRANCH  33  34
HETATM   34  C6  UNL     1      11.742   8.196  20.455  1.00  0.00     0.164 C 
BRANCH  34  35
HETATM   35  O2  UNL     1      11.774   8.304  21.836  1.00  0.00    -0.392 OA
ATOM     36  H2  UNL     1      12.525   8.852  22.030  1.00  0.00     0.210 HD
ENDBRANCH  34  35
BRANCH  34  37
HETATM   37  C7  UNL     1      13.175   8.229  19.914  1.00  0.00     0.166 C 
BRANCH  37  38
HETATM   38  N3  UNL     1      13.355   9.336  19.001  1.00  0.00    -0.304 N 
HETATM   39  C8  UNL     1      13.295  10.624  19.404  1.00  0.00     0.134 A 
HETATM   40  C9  UNL     1      13.474  11.653  18.486  1.00  0.00     0.108 A 
HETATM   41  C10 UNL     1      13.714  11.349  17.165  1.00  0.00     0.081 A 
HETATM   42  C11 UNL     1      13.924  12.126  16.055  1.00  0.00     0.037 A 
HETATM   43  N4  UNL     1      13.771  10.064  16.782  1.00  0.00    -0.241 N 
HETATM   44  C12 UNL     1      14.113  11.296  14.971  1.00  0.00     0.059 A 
HETATM   45  C13 UNL     1      14.011  10.006  15.460  1.00  0.00     0.151 A 
HETATM   46  C14 UNL     1      13.591   9.072  17.704  1.00  0.00     0.335 A 
HETATM   47  O5  UNL     1      13.649   7.867  17.311  1.00  0.00    -0.246 OA
BRANCH  40  48
HETATM   48  O3  UNL     1      13.414  12.976  18.891  1.00  0.00    -0.357 OA
ATOM     49  H3  UNL     1      13.709  13.671  18.315  1.00  0.00     0.217 HD
ENDBRANCH  40  48
BRANCH  45  50
HETATM   50  O4  UNL     1      14.132   8.825  14.728  1.00  0.00    -0.346 OA
ATOM     51  H4  UNL     1      13.879   7.954  15.010  1.00  0.00     0.219 HD
ENDBRANCH  45  50
ENDBRANCH  37  38
ENDBRANCH  34  37
ENDBRANCH  33  34
ENDBRANCH  30  33
ENDBRANCH   1  27
TORSDOF 17
ENDMDL
