MODEL 1
REMARK VINA RESULT: -10.671920818      0.000      0.000
REMARK  12 active torsions:
REMARK  status: ('A' for Active; 'I' for Inactive)
REMARK       I    between atoms: C1_2  and  N1_3 
REMARK    1  A    between atoms: C1_2  and  C4_17 
REMARK    2  A    between atoms: N1_3  and  S1_5 
REMARK    3  A    between atoms: S1_5  and  O4_8 
REMARK    4  A    between atoms: O4_8  and  C2_9 
REMARK    5  A    between atoms: C2_9  and  C3_10 
REMARK    6  A    between atoms: C3_10  and  O5_11 
REMARK    7  A    between atoms: C8_21  and  C9_22 
REMARK    8  A    between atoms: C9_22  and  N7_27 
REMARK    9  A    between atoms: N6_23  and  O6_25 
REMARK   10  A    between atoms: N7_27  and  N8_29 
REMARK   11  A    between atoms: N8_29  and  C10_31 
REMARK   12  A    between atoms: C14_38  and  S2_39 
ROOT
HETATM    1  C9  UNL     1       9.327   5.775  17.924  1.00  0.00     0.167 C 
HETATM    2  N6  UNL     1      10.220   5.373  17.115  1.00  0.00    -0.250 N 
ATOM      3  H6  UNL     1      11.154   5.765  17.241  1.00  0.00     0.196 HD
ENDROOT
BRANCH   1   4
HETATM    4  C8  UNL     1       7.969   5.284  17.831  1.00  0.00     0.080 A 
HETATM    5  C7  UNL     1       7.507   4.354  18.721  1.00  0.00     0.033 A 
HETATM    6  C6  UNL     1       6.209   3.877  18.649  1.00  0.00     0.005 A 
HETATM    7  C5  UNL     1       5.406   4.385  17.636  1.00  0.00     0.035 A 
HETATM    8  C4  UNL     1       5.874   5.308  16.756  1.00  0.00     0.102 A 
HETATM    9  N10 UNL     1       7.151   5.736  16.879  1.00  0.00    -0.349 N 
ATOM     10  H10 UNL     1       7.502   6.429  16.218  1.00  0.00     0.166 HD
BRANCH   8  11
HETATM   11  C1  UNL     1       5.064   5.868  15.685  1.00  0.00     0.283 C 
HETATM   12  O1  UNL     1       4.085   6.640  15.975  1.00  0.00    -0.265 OA
HETATM   13  N1  UNL     1       5.289   5.613  14.306  1.00  0.00    -0.226 N 
ATOM     14  H1  UNL     1       6.051   5.004  14.006  1.00  0.00     0.184 HD
BRANCH  13  15
HETATM   15  S1  UNL     1       4.250   6.351  13.153  1.00  0.00     0.364 S 
HETATM   16  O2  UNL     1       2.839   5.862  13.384  1.00  0.00    -0.175 OA
HETATM   17  O3  UNL     1       4.687   5.975  11.763  1.00  0.00    -0.175 OA
BRANCH  15  18
HETATM   18  O4  UNL     1       4.352   8.008  13.267  1.00  0.00    -0.253 OA
BRANCH  18  19
HETATM   19  C2  UNL     1       5.583   8.381  12.777  1.00  0.00     0.270 C 
BRANCH  19  20
HETATM   20  C3  UNL     1       6.571   8.833  13.817  1.00  0.00     0.260 C 
HETATM   21  N2  UNL     1       7.377   9.956  13.414  1.00  0.00    -0.069 NA
HETATM   22  N3  UNL     1       6.530  11.042  13.602  1.00  0.00    -0.017 NA
HETATM   23  N4  UNL     1       5.780  10.747  14.715  1.00  0.00    -0.017 NA
HETATM   24  N5  UNL     1       5.819   9.376  14.960  1.00  0.00    -0.069 NA
BRANCH  20  25
HETATM   25  O5  UNL     1       7.371   7.779  14.249  1.00  0.00    -0.357 OA
ATOM     26  H5  UNL     1       7.461   7.777  15.195  1.00  0.00     0.213 HD
ENDBRANCH  20  25
ENDBRANCH  19  20
ENDBRANCH  18  19
ENDBRANCH  15  18
ENDBRANCH  13  15
ENDBRANCH   8  11
ENDBRANCH   1   4
BRANCH   1  27
HETATM   27  N7  UNL     1       9.639   6.714  18.982  1.00  0.00    -0.279 N 
ATOM     28  H7  UNL     1       9.175   7.621  19.054  1.00  0.00     0.189 HD
BRANCH  27  29
HETATM   29  N8  UNL     1      10.611   6.307  19.900  1.00  0.00    -0.263 N 
ATOM     30  H8  UNL     1      10.653   5.326  20.174  1.00  0.00     0.190 HD
BRANCH  29  31
HETATM   31  C10 UNL     1      11.450   7.129  20.408  1.00  0.00     0.246 A 
HETATM   32  N9  UNL     1      11.627   7.026  21.747  1.00  0.00    -0.287 N 
HETATM   33  C11 UNL     1      12.486   7.846  22.365  1.00  0.00     0.261 A 
ATOM     34  H9  UNL     1      11.108   6.329  22.282  1.00  0.00     0.172 HD
HETATM   35  O7  UNL     1      12.637   7.736  23.609  1.00  0.00    -0.267 OA
HETATM   36  C12 UNL     1      13.194   8.794  21.650  1.00  0.00     0.068 A 
HETATM   37  C13 UNL     1      14.086   9.656  22.247  1.00  0.00     0.046 A 
HETATM   38  C17 UNL     1      12.982   8.859  20.294  1.00  0.00     0.095 A 
HETATM   39  C14 UNL     1      14.782  10.601  21.508  1.00  0.00     0.081 A 
HETATM   40  C15 UNL     1      14.584  10.686  20.142  1.00  0.00     0.029 A 
HETATM   41  C16 UNL     1      13.685   9.808  19.574  1.00  0.00     0.040 A 
HETATM   42  O11 UNL     1      12.131   8.034  19.747  1.00  0.00    -0.277 OA
BRANCH  39  43
HETATM   43  S2  UNL     1      15.903  11.669  22.325  1.00  0.00     0.137 S 
HETATM   44  O8  UNL     1      15.140  12.469  23.348  1.00  0.00    -0.591 OA
HETATM   45  O9  UNL     1      16.885  10.782  23.060  1.00  0.00    -0.591 OA
HETATM   46  O10 UNL     1      16.656  12.620  21.192  1.00  0.00    -0.591 OA
ENDBRANCH  39  43
ENDBRANCH  29  31
ENDBRANCH  27  29
ENDBRANCH   1  27
BRANCH   2  47
HETATM   47  O6  UNL     1      10.074   4.489  16.106  1.00  0.00    -0.288 OA
ATOM     48  H6  UNL     1      10.579   3.698  15.955  1.00  0.00     0.244 HD
ENDBRANCH   2  47
TORSDOF 12
ENDMDL
MODEL 2
REMARK VINA RESULT: -10.657192658      3.198      5.209
REMARK  12 active torsions:
REMARK  status: ('A' for Active; 'I' for Inactive)
REMARK       I    between atoms: C1_2  and  N1_3 
REMARK    1  A    between atoms: C1_2  and  C4_17 
REMARK    2  A    between atoms: N1_3  and  S1_5 
REMARK    3  A    between atoms: S1_5  and  O4_8 
REMARK    4  A    between atoms: O4_8  and  C2_9 
REMARK    5  A    between atoms: C2_9  and  C3_10 
REMARK    6  A    between atoms: C3_10  and  O5_11 
REMARK    7  A    between atoms: C8_21  and  C9_22 
REMARK    8  A    between atoms: C9_22  and  N7_27 
REMARK    9  A    between atoms: N6_23  and  O6_25 
REMARK   10  A    between atoms: N7_27  and  N8_29 
REMARK   11  A    between atoms: N8_29  and  C10_31 
REMARK   12  A    between atoms: C14_38  and  S2_39 
ROOT
HETATM    1  C9  UNL     1      11.813   8.597  20.848  1.00  0.00     0.167 C 
HETATM    2  N6  UNL     1      11.968   8.290  22.071  1.00  0.00    -0.250 N 
ATOM      3  H6  UNL     1      12.134   9.064  22.715  1.00  0.00     0.196 HD
ENDROOT
BRANCH   1   4
HETATM    4  C8  UNL     1      11.573   7.576  19.853  1.00  0.00     0.080 A 
HETATM    5  C7  UNL     1      12.516   7.301  18.902  1.00  0.00     0.033 A 
HETATM    6  C6  UNL     1      12.304   6.324  17.944  1.00  0.00     0.005 A 
HETATM    7  C5  UNL     1      11.095   5.641  17.998  1.00  0.00     0.035 A 
HETATM    8  C4  UNL     1      10.164   5.920  18.946  1.00  0.00     0.102 A 
HETATM    9  N10 UNL     1      10.430   6.886  19.854  1.00  0.00    -0.349 N 
ATOM     10  H10 UNL     1       9.732   7.096  20.567  1.00  0.00     0.166 HD
BRANCH   8  11
HETATM   11  C1  UNL     1       8.889   5.226  19.039  1.00  0.00     0.283 C 
HETATM   12  O1  UNL     1       8.262   5.211  20.155  1.00  0.00    -0.265 OA
HETATM   13  N1  UNL     1       8.277   4.546  17.954  1.00  0.00    -0.226 N 
ATOM     14  H1  UNL     1       8.725   4.516  17.038  1.00  0.00     0.184 HD
BRANCH  13  15
HETATM   15  S1  UNL     1       6.764   3.773  18.216  1.00  0.00     0.364 S 
HETATM   16  O2  UNL     1       6.803   3.063  19.550  1.00  0.00    -0.175 OA
HETATM   17  O3  UNL     1       6.511   2.769  17.124  1.00  0.00    -0.175 OA
BRANCH  15  18
HETATM   18  O4  UNL     1       5.531   4.888  18.150  1.00  0.00    -0.253 OA
BRANCH  18  19
HETATM   19  C2  UNL     1       5.507   5.402  16.874  1.00  0.00     0.270 C 
BRANCH  19  20
HETATM   20  C3  UNL     1       5.882   6.855  16.765  1.00  0.00     0.260 C 
HETATM   21  N2  UNL     1       7.269   7.127  17.039  1.00  0.00    -0.069 NA
HETATM   22  N3  UNL     1       7.905   6.770  15.856  1.00  0.00    -0.017 NA
HETATM   23  N4  UNL     1       7.040   7.112  14.845  1.00  0.00    -0.017 NA
HETATM   24  N5  UNL     1       5.752   7.258  15.355  1.00  0.00    -0.069 NA
BRANCH  20  25
HETATM   25  O5  UNL     1       5.055   7.652  17.552  1.00  0.00    -0.357 OA
ATOM     26  H5  UNL     1       5.555   8.137  18.199  1.00  0.00     0.213 HD
ENDBRANCH  20  25
ENDBRANCH  19  20
ENDBRANCH  18  19
ENDBRANCH  15  18
ENDBRANCH  13  15
ENDBRANCH   8  11
ENDBRANCH   1   4
BRANCH   1  27
HETATM   27  N7  UNL     1      11.844   9.979  20.411  1.00  0.00    -0.279 N 
ATOM     28  H7  UNL     1      10.990  10.516  20.259  1.00  0.00     0.189 HD
BRANCH  27  29
HETATM   29  N8  UNL     1      13.112  10.533  20.211  1.00  0.00    -0.263 N 
ATOM     30  H8  UNL     1      13.602  10.343  19.337  1.00  0.00     0.190 HD
BRANCH  29  31
HETATM   31  C10 UNL     1      13.675  11.271  21.091  1.00  0.00     0.246 A 
HETATM   32  N9  UNL     1      14.583  10.645  21.879  1.00  0.00    -0.287 N 
HETATM   33  C11 UNL     1      15.223  11.339  22.828  1.00  0.00     0.261 A 
ATOM     34  H9  UNL     1      14.777   9.652  21.750  1.00  0.00     0.172 HD
HETATM   35  O7  UNL     1      16.062  10.742  23.550  1.00  0.00    -0.267 OA
HETATM   36  C12 UNL     1      14.967  12.686  23.011  1.00  0.00     0.068 A 
HETATM   37  C13 UNL     1      15.603  13.435  23.976  1.00  0.00     0.046 A 
HETATM   38  C17 UNL     1      14.039  13.276  22.187  1.00  0.00     0.095 A 
HETATM   39  C14 UNL     1      15.326  14.784  24.142  1.00  0.00     0.081 A 
HETATM   40  C15 UNL     1      14.394  15.398  23.324  1.00  0.00     0.029 A 
HETATM   41  C16 UNL     1      13.777  14.622  22.367  1.00  0.00     0.040 A 
HETATM   42  O11 UNL     1      13.447  12.548  21.279  1.00  0.00    -0.277 OA
BRANCH  39  43
HETATM   43  S2  UNL     1      16.167  15.682  25.386  1.00  0.00     0.137 S 
HETATM   44  O8  UNL     1      15.475  17.008  25.567  1.00  0.00    -0.591 OA
HETATM   45  O9  UNL     1      16.010  14.893  26.668  1.00  0.00    -0.591 OA
HETATM   46  O10 UNL     1      17.760  15.839  24.947  1.00  0.00    -0.591 OA
ENDBRANCH  39  43
ENDBRANCH  29  31
ENDBRANCH  27  29
ENDBRANCH   1  27
BRANCH   2  47
HETATM   47  O6  UNL     1      11.938   7.056  22.616  1.00  0.00    -0.288 OA
ATOM     48  H6  UNL     1      12.051   6.826  23.531  1.00  0.00     0.244 HD
ENDBRANCH   2  47
TORSDOF 12
ENDMDL
MODEL 3
REMARK VINA RESULT: -10.594184033      1.706      2.521
REMARK  12 active torsions:
REMARK  status: ('A' for Active; 'I' for Inactive)
REMARK       I    between atoms: C1_2  and  N1_3 
REMARK    1  A    between atoms: C1_2  and  C4_17 
REMARK    2  A    between atoms: N1_3  and  S1_5 
REMARK    3  A    between atoms: S1_5  and  O4_8 
REMARK    4  A    between atoms: O4_8  and  C2_9 
REMARK    5  A    between atoms: C2_9  and  C3_10 
REMARK    6  A    between atoms: C3_10  and  O5_11 
REMARK    7  A    between atoms: C8_21  and  C9_22 
REMARK    8  A    between atoms: C9_22  and  N7_27 
REMARK    9  A    between atoms: N6_23  and  O6_25 
REMARK   10  A    between atoms: N7_27  and  N8_29 
REMARK   11  A    between atoms: N8_29  and  C10_31 
REMARK   12  A    between atoms: C14_38  and  S2_39 
ROOT
HETATM    1  C9  UNL     1       9.298   5.008  17.777  1.00  0.00     0.167 C 
HETATM    2  N6  UNL     1       9.812   5.105  16.620  1.00  0.00    -0.250 N 
ATOM      3  H6  UNL     1      10.828   5.193  16.582  1.00  0.00     0.196 HD
ENDROOT
BRANCH   1   4
HETATM    4  C8  UNL     1       7.867   4.879  17.943  1.00  0.00     0.080 A 
HETATM    5  C7  UNL     1       7.334   3.751  18.504  1.00  0.00     0.033 A 
HETATM    6  C6  UNL     1       5.967   3.614  18.673  1.00  0.00     0.005 A 
HETATM    7  C5  UNL     1       5.170   4.669  18.249  1.00  0.00     0.035 A 
HETATM    8  C4  UNL     1       5.707   5.785  17.694  1.00  0.00     0.102 A 
HETATM    9  N10 UNL     1       7.050   5.861  17.555  1.00  0.00    -0.349 N 
ATOM     10  H10 UNL     1       7.455   6.699  17.138  1.00  0.00     0.166 HD
BRANCH   8  11
HETATM   11  C1  UNL     1       4.909   6.914  17.242  1.00  0.00     0.283 C 
HETATM   12  O1  UNL     1       5.088   8.065  17.774  1.00  0.00    -0.265 OA
HETATM   13  N1  UNL     1       3.919   6.828  16.227  1.00  0.00    -0.226 N 
ATOM     14  H1  UNL     1       3.723   5.940  15.765  1.00  0.00     0.184 HD
BRANCH  13  15
HETATM   15  S1  UNL     1       3.057   8.251  15.797  1.00  0.00     0.364 S 
HETATM   16  O2  UNL     1       3.131   9.233  16.944  1.00  0.00    -0.175 OA
HETATM   17  O3  UNL     1       1.616   7.909  15.525  1.00  0.00    -0.175 OA
BRANCH  15  18
HETATM   18  O4  UNL     1       3.679   8.897  14.395  1.00  0.00    -0.253 OA
BRANCH  18  19
HETATM   19  C2  UNL     1       5.026   9.094  14.593  1.00  0.00     0.270 C 
BRANCH  19  20
HETATM   20  C3  UNL     1       5.921   8.442  13.575  1.00  0.00     0.260 C 
HETATM   21  N2  UNL     1       7.320   8.473  13.915  1.00  0.00    -0.069 NA
HETATM   22  N3  UNL     1       7.449   7.442  14.837  1.00  0.00    -0.017 NA
HETATM   23  N4  UNL     1       6.581   6.459  14.427  1.00  0.00    -0.017 NA
HETATM   24  N5  UNL     1       5.630   6.999  13.565  1.00  0.00    -0.069 NA
BRANCH  20  25
HETATM   25  O5  UNL     1       5.708   8.965  12.303  1.00  0.00    -0.357 OA
ATOM     26  H5  UNL     1       6.303   9.683  12.119  1.00  0.00     0.213 HD
ENDBRANCH  20  25
ENDBRANCH  19  20
ENDBRANCH  18  19
ENDBRANCH  15  18
ENDBRANCH  13  15
ENDBRANCH   8  11
ENDBRANCH   1   4
BRANCH   1  27
HETATM   27  N7  UNL     1      10.124   4.996  18.968  1.00  0.00    -0.279 N 
ATOM     28  H7  UNL     1      10.850   4.294  19.114  1.00  0.00     0.189 HD
BRANCH  27  29
HETATM   29  N8  UNL     1       9.869   6.002  19.905  1.00  0.00    -0.263 N 
ATOM     30  H8  UNL     1       8.971   6.014  20.386  1.00  0.00     0.190 HD
BRANCH  29  31
HETATM   31  C10 UNL     1      10.730   6.909  20.175  1.00  0.00     0.246 A 
HETATM   32  N9  UNL     1      10.875   7.872  19.233  1.00  0.00    -0.287 N 
HETATM   33  C11 UNL     1      11.754   8.862  19.431  1.00  0.00     0.261 A 
ATOM     34  H9  UNL     1      10.319   7.842  18.378  1.00  0.00     0.172 HD
HETATM   35  O7  UNL     1      11.875   9.748  18.545  1.00  0.00    -0.267 OA
HETATM   36  C12 UNL     1      12.513   8.912  20.586  1.00  0.00     0.068 A 
HETATM   37  C13 UNL     1      13.427   9.912  20.827  1.00  0.00     0.046 A 
HETATM   38  C17 UNL     1      12.329   7.913  21.512  1.00  0.00     0.095 A 
HETATM   39  C14 UNL     1      14.179   9.938  21.992  1.00  0.00     0.081 A 
HETATM   40  C15 UNL     1      14.012   8.942  22.939  1.00  0.00     0.029 A 
HETATM   41  C16 UNL     1      13.087   7.956  22.668  1.00  0.00     0.040 A 
HETATM   42  O11 UNL     1      11.458   6.973  21.264  1.00  0.00    -0.277 OA
BRANCH  39  43
HETATM   43  S2  UNL     1      15.326  11.236  22.242  1.00  0.00     0.137 S 
HETATM   44  O8  UNL     1      16.474  10.707  23.061  1.00  0.00    -0.591 OA
HETATM   45  O9  UNL     1      15.857  11.610  20.875  1.00  0.00    -0.591 OA
HETATM   46  O10 UNL     1      14.544  12.506  22.970  1.00  0.00    -0.591 OA
ENDBRANCH  39  43
ENDBRANCH  29  31
ENDBRANCH  27  29
ENDBRANCH   1  27
BRANCH   2  47
HETATM   47  O6  UNL     1       9.168   5.104  15.434  1.00  0.00    -0.288 OA
ATOM     48  H6  UNL     1       9.315   5.686  14.697  1.00  0.00     0.244 HD
ENDBRANCH   2  47
TORSDOF 12
ENDMDL
MODEL 4
REMARK VINA RESULT: -10.454220194      0.880      1.600
REMARK  12 active torsions:
REMARK  status: ('A' for Active; 'I' for Inactive)
REMARK       I    between atoms: C1_2  and  N1_3 
REMARK    1  A    between atoms: C1_2  and  C4_17 
REMARK    2  A    between atoms: N1_3  and  S1_5 
REMARK    3  A    between atoms: S1_5  and  O4_8 
REMARK    4  A    between atoms: O4_8  and  C2_9 
REMARK    5  A    between atoms: C2_9  and  C3_10 
REMARK    6  A    between atoms: C3_10  and  O5_11 
REMARK    7  A    between atoms: C8_21  and  C9_22 
REMARK    8  A    between atoms: C9_22  and  N7_27 
REMARK    9  A    between atoms: N6_23  and  O6_25 
REMARK   10  A    between atoms: N7_27  and  N8_29 
REMARK   11  A    between atoms: N8_29  and  C10_31 
REMARK   12  A    between atoms: C14_38  and  S2_39 
ROOT
HETATM    1  C9  UNL     1       9.376   5.671  17.994  1.00  0.00     0.167 C 
HETATM    2  N6  UNL     1      10.234   5.332  17.122  1.00  0.00    -0.250 N 
ATOM      3  H6  UNL     1      11.177   5.703  17.246  1.00  0.00     0.196 HD
ENDROOT
BRANCH   1   4
HETATM    4  C8  UNL     1       8.010   5.201  17.912  1.00  0.00     0.080 A 
HETATM    5  C7  UNL     1       7.538   4.285  18.810  1.00  0.00     0.033 A 
HETATM    6  C6  UNL     1       6.233   3.828  18.748  1.00  0.00     0.005 A 
HETATM    7  C5  UNL     1       5.433   4.342  17.735  1.00  0.00     0.035 A 
HETATM    8  C4  UNL     1       5.910   5.251  16.847  1.00  0.00     0.102 A 
HETATM    9  N10 UNL     1       7.194   5.660  16.960  1.00  0.00    -0.349 N 
ATOM     10  H10 UNL     1       7.553   6.343  16.294  1.00  0.00     0.166 HD
BRANCH   8  11
HETATM   11  C1  UNL     1       5.104   5.817  15.776  1.00  0.00     0.283 C 
HETATM   12  O1  UNL     1       4.164   6.637  16.063  1.00  0.00    -0.265 OA
HETATM   13  N1  UNL     1       5.291   5.516  14.401  1.00  0.00    -0.226 N 
ATOM     14  H1  UNL     1       6.020   4.868  14.104  1.00  0.00     0.184 HD
BRANCH  13  15
HETATM   15  S1  UNL     1       4.261   6.268  13.248  1.00  0.00     0.364 S 
HETATM   16  O2  UNL     1       2.845   5.790  13.473  1.00  0.00    -0.175 OA
HETATM   17  O3  UNL     1       4.699   5.893  11.857  1.00  0.00    -0.175 OA
BRANCH  15  18
HETATM   18  O4  UNL     1       4.377   7.923  13.367  1.00  0.00    -0.253 OA
BRANCH  18  19
HETATM   19  C2  UNL     1       5.594   8.291  12.841  1.00  0.00     0.270 C 
BRANCH  19  20
HETATM   20  C3  UNL     1       6.605   8.768  13.848  1.00  0.00     0.260 C 
HETATM   21  N2  UNL     1       7.433   9.851  13.384  1.00  0.00    -0.069 NA
HETATM   22  N3  UNL     1       6.615  10.965  13.528  1.00  0.00    -0.017 NA
HETATM   23  N4  UNL     1       5.870  10.741  14.662  1.00  0.00    -0.017 NA
HETATM   24  N5  UNL     1       5.879   9.383  14.971  1.00  0.00    -0.069 NA
BRANCH  20  25
HETATM   25  O5  UNL     1       7.384   7.716  14.323  1.00  0.00    -0.357 OA
ATOM     26  H5  UNL     1       8.285   7.985  14.458  1.00  0.00     0.213 HD
ENDBRANCH  20  25
ENDBRANCH  19  20
ENDBRANCH  18  19
ENDBRANCH  15  18
ENDBRANCH  13  15
ENDBRANCH   8  11
ENDBRANCH   1   4
BRANCH   1  27
HETATM   27  N7  UNL     1       9.737   6.516  19.115  1.00  0.00    -0.279 N 
ATOM     28  H7  UNL     1       9.054   7.111  19.585  1.00  0.00     0.189 HD
BRANCH  27  29
HETATM   29  N8  UNL     1      11.076   6.469  19.515  1.00  0.00    -0.263 N 
ATOM     30  H8  UNL     1      11.566   5.575  19.498  1.00  0.00     0.190 HD
BRANCH  29  31
HETATM   31  C10 UNL     1      11.704   7.513  19.904  1.00  0.00     0.246 A 
HETATM   32  N9  UNL     1      11.546   8.610  19.123  1.00  0.00    -0.287 N 
HETATM   33  C11 UNL     1      12.166   9.749  19.453  1.00  0.00     0.261 A 
ATOM     34  H9  UNL     1      10.958   8.567  18.291  1.00  0.00     0.172 HD
HETATM   35  O7  UNL     1      12.008  10.757  18.717  1.00  0.00    -0.267 OA
HETATM   36  C12 UNL     1      12.965   9.818  20.580  1.00  0.00     0.068 A 
HETATM   37  C13 UNL     1      13.621  10.970  20.952  1.00  0.00     0.046 A 
HETATM   38  C17 UNL     1      13.094   8.680  21.340  1.00  0.00     0.095 A 
HETATM   39  C14 UNL     1      14.419  11.012  22.086  1.00  0.00     0.081 A 
HETATM   40  C15 UNL     1      14.564   9.878  22.865  1.00  0.00     0.029 A 
HETATM   41  C16 UNL     1      13.893   8.741  22.466  1.00  0.00     0.040 A 
HETATM   42  O11 UNL     1      12.465   7.598  20.968  1.00  0.00    -0.277 OA
BRANCH  39  43
HETATM   43  S2  UNL     1      15.227  12.506  22.508  1.00  0.00     0.137 S 
HETATM   44  O8  UNL     1      15.985  12.292  23.792  1.00  0.00    -0.591 OA
HETATM   45  O9  UNL     1      16.232  12.777  21.409  1.00  0.00    -0.591 OA
HETATM   46  O10 UNL     1      14.093  13.712  22.620  1.00  0.00    -0.591 OA
ENDBRANCH  39  43
ENDBRANCH  29  31
ENDBRANCH  27  29
ENDBRANCH   1  27
BRANCH   2  47
HETATM   47  O6  UNL     1      10.042   4.536  16.049  1.00  0.00    -0.288 OA
ATOM     48  H6  UNL     1       9.734   4.793  15.187  1.00  0.00     0.244 HD
ENDBRANCH   2  47
TORSDOF 12
ENDMDL
MODEL 5
REMARK VINA RESULT: -10.356154651      1.431      1.896
REMARK  12 active torsions:
REMARK  status: ('A' for Active; 'I' for Inactive)
REMARK       I    between atoms: C1_2  and  N1_3 
REMARK    1  A    between atoms: C1_2  and  C4_17 
REMARK    2  A    between atoms: N1_3  and  S1_5 
REMARK    3  A    between atoms: S1_5  and  O4_8 
REMARK    4  A    between atoms: O4_8  and  C2_9 
REMARK    5  A    between atoms: C2_9  and  C3_10 
REMARK    6  A    between atoms: C3_10  and  O5_11 
REMARK    7  A    between atoms: C8_21  and  C9_22 
REMARK    8  A    between atoms: C9_22  and  N7_27 
REMARK    9  A    between atoms: N6_23  and  O6_25 
REMARK   10  A    between atoms: N7_27  and  N8_29 
REMARK   11  A    between atoms: N8_29  and  C10_31 
REMARK   12  A    between atoms: C14_38  and  S2_39 
ROOT
HETATM    1  C9  UNL     1       9.500   5.220  17.942  1.00  0.00     0.167 C 
HETATM    2  N6  UNL     1      10.058   5.146  16.803  1.00  0.00    -0.250 N 
ATOM      3  H6  UNL     1      11.059   5.342  16.775  1.00  0.00     0.196 HD
ENDROOT
BRANCH   1   4
HETATM    4  C8  UNL     1       8.085   4.962  18.093  1.00  0.00     0.080 A 
HETATM    5  C7  UNL     1       7.650   3.803  18.672  1.00  0.00     0.033 A 
HETATM    6  C6  UNL     1       6.300   3.543  18.828  1.00  0.00     0.005 A 
HETATM    7  C5  UNL     1       5.415   4.510  18.369  1.00  0.00     0.035 A 
HETATM    8  C4  UNL     1       5.855   5.659  17.795  1.00  0.00     0.102 A 
HETATM    9  N10 UNL     1       7.187   5.856  17.672  1.00  0.00    -0.349 N 
ATOM     10  H10 UNL     1       7.518   6.719  17.241  1.00  0.00     0.166 HD
BRANCH   8  11
HETATM   11  C1  UNL     1       4.962   6.698  17.307  1.00  0.00     0.283 C 
HETATM   12  O1  UNL     1       4.978   7.853  17.860  1.00  0.00    -0.265 OA
HETATM   13  N1  UNL     1       4.050   6.519  16.233  1.00  0.00    -0.226 N 
ATOM     14  H1  UNL     1       3.983   5.623  15.750  1.00  0.00     0.184 HD
BRANCH  13  15
HETATM   15  S1  UNL     1       3.060   7.844  15.765  1.00  0.00     0.364 S 
HETATM   16  O2  UNL     1       3.021   8.848  16.895  1.00  0.00    -0.175 OA
HETATM   17  O3  UNL     1       1.664   7.358  15.482  1.00  0.00    -0.175 OA
BRANCH  15  18
HETATM   18  O4  UNL     1       3.636   8.523  14.360  1.00  0.00    -0.253 OA
BRANCH  18  19
HETATM   19  C2  UNL     1       4.956   8.849  14.570  1.00  0.00     0.270 C 
BRANCH  19  20
HETATM   20  C3  UNL     1       5.925   8.246  13.590  1.00  0.00     0.260 C 
HETATM   21  N2  UNL     1       7.309   8.418  13.948  1.00  0.00    -0.069 NA
HETATM   22  N3  UNL     1       7.515   7.437  14.911  1.00  0.00    -0.017 NA
HETATM   23  N4  UNL     1       6.748   6.364  14.526  1.00  0.00    -0.017 NA
HETATM   24  N5  UNL     1       5.766   6.783  13.631  1.00  0.00    -0.069 NA
BRANCH  20  25
HETATM   25  O5  UNL     1       5.687   8.700  12.296  1.00  0.00    -0.357 OA
ATOM     26  H5  UNL     1       5.054   8.151  11.847  1.00  0.00     0.213 HD
ENDBRANCH  20  25
ENDBRANCH  19  20
ENDBRANCH  18  19
ENDBRANCH  15  18
ENDBRANCH  13  15
ENDBRANCH   8  11
ENDBRANCH   1   4
BRANCH   1  27
HETATM   27  N7  UNL     1      10.264   5.538  19.133  1.00  0.00    -0.279 N 
ATOM     28  H7  UNL     1      10.905   4.868  19.557  1.00  0.00     0.189 HD
BRANCH  27  29
HETATM   29  N8  UNL     1      10.071   6.816  19.665  1.00  0.00    -0.263 N 
ATOM     30  H8  UNL     1       9.134   7.218  19.660  1.00  0.00     0.190 HD
BRANCH  29  31
HETATM   31  C10 UNL     1      11.035   7.497  20.158  1.00  0.00     0.246 A 
HETATM   32  N9  UNL     1      11.407   7.153  21.415  1.00  0.00    -0.287 N 
HETATM   33  C11 UNL     1      12.408   7.812  22.011  1.00  0.00     0.261 A 
ATOM     34  H9  UNL     1      10.927   6.397  21.903  1.00  0.00     0.172 HD
HETATM   35  O7  UNL     1      12.739   7.479  23.178  1.00  0.00    -0.267 OA
HETATM   36  C12 UNL     1      13.066   8.838  21.357  1.00  0.00     0.068 A 
HETATM   37  C13 UNL     1      14.099   9.541  21.935  1.00  0.00     0.046 A 
HETATM   38  C17 UNL     1      12.653   9.150  20.083  1.00  0.00     0.095 A 
HETATM   39  C14 UNL     1      14.741  10.568  21.259  1.00  0.00     0.081 A 
HETATM   40  C15 UNL     1      14.342  10.900  19.977  1.00  0.00     0.029 A 
HETATM   41  C16 UNL     1      13.305  10.176  19.425  1.00  0.00     0.040 A 
HETATM   42  O11 UNL     1      11.671   8.472  19.554  1.00  0.00    -0.277 OA
BRANCH  39  43
HETATM   43  S2  UNL     1      16.048  11.424  22.047  1.00  0.00     0.137 S 
HETATM   44  O8  UNL     1      15.474  12.619  22.761  1.00  0.00    -0.591 OA
HETATM   45  O9  UNL     1      16.613  10.482  23.089  1.00  0.00    -0.591 OA
HETATM   46  O10 UNL     1      17.181  11.835  20.906  1.00  0.00    -0.591 OA
ENDBRANCH  39  43
ENDBRANCH  29  31
ENDBRANCH  27  29
ENDBRANCH   1  27
BRANCH   2  47
HETATM   47  O6  UNL     1       9.476   4.838  15.625  1.00  0.00    -0.288 OA
ATOM     48  H6  UNL     1       8.624   5.118  15.311  1.00  0.00     0.244 HD
ENDBRANCH   2  47
TORSDOF 12
ENDMDL
