MODEL 1
REMARK VINA RESULT: -9.765236252      0.000      0.000
REMARK  17 active torsions:
REMARK  status: ('A' for Active; 'I' for Inactive)
REMARK    1  A    between atoms: C3_6  and  C4_7 
REMARK    2  A    between atoms: C4_7  and  O2_8 
REMARK    3  A    between atoms: C4_7  and  N2_10 
REMARK    4  A    between atoms: C5_12  and  C6_13 
REMARK    5  A    between atoms: C9_18  and  O4_19 
REMARK    6  A    between atoms: C10_21  and  O5_22 
REMARK    7  A    between atoms: N4_28  and  N5_29 
REMARK    8  A    between atoms: C14_31  and  N6_32 
REMARK    9  A    between atoms: C14_31  and  C15_37 
REMARK   10  A    between atoms: N6_32  and  N7_34 
REMARK   11  A    between atoms: C15_37  and  O9_38 
REMARK   12  A    between atoms: C15_37  and  C16_40 
REMARK   13  A    between atoms: C16_40  and  O10_41 
REMARK   14  A    between atoms: C16_40  and  C17_43 
REMARK   15  A    between atoms: C17_43  and  O11_44 
REMARK   16  A    between atoms: C18_48  and  C19_49 
REMARK   17  A    between atoms: C20_50  and  C21_51 
ROOT
HETATM    1  C6  UNL     1      12.094   8.068  19.752  1.00  0.00     0.260 C 
HETATM    2  N3  UNL     1      11.120   8.370  20.779  1.00  0.00    -0.062 NA
HETATM    3  O3  UNL     1      11.678   8.012  22.008  1.00  0.00    -0.241 OA
HETATM    4  C7  UNL     1      12.929   8.311  22.544  1.00  0.00     0.112 A 
HETATM    5  C8  UNL     1      13.007   7.702  23.767  1.00  0.00     0.079 A 
HETATM    6  C9  UNL     1      14.174   7.847  24.520  1.00  0.00     0.101 A 
HETATM    7  C10 UNL     1      15.238   8.590  24.054  1.00  0.00     0.099 A 
HETATM    8  C11 UNL     1      15.155   9.205  22.814  1.00  0.00     0.059 A 
HETATM    9  C12 UNL     1      14.010   9.064  22.072  1.00  0.00     0.073 A 
HETATM   10  C13 UNL     1      14.210   9.811  20.832  1.00  0.00     0.294 C 
HETATM   11  O6  UNL     1      15.192  10.583  20.948  1.00  0.00    -0.264 OA
HETATM   12  N4  UNL     1      13.603   9.901  19.547  1.00  0.00    -0.157 N 
HETATM   13  N8  UNL     1      12.539   9.190  18.992  1.00  0.00    -0.285 N 
ATOM     14  H8  UNL     1      12.109   9.455  18.105  1.00  0.00     0.184 HD
ENDROOT
BRANCH   1  15
HETATM   15  C5  UNL     1      11.392   7.143  18.785  1.00  0.00     0.104 C 
HETATM   16  N2  UNL     1      10.134   7.334  18.660  1.00  0.00    -0.368 N 
ATOM     17  H2  UNL     1       9.704   8.080  19.207  1.00  0.00     0.161 HD
BRANCH  16  18
HETATM   18  C4  UNL     1       9.292   6.560  17.795  1.00  0.00     0.272 C 
BRANCH  18  19
HETATM   19  C3  UNL     1       8.726   5.380  18.488  1.00  0.00     0.102 A 
HETATM   20  N1  UNL     1       9.277   4.623  19.459  1.00  0.00    -0.259 N 
HETATM   21  O1  UNL     1       8.451   3.683  19.794  1.00  0.00    -0.241 OA
ATOM     22  H1  UNL     1      10.201   4.768  19.867  1.00  0.00     0.194 HD
HETATM   23  C2  UNL     1       7.353   3.765  19.089  1.00  0.00     0.093 A 
HETATM   24  C1  UNL     1       6.171   2.866  19.184  1.00  0.00     0.080 C 
HETATM   25  C18 UNL     1       7.481   4.848  18.230  1.00  0.00     0.078 A 
BRANCH  25  26
HETATM   26  C19 UNL     1       6.490   5.295  17.271  1.00  0.00    -0.051 C 
HETATM   27  C20 UNL     1       5.674   5.657  16.456  1.00  0.00     0.010 C 
BRANCH  27  28
HETATM   28  C21 UNL     1       4.717   6.069  15.476  1.00  0.00     0.258 C 
HETATM   29  O12 UNL     1       4.727   5.687  14.281  1.00  0.00    -0.637 OA
HETATM   30  O13 UNL     1       3.712   6.948  15.858  1.00  0.00    -0.637 OA
ENDBRANCH  27  28
ENDBRANCH  25  26
ENDBRANCH  18  19
BRANCH  18  31
HETATM   31  O2  UNL     1       8.189   7.373  17.447  1.00  0.00    -0.371 OA
ATOM     32  H2  UNL     1       8.027   7.212  16.525  1.00  0.00     0.212 HD
ENDBRANCH  18  31
ENDBRANCH  16  18
ENDBRANCH   1  15
BRANCH  12  33
HETATM   33  N5  UNL     1      14.109  10.824  18.690  1.00  0.00    -0.261 N 
HETATM   34  C14 UNL     1      14.094  12.090  18.692  1.00  0.00     0.149 C 
ATOM     35  H5  UNL     1      14.596  10.420  17.891  1.00  0.00     0.190 HD
BRANCH  34  36
HETATM   36  N6  UNL     1      14.770  12.684  17.558  1.00  0.00    -0.225 N 
ATOM     37  H6  UNL     1      15.514  13.361  17.733  1.00  0.00     0.194 HD
BRANCH  36  38
HETATM   38  N7  UNL     1      14.448  12.372  16.238  1.00  0.00    -0.037 N 
HETATM   39  O7  UNL     1      13.322  11.858  16.039  1.00  0.00    -0.516 OA
HETATM   40  O8  UNL     1      15.317  12.612  15.191  1.00  0.00    -0.516 OA
ENDBRANCH  36  38
ENDBRANCH  34  36
BRANCH  34  41
HETATM   41  C15 UNL     1      13.463  12.923  19.720  1.00  0.00     0.219 C 
BRANCH  41  42
HETATM   42  O9  UNL     1      14.083  14.163  19.761  1.00  0.00    -0.385 OA
ATOM     43  H9  UNL     1      13.884  14.647  18.968  1.00  0.00     0.210 HD
ENDBRANCH  41  42
BRANCH  41  44
HETATM   44  C16 UNL     1      11.990  13.132  19.511  1.00  0.00     0.177 C 
BRANCH  44  45
HETATM   45  O10 UNL     1      11.582  12.388  18.404  1.00  0.00    -0.390 OA
ATOM     46  H10 UNL     1      12.085  12.663  17.647  1.00  0.00     0.210 HD
ENDBRANCH  44  45
BRANCH  44  47
HETATM   47  C17 UNL     1      11.181  12.624  20.701  1.00  0.00     0.198 C 
BRANCH  47  48
HETATM   48  O11 UNL     1      10.769  11.312  20.498  1.00  0.00    -0.398 OA
ATOM     49  H11 UNL     1      10.875  10.797  21.289  1.00  0.00     0.209 HD
ENDBRANCH  47  48
ENDBRANCH  44  47
ENDBRANCH  41  44
ENDBRANCH  34  41
ENDBRANCH  12  33
BRANCH   6  50
HETATM   50  O4  UNL     1      14.238   7.230  25.747  1.00  0.00    -0.358 OA
ATOM     51  H4  UNL     1      14.694   7.677  26.452  1.00  0.00     0.217 HD
ENDBRANCH   6  50
BRANCH   7  52
HETATM   52  O5  UNL     1      16.380   8.734  24.787  1.00  0.00    -0.358 OA
ATOM     53  H5  UNL     1      16.422   8.465  25.698  1.00  0.00     0.217 HD
ENDBRANCH   7  52
TORSDOF 17
ENDMDL
MODEL 2
REMARK VINA RESULT: -9.662265077      0.750      1.096
REMARK  17 active torsions:
REMARK  status: ('A' for Active; 'I' for Inactive)
REMARK    1  A    between atoms: C3_6  and  C4_7 
REMARK    2  A    between atoms: C4_7  and  O2_8 
REMARK    3  A    between atoms: C4_7  and  N2_10 
REMARK    4  A    between atoms: C5_12  and  C6_13 
REMARK    5  A    between atoms: C9_18  and  O4_19 
REMARK    6  A    between atoms: C10_21  and  O5_22 
REMARK    7  A    between atoms: N4_28  and  N5_29 
REMARK    8  A    between atoms: C14_31  and  N6_32 
REMARK    9  A    between atoms: C14_31  and  C15_37 
REMARK   10  A    between atoms: N6_32  and  N7_34 
REMARK   11  A    between atoms: C15_37  and  O9_38 
REMARK   12  A    between atoms: C15_37  and  C16_40 
REMARK   13  A    between atoms: C16_40  and  O10_41 
REMARK   14  A    between atoms: C16_40  and  C17_43 
REMARK   15  A    between atoms: C17_43  and  O11_44 
REMARK   16  A    between atoms: C18_48  and  C19_49 
REMARK   17  A    between atoms: C20_50  and  C21_51 
ROOT
HETATM    1  C6  UNL     1      11.925   7.836  19.588  1.00  0.00     0.260 C 
HETATM    2  N3  UNL     1      10.981   8.166  20.634  1.00  0.00    -0.062 NA
HETATM    3  O3  UNL     1      11.599   7.905  21.858  1.00  0.00    -0.241 OA
HETATM    4  C7  UNL     1      12.858   8.280  22.324  1.00  0.00     0.112 A 
HETATM    5  C8  UNL     1      13.006   7.751  23.577  1.00  0.00     0.079 A 
HETATM    6  C9  UNL     1      14.194   7.984  24.271  1.00  0.00     0.101 A 
HETATM    7  C10 UNL     1      15.211   8.733  23.719  1.00  0.00     0.099 A 
HETATM    8  C11 UNL     1      15.057   9.268  22.448  1.00  0.00     0.059 A 
HETATM    9  C12 UNL     1      13.890   9.040  21.763  1.00  0.00     0.073 A 
HETATM   10  C13 UNL     1      14.014   9.716  20.473  1.00  0.00     0.294 C 
HETATM   11  O6  UNL     1      14.970  10.529  20.503  1.00  0.00    -0.264 OA
HETATM   12  N4  UNL     1      13.355   9.705  19.211  1.00  0.00    -0.157 N 
HETATM   13  N8  UNL     1      12.297   8.925  18.744  1.00  0.00    -0.285 N 
ATOM     14  H8  UNL     1      11.824   9.118  17.862  1.00  0.00     0.184 HD
ENDROOT
BRANCH   1  15
HETATM   15  C5  UNL     1      11.222   6.828  18.708  1.00  0.00     0.104 C 
HETATM   16  N2  UNL     1      10.039   7.151  18.344  1.00  0.00    -0.368 N 
ATOM     17  H2  UNL     1       9.665   8.044  18.664  1.00  0.00     0.161 HD
BRANCH  16  18
HETATM   18  C4  UNL     1       9.210   6.330  17.511  1.00  0.00     0.272 C 
BRANCH  18  19
HETATM   19  C3  UNL     1       8.591   5.220  18.272  1.00  0.00     0.102 A 
HETATM   20  N1  UNL     1       9.110   4.495  19.285  1.00  0.00    -0.259 N 
HETATM   21  O1  UNL     1       8.241   3.618  19.675  1.00  0.00    -0.241 OA
ATOM     22  H1  UNL     1      10.041   4.618  19.681  1.00  0.00     0.194 HD
HETATM   23  C2  UNL     1       7.144   3.712  18.970  1.00  0.00     0.093 A 
HETATM   24  C1  UNL     1       5.921   2.879  19.119  1.00  0.00     0.080 C 
HETATM   25  C18 UNL     1       7.321   4.736  18.049  1.00  0.00     0.078 A 
BRANCH  25  26
HETATM   26  C19 UNL     1       6.347   5.174  17.068  1.00  0.00    -0.051 C 
HETATM   27  C20 UNL     1       5.540   5.561  16.255  1.00  0.00     0.010 C 
BRANCH  27  28
HETATM   28  C21 UNL     1       4.595   6.039  15.293  1.00  0.00     0.258 C 
HETATM   29  O12 UNL     1       4.597   5.708  14.083  1.00  0.00    -0.637 OA
HETATM   30  O13 UNL     1       3.613   6.927  15.712  1.00  0.00    -0.637 OA
ENDBRANCH  27  28
ENDBRANCH  25  26
ENDBRANCH  18  19
BRANCH  18  31
HETATM   31  O2  UNL     1       8.140   7.136  17.060  1.00  0.00    -0.371 OA
ATOM     32  H2  UNL     1       8.497   8.011  16.960  1.00  0.00     0.212 HD
ENDBRANCH  18  31
ENDBRANCH  16  18
ENDBRANCH   1  15
BRANCH  12  33
HETATM   33  N5  UNL     1      13.792  10.592  18.281  1.00  0.00    -0.261 N 
HETATM   34  C14 UNL     1      13.533  11.813  18.077  1.00  0.00     0.149 C 
ATOM     35  H5  UNL     1      14.458  10.196  17.618  1.00  0.00     0.190 HD
BRANCH  34  36
HETATM   36  N6  UNL     1      14.239  12.380  16.947  1.00  0.00    -0.225 N 
ATOM     37  H6  UNL     1      14.866  13.169  17.109  1.00  0.00     0.194 HD
BRANCH  36  38
HETATM   38  N7  UNL     1      14.098  11.895  15.647  1.00  0.00    -0.037 N 
HETATM   39  O7  UNL     1      13.086  12.274  15.011  1.00  0.00    -0.516 OA
HETATM   40  O8  UNL     1      15.019  11.038  15.077  1.00  0.00    -0.516 OA
ENDBRANCH  36  38
ENDBRANCH  34  36
BRANCH  34  41
HETATM   41  C15 UNL     1      12.611  12.624  18.878  1.00  0.00     0.219 C 
BRANCH  41  42
HETATM   42  O9  UNL     1      11.504  11.866  19.227  1.00  0.00    -0.385 OA
ATOM     43  H9  UNL     1      10.836  11.946  18.556  1.00  0.00     0.210 HD
ENDBRANCH  41  42
BRANCH  41  44
HETATM   44  C16 UNL     1      13.225  13.179  20.132  1.00  0.00     0.177 C 
BRANCH  44  45
HETATM   45  O10 UNL     1      14.494  13.674  19.831  1.00  0.00    -0.390 OA
ATOM     46  H10 UNL     1      14.403  14.424  19.255  1.00  0.00     0.210 HD
ENDBRANCH  44  45
BRANCH  44  47
HETATM   47  C17 UNL     1      12.416  14.353  20.676  1.00  0.00     0.198 C 
BRANCH  47  48
HETATM   48  O11 UNL     1      11.455  13.917  21.580  1.00  0.00    -0.398 OA
ATOM     49  H11 UNL     1      11.861  13.568  22.365  1.00  0.00     0.209 HD
ENDBRANCH  47  48
ENDBRANCH  44  47
ENDBRANCH  41  44
ENDBRANCH  34  41
ENDBRANCH  12  33
BRANCH   6  50
HETATM   50  O4  UNL     1      14.330   7.446  25.530  1.00  0.00    -0.358 OA
ATOM     51  H4  UNL     1      15.203   7.377  25.898  1.00  0.00     0.217 HD
ENDBRANCH   6  50
BRANCH   7  52
HETATM   52  O5  UNL     1      16.374   8.963  24.395  1.00  0.00    -0.358 OA
ATOM     53  H5  UNL     1      16.541   9.794  24.825  1.00  0.00     0.217 HD
ENDBRANCH   7  52
TORSDOF 17
ENDMDL
MODEL 3
REMARK VINA RESULT: -9.636105010      1.579      2.313
REMARK  17 active torsions:
REMARK  status: ('A' for Active; 'I' for Inactive)
REMARK    1  A    between atoms: C3_6  and  C4_7 
REMARK    2  A    between atoms: C4_7  and  O2_8 
REMARK    3  A    between atoms: C4_7  and  N2_10 
REMARK    4  A    between atoms: C5_12  and  C6_13 
REMARK    5  A    between atoms: C9_18  and  O4_19 
REMARK    6  A    between atoms: C10_21  and  O5_22 
REMARK    7  A    between atoms: N4_28  and  N5_29 
REMARK    8  A    between atoms: C14_31  and  N6_32 
REMARK    9  A    between atoms: C14_31  and  C15_37 
REMARK   10  A    between atoms: N6_32  and  N7_34 
REMARK   11  A    between atoms: C15_37  and  O9_38 
REMARK   12  A    between atoms: C15_37  and  C16_40 
REMARK   13  A    between atoms: C16_40  and  O10_41 
REMARK   14  A    between atoms: C16_40  and  C17_43 
REMARK   15  A    between atoms: C17_43  and  O11_44 
REMARK   16  A    between atoms: C18_48  and  C19_49 
REMARK   17  A    between atoms: C20_50  and  C21_51 
ROOT
HETATM    1  C6  UNL     1      11.553   7.737  19.697  1.00  0.00     0.260 C 
HETATM    2  N3  UNL     1      10.720   8.223  20.777  1.00  0.00    -0.062 NA
HETATM    3  O3  UNL     1      11.402   7.991  21.973  1.00  0.00    -0.241 OA
HETATM    4  C7  UNL     1      12.719   8.282  22.324  1.00  0.00     0.112 A 
HETATM    5  C8  UNL     1      12.914   7.829  23.600  1.00  0.00     0.079 A 
HETATM    6  C9  UNL     1      14.166   8.001  24.193  1.00  0.00     0.101 A 
HETATM    7  C10 UNL     1      15.199   8.616  23.519  1.00  0.00     0.099 A 
HETATM    8  C11 UNL     1      14.998   9.073  22.225  1.00  0.00     0.059 A 
HETATM    9  C12 UNL     1      13.768   8.906  21.639  1.00  0.00     0.073 A 
HETATM   10  C13 UNL     1      13.854   9.477  20.297  1.00  0.00     0.294 C 
HETATM   11  O6  UNL     1      14.875  10.200  20.201  1.00  0.00    -0.264 OA
HETATM   12  N4  UNL     1      13.105   9.440  19.086  1.00  0.00    -0.157 N 
HETATM   13  N8  UNL     1      11.953   8.727  18.752  1.00  0.00    -0.285 N 
ATOM     14  H8  UNL     1      11.435   8.902  17.891  1.00  0.00     0.184 HD
ENDROOT
BRANCH   1  15
HETATM   15  C5  UNL     1      10.704   6.739  18.946  1.00  0.00     0.104 C 
HETATM   16  N2  UNL     1       9.722   6.250  19.604  1.00  0.00    -0.368 N 
ATOM     17  H2  UNL     1       9.586   6.561  20.565  1.00  0.00     0.161 HD
BRANCH  16  18
HETATM   18  C4  UNL     1       8.804   5.289  19.068  1.00  0.00     0.272 C 
BRANCH  18  19
HETATM   19  C3  UNL     1       8.628   5.450  17.606  1.00  0.00     0.102 A 
HETATM   20  N1  UNL     1       9.508   5.203  16.614  1.00  0.00    -0.259 N 
HETATM   21  O1  UNL     1       8.959   5.475  15.473  1.00  0.00    -0.241 OA
ATOM     22  H1  UNL     1      10.458   4.854  16.743  1.00  0.00     0.194 HD
HETATM   23  C2  UNL     1       7.735   5.902  15.642  1.00  0.00     0.093 A 
HETATM   24  C1  UNL     1       6.785   6.313  14.574  1.00  0.00     0.080 C 
HETATM   25  C18 UNL     1       7.472   5.903  17.006  1.00  0.00     0.078 A 
BRANCH  25  26
HETATM   26  C19 UNL     1       6.228   6.306  17.632  1.00  0.00    -0.051 C 
HETATM   27  C20 UNL     1       5.181   6.640  18.134  1.00  0.00     0.010 C 
BRANCH  27  28
HETATM   28  C21 UNL     1       3.930   7.027  18.710  1.00  0.00     0.258 C 
HETATM   29  O12 UNL     1       2.955   6.252  18.856  1.00  0.00    -0.637 OA
HETATM   30  O13 UNL     1       3.773   8.339  19.136  1.00  0.00    -0.637 OA
ENDBRANCH  27  28
ENDBRANCH  25  26
ENDBRANCH  18  19
BRANCH  18  31
HETATM   31  O2  UNL     1       9.379   4.011  19.251  1.00  0.00    -0.371 OA
ATOM     32  H2  UNL     1       9.294   3.817  20.177  1.00  0.00     0.212 HD
ENDBRANCH  18  31
ENDBRANCH  16  18
ENDBRANCH   1  15
BRANCH  12  33
HETATM   33  N5  UNL     1      13.546  10.216  18.065  1.00  0.00    -0.261 N 
HETATM   34  C14 UNL     1      13.422  11.451  17.816  1.00  0.00     0.149 C 
ATOM     35  H5  UNL     1      14.081   9.706  17.362  1.00  0.00     0.190 HD
BRANCH  34  36
HETATM   36  N6  UNL     1      14.067  11.867  16.587  1.00  0.00    -0.225 N 
ATOM     37  H6  UNL     1      14.583  12.747  16.581  1.00  0.00     0.194 HD
BRANCH  36  38
HETATM   38  N7  UNL     1      14.012  11.116  15.413  1.00  0.00    -0.037 N 
HETATM   39  O7  UNL     1      13.198  11.497  14.539  1.00  0.00    -0.516 OA
HETATM   40  O8  UNL     1      14.809  10.006  15.211  1.00  0.00    -0.516 OA
ENDBRANCH  36  38
ENDBRANCH  34  36
BRANCH  34  41
HETATM   41  C15 UNL     1      12.703  12.412  18.656  1.00  0.00     0.219 C 
BRANCH  41  42
HETATM   42  O9  UNL     1      11.545  11.828  19.149  1.00  0.00    -0.385 OA
ATOM     43  H9  UNL     1      11.080  12.450  19.695  1.00  0.00     0.210 HD
ENDBRANCH  41  42
BRANCH  41  44
HETATM   44  C16 UNL     1      13.509  12.926  19.815  1.00  0.00     0.177 C 
BRANCH  44  45
HETATM   45  O10 UNL     1      14.733  13.395  19.339  1.00  0.00    -0.390 OA
ATOM     46  H10 UNL     1      14.657  14.325  19.159  1.00  0.00     0.210 HD
ENDBRANCH  44  45
BRANCH  44  47
HETATM   47  C17 UNL     1      12.822  14.109  20.492  1.00  0.00     0.198 C 
BRANCH  47  48
HETATM   48  O11 UNL     1      12.101  13.693  21.605  1.00  0.00    -0.398 OA
ATOM     49  H11 UNL     1      11.641  14.423  22.003  1.00  0.00     0.209 HD
ENDBRANCH  47  48
ENDBRANCH  44  47
ENDBRANCH  41  44
ENDBRANCH  34  41
ENDBRANCH  12  33
BRANCH   6  50
HETATM   50  O4  UNL     1      14.348   7.541  25.477  1.00  0.00    -0.358 OA
ATOM     51  H4  UNL     1      14.517   8.177  26.162  1.00  0.00     0.217 HD
ENDBRANCH   6  50
BRANCH   7  52
HETATM   52  O5  UNL     1      16.424   8.786  24.095  1.00  0.00    -0.358 OA
ATOM     53  H5  UNL     1      17.213   8.438  23.696  1.00  0.00     0.217 HD
ENDBRANCH   7  52
TORSDOF 17
ENDMDL
MODEL 4
REMARK VINA RESULT: -9.571375812      2.238      3.458
REMARK  17 active torsions:
REMARK  status: ('A' for Active; 'I' for Inactive)
REMARK    1  A    between atoms: C3_6  and  C4_7 
REMARK    2  A    between atoms: C4_7  and  O2_8 
REMARK    3  A    between atoms: C4_7  and  N2_10 
REMARK    4  A    between atoms: C5_12  and  C6_13 
REMARK    5  A    between atoms: C9_18  and  O4_19 
REMARK    6  A    between atoms: C10_21  and  O5_22 
REMARK    7  A    between atoms: N4_28  and  N5_29 
REMARK    8  A    between atoms: C14_31  and  N6_32 
REMARK    9  A    between atoms: C14_31  and  C15_37 
REMARK   10  A    between atoms: N6_32  and  N7_34 
REMARK   11  A    between atoms: C15_37  and  O9_38 
REMARK   12  A    between atoms: C15_37  and  C16_40 
REMARK   13  A    between atoms: C16_40  and  O10_41 
REMARK   14  A    between atoms: C16_40  and  C17_43 
REMARK   15  A    between atoms: C17_43  and  O11_44 
REMARK   16  A    between atoms: C18_48  and  C19_49 
REMARK   17  A    between atoms: C20_50  and  C21_51 
ROOT
HETATM    1  C6  UNL     1      11.511   7.605  19.707  1.00  0.00     0.260 C 
HETATM    2  N3  UNL     1      10.696   7.955  20.851  1.00  0.00    -0.062 NA
HETATM    3  O3  UNL     1      11.490   7.819  21.992  1.00  0.00    -0.241 OA
HETATM    4  C7  UNL     1      12.771   8.299  22.253  1.00  0.00     0.112 A 
HETATM    5  C8  UNL     1      13.122   7.871  23.505  1.00  0.00     0.079 A 
HETATM    6  C9  UNL     1      14.375   8.222  24.011  1.00  0.00     0.101 A 
HETATM    7  C10 UNL     1      15.256   8.987  23.276  1.00  0.00     0.099 A 
HETATM    8  C11 UNL     1      14.896   9.418  22.008  1.00  0.00     0.059 A 
HETATM    9  C12 UNL     1      13.665   9.075  21.507  1.00  0.00     0.073 A 
HETATM   10  C13 UNL     1      13.569   9.661  20.173  1.00  0.00     0.294 C 
HETATM   11  O6  UNL     1      14.464  10.528  20.017  1.00  0.00    -0.264 OA
HETATM   12  N4  UNL     1      12.748   9.522  19.017  1.00  0.00    -0.157 N 
HETATM   13  N8  UNL     1      11.692   8.649  18.753  1.00  0.00    -0.285 N 
ATOM     14  H8  UNL     1      11.093   8.751  17.934  1.00  0.00     0.184 HD
ENDROOT
BRANCH   1  15
HETATM   15  C5  UNL     1      10.765   6.498  19.000  1.00  0.00     0.104 C 
HETATM   16  N2  UNL     1       9.585   6.267  19.436  1.00  0.00    -0.368 N 
ATOM     17  H2  UNL     1       9.239   6.834  20.210  1.00  0.00     0.161 HD
BRANCH  16  18
HETATM   18  C4  UNL     1       8.720   5.258  18.899  1.00  0.00     0.272 C 
BRANCH  18  19
HETATM   19  C3  UNL     1       8.497   5.440  17.446  1.00  0.00     0.102 A 
HETATM   20  N1  UNL     1       9.341   5.197  16.422  1.00  0.00    -0.259 N 
HETATM   21  O1  UNL     1       8.757   5.489  15.304  1.00  0.00    -0.241 OA
ATOM     22  H1  UNL     1      10.291   4.838  16.514  1.00  0.00     0.194 HD
HETATM   23  C2  UNL     1       7.543   5.924  15.519  1.00  0.00     0.093 A 
HETATM   24  C1  UNL     1       6.562   6.358  14.489  1.00  0.00     0.080 C 
HETATM   25  C18 UNL     1       7.326   5.911  16.891  1.00  0.00     0.078 A 
BRANCH  25  26
HETATM   26  C19 UNL     1       6.108   6.317  17.563  1.00  0.00    -0.051 C 
HETATM   27  C20 UNL     1       5.083   6.660  18.104  1.00  0.00     0.010 C 
BRANCH  27  28
HETATM   28  C21 UNL     1       3.859   7.064  18.724  1.00  0.00     0.258 C 
HETATM   29  O12 UNL     1       2.869   6.309  18.882  1.00  0.00    -0.637 OA
HETATM   30  O13 UNL     1       3.745   8.371  19.180  1.00  0.00    -0.637 OA
ENDBRANCH  27  28
ENDBRANCH  25  26
ENDBRANCH  18  19
BRANCH  18  31
HETATM   31  O2  UNL     1       9.385   4.019  19.038  1.00  0.00    -0.371 OA
ATOM     32  H2  UNL     1       8.977   3.432  18.412  1.00  0.00     0.212 HD
ENDBRANCH  18  31
ENDBRANCH  16  18
ENDBRANCH   1  15
BRANCH  12  33
HETATM   33  N5  UNL     1      12.995  10.362  17.981  1.00  0.00    -0.261 N 
HETATM   34  C14 UNL     1      13.586  10.201  16.873  1.00  0.00     0.149 C 
ATOM     35  H5  UNL     1      12.635  11.306  18.122  1.00  0.00     0.190 HD
BRANCH  34  36
HETATM   36  N6  UNL     1      13.621  11.393  16.051  1.00  0.00    -0.225 N 
ATOM     37  H6  UNL     1      12.882  11.532  15.362  1.00  0.00     0.194 HD
BRANCH  36  38
HETATM   38  N7  UNL     1      14.622  12.357  16.160  1.00  0.00    -0.037 N 
HETATM   39  O7  UNL     1      14.856  12.798  17.310  1.00  0.00    -0.516 OA
HETATM   40  O8  UNL     1      15.329  12.813  15.065  1.00  0.00    -0.516 OA
ENDBRANCH  36  38
ENDBRANCH  34  36
BRANCH  34  41
HETATM   41  C15 UNL     1      14.196   8.949  16.418  1.00  0.00     0.219 C 
BRANCH  41  42
HETATM   42  O9  UNL     1      13.350   7.887  16.699  1.00  0.00    -0.385 OA
ATOM     43  H9  UNL     1      13.625   7.120  16.211  1.00  0.00     0.210 HD
ENDBRANCH  41  42
BRANCH  41  44
HETATM   44  C16 UNL     1      14.517   8.929  14.951  1.00  0.00     0.177 C 
BRANCH  44  45
HETATM   45  O10 UNL     1      13.823   9.964  14.324  1.00  0.00    -0.390 OA
ATOM     46  H10 UNL     1      13.846   9.824  13.384  1.00  0.00     0.210 HD
ENDBRANCH  44  45
BRANCH  44  47
HETATM   47  C17 UNL     1      16.001   9.183  14.700  1.00  0.00     0.198 C 
BRANCH  47  48
HETATM   48  O11 UNL     1      16.549   8.181  13.909  1.00  0.00    -0.398 OA
ATOM     49  H11 UNL     1      16.109   8.134  13.068  1.00  0.00     0.209 HD
ENDBRANCH  47  48
ENDBRANCH  44  47
ENDBRANCH  41  44
ENDBRANCH  34  41
ENDBRANCH  12  33
BRANCH   6  50
HETATM   50  O4  UNL     1      14.714   7.785  25.271  1.00  0.00    -0.358 OA
ATOM     51  H4  UNL     1      15.445   7.184  25.357  1.00  0.00     0.217 HD
ENDBRANCH   6  50
BRANCH   7  52
HETATM   52  O5  UNL     1      16.481   9.332  23.768  1.00  0.00    -0.358 OA
ATOM     53  H5  UNL     1      16.645  10.195  24.129  1.00  0.00     0.217 HD
ENDBRANCH   7  52
TORSDOF 17
ENDMDL
MODEL 5
REMARK VINA RESULT: -9.391660168      1.315      1.613
REMARK  17 active torsions:
REMARK  status: ('A' for Active; 'I' for Inactive)
REMARK    1  A    between atoms: C3_6  and  C4_7 
REMARK    2  A    between atoms: C4_7  and  O2_8 
REMARK    3  A    between atoms: C4_7  and  N2_10 
REMARK    4  A    between atoms: C5_12  and  C6_13 
REMARK    5  A    between atoms: C9_18  and  O4_19 
REMARK    6  A    between atoms: C10_21  and  O5_22 
REMARK    7  A    between atoms: N4_28  and  N5_29 
REMARK    8  A    between atoms: C14_31  and  N6_32 
REMARK    9  A    between atoms: C14_31  and  C15_37 
REMARK   10  A    between atoms: N6_32  and  N7_34 
REMARK   11  A    between atoms: C15_37  and  O9_38 
REMARK   12  A    between atoms: C15_37  and  C16_40 
REMARK   13  A    between atoms: C16_40  and  O10_41 
REMARK   14  A    between atoms: C16_40  and  C17_43 
REMARK   15  A    between atoms: C17_43  and  O11_44 
REMARK   16  A    between atoms: C18_48  and  C19_49 
REMARK   17  A    between atoms: C20_50  and  C21_51 
ROOT
HETATM    1  C6  UNL     1      11.510   8.085  19.819  1.00  0.00     0.260 C 
HETATM    2  N3  UNL     1      10.717   8.532  20.944  1.00  0.00    -0.062 NA
HETATM    3  O3  UNL     1      11.414   8.200  22.108  1.00  0.00    -0.241 OA
HETATM    4  C7  UNL     1      12.747   8.421  22.448  1.00  0.00     0.112 A 
HETATM    5  C8  UNL     1      12.949   7.882  23.689  1.00  0.00     0.079 A 
HETATM    6  C9  UNL     1      14.218   7.971  24.264  1.00  0.00     0.101 A 
HETATM    7  C10 UNL     1      15.260   8.589  23.607  1.00  0.00     0.099 A 
HETATM    8  C11 UNL     1      15.051   9.134  22.349  1.00  0.00     0.059 A 
HETATM    9  C12 UNL     1      13.805   9.048  21.781  1.00  0.00     0.073 A 
HETATM   10  C13 UNL     1      13.886   9.700  20.475  1.00  0.00     0.294 C 
HETATM   11  O6  UNL     1      14.932  10.390  20.402  1.00  0.00    -0.264 OA
HETATM   12  N4  UNL     1      13.113   9.766  19.281  1.00  0.00    -0.157 N 
HETATM   13  N8  UNL     1      11.930   9.118  18.928  1.00  0.00    -0.285 N 
ATOM     14  H8  UNL     1      11.401   9.365  18.091  1.00  0.00     0.184 HD
ENDROOT
BRANCH   1  15
HETATM   15  C5  UNL     1      10.610   7.168  19.024  1.00  0.00     0.104 C 
HETATM   16  N2  UNL     1      11.160   6.092  18.603  1.00  0.00    -0.368 N 
ATOM     17  H2  UNL     1      12.142   5.934  18.829  1.00  0.00     0.161 HD
BRANCH  16  18
HETATM   18  C4  UNL     1      10.475   5.097  17.833  1.00  0.00     0.272 C 
BRANCH  18  19
HETATM   19  C3  UNL     1       9.206   4.680  18.474  1.00  0.00     0.102 A 
HETATM   20  N1  UNL     1       9.022   3.976  19.610  1.00  0.00    -0.259 N 
HETATM   21  O1  UNL     1       7.753   3.824  19.822  1.00  0.00    -0.241 OA
ATOM     22  H1  UNL     1       9.766   3.618  20.209  1.00  0.00     0.194 HD
HETATM   23  C2  UNL     1       7.057   4.397  18.875  1.00  0.00     0.093 A 
HETATM   24  C1  UNL     1       5.575   4.439  18.767  1.00  0.00     0.080 C 
HETATM   25  C18 UNL     1       7.952   4.966  17.978  1.00  0.00     0.078 A 
BRANCH  25  26
HETATM   26  C19 UNL     1       7.601   5.701  16.778  1.00  0.00    -0.051 C 
HETATM   27  C20 UNL     1       7.289   6.315  15.785  1.00  0.00     0.010 C 
BRANCH  27  28
HETATM   28  C21 UNL     1       6.900   7.049  14.621  1.00  0.00     0.258 C 
HETATM   29  O12 UNL     1       7.457   8.106  14.239  1.00  0.00    -0.637 OA
HETATM   30  O13 UNL     1       5.840   6.573  13.860  1.00  0.00    -0.637 OA
ENDBRANCH  27  28
ENDBRANCH  25  26
ENDBRANCH  18  19
BRANCH  18  31
HETATM   31  O2  UNL     1      10.111   5.694  16.604  1.00  0.00    -0.371 OA
ATOM     32  H2  UNL     1      10.766   6.361  16.435  1.00  0.00     0.212 HD
ENDBRANCH  18  31
ENDBRANCH  16  18
ENDBRANCH   1  15
BRANCH  12  33
HETATM   33  N5  UNL     1      13.563  10.589  18.301  1.00  0.00    -0.261 N 
HETATM   34  C14 UNL     1      13.398  11.824  18.080  1.00  0.00     0.149 C 
ATOM     35  H5  UNL     1      14.148  10.122  17.608  1.00  0.00     0.190 HD
BRANCH  34  36
HETATM   36  N6  UNL     1      14.075  12.301  16.892  1.00  0.00    -0.225 N 
ATOM     37  H6  UNL     1      14.674  13.124  16.968  1.00  0.00     0.194 HD
BRANCH  36  38
HETATM   38  N7  UNL     1      13.943  11.684  15.648  1.00  0.00    -0.037 N 
HETATM   39  O7  UNL     1      13.089  12.167  14.868  1.00  0.00    -0.516 OA
HETATM   40  O8  UNL     1      14.709  10.595  15.281  1.00  0.00    -0.516 OA
ENDBRANCH  36  38
ENDBRANCH  34  36
BRANCH  34  41
HETATM   41  C15 UNL     1      12.604  12.730  18.914  1.00  0.00     0.219 C 
BRANCH  41  42
HETATM   42  O9  UNL     1      11.404  12.123  19.253  1.00  0.00    -0.385 OA
ATOM     43  H9  UNL     1      11.174  12.344  20.147  1.00  0.00     0.210 HD
ENDBRANCH  41  42
BRANCH  41  44
HETATM   44  C16 UNL     1      13.298  13.155  20.177  1.00  0.00     0.177 C 
BRANCH  44  45
HETATM   45  O10 UNL     1      14.634  13.428  19.887  1.00  0.00    -0.390 OA
ATOM     46  H10 UNL     1      14.699  14.311  19.541  1.00  0.00     0.210 HD
ENDBRANCH  44  45
BRANCH  44  47
HETATM   47  C17 UNL     1      12.700  14.443  20.735  1.00  0.00     0.198 C 
BRANCH  47  48
HETATM   48  O11 UNL     1      11.577  14.175  21.509  1.00  0.00    -0.398 OA
ATOM     49  H11 UNL     1      10.790  14.176  20.977  1.00  0.00     0.209 HD
ENDBRANCH  47  48
ENDBRANCH  44  47
ENDBRANCH  41  44
ENDBRANCH  34  41
ENDBRANCH  12  33
BRANCH   6  50
HETATM   50  O4  UNL     1      14.407   7.425  25.513  1.00  0.00    -0.358 OA
ATOM     51  H4  UNL     1      13.879   7.752  26.232  1.00  0.00     0.217 HD
ENDBRANCH   6  50
BRANCH   7  52
HETATM   52  O5  UNL     1      16.502   8.678  24.167  1.00  0.00    -0.358 OA
ATOM     53  H5  UNL     1      17.278   8.388  23.701  1.00  0.00     0.217 HD
ENDBRANCH   7  52
TORSDOF 17
ENDMDL
