MODEL 1
REMARK VINA RESULT: -10.201561875      0.000      0.000
REMARK  13 active torsions:
REMARK  status: ('A' for Active; 'I' for Inactive)
REMARK    1  A    between atoms: C2_7  and  N3_8 
REMARK    2  A    between atoms: C4_10  and  O1_11 
REMARK    3  A    between atoms: C5_13  and  O2_14 
REMARK    4  A    between atoms: C6_16  and  C7_17 
REMARK    5  A    between atoms: C7_17  and  O3_18 
REMARK    6  A    between atoms: N5_26  and  C12_27 
REMARK    7  A    between atoms: C12_27  and  C13_28 
REMARK    8  A    between atoms: C13_28  and  C14_29 
REMARK    9  A    between atoms: C14_29  and  N6_30 
REMARK       I    between atoms: N6_30  and  C15_32 
REMARK   10  A    between atoms: C15_32  and  C16_34 
REMARK   11  A    between atoms: N7_36  and  C18_37 
REMARK   12  A    between atoms: C21_40  and  N8_41 
REMARK   13  A    between atoms: N11_50  and  O5_51 
ROOT
HETATM    1  C14 UNL     1       7.008   3.455  18.471  1.00  0.00     0.124 C 
ENDROOT
BRANCH   1   2
HETATM    2  C13 UNL     1       5.934   3.873  17.523  1.00  0.00     0.040 C 
BRANCH   2   3
HETATM    3  C12 UNL     1       6.157   5.188  16.852  1.00  0.00     0.131 C 
BRANCH   3   4
HETATM    4  N5  UNL     1       5.155   6.188  17.224  1.00  0.00    -0.342 N 
HETATM    5  C8  UNL     1       4.959   7.324  16.521  1.00  0.00     0.137 A 
HETATM    6  N4  UNL     1       5.560   7.813  15.398  1.00  0.00    -0.175 N 
HETATM    7  C9  UNL     1       3.952   8.006  17.164  1.00  0.00     0.054 A 
HETATM    8  C2  UNL     1       5.173   8.993  14.887  1.00  0.00     0.684 A 
ATOM      9  H4  UNL     1       6.305   7.282  14.946  1.00  0.00     0.186 HD
HETATM   10  N2  UNL     1       4.184   9.658  15.523  1.00  0.00    -0.176 N 
HETATM   11  C1  UNL     1       3.567   9.213  16.629  1.00  0.00     0.128 A 
ATOM     12  H2  UNL     1       3.887  10.556  15.139  1.00  0.00     0.186 HD
HETATM   13  N1  UNL     1       2.629   9.867  17.213  1.00  0.00    -0.384 N 
ATOM     14  H12 UNL     1       2.343  10.762  16.817  1.00  0.00     0.157 HD
ATOM     15  H11 UNL     1       2.160   9.529  18.054  1.00  0.00     0.157 HD
HETATM   16  C10 UNL     1       3.562   7.249  18.256  1.00  0.00     0.036 A 
HETATM   17  C11 UNL     1       4.332   6.105  18.277  1.00  0.00     0.093 A 
BRANCH   8  18
HETATM   18  N3  UNL     1       5.783   9.537  13.708  1.00  0.00    -0.206 N 
HETATM   19  C3  UNL     1       6.619   8.844  12.765  1.00  0.00     0.176 C 
HETATM   20  C4  UNL     1       6.592   9.666  11.492  1.00  0.00     0.167 C 
HETATM   21  C5  UNL     1       5.831  10.923  11.790  1.00  0.00     0.174 C 
HETATM   22  C6  UNL     1       5.638  10.895  13.291  1.00  0.00     0.157 C 
BRANCH  20  23
HETATM   23  O1  UNL     1       7.893   9.995  11.123  1.00  0.00    -0.391 OA
ATOM     24  H1  UNL     1       8.508   9.497  11.648  1.00  0.00     0.210 HD
ENDBRANCH  20  23
BRANCH  21  25
HETATM   25  O2  UNL     1       4.588  10.929  11.127  1.00  0.00    -0.391 OA
ATOM     26  H2  UNL     1       4.153  11.768  11.227  1.00  0.00     0.210 HD
ENDBRANCH  21  25
BRANCH  22  27
HETATM   27  C7  UNL     1       6.755  11.718  13.903  1.00  0.00     0.192 C 
BRANCH  27  28
HETATM   28  O3  UNL     1       6.519  11.986  15.248  1.00  0.00    -0.399 OA
ATOM     29  H3  UNL     1       7.321  12.203  15.709  1.00  0.00     0.209 HD
ENDBRANCH  27  28
ENDBRANCH  22  27
ENDBRANCH   8  18
ENDBRANCH   3   4
ENDBRANCH   2   3
ENDBRANCH   1   2
BRANCH   1  30
HETATM   30  N6  UNL     1       8.191   4.251  18.340  1.00  0.00    -0.356 N 
HETATM   31  C15 UNL     1       8.785   4.911  19.433  1.00  0.00     0.271 C 
HETATM   32  O4  UNL     1       8.245   4.790  20.568  1.00  0.00    -0.266 OA
ATOM     33  H6  UNL     1       8.620   4.343  17.419  1.00  0.00     0.162 HD
BRANCH  31  34
HETATM   34  C16 UNL     1       9.995   5.716  19.264  1.00  0.00     0.134 A 
HETATM   35  C17 UNL     1      10.496   6.633  20.156  1.00  0.00     0.155 A 
HETATM   36  N7  UNL     1      11.628   7.136  19.586  1.00  0.00    -0.245 N 
HETATM   37  N12 UNL     1      11.768   6.530  18.412  1.00  0.00    -0.235 N 
HETATM   38  N13 UNL     1      10.799   5.679  18.208  1.00  0.00    -0.279 N 
ATOM     39  H12 UNL     1      12.530   6.706  17.758  1.00  0.00     0.209 HD
ATOM     40  H13 UNL     1      10.681   5.090  17.384  1.00  0.00     0.189 HD
BRANCH  36  41
HETATM   41  C18 UNL     1      12.501   8.114  20.119  1.00  0.00     0.128 A 
HETATM   42  C19 UNL     1      12.950   8.061  21.423  1.00  0.00     0.056 A 
HETATM   43  C20 UNL     1      13.810   9.028  21.944  1.00  0.00     0.056 A 
HETATM   44  C21 UNL     1      14.278   9.009  23.238  1.00  0.00     0.114 A 
HETATM   45  C23 UNL     1      14.205  10.055  21.104  1.00  0.00     0.151 A 
HETATM   46  N9  UNL     1      15.110  10.014  23.611  1.00  0.00    -0.338 N 
HETATM   47  C22 UNL     1      15.485  11.001  22.793  1.00  0.00     0.183 A 
ATOM     48  H9  UNL     1      15.468  10.016  24.567  1.00  0.00     0.168 HD
HETATM   49  N10 UNL     1      15.035  11.027  21.535  1.00  0.00    -0.336 N 
ATOM     50  H10 UNL     1      15.316  11.777  20.905  1.00  0.00     0.168 HD
HETATM   51  N11 UNL     1      13.766  10.105  19.832  1.00  0.00    -0.168 N 
HETATM   52  C24 UNL     1      12.924   9.156  19.329  1.00  0.00     0.302 A 
HETATM   53  O6  UNL     1      12.559   9.272  18.130  1.00  0.00    -0.263 OA
BRANCH  44  54
HETATM   54  N8  UNL     1      13.945   8.086  24.048  1.00  0.00    -0.385 N 
ATOM     55  H82 UNL     1      14.409   7.975  24.949  1.00  0.00     0.157 HD
ATOM     56  H81 UNL     1      13.201   7.426  23.821  1.00  0.00     0.157 HD
ENDBRANCH  44  54
BRANCH  51  57
HETATM   57  O5  UNL     1      14.181  11.139  19.035  1.00  0.00    -0.278 OA
ATOM     58  H5  UNL     1      13.599  11.449  18.351  1.00  0.00     0.245 HD
ENDBRANCH  51  57
ENDBRANCH  36  41
ENDBRANCH  31  34
ENDBRANCH   1  30
TORSDOF 13
ENDMDL
MODEL 2
REMARK VINA RESULT: -10.189295248      1.066      1.155
REMARK  13 active torsions:
REMARK  status: ('A' for Active; 'I' for Inactive)
REMARK    1  A    between atoms: C2_7  and  N3_8 
REMARK    2  A    between atoms: C4_10  and  O1_11 
REMARK    3  A    between atoms: C5_13  and  O2_14 
REMARK    4  A    between atoms: C6_16  and  C7_17 
REMARK    5  A    between atoms: C7_17  and  O3_18 
REMARK    6  A    between atoms: N5_26  and  C12_27 
REMARK    7  A    between atoms: C12_27  and  C13_28 
REMARK    8  A    between atoms: C13_28  and  C14_29 
REMARK    9  A    between atoms: C14_29  and  N6_30 
REMARK       I    between atoms: N6_30  and  C15_32 
REMARK   10  A    between atoms: C15_32  and  C16_34 
REMARK   11  A    between atoms: N7_36  and  C18_37 
REMARK   12  A    between atoms: C21_40  and  N8_41 
REMARK   13  A    between atoms: N11_50  and  O5_51 
ROOT
HETATM    1  C14 UNL     1       7.051   3.527  18.436  1.00  0.00     0.124 C 
ENDROOT
BRANCH   1   2
HETATM    2  C13 UNL     1       5.942   4.024  17.569  1.00  0.00     0.040 C 
BRANCH   2   3
HETATM    3  C12 UNL     1       6.161   5.374  16.972  1.00  0.00     0.131 C 
BRANCH   3   4
HETATM    4  N5  UNL     1       4.995   6.248  17.109  1.00  0.00    -0.342 N 
HETATM    5  C8  UNL     1       4.589   7.086  16.131  1.00  0.00     0.137 A 
HETATM    6  N4  UNL     1       5.084   7.335  14.884  1.00  0.00    -0.175 N 
HETATM    7  C9  UNL     1       3.478   7.735  16.616  1.00  0.00     0.054 A 
HETATM    8  C2  UNL     1       4.484   8.235  14.089  1.00  0.00     0.684 A 
ATOM      9  H4  UNL     1       5.912   6.837  14.555  1.00  0.00     0.186 HD
HETATM   10  N2  UNL     1       3.393   8.870  14.571  1.00  0.00    -0.176 N 
HETATM   11  C1  UNL     1       2.875   8.655  15.791  1.00  0.00     0.128 A 
ATOM     12  H2  UNL     1       2.934   9.556  13.971  1.00  0.00     0.186 HD
HETATM   13  N1  UNL     1       1.835   9.273  16.223  1.00  0.00    -0.384 N 
ATOM     14  H12 UNL     1       1.387   9.955  15.611  1.00  0.00     0.157 HD
ATOM     15  H11 UNL     1       1.441   9.110  17.150  1.00  0.00     0.157 HD
HETATM   16  C10 UNL     1       3.239   7.262  17.896  1.00  0.00     0.036 A 
HETATM   17  C11 UNL     1       4.207   6.324  18.189  1.00  0.00     0.093 A 
BRANCH   8  18
HETATM   18  N3  UNL     1       4.977   8.521  12.773  1.00  0.00    -0.206 N 
HETATM   19  C3  UNL     1       4.810   7.721  11.590  1.00  0.00     0.176 C 
HETATM   20  C4  UNL     1       5.052   8.647  10.415  1.00  0.00     0.167 C 
HETATM   21  C5  UNL     1       5.504   9.964  10.970  1.00  0.00     0.174 C 
HETATM   22  C6  UNL     1       5.731   9.689  12.441  1.00  0.00     0.157 C 
BRANCH  20  23
HETATM   23  O1  UNL     1       6.056   8.122   9.607  1.00  0.00    -0.391 OA
ATOM     24  H1  UNL     1       6.708   8.791   9.435  1.00  0.00     0.210 HD
ENDBRANCH  20  23
BRANCH  21  25
HETATM   25  O2  UNL     1       4.515  10.952  10.795  1.00  0.00    -0.391 OA
ATOM     26  H2  UNL     1       4.857  11.815  10.995  1.00  0.00     0.210 HD
ENDBRANCH  21  25
BRANCH  22  27
HETATM   27  C7  UNL     1       7.207   9.385  12.619  1.00  0.00     0.192 C 
BRANCH  27  28
HETATM   28  O3  UNL     1       7.443   8.632  13.765  1.00  0.00    -0.399 OA
ATOM     29  H3  UNL     1       8.241   8.120  13.691  1.00  0.00     0.209 HD
ENDBRANCH  27  28
ENDBRANCH  22  27
ENDBRANCH   8  18
ENDBRANCH   3   4
ENDBRANCH   2   3
ENDBRANCH   1   2
BRANCH   1  30
HETATM   30  N6  UNL     1       8.237   4.321  18.313  1.00  0.00    -0.356 N 
HETATM   31  C15 UNL     1       8.848   4.944  19.418  1.00  0.00     0.271 C 
HETATM   32  O4  UNL     1       8.322   4.792  20.555  1.00  0.00    -0.266 OA
ATOM     33  H6  UNL     1       8.654   4.439  17.391  1.00  0.00     0.162 HD
BRANCH  31  34
HETATM   34  C16 UNL     1      10.060   5.749  19.258  1.00  0.00     0.134 A 
HETATM   35  C17 UNL     1      10.555   6.665  20.154  1.00  0.00     0.155 A 
HETATM   36  N7  UNL     1      11.692   7.167  19.592  1.00  0.00    -0.245 N 
HETATM   37  N12 UNL     1      11.839   6.561  18.418  1.00  0.00    -0.235 N 
HETATM   38  N13 UNL     1      10.871   5.711  18.208  1.00  0.00    -0.279 N 
ATOM     39  H12 UNL     1      12.607   6.736  17.770  1.00  0.00     0.209 HD
ATOM     40  H13 UNL     1      10.759   5.123  17.383  1.00  0.00     0.189 HD
BRANCH  36  41
HETATM   41  C18 UNL     1      12.562   8.145  20.131  1.00  0.00     0.128 A 
HETATM   42  C19 UNL     1      13.003   8.090  21.437  1.00  0.00     0.056 A 
HETATM   43  C20 UNL     1      13.860   9.056  21.965  1.00  0.00     0.056 A 
HETATM   44  C21 UNL     1      14.321   9.036  23.261  1.00  0.00     0.114 A 
HETATM   45  C23 UNL     1      14.260  10.084  21.128  1.00  0.00     0.151 A 
HETATM   46  N9  UNL     1      15.150  10.040  23.641  1.00  0.00    -0.338 N 
HETATM   47  C22 UNL     1      15.531  11.028  22.826  1.00  0.00     0.183 A 
ATOM     48  H9  UNL     1      15.502  10.041  24.598  1.00  0.00     0.168 HD
HETATM   49  N10 UNL     1      15.087  11.055  21.565  1.00  0.00    -0.336 N 
ATOM     50  H10 UNL     1      15.373  11.806  20.938  1.00  0.00     0.168 HD
HETATM   51  N11 UNL     1      13.829  10.136  19.854  1.00  0.00    -0.168 N 
HETATM   52  C24 UNL     1      12.990   9.187  19.345  1.00  0.00     0.302 A 
HETATM   53  O6  UNL     1      12.632   9.304  18.143  1.00  0.00    -0.263 OA
BRANCH  44  54
HETATM   54  N8  UNL     1      13.982   8.112  24.068  1.00  0.00    -0.385 N 
ATOM     55  H82 UNL     1      13.523   8.321  24.955  1.00  0.00     0.157 HD
ATOM     56  H81 UNL     1      14.160   7.131  23.854  1.00  0.00     0.157 HD
ENDBRANCH  44  54
BRANCH  51  57
HETATM   57  O5  UNL     1      14.249  11.170  19.060  1.00  0.00    -0.278 OA
ATOM     58  H5  UNL     1      14.374  12.025  19.455  1.00  0.00     0.245 HD
ENDBRANCH  51  57
ENDBRANCH  36  41
ENDBRANCH  31  34
ENDBRANCH   1  30
TORSDOF 13
ENDMDL
MODEL 3
REMARK VINA RESULT: -10.145165623      0.907      1.036
REMARK  13 active torsions:
REMARK  status: ('A' for Active; 'I' for Inactive)
REMARK    1  A    between atoms: C2_7  and  N3_8 
REMARK    2  A    between atoms: C4_10  and  O1_11 
REMARK    3  A    between atoms: C5_13  and  O2_14 
REMARK    4  A    between atoms: C6_16  and  C7_17 
REMARK    5  A    between atoms: C7_17  and  O3_18 
REMARK    6  A    between atoms: N5_26  and  C12_27 
REMARK    7  A    between atoms: C12_27  and  C13_28 
REMARK    8  A    between atoms: C13_28  and  C14_29 
REMARK    9  A    between atoms: C14_29  and  N6_30 
REMARK       I    between atoms: N6_30  and  C15_32 
REMARK   10  A    between atoms: C15_32  and  C16_34 
REMARK   11  A    between atoms: N7_36  and  C18_37 
REMARK   12  A    between atoms: C21_40  and  N8_41 
REMARK   13  A    between atoms: N11_50  and  O5_51 
ROOT
HETATM    1  C14 UNL     1       6.971   3.654  18.399  1.00  0.00     0.124 C 
ENDROOT
BRANCH   1   2
HETATM    2  C13 UNL     1       5.944   4.047  17.389  1.00  0.00     0.040 C 
BRANCH   2   3
HETATM    3  C12 UNL     1       6.202   5.342  16.693  1.00  0.00     0.131 C 
BRANCH   3   4
HETATM    4  N5  UNL     1       5.198   6.360  17.007  1.00  0.00    -0.342 N 
HETATM    5  C8  UNL     1       4.988   7.444  16.231  1.00  0.00     0.137 A 
HETATM    6  N4  UNL     1       5.576   7.859  15.071  1.00  0.00    -0.175 N 
HETATM    7  C9  UNL     1       3.983   8.163  16.836  1.00  0.00     0.054 A 
HETATM    8  C2  UNL     1       5.176   9.000  14.485  1.00  0.00     0.684 A 
ATOM      9  H4  UNL     1       6.319   7.303  14.649  1.00  0.00     0.186 HD
HETATM   10  N2  UNL     1       4.189   9.702  15.085  1.00  0.00    -0.176 N 
HETATM   11  C1  UNL     1       3.586   9.329  16.224  1.00  0.00     0.128 A 
ATOM     12  H2  UNL     1       3.884  10.569  14.643  1.00  0.00     0.186 HD
HETATM   13  N1  UNL     1       2.650  10.017  16.772  1.00  0.00    -0.384 N 
ATOM     14  H12 UNL     1       2.355  10.881  16.319  1.00  0.00     0.157 HD
ATOM     15  H11 UNL     1       2.191   9.733  17.639  1.00  0.00     0.157 HD
HETATM   16  C10 UNL     1       3.608   7.480  17.981  1.00  0.00     0.036 A 
HETATM   17  C11 UNL     1       4.385   6.344  18.072  1.00  0.00     0.093 A 
BRANCH   8  18
HETATM   18  N3  UNL     1       5.772   9.465  13.266  1.00  0.00    -0.206 N 
HETATM   19  C3  UNL     1       7.160   9.763  13.037  1.00  0.00     0.176 C 
HETATM   20  C4  UNL     1       7.358   9.725  11.535  1.00  0.00     0.167 C 
HETATM   21  C5  UNL     1       6.008   9.538  10.911  1.00  0.00     0.174 C 
HETATM   22  C6  UNL     1       5.040   9.706  12.063  1.00  0.00     0.157 C 
BRANCH  20  23
HETATM   23  O1  UNL     1       7.898  10.933  11.105  1.00  0.00    -0.391 OA
ATOM     24  H1  UNL     1       7.479  11.198  10.295  1.00  0.00     0.210 HD
ENDBRANCH  20  23
BRANCH  21  25
HETATM   25  O2  UNL     1       5.887   8.255  10.342  1.00  0.00    -0.391 OA
ATOM     26  H2  UNL     1       5.078   7.837  10.613  1.00  0.00     0.210 HD
ENDBRANCH  21  25
BRANCH  22  27
HETATM   27  C7  UNL     1       4.575  11.149  12.053  1.00  0.00     0.192 C 
BRANCH  27  28
HETATM   28  O3  UNL     1       3.314  11.288  12.626  1.00  0.00    -0.399 OA
ATOM     29  H3  UNL     1       3.294  11.990  13.266  1.00  0.00     0.209 HD
ENDBRANCH  27  28
ENDBRANCH  22  27
ENDBRANCH   8  18
ENDBRANCH   3   4
ENDBRANCH   2   3
ENDBRANCH   1   2
BRANCH   1  30
HETATM   30  N6  UNL     1       8.171   4.427  18.285  1.00  0.00    -0.356 N 
HETATM   31  C15 UNL     1       8.831   4.970  19.404  1.00  0.00     0.271 C 
HETATM   32  O4  UNL     1       8.338   4.762  20.547  1.00  0.00    -0.266 OA
ATOM     33  H6  UNL     1       8.562   4.590  17.358  1.00  0.00     0.162 HD
BRANCH  31  34
HETATM   34  C16 UNL     1      10.057   5.754  19.251  1.00  0.00     0.134 A 
HETATM   35  C17 UNL     1      10.543   6.688  20.134  1.00  0.00     0.155 A 
HETATM   36  N7  UNL     1      11.699   7.161  19.587  1.00  0.00    -0.245 N 
HETATM   37  N12 UNL     1      11.867   6.522  18.434  1.00  0.00    -0.235 N 
HETATM   38  N13 UNL     1      10.893   5.679  18.223  1.00  0.00    -0.279 N 
ATOM     39  H12 UNL     1      12.652   6.670  17.800  1.00  0.00     0.209 HD
ATOM     40  H13 UNL     1      10.793   5.069  17.411  1.00  0.00     0.189 HD
BRANCH  36  41
HETATM   41  C18 UNL     1      12.568   8.142  20.121  1.00  0.00     0.128 A 
HETATM   42  C19 UNL     1      13.012   8.094  21.427  1.00  0.00     0.056 A 
HETATM   43  C20 UNL     1      13.868   9.063  21.949  1.00  0.00     0.056 A 
HETATM   44  C21 UNL     1      14.330   9.049  23.245  1.00  0.00     0.114 A 
HETATM   45  C23 UNL     1      14.266  10.087  21.107  1.00  0.00     0.151 A 
HETATM   46  N9  UNL     1      15.159  10.056  23.619  1.00  0.00    -0.338 N 
HETATM   47  C22 UNL     1      15.537  11.040  22.800  1.00  0.00     0.183 A 
ATOM     48  H9  UNL     1      15.512  10.062  24.577  1.00  0.00     0.168 HD
HETATM   49  N10 UNL     1      15.093  11.062  21.539  1.00  0.00    -0.336 N 
ATOM     50  H10 UNL     1      15.376  11.810  20.908  1.00  0.00     0.168 HD
HETATM   51  N11 UNL     1      13.833  10.133  19.833  1.00  0.00    -0.168 N 
HETATM   52  C24 UNL     1      12.995   9.181  19.330  1.00  0.00     0.302 A 
HETATM   53  O6  UNL     1      12.635   9.293  18.128  1.00  0.00    -0.263 OA
BRANCH  44  54
HETATM   54  N8  UNL     1      13.993   8.129  24.057  1.00  0.00    -0.385 N 
ATOM     55  H82 UNL     1      13.015   7.873  24.196  1.00  0.00     0.157 HD
ATOM     56  H81 UNL     1      14.691   7.616  24.596  1.00  0.00     0.157 HD
ENDBRANCH  44  54
BRANCH  51  57
HETATM   57  O5  UNL     1      14.251  11.164  19.034  1.00  0.00    -0.278 OA
ATOM     58  H5  UNL     1      13.607  11.622  18.507  1.00  0.00     0.245 HD
ENDBRANCH  51  57
ENDBRANCH  36  41
ENDBRANCH  31  34
ENDBRANCH   1  30
TORSDOF 13
ENDMDL
MODEL 4
REMARK VINA RESULT: -10.135929061      0.813      1.579
REMARK  13 active torsions:
REMARK  status: ('A' for Active; 'I' for Inactive)
REMARK    1  A    between atoms: C2_7  and  N3_8 
REMARK    2  A    between atoms: C4_10  and  O1_11 
REMARK    3  A    between atoms: C5_13  and  O2_14 
REMARK    4  A    between atoms: C6_16  and  C7_17 
REMARK    5  A    between atoms: C7_17  and  O3_18 
REMARK    6  A    between atoms: N5_26  and  C12_27 
REMARK    7  A    between atoms: C12_27  and  C13_28 
REMARK    8  A    between atoms: C13_28  and  C14_29 
REMARK    9  A    between atoms: C14_29  and  N6_30 
REMARK       I    between atoms: N6_30  and  C15_32 
REMARK   10  A    between atoms: C15_32  and  C16_34 
REMARK   11  A    between atoms: N7_36  and  C18_37 
REMARK   12  A    between atoms: C21_40  and  N8_41 
REMARK   13  A    between atoms: N11_50  and  O5_51 
ROOT
HETATM    1  C14 UNL     1       6.982   3.667  18.398  1.00  0.00     0.124 C 
ENDROOT
BRANCH   1   2
HETATM    2  C13 UNL     1       5.950   4.071  17.398  1.00  0.00     0.040 C 
BRANCH   2   3
HETATM    3  C12 UNL     1       6.154   5.416  16.783  1.00  0.00     0.131 C 
BRANCH   3   4
HETATM    4  N5  UNL     1       5.107   6.369  17.151  1.00  0.00    -0.342 N 
HETATM    5  C8  UNL     1       4.770   7.422  16.376  1.00  0.00     0.137 A 
HETATM    6  N4  UNL     1       5.247   7.853  15.172  1.00  0.00    -0.175 N 
HETATM    7  C9  UNL     1       3.763   8.083  17.039  1.00  0.00     0.054 A 
HETATM    8  C2  UNL     1       4.731   8.953  14.598  1.00  0.00     0.684 A 
ATOM      9  H4  UNL     1       5.996   7.340  14.707  1.00  0.00     0.186 HD
HETATM   10  N2  UNL     1       3.742   9.598  15.255  1.00  0.00    -0.176 N 
HETATM   11  C1  UNL     1       3.246   9.208  16.439  1.00  0.00     0.128 A 
ATOM     12  H2  UNL     1       3.348  10.434  14.823  1.00  0.00     0.186 HD
HETATM   13  N1  UNL     1       2.304   9.841  17.041  1.00  0.00    -0.384 N 
ATOM     14  H12 UNL     1       1.920  10.675  16.596  1.00  0.00     0.157 HD
ATOM     15  H11 UNL     1       1.926   9.545  17.941  1.00  0.00     0.157 HD
HETATM   16  C10 UNL     1       3.515   7.399  18.217  1.00  0.00     0.036 A 
HETATM   17  C11 UNL     1       4.372   6.320  18.270  1.00  0.00     0.093 A 
BRANCH   8  18
HETATM   18  N3  UNL     1       5.208   9.434  13.334  1.00  0.00    -0.206 N 
HETATM   19  C3  UNL     1       4.982  10.732  12.758  1.00  0.00     0.176 C 
HETATM   20  C4  UNL     1       6.060  10.923  11.710  1.00  0.00     0.167 C 
HETATM   21  C5  UNL     1       6.818   9.634  11.610  1.00  0.00     0.174 C 
HETATM   22  C6  UNL     1       6.008   8.660  12.438  1.00  0.00     0.157 C 
BRANCH  20  23
HETATM   23  O1  UNL     1       5.471  11.205  10.481  1.00  0.00    -0.391 OA
ATOM     24  H1  UNL     1       4.700  10.663  10.367  1.00  0.00     0.210 HD
ENDBRANCH  20  23
BRANCH  21  25
HETATM   25  O2  UNL     1       8.119   9.771  12.133  1.00  0.00    -0.391 OA
ATOM     26  H2  UNL     1       8.507   8.921  12.307  1.00  0.00     0.210 HD
ENDBRANCH  21  25
BRANCH  22  27
HETATM   27  C7  UNL     1       5.093   7.913  11.486  1.00  0.00     0.192 C 
BRANCH  27  28
HETATM   28  O3  UNL     1       5.559   7.966  10.176  1.00  0.00    -0.399 OA
ATOM     29  H3  UNL     1       5.661   8.861   9.875  1.00  0.00     0.209 HD
ENDBRANCH  27  28
ENDBRANCH  22  27
ENDBRANCH   8  18
ENDBRANCH   3   4
ENDBRANCH   2   3
ENDBRANCH   1   2
BRANCH   1  30
HETATM   30  N6  UNL     1       8.182   4.441  18.285  1.00  0.00    -0.356 N 
HETATM   31  C15 UNL     1       8.842   4.983  19.404  1.00  0.00     0.271 C 
HETATM   32  O4  UNL     1       8.348   4.774  20.547  1.00  0.00    -0.266 OA
ATOM     33  H6  UNL     1       8.574   4.606  17.358  1.00  0.00     0.162 HD
BRANCH  31  34
HETATM   34  C16 UNL     1      10.067   5.769  19.253  1.00  0.00     0.134 A 
HETATM   35  C17 UNL     1      10.554   6.698  20.140  1.00  0.00     0.155 A 
HETATM   36  N7  UNL     1      11.710   7.175  19.592  1.00  0.00    -0.245 N 
HETATM   37  N12 UNL     1      11.875   6.541  18.436  1.00  0.00    -0.235 N 
HETATM   38  N13 UNL     1      10.901   5.699  18.222  1.00  0.00    -0.279 N 
ATOM     39  H12 UNL     1      12.658   6.692  17.800  1.00  0.00     0.209 HD
ATOM     40  H13 UNL     1      10.799   5.093  17.408  1.00  0.00     0.189 HD
BRANCH  36  41
HETATM   41  C18 UNL     1      12.579   8.153  20.129  1.00  0.00     0.128 A 
HETATM   42  C19 UNL     1      13.023   8.099  21.435  1.00  0.00     0.056 A 
HETATM   43  C20 UNL     1      13.881   9.067  21.960  1.00  0.00     0.056 A 
HETATM   44  C21 UNL     1      14.343   9.048  23.256  1.00  0.00     0.114 A 
HETATM   45  C23 UNL     1      14.279  10.093  21.121  1.00  0.00     0.151 A 
HETATM   46  N9  UNL     1      15.173  10.052  23.633  1.00  0.00    -0.338 N 
HETATM   47  C22 UNL     1      15.552  11.039  22.817  1.00  0.00     0.183 A 
ATOM     48  H9  UNL     1      15.527  10.054  24.590  1.00  0.00     0.168 HD
HETATM   49  N10 UNL     1      15.106  11.066  21.557  1.00  0.00    -0.336 N 
ATOM     50  H10 UNL     1      15.390  11.816  20.928  1.00  0.00     0.168 HD
HETATM   51  N11 UNL     1      13.846  10.144  19.848  1.00  0.00    -0.168 N 
HETATM   52  C24 UNL     1      13.006   9.194  19.341  1.00  0.00     0.302 A 
HETATM   53  O6  UNL     1      12.646   9.310  18.140  1.00  0.00    -0.263 OA
BRANCH  44  54
HETATM   54  N8  UNL     1      14.006   8.124  24.064  1.00  0.00    -0.385 N 
ATOM     55  H82 UNL     1      13.205   8.228  24.686  1.00  0.00     0.157 HD
ATOM     56  H81 UNL     1      14.529   7.250  24.116  1.00  0.00     0.157 HD
ENDBRANCH  44  54
BRANCH  51  57
HETATM   57  O5  UNL     1      14.264  11.178  19.052  1.00  0.00    -0.278 OA
ATOM     58  H5  UNL     1      13.728  11.425  18.308  1.00  0.00     0.245 HD
ENDBRANCH  51  57
ENDBRANCH  36  41
ENDBRANCH  31  34
ENDBRANCH   1  30
TORSDOF 13
ENDMDL
MODEL 5
REMARK VINA RESULT: -9.982408698      2.512      2.967
REMARK  13 active torsions:
REMARK  status: ('A' for Active; 'I' for Inactive)
REMARK    1  A    between atoms: C2_7  and  N3_8 
REMARK    2  A    between atoms: C4_10  and  O1_11 
REMARK    3  A    between atoms: C5_13  and  O2_14 
REMARK    4  A    between atoms: C6_16  and  C7_17 
REMARK    5  A    between atoms: C7_17  and  O3_18 
REMARK    6  A    between atoms: N5_26  and  C12_27 
REMARK    7  A    between atoms: C12_27  and  C13_28 
REMARK    8  A    between atoms: C13_28  and  C14_29 
REMARK    9  A    between atoms: C14_29  and  N6_30 
REMARK       I    between atoms: N6_30  and  C15_32 
REMARK   10  A    between atoms: C15_32  and  C16_34 
REMARK   11  A    between atoms: N7_36  and  C18_37 
REMARK   12  A    between atoms: C21_40  and  N8_41 
REMARK   13  A    between atoms: N11_50  and  O5_51 
ROOT
HETATM    1  C14 UNL     1       6.693   4.343  18.675  1.00  0.00     0.124 C 
ENDROOT
BRANCH   1   2
HETATM    2  C13 UNL     1       5.951   4.250  17.383  1.00  0.00     0.040 C 
BRANCH   2   3
HETATM    3  C12 UNL     1       5.989   5.480  16.539  1.00  0.00     0.131 C 
BRANCH   3   4
HETATM    4  N5  UNL     1       4.805   6.322  16.716  1.00  0.00    -0.342 N 
HETATM    5  C8  UNL     1       4.024   6.713  15.686  1.00  0.00     0.137 A 
HETATM    6  N4  UNL     1       4.099   6.468  14.345  1.00  0.00    -0.175 N 
HETATM    7  C9  UNL     1       3.023   7.482  16.231  1.00  0.00     0.054 A 
HETATM    8  C2  UNL     1       3.178   6.984  13.515  1.00  0.00     0.684 A 
ATOM      9  H4  UNL     1       4.856   5.894  13.973  1.00  0.00     0.186 HD
HETATM   10  N2  UNL     1       2.198   7.740  14.056  1.00  0.00    -0.176 N 
HETATM   11  C1  UNL     1       2.088   8.004  15.368  1.00  0.00     0.128 A 
ATOM     12  H2  UNL     1       1.497   8.134  13.429  1.00  0.00     0.186 HD
HETATM   13  N1  UNL     1       1.144   8.726  15.855  1.00  0.00    -0.384 N 
ATOM     14  H12 UNL     1       0.451   9.113  15.215  1.00  0.00     0.157 HD
ATOM     15  H11 UNL     1       1.061   8.927  16.852  1.00  0.00     0.157 HD
HETATM   16  C10 UNL     1       3.231   7.536  17.599  1.00  0.00     0.036 A 
HETATM   17  C11 UNL     1       4.360   6.797  17.886  1.00  0.00     0.093 A 
BRANCH   8  18
HETATM   18  N3  UNL     1       3.227   6.748  12.101  1.00  0.00    -0.206 N 
HETATM   19  C3  UNL     1       2.332   7.268  11.103  1.00  0.00     0.176 C 
HETATM   20  C4  UNL     1       3.063   7.160   9.780  1.00  0.00     0.167 C 
HETATM   21  C5  UNL     1       4.346   6.428  10.039  1.00  0.00     0.174 C 
HETATM   22  C6  UNL     1       4.211   5.932  11.463  1.00  0.00     0.157 C 
BRANCH  20  23
HETATM   23  O1  UNL     1       2.294   6.429   8.880  1.00  0.00    -0.391 OA
ATOM     24  H1  UNL     1       1.719   5.842   9.357  1.00  0.00     0.210 HD
ENDBRANCH  20  23
BRANCH  21  25
HETATM   25  O2  UNL     1       5.453   7.291   9.915  1.00  0.00    -0.391 OA
ATOM     26  H2  UNL     1       6.253   6.799   9.771  1.00  0.00     0.210 HD
ENDBRANCH  21  25
BRANCH  22  27
HETATM   27  C7  UNL     1       3.697   4.507  11.395  1.00  0.00     0.192 C 
BRANCH  27  28
HETATM   28  O3  UNL     1       4.142   3.748  12.473  1.00  0.00    -0.399 OA
ATOM     29  H3  UNL     1       3.496   3.713  13.170  1.00  0.00     0.209 HD
ENDBRANCH  27  28
ENDBRANCH  22  27
ENDBRANCH   8  18
ENDBRANCH   3   4
ENDBRANCH   2   3
ENDBRANCH   1   2
BRANCH   1  30
HETATM   30  N6  UNL     1       7.850   5.182  18.579  1.00  0.00    -0.356 N 
HETATM   31  C15 UNL     1       9.105   4.801  19.091  1.00  0.00     0.271 C 
HETATM   32  O4  UNL     1       9.204   3.675  19.653  1.00  0.00    -0.266 OA
ATOM     33  H6  UNL     1       7.761   6.090  18.124  1.00  0.00     0.162 HD
BRANCH  31  34
HETATM   34  C16 UNL     1      10.268   5.682  18.976  1.00  0.00     0.134 A 
HETATM   35  C17 UNL     1      10.704   6.584  19.916  1.00  0.00     0.155 A 
HETATM   36  N7  UNL     1      11.811   7.178  19.385  1.00  0.00    -0.245 N 
HETATM   37  N12 UNL     1      11.999   6.636  18.187  1.00  0.00    -0.235 N 
HETATM   38  N13 UNL     1      11.085   5.741  17.931  1.00  0.00    -0.279 N 
ATOM     39  H12 UNL     1      12.758   6.887  17.552  1.00  0.00     0.209 HD
ATOM     40  H13 UNL     1      11.011   5.186  17.079  1.00  0.00     0.189 HD
BRANCH  36  41
HETATM   41  C18 UNL     1      12.619   8.180  19.975  1.00  0.00     0.128 A 
HETATM   42  C19 UNL     1      13.018   8.114  21.294  1.00  0.00     0.056 A 
HETATM   43  C20 UNL     1      13.814   9.104  21.871  1.00  0.00     0.056 A 
HETATM   44  C21 UNL     1      14.231   9.074  23.182  1.00  0.00     0.114 A 
HETATM   45  C23 UNL     1      14.197  10.167  21.071  1.00  0.00     0.151 A 
HETATM   46  N9  UNL     1      15.004  10.104  23.611  1.00  0.00    -0.338 N 
HETATM   47  C22 UNL     1      15.367  11.125  22.831  1.00  0.00     0.183 A 
ATOM     48  H9  UNL     1      15.323  10.099  24.580  1.00  0.00     0.168 HD
HETATM   49  N10 UNL     1      14.966  11.163  21.557  1.00  0.00    -0.336 N 
ATOM     50  H10 UNL     1      15.238  11.940  20.955  1.00  0.00     0.168 HD
HETATM   51  N11 UNL     1      13.806  10.229  19.784  1.00  0.00    -0.168 N 
HETATM   52  C24 UNL     1      13.027   9.257  19.226  1.00  0.00     0.302 A 
HETATM   53  O6  UNL     1      12.704   9.386  18.016  1.00  0.00    -0.263 OA
BRANCH  44  54
HETATM   54  N8  UNL     1      13.907   8.119  23.957  1.00  0.00    -0.385 N 
ATOM     55  H82 UNL     1      13.204   7.430  23.688  1.00  0.00     0.157 HD
ATOM     56  H81 UNL     1      14.340   8.011  24.875  1.00  0.00     0.157 HD
ENDBRANCH  44  54
BRANCH  51  57
HETATM   57  O5  UNL     1      14.207  11.298  19.027  1.00  0.00    -0.278 OA
ATOM     58  H5  UNL     1      15.082  11.646  19.157  1.00  0.00     0.245 HD
ENDBRANCH  51  57
ENDBRANCH  36  41
ENDBRANCH  31  34
ENDBRANCH   1  30
TORSDOF 13
ENDMDL
