MODEL 1
REMARK VINA RESULT: -8.887276410      0.000      0.000
REMARK  12 active torsions:
REMARK  status: ('A' for Active; 'I' for Inactive)
REMARK    1  A    between atoms: C1_4  and  N2_5 
REMARK    2  A    between atoms: C1_4  and  C6_24 
REMARK    3  A    between atoms: N3_7  and  C2_9 
REMARK    4  A    between atoms: C4_13  and  S1_14 
REMARK    5  A    between atoms: S1_14  and  N5_15 
REMARK    6  A    between atoms: N8_29  and  S3_31 
REMARK    7  A    between atoms: S3_31  and  O6_34 
REMARK    8  A    between atoms: O6_34  and  N9_35 
REMARK    9  A    between atoms: C9_38  and  N10_39 
REMARK   10  A    between atoms: N10_39  and  C10_41 
REMARK   11  A    between atoms: C12_45  and  O9_46 
REMARK   12  A    between atoms: C13_48  and  O10_49 
ROOT
HETATM    1  C6  UNL     1      13.216   8.705  21.567  1.00  0.00     0.075 A 
HETATM    2  C7  UNL     1      12.132   7.928  21.929  1.00  0.00     0.106 A 
HETATM    3  N7  UNL     1      11.785   7.667  23.286  1.00  0.00    -0.093 NA
HETATM    4  S2  UNL     1      11.213   7.290  20.655  1.00  0.00    -0.053 SA
HETATM    5  C8  UNL     1      11.816   7.738  19.122  1.00  0.00     0.116 A 
HETATM    6  N8  UNL     1      11.294   7.380  17.989  1.00  0.00    -0.252 N 
ATOM      7  H8  UNL     1      11.684   7.668  17.092  1.00  0.00     0.181 HD
HETATM    8  C9  UNL     1      12.941   8.539  19.132  1.00  0.00     0.099 A 
HETATM    9  C13 UNL     1      13.583   8.980  20.265  1.00  0.00     0.111 A 
ENDROOT
BRANCH   1  10
HETATM   10  C1  UNL     1      14.022   9.265  22.685  1.00  0.00     0.129 C 
HETATM   11  N1  UNL     1      14.505   8.641  23.604  1.00  0.00    -0.384 N 
ATOM     12  H12 UNL     1      15.057   9.025  24.370  1.00  0.00     0.157 HD
ATOM     13  H11 UNL     1      14.335   7.635  23.599  1.00  0.00     0.157 HD
BRANCH  10  14
HETATM   14  N2  UNL     1      14.264  10.706  22.694  1.00  0.00    -0.284 N 
HETATM   15  N3  UNL     1      15.455  11.091  22.833  1.00  0.00    -0.293 N 
ATOM     16  H3  UNL     1      16.171  10.372  22.931  1.00  0.00     0.187 HD
ATOM     17  H2  UNL     1      13.499  11.373  22.591  1.00  0.00     0.188 HD
BRANCH  15  18
HETATM   18  C2  UNL     1      15.880  12.431  22.864  1.00  0.00     0.132 A 
HETATM   19  C3  UNL     1      15.822  13.198  24.005  1.00  0.00     0.127 A 
HETATM   20  N4  UNL     1      16.258  14.478  23.925  1.00  0.00    -0.339 N 
HETATM   21  C4  UNL     1      16.735  15.017  22.807  1.00  0.00     0.226 A 
ATOM     22  H4  UNL     1      16.220  15.057  24.764  1.00  0.00     0.167 HD
HETATM   23  N6  UNL     1      16.783  14.247  21.703  1.00  0.00    -0.296 N 
HETATM   24  C5  UNL     1      16.376  12.965  21.671  1.00  0.00     0.277 A 
ATOM     25  H6  UNL     1      17.148  14.659  20.844  1.00  0.00     0.171 HD
HETATM   26  O3  UNL     1      16.425  12.259  20.640  1.00  0.00    -0.266 OA
BRANCH  21  27
HETATM   27  S1  UNL     1      17.272  16.664  22.796  1.00  0.00     0.289 S 
HETATM   28  O1  UNL     1      16.212  17.578  22.247  1.00  0.00    -0.198 OA
HETATM   29  O2  UNL     1      18.521  16.778  21.971  1.00  0.00    -0.198 OA
BRANCH  27  30
HETATM   30  N5  UNL     1      17.695  17.113  24.412  1.00  0.00    -0.322 N 
ATOM     31  H52 UNL     1      17.414  16.608  25.252  1.00  0.00     0.169 HD
ATOM     32  H51 UNL     1      18.265  17.958  24.374  1.00  0.00     0.169 HD
ENDBRANCH  27  30
ENDBRANCH  21  27
ENDBRANCH  15  18
ENDBRANCH  10  14
ENDBRANCH   1  10
BRANCH   9  33
HETATM   33  O10 UNL     1      14.711   9.777  20.081  1.00  0.00    -0.357 OA
ATOM     34  H10 UNL     1      14.888  10.074  19.196  1.00  0.00     0.217 HD
ENDBRANCH   9  33
BRANCH   8  35
HETATM   35  N10 UNL     1      13.429   8.897  17.826  1.00  0.00    -0.364 N 
ATOM     36  H10 UNL     1      13.939   8.183  17.306  1.00  0.00     0.161 HD
BRANCH  35  37
HETATM   37  C10 UNL     1      13.263  10.152  17.202  1.00  0.00     0.222 C 
HETATM   38  N11 UNL     1      14.182  11.178  17.624  1.00  0.00    -0.120 NA
HETATM   39  N12 UNL     1      13.961  12.176  16.627  1.00  0.00    -0.144 NA
HETATM   40  C11 UNL     1      14.044  11.446  15.364  1.00  0.00     0.165 C 
HETATM   41  C12 UNL     1      13.679  10.022  15.728  1.00  0.00     0.173 C 
BRANCH  41  42
HETATM   42  O9  UNL     1      14.780   9.177  15.675  1.00  0.00    -0.391 OA
ATOM     43  H9  UNL     1      14.459   8.296  15.523  1.00  0.00     0.210 HD
ENDBRANCH  41  42
ENDBRANCH  35  37
ENDBRANCH   8  35
BRANCH   6  44
HETATM   44  S3  UNL     1       9.877   6.369  18.113  1.00  0.00     0.388 S 
HETATM   45  O4  UNL     1       8.674   7.267  18.022  1.00  0.00    -0.173 OA
HETATM   46  O5  UNL     1       9.804   5.403  16.963  1.00  0.00    -0.173 OA
BRANCH  44  47
HETATM   47  O6  UNL     1       9.899   5.500  19.579  1.00  0.00    -0.071 OA
BRANCH  47  48
HETATM   48  N9  UNL     1       8.895   4.606  19.835  1.00  0.00     0.022 N 
HETATM   49  O7  UNL     1       9.072   3.416  19.519  1.00  0.00    -0.510 OA
HETATM   50  O8  UNL     1       7.731   5.000  20.418  1.00  0.00    -0.510 OA
ENDBRANCH  47  48
ENDBRANCH  44  47
ENDBRANCH   6  44
TORSDOF 12
ENDMDL
MODEL 2
REMARK VINA RESULT: -8.821842388      3.241      9.477
REMARK  12 active torsions:
REMARK  status: ('A' for Active; 'I' for Inactive)
REMARK    1  A    between atoms: C1_4  and  N2_5 
REMARK    2  A    between atoms: C1_4  and  C6_24 
REMARK    3  A    between atoms: N3_7  and  C2_9 
REMARK    4  A    between atoms: C4_13  and  S1_14 
REMARK    5  A    between atoms: S1_14  and  N5_15 
REMARK    6  A    between atoms: N8_29  and  S3_31 
REMARK    7  A    between atoms: S3_31  and  O6_34 
REMARK    8  A    between atoms: O6_34  and  N9_35 
REMARK    9  A    between atoms: C9_38  and  N10_39 
REMARK   10  A    between atoms: N10_39  and  C10_41 
REMARK   11  A    between atoms: C12_45  and  O9_46 
REMARK   12  A    between atoms: C13_48  and  O10_49 
ROOT
HETATM    1  C6  UNL     1      13.991  10.224  22.168  1.00  0.00     0.075 A 
HETATM    2  C7  UNL     1      15.272  10.464  22.628  1.00  0.00     0.106 A 
HETATM    3  N7  UNL     1      16.038   9.489  23.329  1.00  0.00    -0.093 NA
HETATM    4  S2  UNL     1      15.902  12.006  22.311  1.00  0.00    -0.053 SA
HETATM    5  C8  UNL     1      14.806  13.000  21.460  1.00  0.00     0.116 A 
HETATM    6  N8  UNL     1      15.046  14.223  21.097  1.00  0.00    -0.252 N 
ATOM      7  H8  UNL     1      14.364  14.786  20.588  1.00  0.00     0.181 HD
HETATM    8  C9  UNL     1      13.588  12.425  21.155  1.00  0.00     0.099 A 
HETATM    9  C13 UNL     1      13.219  11.143  21.487  1.00  0.00     0.111 A 
ENDROOT
BRANCH   1  10
HETATM   10  C1  UNL     1      13.439   8.871  22.447  1.00  0.00     0.129 C 
HETATM   11  N1  UNL     1      13.388   8.326  23.527  1.00  0.00    -0.384 N 
ATOM     12  H12 UNL     1      13.009   7.399  23.718  1.00  0.00     0.157 HD
ATOM     13  H11 UNL     1      13.763   8.857  24.313  1.00  0.00     0.157 HD
BRANCH  10  14
HETATM   14  N2  UNL     1      12.902   8.111  21.320  1.00  0.00    -0.284 N 
HETATM   15  N3  UNL     1      11.653   7.952  21.272  1.00  0.00    -0.293 N 
ATOM     16  H3  UNL     1      11.100   8.364  22.023  1.00  0.00     0.187 HD
ATOM     17  H2  UNL     1      13.514   7.724  20.602  1.00  0.00     0.188 HD
BRANCH  15  18
HETATM   18  C2  UNL     1      10.959   7.254  20.269  1.00  0.00     0.132 A 
HETATM   19  C3  UNL     1      10.465   5.983  20.460  1.00  0.00     0.127 A 
HETATM   20  N4  UNL     1       9.810   5.402  19.428  1.00  0.00    -0.339 N 
HETATM   21  C4  UNL     1       9.625   5.997  18.253  1.00  0.00     0.226 A 
ATOM     22  H4  UNL     1       9.440   4.460  19.557  1.00  0.00     0.167 HD
HETATM   23  N6  UNL     1      10.116   7.241  18.089  1.00  0.00    -0.296 N 
HETATM   24  C5  UNL     1      10.782   7.910  19.047  1.00  0.00     0.277 A 
ATOM     25  H6  UNL     1       9.976   7.700  17.189  1.00  0.00     0.171 HD
HETATM   26  O3  UNL     1      11.235   9.065  18.885  1.00  0.00    -0.266 OA
BRANCH  21  27
HETATM   27  S1  UNL     1       8.773   5.178  16.987  1.00  0.00     0.289 S 
HETATM   28  O1  UNL     1       7.818   4.159  17.544  1.00  0.00    -0.198 OA
HETATM   29  O2  UNL     1       9.758   4.509  16.072  1.00  0.00    -0.198 OA
BRANCH  27  30
HETATM   30  N5  UNL     1       7.931   6.357  16.040  1.00  0.00    -0.322 N 
ATOM     31  H52 UNL     1       8.219   7.328  15.925  1.00  0.00     0.169 HD
ATOM     32  H51 UNL     1       7.111   5.914  15.627  1.00  0.00     0.169 HD
ENDBRANCH  27  30
ENDBRANCH  21  27
ENDBRANCH  15  18
ENDBRANCH  10  14
ENDBRANCH   1  10
BRANCH   9  33
HETATM   33  O10 UNL     1      11.943  10.735  21.101  1.00  0.00    -0.357 OA
ATOM     34  H10 UNL     1      11.466  11.310  20.514  1.00  0.00     0.217 HD
ENDBRANCH   9  33
BRANCH   8  35
HETATM   35  N10 UNL     1      12.684  13.288  20.440  1.00  0.00    -0.364 N 
ATOM     36  H10 UNL     1      12.696  13.235  19.421  1.00  0.00     0.161 HD
BRANCH  35  37
HETATM   37  C10 UNL     1      11.781  14.200  21.027  1.00  0.00     0.222 C 
HETATM   38  N11 UNL     1      11.922  15.569  20.600  1.00  0.00    -0.120 NA
HETATM   39  N12 UNL     1      10.720  16.144  21.113  1.00  0.00    -0.144 NA
HETATM   40  C11 UNL     1       9.668  15.233  20.669  1.00  0.00     0.165 C 
HETATM   41  C12 UNL     1      10.372  13.905  20.489  1.00  0.00     0.173 C 
BRANCH  41  42
HETATM   42  O9  UNL     1      10.497  13.564  19.148  1.00  0.00    -0.391 OA
ATOM     43  H9  UNL     1      10.881  12.696  19.107  1.00  0.00     0.210 HD
ENDBRANCH  41  42
ENDBRANCH  35  37
ENDBRANCH   8  35
BRANCH   6  44
HETATM   44  S3  UNL     1      16.619  14.833  21.542  1.00  0.00     0.388 S 
HETATM   45  O4  UNL     1      16.678  16.275  21.122  1.00  0.00    -0.173 OA
HETATM   46  O5  UNL     1      16.810  14.792  23.032  1.00  0.00    -0.173 OA
BRANCH  44  47
HETATM   47  O6  UNL     1      17.841  13.912  20.791  1.00  0.00    -0.071 OA
BRANCH  47  48
HETATM   48  N9  UNL     1      17.865  13.832  19.424  1.00  0.00     0.022 N 
HETATM   49  O7  UNL     1      18.957  13.628  18.866  1.00  0.00    -0.510 OA
HETATM   50  O8  UNL     1      16.728  13.970  18.690  1.00  0.00    -0.510 OA
ENDBRANCH  47  48
ENDBRANCH  44  47
ENDBRANCH   6  44
TORSDOF 12
ENDMDL
MODEL 3
REMARK VINA RESULT: -8.759357706      3.233      9.574
REMARK  12 active torsions:
REMARK  status: ('A' for Active; 'I' for Inactive)
REMARK    1  A    between atoms: C1_4  and  N2_5 
REMARK    2  A    between atoms: C1_4  and  C6_24 
REMARK    3  A    between atoms: N3_7  and  C2_9 
REMARK    4  A    between atoms: C4_13  and  S1_14 
REMARK    5  A    between atoms: S1_14  and  N5_15 
REMARK    6  A    between atoms: N8_29  and  S3_31 
REMARK    7  A    between atoms: S3_31  and  O6_34 
REMARK    8  A    between atoms: O6_34  and  N9_35 
REMARK    9  A    between atoms: C9_38  and  N10_39 
REMARK   10  A    between atoms: N10_39  and  C10_41 
REMARK   11  A    between atoms: C12_45  and  O9_46 
REMARK   12  A    between atoms: C13_48  and  O10_49 
ROOT
HETATM    1  C6  UNL     1      13.987  10.168  22.202  1.00  0.00     0.075 A 
HETATM    2  C7  UNL     1      15.255  10.401  22.697  1.00  0.00     0.106 A 
HETATM    3  N7  UNL     1      16.010   9.413  23.392  1.00  0.00    -0.093 NA
HETATM    4  S2  UNL     1      15.887  11.952  22.429  1.00  0.00    -0.053 SA
HETATM    5  C8  UNL     1      14.807  12.962  21.577  1.00  0.00     0.116 A 
HETATM    6  N8  UNL     1      15.050  14.193  21.247  1.00  0.00    -0.252 N 
ATOM      7  H8  UNL     1      14.378  14.766  20.735  1.00  0.00     0.181 HD
HETATM    8  C9  UNL     1      13.599  12.389  21.230  1.00  0.00     0.099 A 
HETATM    9  C13 UNL     1      13.227  11.099  21.524  1.00  0.00     0.111 A 
ENDROOT
BRANCH   1  10
HETATM   10  C1  UNL     1      13.434   8.806  22.437  1.00  0.00     0.129 C 
HETATM   11  N1  UNL     1      13.386   8.225  23.498  1.00  0.00    -0.384 N 
ATOM     12  H12 UNL     1      13.007   7.292  23.659  1.00  0.00     0.157 HD
ATOM     13  H11 UNL     1      13.764   8.729  24.301  1.00  0.00     0.157 HD
BRANCH  10  14
HETATM   14  N2  UNL     1      12.892   8.085  21.287  1.00  0.00    -0.284 N 
HETATM   15  N3  UNL     1      11.651   7.871  21.271  1.00  0.00    -0.293 N 
ATOM     16  H3  UNL     1      11.107   8.215  22.062  1.00  0.00     0.187 HD
ATOM     17  H2  UNL     1      13.495   7.768  20.529  1.00  0.00     0.188 HD
BRANCH  15  18
HETATM   18  C2  UNL     1      10.953   7.198  20.254  1.00  0.00     0.132 A 
HETATM   19  C3  UNL     1      10.446   5.929  20.421  1.00  0.00     0.127 A 
HETATM   20  N4  UNL     1       9.789   5.372  19.376  1.00  0.00    -0.339 N 
HETATM   21  C4  UNL     1       9.614   5.990  18.211  1.00  0.00     0.226 A 
ATOM     22  H4  UNL     1       9.408   4.432  19.487  1.00  0.00     0.167 HD
HETATM   23  N6  UNL     1      10.119   7.232  18.071  1.00  0.00    -0.296 N 
HETATM   24  C5  UNL     1      10.788   7.877  19.043  1.00  0.00     0.277 A 
ATOM     25  H6  UNL     1       9.986   7.708  17.179  1.00  0.00     0.171 HD
HETATM   26  O3  UNL     1      11.252   9.030  18.903  1.00  0.00    -0.266 OA
BRANCH  21  27
HETATM   27  S1  UNL     1       8.759   5.202  16.927  1.00  0.00     0.289 S 
HETATM   28  O1  UNL     1       7.779   4.196  17.464  1.00  0.00    -0.198 OA
HETATM   29  O2  UNL     1       9.739   4.523  16.015  1.00  0.00    -0.198 OA
BRANCH  27  30
HETATM   30  N5  UNL     1       7.950   6.408  15.987  1.00  0.00    -0.322 N 
ATOM     31  H52 UNL     1       8.414   7.106  15.406  1.00  0.00     0.169 HD
ATOM     32  H51 UNL     1       6.944   6.297  16.115  1.00  0.00     0.169 HD
ENDBRANCH  27  30
ENDBRANCH  21  27
ENDBRANCH  15  18
ENDBRANCH  10  14
ENDBRANCH   1  10
BRANCH   9  33
HETATM   33  O10 UNL     1      11.962  10.695  21.100  1.00  0.00    -0.357 OA
ATOM     34  H10 UNL     1      11.463  11.316  20.582  1.00  0.00     0.217 HD
ENDBRANCH   9  33
BRANCH   8  35
HETATM   35  N10 UNL     1      12.708  13.265  20.515  1.00  0.00    -0.364 N 
ATOM     36  H10 UNL     1      12.741  13.234  19.495  1.00  0.00     0.161 HD
BRANCH  35  37
HETATM   37  C10 UNL     1      11.791  14.164  21.101  1.00  0.00     0.222 C 
HETATM   38  N11 UNL     1      11.925  15.539  20.690  1.00  0.00    -0.120 NA
HETATM   39  N12 UNL     1      10.713  16.098  21.197  1.00  0.00    -0.144 NA
HETATM   40  C11 UNL     1       9.674  15.184  20.731  1.00  0.00     0.165 C 
HETATM   41  C12 UNL     1      10.390  13.864  20.545  1.00  0.00     0.173 C 
BRANCH  41  42
HETATM   42  O9  UNL     1      10.532  13.538  19.202  1.00  0.00    -0.391 OA
ATOM     43  H9  UNL     1      11.394  13.827  18.926  1.00  0.00     0.210 HD
ENDBRANCH  41  42
ENDBRANCH  35  37
ENDBRANCH   8  35
BRANCH   6  44
HETATM   44  S3  UNL     1      16.611  14.798  21.742  1.00  0.00     0.388 S 
HETATM   45  O4  UNL     1      17.652  14.070  20.939  1.00  0.00    -0.173 OA
HETATM   46  O5  UNL     1      16.744  16.262  21.427  1.00  0.00    -0.173 OA
BRANCH  44  47
HETATM   47  O6  UNL     1      16.831  14.559  23.415  1.00  0.00    -0.071 OA
BRANCH  47  48
HETATM   48  N9  UNL     1      16.022  15.231  24.292  1.00  0.00     0.022 N 
HETATM   49  O7  UNL     1      16.509  15.599  25.376  1.00  0.00    -0.510 OA
HETATM   50  O8  UNL     1      14.721  15.493  23.994  1.00  0.00    -0.510 OA
ENDBRANCH  47  48
ENDBRANCH  44  47
ENDBRANCH   6  44
TORSDOF 12
ENDMDL
MODEL 4
REMARK VINA RESULT: -8.681209725      2.548     10.319
REMARK  12 active torsions:
REMARK  status: ('A' for Active; 'I' for Inactive)
REMARK    1  A    between atoms: C1_4  and  N2_5 
REMARK    2  A    between atoms: C1_4  and  C6_24 
REMARK    3  A    between atoms: N3_7  and  C2_9 
REMARK    4  A    between atoms: C4_13  and  S1_14 
REMARK    5  A    between atoms: S1_14  and  N5_15 
REMARK    6  A    between atoms: N8_29  and  S3_31 
REMARK    7  A    between atoms: S3_31  and  O6_34 
REMARK    8  A    between atoms: O6_34  and  N9_35 
REMARK    9  A    between atoms: C9_38  and  N10_39 
REMARK   10  A    between atoms: N10_39  and  C10_41 
REMARK   11  A    between atoms: C12_45  and  O9_46 
REMARK   12  A    between atoms: C13_48  and  O10_49 
ROOT
HETATM    1  C6  UNL     1      15.239  11.719  22.172  1.00  0.00     0.075 A 
HETATM    2  C7  UNL     1      15.255  11.996  20.819  1.00  0.00     0.106 A 
HETATM    3  N7  UNL     1      14.796  11.076  19.833  1.00  0.00    -0.093 NA
HETATM    4  S2  UNL     1      15.858  13.519  20.377  1.00  0.00    -0.053 SA
HETATM    5  C8  UNL     1      16.346  14.448  21.723  1.00  0.00     0.116 A 
HETATM    6  N8  UNL     1      16.841  15.645  21.655  1.00  0.00    -0.252 N 
ATOM      7  H8  UNL     1      17.121  16.170  22.484  1.00  0.00     0.181 HD
HETATM    8  C9  UNL     1      16.184  13.846  22.956  1.00  0.00     0.099 A 
HETATM    9  C13 UNL     1      15.674  12.585  23.155  1.00  0.00     0.111 A 
ENDROOT
BRANCH   1  10
HETATM   10  C1  UNL     1      14.709  10.383  22.559  1.00  0.00     0.129 C 
HETATM   11  N1  UNL     1      15.175   9.643  23.397  1.00  0.00    -0.384 N 
ATOM     12  H12 UNL     1      14.811   8.727  23.662  1.00  0.00     0.157 HD
ATOM     13  H11 UNL     1      16.010   9.979  23.876  1.00  0.00     0.157 HD
BRANCH  10  14
HETATM   14  N2  UNL     1      13.512   9.901  21.873  1.00  0.00    -0.284 N 
HETATM   15  N3  UNL     1      13.591   8.789  21.286  1.00  0.00    -0.293 N 
ATOM     16  H3  UNL     1      14.485   8.300  21.328  1.00  0.00     0.187 HD
ATOM     17  H2  UNL     1      12.649  10.443  21.869  1.00  0.00     0.188 HD
BRANCH  15  18
HETATM   18  C2  UNL     1      12.549   8.167  20.577  1.00  0.00     0.132 A 
HETATM   19  C3  UNL     1      12.353   8.361  19.228  1.00  0.00     0.127 A 
HETATM   20  N4  UNL     1      11.319   7.711  18.643  1.00  0.00    -0.339 N 
HETATM   21  C4  UNL     1      10.496   6.904  19.306  1.00  0.00     0.226 A 
ATOM     22  H4  UNL     1      11.164   7.847  17.644  1.00  0.00     0.167 HD
HETATM   23  N6  UNL     1      10.707   6.729  20.625  1.00  0.00    -0.296 N 
HETATM   24  C5  UNL     1      11.702   7.325  21.306  1.00  0.00     0.277 A 
ATOM     25  H6  UNL     1      10.076   6.111  21.136  1.00  0.00     0.171 HD
HETATM   26  O3  UNL     1      11.890   7.155  22.531  1.00  0.00    -0.266 OA
BRANCH  21  27
HETATM   27  S1  UNL     1       9.198   6.113  18.476  1.00  0.00     0.289 S 
HETATM   28  O1  UNL     1       8.440   7.078  17.606  1.00  0.00    -0.198 OA
HETATM   29  O2  UNL     1       8.269   5.490  19.477  1.00  0.00    -0.198 OA
BRANCH  27  30
HETATM   30  N5  UNL     1       9.857   4.822  17.532  1.00  0.00    -0.322 N 
ATOM     31  H52 UNL     1      10.219   4.917  16.583  1.00  0.00     0.169 HD
ATOM     32  H51 UNL     1       9.820   3.965  18.084  1.00  0.00     0.169 HD
ENDBRANCH  27  30
ENDBRANCH  21  27
ENDBRANCH  15  18
ENDBRANCH  10  14
ENDBRANCH   1  10
BRANCH   9  33
HETATM   33  O10 UNL     1      15.592  12.139  24.472  1.00  0.00    -0.357 OA
ATOM     34  H10 UNL     1      16.252  11.519  24.760  1.00  0.00     0.217 HD
ENDBRANCH   9  33
BRANCH   8  35
HETATM   35  N10 UNL     1      16.606  14.651  24.072  1.00  0.00    -0.364 N 
ATOM     36  H10 UNL     1      17.611  14.745  24.227  1.00  0.00     0.161 HD
BRANCH  35  37
HETATM   37  C10 UNL     1      15.751  15.322  24.972  1.00  0.00     0.222 C 
HETATM   38  N11 UNL     1      15.406  14.587  26.162  1.00  0.00    -0.120 NA
HETATM   39  N12 UNL     1      14.820  15.614  26.962  1.00  0.00    -0.144 NA
HETATM   40  C11 UNL     1      15.787  16.708  26.906  1.00  0.00     0.165 C 
HETATM   41  C12 UNL     1      16.528  16.488  25.605  1.00  0.00     0.173 C 
BRANCH  41  42
HETATM   42  O9  UNL     1      17.831  16.057  25.819  1.00  0.00    -0.391 OA
ATOM     43  H9  UNL     1      18.210  15.855  24.972  1.00  0.00     0.210 HD
ENDBRANCH  41  42
ENDBRANCH  35  37
ENDBRANCH   8  35
BRANCH   6  44
HETATM   44  S3  UNL     1      16.993  16.293  20.042  1.00  0.00     0.388 S 
HETATM   45  O4  UNL     1      15.606  16.584  19.541  1.00  0.00    -0.173 OA
HETATM   46  O5  UNL     1      17.748  17.593  20.053  1.00  0.00    -0.173 OA
BRANCH  44  47
HETATM   47  O6  UNL     1      17.801  15.180  19.035  1.00  0.00    -0.071 OA
BRANCH  47  48
HETATM   48  N9  UNL     1      19.120  14.903  19.278  1.00  0.00     0.022 N 
HETATM   49  O7  UNL     1      19.846  14.607  18.313  1.00  0.00    -0.510 OA
HETATM   50  O8  UNL     1      19.629  14.947  20.539  1.00  0.00    -0.510 OA
ENDBRANCH  47  48
ENDBRANCH  44  47
ENDBRANCH   6  44
TORSDOF 12
ENDMDL
MODEL 5
REMARK VINA RESULT: -8.676367991      2.788     10.238
REMARK  12 active torsions:
REMARK  status: ('A' for Active; 'I' for Inactive)
REMARK    1  A    between atoms: C1_4  and  N2_5 
REMARK    2  A    between atoms: C1_4  and  C6_24 
REMARK    3  A    between atoms: N3_7  and  C2_9 
REMARK    4  A    between atoms: C4_13  and  S1_14 
REMARK    5  A    between atoms: S1_14  and  N5_15 
REMARK    6  A    between atoms: N8_29  and  S3_31 
REMARK    7  A    between atoms: S3_31  and  O6_34 
REMARK    8  A    between atoms: O6_34  and  N9_35 
REMARK    9  A    between atoms: C9_38  and  N10_39 
REMARK   10  A    between atoms: N10_39  and  C10_41 
REMARK   11  A    between atoms: C12_45  and  O9_46 
REMARK   12  A    between atoms: C13_48  and  O10_49 
ROOT
HETATM    1  C6  UNL     1      13.371  10.021  18.993  1.00  0.00     0.075 A 
HETATM    2  C7  UNL     1      12.982  11.291  18.612  1.00  0.00     0.106 A 
HETATM    3  N7  UNL     1      12.305  11.560  17.389  1.00  0.00    -0.093 NA
HETATM    4  S2  UNL     1      13.356  12.541  19.695  1.00  0.00    -0.053 SA
HETATM    5  C8  UNL     1      14.165  11.981  21.090  1.00  0.00     0.116 A 
HETATM    6  N8  UNL     1      14.560  12.736  22.069  1.00  0.00    -0.252 N 
ATOM      7  H8  UNL     1      15.041  12.363  22.888  1.00  0.00     0.181 HD
HETATM    8  C9  UNL     1      14.397  10.620  21.142  1.00  0.00     0.099 A 
HETATM    9  C13 UNL     1      14.028   9.722  20.169  1.00  0.00     0.111 A 
ENDROOT
BRANCH   1  10
HETATM   10  C1  UNL     1      13.042   8.924  18.042  1.00  0.00     0.129 C 
HETATM   11  N1  UNL     1      13.762   8.491  17.171  1.00  0.00    -0.384 N 
ATOM     12  H12 UNL     1      13.537   7.739  16.519  1.00  0.00     0.157 HD
ATOM     13  H11 UNL     1      14.681   8.928  17.091  1.00  0.00     0.157 HD
BRANCH  10  14
HETATM   14  N2  UNL     1      11.727   8.298  18.155  1.00  0.00    -0.284 N 
HETATM   15  N3  UNL     1      11.663   7.052  17.981  1.00  0.00    -0.293 N 
ATOM     16  H3  UNL     1      12.533   6.563  17.772  1.00  0.00     0.187 HD
ATOM     17  H2  UNL     1      10.894   8.847  18.367  1.00  0.00     0.188 HD
BRANCH  15  18
HETATM   18  C2  UNL     1      10.491   6.278  18.051  1.00  0.00     0.132 A 
HETATM   19  C3  UNL     1      10.029   5.539  16.986  1.00  0.00     0.127 A 
HETATM   20  N4  UNL     1       8.890   4.828  17.161  1.00  0.00    -0.339 N 
HETATM   21  C4  UNL     1       8.208   4.813  18.303  1.00  0.00     0.226 A 
ATOM     22  H4  UNL     1       8.537   4.277  16.379  1.00  0.00     0.167 HD
HETATM   23  N6  UNL     1       8.679   5.543  19.332  1.00  0.00    -0.296 N 
HETATM   24  C5  UNL     1       9.800   6.285  19.267  1.00  0.00     0.277 A 
ATOM     25  H6  UNL     1       8.158   5.534  20.209  1.00  0.00     0.171 HD
HETATM   26  O3  UNL     1      10.229   6.960  20.229  1.00  0.00    -0.266 OA
BRANCH  21  27
HETATM   27  S1  UNL     1       6.759   3.874  18.439  1.00  0.00     0.289 S 
HETATM   28  O1  UNL     1       6.734   3.095  19.725  1.00  0.00    -0.198 OA
HETATM   29  O2  UNL     1       6.658   2.935  17.271  1.00  0.00    -0.198 OA
BRANCH  27  30
HETATM   30  N5  UNL     1       5.402   4.943  18.341  1.00  0.00    -0.322 N 
ATOM     31  H52 UNL     1       5.401   5.916  18.646  1.00  0.00     0.169 HD
ATOM     32  H51 UNL     1       4.618   4.434  17.933  1.00  0.00     0.169 HD
ENDBRANCH  27  30
ENDBRANCH  21  27
ENDBRANCH  15  18
ENDBRANCH  10  14
ENDBRANCH   1  10
BRANCH   9  33
HETATM   33  O10 UNL     1      14.352   8.385  20.391  1.00  0.00    -0.357 OA
ATOM     34  H10 UNL     1      14.101   8.014  21.229  1.00  0.00     0.217 HD
ENDBRANCH   9  33
BRANCH   8  35
HETATM   35  N10 UNL     1      15.083  10.177  22.328  1.00  0.00    -0.364 N 
ATOM     36  H10 UNL     1      16.090  10.334  22.370  1.00  0.00     0.161 HD
BRANCH  35  37
HETATM   37  C10 UNL     1      14.483   9.545  23.438  1.00  0.00     0.222 C 
HETATM   38  N11 UNL     1      13.751   8.340  23.141  1.00  0.00    -0.120 NA
HETATM   39  N12 UNL     1      13.549   7.809  24.451  1.00  0.00    -0.144 NA
HETATM   40  C11 UNL     1      14.874   7.853  25.064  1.00  0.00     0.165 C 
HETATM   41  C12 UNL     1      15.593   8.961  24.325  1.00  0.00     0.173 C 
BRANCH  41  42
HETATM   42  O9  UNL     1      16.584   8.464  23.486  1.00  0.00    -0.391 OA
ATOM     43  H9  UNL     1      16.977   7.715  23.918  1.00  0.00     0.210 HD
ENDBRANCH  41  42
ENDBRANCH  35  37
ENDBRANCH   8  35
BRANCH   6  44
HETATM   44  S3  UNL     1      14.208  14.435  21.883  1.00  0.00     0.388 S 
HETATM   45  O4  UNL     1      15.066  14.952  20.762  1.00  0.00    -0.173 OA
HETATM   46  O5  UNL     1      12.774  14.647  21.484  1.00  0.00    -0.173 OA
BRANCH  44  47
HETATM   47  O6  UNL     1      14.517  15.263  23.340  1.00  0.00    -0.071 OA
BRANCH  47  48
HETATM   48  N9  UNL     1      15.214  14.624  24.330  1.00  0.00     0.022 N 
HETATM   49  O7  UNL     1      16.385  14.278  24.095  1.00  0.00    -0.510 OA
HETATM   50  O8  UNL     1      14.649  14.371  25.541  1.00  0.00    -0.510 OA
ENDBRANCH  47  48
ENDBRANCH  44  47
ENDBRANCH   6  44
TORSDOF 12
ENDMDL
