MODEL 1
REMARK VINA RESULT: -5.411925698      0.000      0.000
REMARK  6 active torsions:
REMARK  status: ('A' for Active; 'I' for Inactive)
REMARK    1  A    between atoms: C2_9  and  S1_10 
REMARK    2  A    between atoms: S1_10  and  C3_11 
REMARK    3  A    between atoms: C3_11  and  C4_12 
REMARK    4  A    between atoms: C4_12  and  N5_13 
REMARK    5  A    between atoms: N5_13  and  C5_15 
REMARK    6  A    between atoms: C8_22  and  N8_23 
ROOT
HETATM    1  C5  UNL     1      14.755   8.253   7.013  1.00  0.00     0.136 A 
HETATM    2  N6  UNL     1      15.039   8.577   5.703  1.00  0.00    -0.337 N 
ATOM      3  H6  UNL     1      14.411   9.211   5.208  1.00  0.00     0.168 HD
HETATM    4  C6  UNL     1      16.106   8.095   5.056  1.00  0.00     0.182 A 
HETATM    5  N7  UNL     1      16.990   7.256   5.616  1.00  0.00    -0.347 N 
ATOM      6  H7  UNL     1      17.795   6.905   5.096  1.00  0.00     0.167 HD
HETATM    7  C7  UNL     1      16.770   6.900   6.891  1.00  0.00     0.110 A 
HETATM    8  C8  UNL     1      17.489   6.065   7.732  1.00  0.00     0.143 A 
HETATM    9  N9  UNL     1      16.812   6.076   8.890  1.00  0.00    -0.283 N 
ATOM     10  H9  UNL     1      17.083   5.555   9.724  1.00  0.00     0.188 HD
HETATM   11  N10 UNL     1      15.729   6.865   8.803  1.00  0.00    -0.293 N 
ATOM     12  H10 UNL     1      15.058   7.035   9.551  1.00  0.00     0.187 HD
HETATM   13  C9  UNL     1      15.674   7.386   7.584  1.00  0.00     0.123 A 
ENDROOT
BRANCH   1  14
HETATM   14  N5  UNL     1      13.743   8.752   7.519  1.00  0.00    -0.353 N 
ATOM     15  H5  UNL     1      13.215   9.194   6.767  1.00  0.00     0.166 HD
BRANCH  14  16
HETATM   16  C4  UNL     1      13.044   8.950   8.679  1.00  0.00     0.073 C 
BRANCH  16  17
HETATM   17  C3  UNL     1      12.059  10.103   8.673  1.00  0.00     0.127 C 
BRANCH  17  18
HETATM   18  S1  UNL     1      10.400   9.424   8.912  1.00  0.00    -0.086 SA
BRANCH  18  19
HETATM   19  C2  UNL     1      10.353   7.672   8.661  1.00  0.00     0.178 A 
HETATM   20  N1  UNL     1      10.373   6.967   7.532  1.00  0.00    -0.259 N 
HETATM   21  C1  UNL     1      10.469   7.500   6.171  1.00  0.00     0.181 C 
HETATM   22  N2  UNL     1      10.304   5.699   7.884  1.00  0.00    -0.224 N 
HETATM   23  N3  UNL     1      10.241   5.585   9.198  1.00  0.00    -0.226 N 
ATOM     24  H2  UNL     1      10.299   4.914   7.232  1.00  0.00     0.210 HD
HETATM   25  N4  UNL     1      10.271   6.788   9.695  1.00  0.00    -0.263 N 
ATOM     26  H3  UNL     1      10.181   4.714   9.727  1.00  0.00     0.210 HD
ATOM     27  H4  UNL     1      10.239   7.027  10.685  1.00  0.00     0.190 HD
ENDBRANCH  18  19
ENDBRANCH  17  18
ENDBRANCH  16  17
ENDBRANCH  14  16
ENDBRANCH   1  14
BRANCH   8  28
HETATM   28  N8  UNL     1      18.572   5.425   7.444  1.00  0.00    -0.383 N 
ATOM     29  H82 UNL     1      19.035   5.340   6.539  1.00  0.00     0.157 HD
ATOM     30  H81 UNL     1      19.154   4.889   8.087  1.00  0.00     0.157 HD
ENDBRANCH   8  28
TORSDOF 6
ENDMDL
MODEL 2
REMARK VINA RESULT: -5.380457938      5.565      8.028
REMARK  6 active torsions:
REMARK  status: ('A' for Active; 'I' for Inactive)
REMARK    1  A    between atoms: C2_9  and  S1_10 
REMARK    2  A    between atoms: S1_10  and  C3_11 
REMARK    3  A    between atoms: C3_11  and  C4_12 
REMARK    4  A    between atoms: C4_12  and  N5_13 
REMARK    5  A    between atoms: N5_13  and  C5_15 
REMARK    6  A    between atoms: C8_22  and  N8_23 
ROOT
HETATM    1  C5  UNL     1       9.139   9.744  10.092  1.00  0.00     0.136 A 
HETATM    2  N6  UNL     1      10.077   9.513  11.075  1.00  0.00    -0.337 N 
ATOM      3  H6  UNL     1      10.179  10.198  11.825  1.00  0.00     0.168 HD
HETATM    4  C6  UNL     1      10.858   8.427  11.086  1.00  0.00     0.182 A 
HETATM    5  N7  UNL     1      10.803   7.471  10.148  1.00  0.00    -0.347 N 
ATOM      6  H7  UNL     1      11.413   6.653  10.184  1.00  0.00     0.167 HD
HETATM    7  C7  UNL     1       9.910   7.635   9.160  1.00  0.00     0.110 A 
HETATM    8  C8  UNL     1       9.617   6.837   8.065  1.00  0.00     0.143 A 
HETATM    9  N9  UNL     1       8.641   7.488   7.415  1.00  0.00    -0.283 N 
ATOM     10  H9  UNL     1       8.199   7.161   6.556  1.00  0.00     0.188 HD
HETATM   11  N10 UNL     1       8.323   8.629   8.048  1.00  0.00    -0.293 N 
ATOM     12  H10 UNL     1       7.611   9.294   7.749  1.00  0.00     0.187 HD
HETATM   13  C9  UNL     1       9.088   8.750   9.126  1.00  0.00     0.123 A 
ENDROOT
BRANCH   1  14
HETATM   14  N5  UNL     1       8.467  10.779  10.172  1.00  0.00    -0.353 N 
ATOM     15  H5  UNL     1       8.979  11.511   9.680  1.00  0.00     0.166 HD
BRANCH  14  16
HETATM   16  C4  UNL     1       7.315  11.340  10.654  1.00  0.00     0.073 C 
BRANCH  16  17
HETATM   17  C3  UNL     1       6.963  11.005  12.091  1.00  0.00     0.127 C 
BRANCH  17  18
HETATM   18  S1  UNL     1       5.325  11.686  12.440  1.00  0.00    -0.086 SA
BRANCH  18  19
HETATM   19  C2  UNL     1       4.327  10.573  13.387  1.00  0.00     0.178 A 
HETATM   20  N1  UNL     1       3.031  10.285  13.286  1.00  0.00    -0.259 N 
HETATM   21  C1  UNL     1       2.090  10.828  12.303  1.00  0.00     0.181 C 
HETATM   22  N2  UNL     1       2.770   9.406  14.233  1.00  0.00    -0.224 N 
HETATM   23  N3  UNL     1       3.860   9.133  14.926  1.00  0.00    -0.226 N 
ATOM     24  H2  UNL     1       1.853   8.994  14.406  1.00  0.00     0.210 HD
HETATM   25  N4  UNL     1       4.829   9.840  14.421  1.00  0.00    -0.263 N 
ATOM     26  H3  UNL     1       3.930   8.487  15.713  1.00  0.00     0.210 HD
ATOM     27  H4  UNL     1       5.797   9.845  14.743  1.00  0.00     0.190 HD
ENDBRANCH  18  19
ENDBRANCH  17  18
ENDBRANCH  16  17
ENDBRANCH  14  16
ENDBRANCH   1  14
BRANCH   8  28
HETATM   28  N8  UNL     1      10.176   5.716   7.755  1.00  0.00    -0.383 N 
ATOM     29  H82 UNL     1      10.764   5.121   8.337  1.00  0.00     0.157 HD
ATOM     30  H81 UNL     1      10.119   5.233   6.859  1.00  0.00     0.157 HD
ENDBRANCH   8  28
TORSDOF 6
ENDMDL
MODEL 3
REMARK VINA RESULT: -5.347479109      1.977      6.516
REMARK  6 active torsions:
REMARK  status: ('A' for Active; 'I' for Inactive)
REMARK    1  A    between atoms: C2_9  and  S1_10 
REMARK    2  A    between atoms: S1_10  and  C3_11 
REMARK    3  A    between atoms: C3_11  and  C4_12 
REMARK    4  A    between atoms: C4_12  and  N5_13 
REMARK    5  A    between atoms: N5_13  and  C5_15 
REMARK    6  A    between atoms: C8_22  and  N8_23 
ROOT
HETATM    1  C5  UNL     1      11.211   7.610   7.323  1.00  0.00     0.136 A 
HETATM    2  N6  UNL     1      11.037   8.267   6.124  1.00  0.00    -0.337 N 
ATOM      3  H6  UNL     1      11.781   8.882   5.790  1.00  0.00     0.168 HD
HETATM    4  C6  UNL     1       9.934   8.132   5.380  1.00  0.00     0.182 A 
HETATM    5  N7  UNL     1       8.901   7.351   5.730  1.00  0.00    -0.347 N 
ATOM      6  H7  UNL     1       8.072   7.268   5.141  1.00  0.00     0.167 HD
HETATM    7  C7  UNL     1       9.006   6.683   6.889  1.00  0.00     0.110 A 
HETATM    8  C8  UNL     1       8.126   5.813   7.513  1.00  0.00     0.143 A 
HETATM    9  N9  UNL     1       8.749   5.443   8.642  1.00  0.00    -0.283 N 
ATOM     10  H9  UNL     1       8.362   4.800   9.333  1.00  0.00     0.188 HD
HETATM   11  N10 UNL     1       9.950   6.034   8.740  1.00  0.00    -0.293 N 
ATOM     12  H10 UNL     1      10.611   5.910   9.507  1.00  0.00     0.187 HD
HETATM   13  C9  UNL     1      10.139   6.805   7.677  1.00  0.00     0.123 A 
ENDROOT
BRANCH   1  14
HETATM   14  N5  UNL     1      12.267   7.805   7.935  1.00  0.00    -0.353 N 
ATOM     15  H5  UNL     1      12.940   7.113   7.605  1.00  0.00     0.166 HD
BRANCH  14  16
HETATM   16  C4  UNL     1      12.900   8.573   8.875  1.00  0.00     0.073 C 
BRANCH  16  17
HETATM   17  C3  UNL     1      14.088   9.378   8.385  1.00  0.00     0.127 C 
BRANCH  17  18
HETATM   18  S1  UNL     1      14.862   8.467   7.029  1.00  0.00    -0.086 SA
BRANCH  18  19
HETATM   19  C2  UNL     1      16.082   7.321   7.605  1.00  0.00     0.178 A 
HETATM   20  N1  UNL     1      17.241   6.956   7.060  1.00  0.00    -0.259 N 
HETATM   21  C1  UNL     1      17.816   7.460   5.811  1.00  0.00     0.181 C 
HETATM   22  N2  UNL     1      17.770   6.064   7.874  1.00  0.00    -0.224 N 
HETATM   23  N3  UNL     1      16.981   5.857   8.912  1.00  0.00    -0.226 N 
ATOM     24  H2  UNL     1      18.665   5.598   7.722  1.00  0.00     0.210 HD
HETATM   25  N4  UNL     1      15.938   6.622   8.766  1.00  0.00    -0.263 N 
ATOM     26  H3  UNL     1      17.157   5.216   9.687  1.00  0.00     0.210 HD
ATOM     27  H4  UNL     1      15.148   6.686   9.408  1.00  0.00     0.190 HD
ENDBRANCH  18  19
ENDBRANCH  17  18
ENDBRANCH  16  17
ENDBRANCH  14  16
ENDBRANCH   1  14
BRANCH   8  28
HETATM   28  N8  UNL     1       6.963   5.452   7.085  1.00  0.00    -0.383 N 
ATOM     29  H82 UNL     1       6.047   5.713   7.446  1.00  0.00     0.157 HD
ATOM     30  H81 UNL     1       6.768   4.834   6.297  1.00  0.00     0.157 HD
ENDBRANCH   8  28
TORSDOF 6
ENDMDL
MODEL 4
REMARK VINA RESULT: -5.341422293      3.373      5.818
REMARK  6 active torsions:
REMARK  status: ('A' for Active; 'I' for Inactive)
REMARK    1  A    between atoms: C2_9  and  S1_10 
REMARK    2  A    between atoms: S1_10  and  C3_11 
REMARK    3  A    between atoms: C3_11  and  C4_12 
REMARK    4  A    between atoms: C4_12  and  N5_13 
REMARK    5  A    between atoms: N5_13  and  C5_15 
REMARK    6  A    between atoms: C8_22  and  N8_23 
ROOT
HETATM    1  C5  UNL     1      11.246   7.613   7.224  1.00  0.00     0.136 A 
HETATM    2  N6  UNL     1      11.066   8.226   6.002  1.00  0.00    -0.337 N 
ATOM      3  H6  UNL     1      11.811   8.821   5.639  1.00  0.00     0.168 HD
HETATM    4  C6  UNL     1       9.955   8.070   5.274  1.00  0.00     0.182 A 
HETATM    5  N7  UNL     1       8.920   7.311   5.662  1.00  0.00    -0.347 N 
ATOM      6  H7  UNL     1       8.085   7.212   5.083  1.00  0.00     0.167 HD
HETATM    7  C7  UNL     1       9.031   6.687   6.845  1.00  0.00     0.110 A 
HETATM    8  C8  UNL     1       8.150   5.848   7.509  1.00  0.00     0.143 A 
HETATM    9  N9  UNL     1       8.780   5.516   8.646  1.00  0.00    -0.283 N 
ATOM     10  H9  UNL     1       8.394   4.903   9.364  1.00  0.00     0.188 HD
HETATM   11  N10 UNL     1       9.987   6.101   8.711  1.00  0.00    -0.293 N 
ATOM     12  H10 UNL     1      10.653   6.002   9.477  1.00  0.00     0.187 HD
HETATM   13  C9  UNL     1      10.171   6.830   7.618  1.00  0.00     0.123 A 
ENDROOT
BRANCH   1  14
HETATM   14  N5  UNL     1      12.309   7.823   7.819  1.00  0.00    -0.353 N 
ATOM     15  H5  UNL     1      12.945   7.062   7.581  1.00  0.00     0.166 HD
BRANCH  14  16
HETATM   16  C4  UNL     1      12.979   8.663   8.668  1.00  0.00     0.073 C 
BRANCH  16  17
HETATM   17  C3  UNL     1      12.190   9.173   9.858  1.00  0.00     0.127 C 
BRANCH  17  18
HETATM   18  S1  UNL     1      11.425  10.744   9.391  1.00  0.00    -0.086 SA
BRANCH  18  19
HETATM   19  C2  UNL     1       9.856  10.515   8.604  1.00  0.00     0.178 A 
HETATM   20  N1  UNL     1       8.791   9.822   9.000  1.00  0.00    -0.259 N 
HETATM   21  C1  UNL     1       8.652   9.073  10.252  1.00  0.00     0.181 C 
HETATM   22  N2  UNL     1       7.886   9.956   8.052  1.00  0.00    -0.224 N 
HETATM   23  N3  UNL     1       8.348  10.712   7.072  1.00  0.00    -0.226 N 
ATOM     24  H2  UNL     1       6.957   9.535   8.072  1.00  0.00     0.210 HD
HETATM   25  N4  UNL     1       9.559  11.066   7.394  1.00  0.00    -0.263 N 
ATOM     26  H3  UNL     1       7.848  10.970   6.221  1.00  0.00     0.210 HD
ATOM     27  H4  UNL     1      10.177  11.654   6.836  1.00  0.00     0.190 HD
ENDBRANCH  18  19
ENDBRANCH  17  18
ENDBRANCH  16  17
ENDBRANCH  14  16
ENDBRANCH   1  14
BRANCH   8  28
HETATM   28  N8  UNL     1       6.981   5.480   7.105  1.00  0.00    -0.383 N 
ATOM     29  H82 UNL     1       6.744   4.885   6.311  1.00  0.00     0.157 HD
ATOM     30  H81 UNL     1       6.084   5.727   7.523  1.00  0.00     0.157 HD
ENDBRANCH   8  28
TORSDOF 6
ENDMDL
MODEL 5
REMARK VINA RESULT: -5.283681272      5.593      8.147
REMARK  6 active torsions:
REMARK  status: ('A' for Active; 'I' for Inactive)
REMARK    1  A    between atoms: C2_9  and  S1_10 
REMARK    2  A    between atoms: S1_10  and  C3_11 
REMARK    3  A    between atoms: C3_11  and  C4_12 
REMARK    4  A    between atoms: C4_12  and  N5_13 
REMARK    5  A    between atoms: N5_13  and  C5_15 
REMARK    6  A    between atoms: C8_22  and  N8_23 
ROOT
HETATM    1  C5  UNL     1       9.118   9.737  10.079  1.00  0.00     0.136 A 
HETATM    2  N6  UNL     1      10.059   9.510  11.060  1.00  0.00    -0.337 N 
ATOM      3  H6  UNL     1      10.157  10.193  11.813  1.00  0.00     0.168 HD
HETATM    4  C6  UNL     1      10.850   8.431  11.066  1.00  0.00     0.182 A 
HETATM    5  N7  UNL     1      10.801   7.478  10.125  1.00  0.00    -0.347 N 
ATOM      6  H7  UNL     1      11.418   6.665  10.157  1.00  0.00     0.167 HD
HETATM    7  C7  UNL     1       9.905   7.639   9.139  1.00  0.00     0.110 A 
HETATM    8  C8  UNL     1       9.618   6.843   8.040  1.00  0.00     0.143 A 
HETATM    9  N9  UNL     1       8.635   7.488   7.394  1.00  0.00    -0.283 N 
ATOM     10  H9  UNL     1       8.195   7.160   6.535  1.00  0.00     0.188 HD
HETATM   11  N10 UNL     1       8.309   8.623   8.032  1.00  0.00    -0.293 N 
ATOM     12  H10 UNL     1       7.591   9.284   7.737  1.00  0.00     0.187 HD
HETATM   13  C9  UNL     1       9.074   8.747   9.109  1.00  0.00     0.123 A 
ENDROOT
BRANCH   1  14
HETATM   14  N5  UNL     1       8.438  10.766  10.164  1.00  0.00    -0.353 N 
ATOM     15  H5  UNL     1       8.856  11.458   9.542  1.00  0.00     0.166 HD
BRANCH  14  16
HETATM   16  C4  UNL     1       7.352  11.354  10.756  1.00  0.00     0.073 C 
BRANCH  16  17
HETATM   17  C3  UNL     1       6.988  10.840  12.135  1.00  0.00     0.127 C 
BRANCH  17  18
HETATM   18  S1  UNL     1       5.284  11.336  12.486  1.00  0.00    -0.086 SA
BRANCH  18  19
HETATM   19  C2  UNL     1       4.638  10.533  13.925  1.00  0.00     0.178 A 
HETATM   20  N1  UNL     1       4.950  10.694  15.209  1.00  0.00    -0.259 N 
HETATM   21  C1  UNL     1       5.929  11.635  15.759  1.00  0.00     0.181 C 
HETATM   22  N2  UNL     1       4.195   9.850  15.884  1.00  0.00    -0.224 N 
HETATM   23  N3  UNL     1       3.418   9.165  15.064  1.00  0.00    -0.226 N 
ATOM     24  H2  UNL     1       4.208   9.741  16.898  1.00  0.00     0.210 HD
HETATM   25  N4  UNL     1       3.675   9.571  13.855  1.00  0.00    -0.263 N 
ATOM     26  H3  UNL     1       2.742   8.448  15.331  1.00  0.00     0.210 HD
ATOM     27  H4  UNL     1       3.233   9.228  13.002  1.00  0.00     0.190 HD
ENDBRANCH  18  19
ENDBRANCH  17  18
ENDBRANCH  16  17
ENDBRANCH  14  16
ENDBRANCH   1  14
BRANCH   8  28
HETATM   28  N8  UNL     1      10.186   5.728   7.726  1.00  0.00    -0.383 N 
ATOM     29  H82 UNL     1      10.873   5.552   6.994  1.00  0.00     0.157 HD
ATOM     30  H81 UNL     1      10.038   4.821   8.168  1.00  0.00     0.157 HD
ENDBRANCH   8  28
TORSDOF 6
ENDMDL
