MODEL 1
REMARK VINA RESULT: -5.954123733      0.000      0.000
REMARK  5 active torsions:
REMARK  status: ('A' for Active; 'I' for Inactive)
REMARK    1  A    between atoms: C2_5  and  N3_6 
REMARK    2  A    between atoms: C3_12  and  S1_13 
REMARK    3  A    between atoms: S1_13  and  C4_14 
REMARK    4  A    between atoms: C4_14  and  C5_15 
REMARK    5  A    between atoms: C5_15  and  N6_16 
ROOT
HETATM    1  N6  UNL     1       6.355  10.418  12.920  1.00  0.00    -0.374 N 
ATOM      2  H6  UNL     1       7.137   9.949  13.378  1.00  0.00     0.161 HD
HETATM    3  C6  UNL     1       5.175  10.239  13.399  1.00  0.00     0.118 A 
HETATM    4  C7  UNL     1       4.014  10.795  12.907  1.00  0.00     0.091 A 
HETATM    5  C8  UNL     1       2.968  10.351  13.708  1.00  0.00     0.132 A 
HETATM    6  C9  UNL     1       1.571  10.686  13.554  1.00  0.00     0.119 C 
HETATM    7  N7  UNL     1       0.456  10.947  13.414  1.00  0.00    -0.190 NA
HETATM    8  N8  UNL     1       3.521   9.554  14.647  1.00  0.00    -0.289 N 
ATOM      9  H8  UNL     1       3.013   9.072  15.388  1.00  0.00     0.188 HD
HETATM   10  N9  UNL     1       4.817   9.498  14.453  1.00  0.00    -0.285 N 
ATOM     11  H9  UNL     1       5.466   8.960  15.028  1.00  0.00     0.188 HD
ENDROOT
BRANCH   1  12
HETATM   12  C5  UNL     1       6.629  11.237  11.782  1.00  0.00     0.132 C 
BRANCH  12  13
HETATM   13  C4  UNL     1       8.028  10.964  11.211  1.00  0.00     0.102 C 
BRANCH  13  14
HETATM   14  S1  UNL     1       7.866  10.946   9.389  1.00  0.00    -0.090 SA
BRANCH  14  15
HETATM   15  C3  UNL     1       8.559   9.441   8.732  1.00  0.00     0.175 A 
HETATM   16  N5  UNL     1       8.892   8.335   9.413  1.00  0.00    -0.243 N 
HETATM   17  N4  UNL     1       9.377   7.422   8.590  1.00  0.00     0.094 N 
ATOM     18  H5  UNL     1       8.787   8.216  10.421  1.00  0.00     0.191 HD
HETATM   19  C2  UNL     1       9.878   6.179   8.517  1.00  0.00     0.727 A 
HETATM   20  C10 UNL     1       9.354   7.949   7.356  1.00  0.00     0.737 A 
HETATM   21  N2  UNL     1      10.165   5.951   7.214  1.00  0.00    -0.114 N 
HETATM   22  N1  UNL     1       9.853   7.010   6.502  1.00  0.00    -0.111 N 
ATOM     23  H2  UNL     1      10.562   5.089   6.841  1.00  0.00     0.206 HD
HETATM   24  C1  UNL     1       9.976   7.245   5.070  1.00  0.00     0.198 C 
HETATM   25  N10 UNL     1       8.851   9.192   7.446  1.00  0.00    -0.165 N 
ATOM     26  H10 UNL     1       8.714   9.837   6.669  1.00  0.00     0.186 HD
BRANCH  19  27
HETATM   27  N3  UNL     1      10.066   5.332   9.486  1.00  0.00    -0.231 N 
ATOM     28  H32 UNL     1      10.194   4.322   9.423  1.00  0.00     0.174 HD
ATOM     29  H31 UNL     1      10.113   5.572  10.476  1.00  0.00     0.174 HD
ENDBRANCH  19  27
ENDBRANCH  14  15
ENDBRANCH  13  14
ENDBRANCH  12  13
ENDBRANCH   1  12
TORSDOF 5
ENDMDL
MODEL 2
REMARK VINA RESULT: -5.945550137      1.907      8.825
REMARK  5 active torsions:
REMARK  status: ('A' for Active; 'I' for Inactive)
REMARK    1  A    between atoms: C2_5  and  N3_6 
REMARK    2  A    between atoms: C3_12  and  S1_13 
REMARK    3  A    between atoms: S1_13  and  C4_14 
REMARK    4  A    between atoms: C4_14  and  C5_15 
REMARK    5  A    between atoms: C5_15  and  N6_16 
ROOT
HETATM    1  N6  UNL     1      10.431   7.451  10.189  1.00  0.00    -0.374 N 
ATOM      2  H6  UNL     1      10.595   6.801  10.958  1.00  0.00     0.161 HD
HETATM    3  C6  UNL     1      10.316   6.972   9.002  1.00  0.00     0.118 A 
HETATM    4  C7  UNL     1      10.091   7.705   7.856  1.00  0.00     0.091 A 
HETATM    5  C8  UNL     1      10.033   6.809   6.794  1.00  0.00     0.132 A 
HETATM    6  C9  UNL     1       9.813   7.142   5.405  1.00  0.00     0.119 C 
HETATM    7  N7  UNL     1       9.653   7.419   4.296  1.00  0.00    -0.190 NA
HETATM    8  N8  UNL     1      10.219   5.580   7.323  1.00  0.00    -0.289 N 
ATOM      9  H8  UNL     1      10.230   4.706   6.798  1.00  0.00     0.188 HD
HETATM   10  N9  UNL     1      10.384   5.692   8.620  1.00  0.00    -0.285 N 
ATOM     11  H9  UNL     1      10.543   4.907   9.252  1.00  0.00     0.188 HD
ENDROOT
BRANCH   1  12
HETATM   12  C5  UNL     1      10.341   8.845  10.490  1.00  0.00     0.132 C 
BRANCH  12  13
HETATM   13  C4  UNL     1       9.449   9.104  11.712  1.00  0.00     0.102 C 
BRANCH  13  14
HETATM   14  S1  UNL     1       8.169  10.303  11.194  1.00  0.00    -0.090 SA
BRANCH  14  15
HETATM   15  C3  UNL     1       7.040  10.608  12.539  1.00  0.00     0.175 A 
HETATM   16  N5  UNL     1       6.006   9.845  12.919  1.00  0.00    -0.243 N 
HETATM   17  N4  UNL     1       5.395  10.390  13.957  1.00  0.00     0.094 N 
ATOM     18  H5  UNL     1       5.729   8.970  12.473  1.00  0.00     0.191 HD
HETATM   19  C2  UNL     1       4.381  10.243  14.823  1.00  0.00     0.727 A 
HETATM   20  C10 UNL     1       6.050  11.524  14.251  1.00  0.00     0.737 A 
HETATM   21  N2  UNL     1       4.422  11.310  15.656  1.00  0.00    -0.114 N 
HETATM   22  N1  UNL     1       5.424  12.090  15.323  1.00  0.00    -0.111 N 
ATOM     23  H2  UNL     1       3.774  11.482  16.424  1.00  0.00     0.206 HD
HETATM   24  C1  UNL     1       5.872  13.343  15.914  1.00  0.00     0.198 C 
HETATM   25  N10 UNL     1       7.062  11.656  13.376  1.00  0.00    -0.165 N 
ATOM     26  H10 UNL     1       7.732  12.424  13.353  1.00  0.00     0.186 HD
BRANCH  19  27
HETATM   27  N3  UNL     1       3.508   9.280  14.881  1.00  0.00    -0.231 N 
ATOM     28  H32 UNL     1       2.619   9.266  15.381  1.00  0.00     0.174 HD
ATOM     29  H31 UNL     1       3.599   8.376  14.418  1.00  0.00     0.174 HD
ENDBRANCH  19  27
ENDBRANCH  14  15
ENDBRANCH  13  14
ENDBRANCH  12  13
ENDBRANCH   1  12
TORSDOF 5
ENDMDL
MODEL 3
REMARK VINA RESULT: -5.859788640      5.502      6.850
REMARK  5 active torsions:
REMARK  status: ('A' for Active; 'I' for Inactive)
REMARK    1  A    between atoms: C2_5  and  N3_6 
REMARK    2  A    between atoms: C3_12  and  S1_13 
REMARK    3  A    between atoms: S1_13  and  C4_14 
REMARK    4  A    between atoms: C4_14  and  C5_15 
REMARK    5  A    between atoms: C5_15  and  N6_16 
ROOT
HETATM    1  N6  UNL     1      10.910   7.366   9.926  1.00  0.00    -0.374 N 
ATOM      2  H6  UNL     1      11.889   7.116  10.067  1.00  0.00     0.161 HD
HETATM    3  C6  UNL     1      10.240   6.721   9.039  1.00  0.00     0.118 A 
HETATM    4  C7  UNL     1       8.914   6.929   8.724  1.00  0.00     0.091 A 
HETATM    5  C8  UNL     1       8.580   6.027   7.719  1.00  0.00     0.132 A 
HETATM    6  C9  UNL     1       7.288   5.893   7.085  1.00  0.00     0.119 C 
HETATM    7  N7  UNL     1       6.257   5.804   6.574  1.00  0.00    -0.190 NA
HETATM    8  N8  UNL     1       9.696   5.312   7.464  1.00  0.00    -0.289 N 
ATOM      9  H8  UNL     1       9.775   4.566   6.773  1.00  0.00     0.188 HD
HETATM   10  N9  UNL     1      10.662   5.730   8.246  1.00  0.00    -0.285 N 
ATOM     11  H9  UNL     1      11.609   5.351   8.249  1.00  0.00     0.188 HD
ENDROOT
BRANCH   1  12
HETATM   12  C5  UNL     1      10.358   8.415  10.726  1.00  0.00     0.132 C 
BRANCH  12  13
HETATM   13  C4  UNL     1      11.352   9.569  10.910  1.00  0.00     0.102 C 
BRANCH  13  14
HETATM   14  S1  UNL     1      11.655  10.282   9.253  1.00  0.00    -0.090 SA
BRANCH  14  15
HETATM   15  C3  UNL     1      12.993   9.417   8.454  1.00  0.00     0.175 A 
HETATM   16  N5  UNL     1      13.836   8.535   9.010  1.00  0.00    -0.243 N 
HETATM   17  N4  UNL     1      14.700   8.101   8.108  1.00  0.00     0.094 N 
ATOM     18  H5  UNL     1      13.815   8.242   9.987  1.00  0.00     0.191 HD
HETATM   19  C2  UNL     1      15.748   7.286   7.909  1.00  0.00     0.727 A 
HETATM   20  C10 UNL     1      14.405   8.713   6.951  1.00  0.00     0.737 A 
HETATM   21  N2  UNL     1      16.095   7.411   6.607  1.00  0.00    -0.114 N 
HETATM   22  N1  UNL     1      15.294   8.268   6.016  1.00  0.00    -0.111 N 
ATOM     23  H2  UNL     1      16.862   6.915   6.153  1.00  0.00     0.206 HD
HETATM   24  C1  UNL     1      15.268   8.727   4.635  1.00  0.00     0.198 C 
HETATM   25  N10 UNL     1      13.355   9.524   7.167  1.00  0.00    -0.165 N 
ATOM     26  H10 UNL     1      12.909  10.119   6.469  1.00  0.00     0.186 HD
BRANCH  19  27
HETATM   27  N3  UNL     1      16.341   6.517   8.774  1.00  0.00    -0.231 N 
ATOM     28  H32 UNL     1      17.341   6.426   8.953  1.00  0.00     0.174 HD
ATOM     29  H31 UNL     1      15.869   5.876   9.411  1.00  0.00     0.174 HD
ENDBRANCH  19  27
ENDBRANCH  14  15
ENDBRANCH  13  14
ENDBRANCH  12  13
ENDBRANCH   1  12
TORSDOF 5
ENDMDL
MODEL 4
REMARK VINA RESULT: -5.834458744      5.249      6.229
REMARK  5 active torsions:
REMARK  status: ('A' for Active; 'I' for Inactive)
REMARK    1  A    between atoms: C2_5  and  N3_6 
REMARK    2  A    between atoms: C3_12  and  S1_13 
REMARK    3  A    between atoms: S1_13  and  C4_14 
REMARK    4  A    between atoms: C4_14  and  C5_15 
REMARK    5  A    between atoms: C5_15  and  N6_16 
ROOT
HETATM    1  N6  UNL     1      10.802   7.373  10.064  1.00  0.00    -0.374 N 
ATOM      2  H6  UNL     1      11.788   7.162  10.218  1.00  0.00     0.161 HD
HETATM    3  C6  UNL     1      10.180   6.734   9.139  1.00  0.00     0.118 A 
HETATM    4  C7  UNL     1       8.853   6.895   8.802  1.00  0.00     0.091 A 
HETATM    5  C8  UNL     1       8.580   6.019   7.757  1.00  0.00     0.132 A 
HETATM    6  C9  UNL     1       7.309   5.852   7.090  1.00  0.00     0.119 C 
HETATM    7  N7  UNL     1       6.295   5.738   6.553  1.00  0.00    -0.190 NA
HETATM    8  N8  UNL     1       9.733   5.364   7.499  1.00  0.00    -0.289 N 
ATOM      9  H8  UNL     1       9.860   4.650   6.783  1.00  0.00     0.188 HD
HETATM   10  N9  UNL     1      10.663   5.795   8.318  1.00  0.00    -0.285 N 
ATOM     11  H9  UNL     1      11.626   5.458   8.328  1.00  0.00     0.188 HD
ENDROOT
BRANCH   1  12
HETATM   12  C5  UNL     1      10.187   8.364  10.890  1.00  0.00     0.132 C 
BRANCH  12  13
HETATM   13  C4  UNL     1      10.814   9.749  10.676  1.00  0.00     0.102 C 
BRANCH  13  14
HETATM   14  S1  UNL     1       9.820  10.592   9.392  1.00  0.00    -0.090 SA
BRANCH  14  15
HETATM   15  C3  UNL     1      10.253   9.967   7.781  1.00  0.00     0.175 A 
HETATM   16  N5  UNL     1       9.422   9.483   6.847  1.00  0.00    -0.243 N 
HETATM   17  N4  UNL     1      10.104   9.112   5.777  1.00  0.00     0.094 N 
ATOM     18  H5  UNL     1       8.409   9.412   6.947  1.00  0.00     0.191 HD
HETATM   19  C2  UNL     1       9.998   8.588   4.547  1.00  0.00     0.727 A 
HETATM   20  C10 UNL     1      11.399   9.364   6.027  1.00  0.00     0.737 A 
HETATM   21  N2  UNL     1      11.253   8.518   4.043  1.00  0.00    -0.114 N 
HETATM   22  N1  UNL     1      12.108   8.984   4.925  1.00  0.00    -0.111 N 
ATOM     23  H2  UNL     1      11.498   8.159   3.121  1.00  0.00     0.206 HD
HETATM   24  C1  UNL     1      13.556   9.114   4.847  1.00  0.00     0.198 C 
HETATM   25  N10 UNL     1      11.488   9.889   7.261  1.00  0.00    -0.165 N 
ATOM     26  H10 UNL     1      12.349  10.179   7.724  1.00  0.00     0.186 HD
BRANCH  19  27
HETATM   27  N3  UNL     1       8.920   8.207   3.927  1.00  0.00    -0.231 N 
ATOM     28  H32 UNL     1       8.384   8.717   3.225  1.00  0.00     0.174 HD
ATOM     29  H31 UNL     1       8.446   7.315   4.067  1.00  0.00     0.174 HD
ENDBRANCH  19  27
ENDBRANCH  14  15
ENDBRANCH  13  14
ENDBRANCH  12  13
ENDBRANCH   1  12
TORSDOF 5
ENDMDL
MODEL 5
REMARK VINA RESULT: -5.828333630      2.330      7.392
REMARK  5 active torsions:
REMARK  status: ('A' for Active; 'I' for Inactive)
REMARK    1  A    between atoms: C2_5  and  N3_6 
REMARK    2  A    between atoms: C3_12  and  S1_13 
REMARK    3  A    between atoms: S1_13  and  C4_14 
REMARK    4  A    between atoms: C4_14  and  C5_15 
REMARK    5  A    between atoms: C5_15  and  N6_16 
ROOT
HETATM    1  N6  UNL     1      10.723   7.422  10.061  1.00  0.00    -0.374 N 
ATOM      2  H6  UNL     1      11.716   7.240  10.206  1.00  0.00     0.161 HD
HETATM    3  C6  UNL     1      10.120   6.787   9.121  1.00  0.00     0.118 A 
HETATM    4  C7  UNL     1       8.787   6.912   8.791  1.00  0.00     0.091 A 
HETATM    5  C8  UNL     1       8.541   6.054   7.724  1.00  0.00     0.132 A 
HETATM    6  C9  UNL     1       7.274   5.863   7.056  1.00  0.00     0.119 C 
HETATM    7  N7  UNL     1       6.262   5.728   6.518  1.00  0.00    -0.190 NA
HETATM    8  N8  UNL     1       9.714   5.446   7.447  1.00  0.00    -0.289 N 
ATOM      9  H8  UNL     1       9.863   4.755   6.712  1.00  0.00     0.188 HD
HETATM   10  N9  UNL     1      10.632   5.885   8.275  1.00  0.00    -0.285 N 
ATOM     11  H9  UNL     1      11.605   5.581   8.274  1.00  0.00     0.188 HD
ENDROOT
BRANCH   1  12
HETATM   12  C5  UNL     1      10.078   8.371  10.913  1.00  0.00     0.132 C 
BRANCH  12  13
HETATM   13  C4  UNL     1      11.095   9.219  11.689  1.00  0.00     0.102 C 
BRANCH  13  14
HETATM   14  S1  UNL     1      10.593  10.967  11.490  1.00  0.00    -0.090 SA
BRANCH  14  15
HETATM   15  C3  UNL     1       8.826  11.116  11.664  1.00  0.00     0.175 A 
HETATM   16  N5  UNL     1       8.044  10.504  12.564  1.00  0.00    -0.243 N 
HETATM   17  N4  UNL     1       6.782  10.857  12.387  1.00  0.00     0.094 N 
ATOM     18  H5  UNL     1       8.374   9.859  13.283  1.00  0.00     0.191 HD
HETATM   19  C2  UNL     1       5.531  10.690  12.843  1.00  0.00     0.727 A 
HETATM   20  C10 UNL     1       6.753  11.713  11.354  1.00  0.00     0.737 A 
HETATM   21  N2  UNL     1       4.729  11.458  12.069  1.00  0.00    -0.114 N 
HETATM   22  N1  UNL     1       5.453  12.082  11.167  1.00  0.00    -0.111 N 
ATOM     23  H2  UNL     1       3.718  11.540  12.170  1.00  0.00     0.206 HD
HETATM   24  C1  UNL     1       5.048  13.010  10.121  1.00  0.00     0.198 C 
HETATM   25  N10 UNL     1       8.011  11.871  10.910  1.00  0.00    -0.165 N 
ATOM     26  H10 UNL     1       8.299  12.463  10.132  1.00  0.00     0.186 HD
BRANCH  19  27
HETATM   27  N3  UNL     1       5.130   9.943  13.829  1.00  0.00    -0.231 N 
ATOM     28  H32 UNL     1       4.312   9.336  13.866  1.00  0.00     0.174 HD
ATOM     29  H31 UNL     1       5.596   9.862  14.733  1.00  0.00     0.174 HD
ENDBRANCH  19  27
ENDBRANCH  14  15
ENDBRANCH  13  14
ENDBRANCH  12  13
ENDBRANCH   1  12
TORSDOF 5
ENDMDL
