MODEL 1
REMARK VINA RESULT: -6.667760453      0.000      0.000
REMARK  5 active torsions:
REMARK  status: ('A' for Active; 'I' for Inactive)
REMARK    1  A    between atoms: C8_14  and  C9_15 
REMARK       I    between atoms: N2_16  and  C10_18 
REMARK    2  A    between atoms: C10_18  and  C11_20 
REMARK    3  A    between atoms: C15_25  and  C16_26 
REMARK    4  A    between atoms: C16_26  and  O4_28 
REMARK    5  A    between atoms: O4_28  and  C17_29 
ROOT
HETATM    1  C1  UNL     1       0.042  -9.670  23.743  1.00  0.00     0.028 C 
HETATM    2  C2  UNL     1       0.800  -9.149  22.815  1.00  0.00    -0.004 C 
HETATM    3  S1  UNL     1       1.357  -7.438  22.861  1.00  0.00    -0.070 SA
HETATM    4  C3  UNL     1       0.989  -6.967  21.185  1.00  0.00     0.107 C 
HETATM    5  N1  UNL     1       0.941  -5.810  20.717  1.00  0.00    -0.388 N 
ATOM      6  H11 UNL     1       0.730  -5.540  19.757  1.00  0.00     0.157 HD
ATOM      7  H12 UNL     1       1.104  -4.933  21.210  1.00  0.00     0.157 HD
HETATM    8  S2  UNL     1       0.704  -8.498  20.327  1.00  0.00    -0.088 SA
HETATM    9  C4  UNL     1       1.372  -9.717  21.574  1.00  0.00     0.065 C 
HETATM   10  C5  UNL     1       2.846  -9.484  21.543  1.00  0.00     0.073 C 
HETATM   11  C6  UNL     1       3.555 -10.692  21.990  1.00  0.00    -0.011 C 
HETATM   12  S3  UNL     1       4.527 -10.631  23.013  1.00  0.00    -0.089 SA
HETATM   13  C7  UNL     1       3.219 -11.963  21.335  1.00  0.00     0.057 C 
HETATM   14  C8  UNL     1       1.729 -12.238  21.394  1.00  0.00     0.044 C 
HETATM   15  C15 UNL     1       0.876 -11.048  21.175  1.00  0.00     0.119 C 
ENDROOT
BRANCH  14  16
HETATM   16  C9  UNL     1       1.379 -13.057  22.572  1.00  0.00     0.070 C 
HETATM   17  N2  UNL     1       0.204 -12.989  23.044  1.00  0.00    -0.335 N 
HETATM   18  C10 UNL     1      -0.309 -13.685  24.145  1.00  0.00     0.279 C 
ATOM     19  H2  UNL     1      -0.440 -12.356  22.569  1.00  0.00     0.168 HD
HETATM   20  O1  UNL     1      -1.398 -14.299  24.017  1.00  0.00    -0.265 OA
BRANCH  18  21
HETATM   21  C11 UNL     1       0.355 -13.735  25.435  1.00  0.00     0.142 A 
HETATM   22  C12 UNL     1       0.438 -12.685  26.322  1.00  0.00     0.045 A 
HETATM   23  C13 UNL     1       1.153 -13.135  27.440  1.00  0.00     0.027 A 
HETATM   24  C14 UNL     1       1.456 -14.441  27.143  1.00  0.00     0.143 A 
HETATM   25  O2  UNL     1       0.973 -14.752  25.967  1.00  0.00    -0.317 OA
ENDBRANCH  18  21
ENDBRANCH  14  16
BRANCH  15  26
HETATM   26  C16 UNL     1       0.512 -11.020  19.718  1.00  0.00     0.265 C 
HETATM   27  O3  UNL     1       1.395 -11.297  18.889  1.00  0.00    -0.265 OA
BRANCH  26  28
HETATM   28  O4  UNL     1      -0.737 -10.705  19.258  1.00  0.00    -0.321 OA
BRANCH  28  29
HETATM   29  C17 UNL     1      -1.074 -10.310  17.968  1.00  0.00     0.174 C 
HETATM   30  C18 UNL     1      -2.081  -9.231  17.849  1.00  0.00     0.034 C 
ENDBRANCH  28  29
ENDBRANCH  26  28
ENDBRANCH  15  26
TORSDOF 5
ENDMDL
MODEL 2
REMARK VINA RESULT: -6.633810885      3.303      6.798
REMARK  5 active torsions:
REMARK  status: ('A' for Active; 'I' for Inactive)
REMARK    1  A    between atoms: C8_14  and  C9_15 
REMARK       I    between atoms: N2_16  and  C10_18 
REMARK    2  A    between atoms: C10_18  and  C11_20 
REMARK    3  A    between atoms: C15_25  and  C16_26 
REMARK    4  A    between atoms: C16_26  and  O4_28 
REMARK    5  A    between atoms: O4_28  and  C17_29 
ROOT
HETATM    1  C1  UNL     1       4.280 -10.044  21.897  1.00  0.00     0.028 C 
HETATM    2  C2  UNL     1       3.242 -10.833  21.813  1.00  0.00    -0.004 C 
HETATM    3  S1  UNL     1       3.258 -12.530  22.412  1.00  0.00    -0.070 SA
HETATM    4  C3  UNL     1       2.525 -13.342  21.009  1.00  0.00     0.107 C 
HETATM    5  N1  UNL     1       2.512 -14.566  20.764  1.00  0.00    -0.388 N 
ATOM      6  H11 UNL     1       2.092 -15.032  19.960  1.00  0.00     0.157 HD
ATOM      7  H12 UNL     1       2.917 -15.317  21.323  1.00  0.00     0.157 HD
HETATM    8  S2  UNL     1       1.819 -12.033  20.035  1.00  0.00    -0.088 SA
HETATM    9  C4  UNL     1       1.885 -10.624  21.259  1.00  0.00     0.065 C 
HETATM   10  C5  UNL     1       0.859 -10.991  22.279  1.00  0.00     0.073 C 
HETATM   11  C6  UNL     1       0.372  -9.782  22.959  1.00  0.00    -0.011 C 
HETATM   12  S3  UNL     1       0.362  -9.692  24.369  1.00  0.00    -0.089 SA
HETATM   13  C7  UNL     1      -0.105  -8.673  22.123  1.00  0.00     0.057 C 
HETATM   14  C8  UNL     1       0.942  -8.257  21.107  1.00  0.00     0.044 C 
HETATM   15  C15 UNL     1       1.678  -9.382  20.488  1.00  0.00     0.119 C 
ENDROOT
BRANCH  14  16
HETATM   16  C9  UNL     1       1.784  -7.158  21.622  1.00  0.00     0.070 C 
HETATM   17  N2  UNL     1       1.226  -6.122  22.095  1.00  0.00    -0.335 N 
HETATM   18  C10 UNL     1       1.853  -4.988  22.625  1.00  0.00     0.279 C 
ATOM     19  H2  UNL     1       0.205  -6.114  22.089  1.00  0.00     0.168 HD
HETATM   20  O1  UNL     1       1.483  -4.564  23.749  1.00  0.00    -0.265 OA
BRANCH  18  21
HETATM   21  C11 UNL     1       2.913  -4.272  21.940  1.00  0.00     0.142 A 
HETATM   22  C12 UNL     1       2.889  -3.905  20.612  1.00  0.00     0.045 A 
HETATM   23  C13 UNL     1       4.090  -3.237  20.340  1.00  0.00     0.027 A 
HETATM   24  C14 UNL     1       4.763  -3.250  21.537  1.00  0.00     0.143 A 
HETATM   25  O2  UNL     1       4.043  -3.862  22.443  1.00  0.00    -0.317 OA
ENDBRANCH  18  21
ENDBRANCH  14  16
BRANCH  15  26
HETATM   26  C16 UNL     1       0.986  -9.715  19.198  1.00  0.00     0.265 C 
HETATM   27  O3  UNL     1       1.648  -9.665  18.149  1.00  0.00    -0.265 OA
BRANCH  26  28
HETATM   28  O4  UNL     1      -0.334 -10.067  19.119  1.00  0.00    -0.321 OA
BRANCH  28  29
HETATM   29  C17 UNL     1      -1.275  -9.573  18.223  1.00  0.00     0.174 C 
HETATM   30  C18 UNL     1      -1.872  -8.258  18.549  1.00  0.00     0.034 C 
ENDBRANCH  28  29
ENDBRANCH  26  28
ENDBRANCH  15  26
TORSDOF 5
ENDMDL
MODEL 3
REMARK VINA RESULT: -6.459998106      2.568      6.845
REMARK  5 active torsions:
REMARK  status: ('A' for Active; 'I' for Inactive)
REMARK    1  A    between atoms: C8_14  and  C9_15 
REMARK       I    between atoms: N2_16  and  C10_18 
REMARK    2  A    between atoms: C10_18  and  C11_20 
REMARK    3  A    between atoms: C15_25  and  C16_26 
REMARK    4  A    between atoms: C16_26  and  O4_28 
REMARK    5  A    between atoms: O4_28  and  C17_29 
ROOT
HETATM    1  C1  UNL     1       0.685 -13.771  22.452  1.00  0.00     0.028 C 
HETATM    2  C2  UNL     1       1.282 -13.305  23.517  1.00  0.00    -0.004 C 
HETATM    3  S1  UNL     1       2.351 -14.316  24.553  1.00  0.00    -0.070 SA
HETATM    4  C3  UNL     1       1.705 -13.878  26.153  1.00  0.00     0.107 C 
HETATM    5  N1  UNL     1       1.904 -14.465  27.236  1.00  0.00    -0.388 N 
ATOM      6  H11 UNL     1       1.534 -14.214  28.153  1.00  0.00     0.157 HD
ATOM      7  H12 UNL     1       2.472 -15.296  27.399  1.00  0.00     0.157 HD
HETATM    8  S2  UNL     1       0.714 -12.428  25.869  1.00  0.00    -0.088 SA
HETATM    9  C4  UNL     1       1.272 -11.966  24.148  1.00  0.00     0.065 C 
HETATM   10  C5  UNL     1       2.672 -11.488  24.344  1.00  0.00     0.073 C 
HETATM   11  C6  UNL     1       3.048 -10.572  23.258  1.00  0.00    -0.011 C 
HETATM   12  S3  UNL     1       4.231 -10.771  22.512  1.00  0.00    -0.089 SA
HETATM   13  C7  UNL     1       2.152  -9.443  22.976  1.00  0.00     0.057 C 
HETATM   14  C8  UNL     1       0.730  -9.914  22.730  1.00  0.00     0.044 C 
HETATM   15  C15 UNL     1       0.282 -11.005  23.625  1.00  0.00     0.119 C 
ENDROOT
BRANCH  14  16
HETATM   16  C9  UNL     1       0.476 -10.132  21.292  1.00  0.00     0.070 C 
HETATM   17  N2  UNL     1       1.122  -9.447  20.441  1.00  0.00    -0.335 N 
HETATM   18  C10 UNL     1       1.019  -9.514  19.047  1.00  0.00     0.279 C 
ATOM     19  H2  UNL     1       1.791  -8.773  20.814  1.00  0.00     0.168 HD
HETATM   20  O1  UNL     1       2.071  -9.629  18.369  1.00  0.00    -0.265 OA
BRANCH  18  21
HETATM   21  C11 UNL     1      -0.247  -9.457  18.338  1.00  0.00     0.142 A 
HETATM   22  C12 UNL     1      -1.211  -8.490  18.520  1.00  0.00     0.045 A 
HETATM   23  C13 UNL     1      -2.272  -8.788  17.655  1.00  0.00     0.027 A 
HETATM   24  C14 UNL     1      -1.869  -9.928  17.006  1.00  0.00     0.143 A 
HETATM   25  O2  UNL     1      -0.684 -10.285  17.432  1.00  0.00    -0.317 OA
ENDBRANCH  18  21
ENDBRANCH  14  16
BRANCH  15  26
HETATM   26  C16 UNL     1      -0.442 -10.370  24.777  1.00  0.00     0.265 C 
HETATM   27  O3  UNL     1      -1.582 -10.780  25.050  1.00  0.00    -0.265 OA
BRANCH  26  28
HETATM   28  O4  UNL     1       0.088  -9.365  25.540  1.00  0.00    -0.321 OA
BRANCH  28  29
HETATM   29  C17 UNL     1      -0.400  -8.069  25.664  1.00  0.00     0.174 C 
HETATM   30  C18 UNL     1       0.297  -7.023  24.882  1.00  0.00     0.034 C 
ENDBRANCH  28  29
ENDBRANCH  26  28
ENDBRANCH  15  26
TORSDOF 5
ENDMDL
MODEL 4
REMARK VINA RESULT: -6.419995189      2.893      7.170
REMARK  5 active torsions:
REMARK  status: ('A' for Active; 'I' for Inactive)
REMARK    1  A    between atoms: C8_14  and  C9_15 
REMARK       I    between atoms: N2_16  and  C10_18 
REMARK    2  A    between atoms: C10_18  and  C11_20 
REMARK    3  A    between atoms: C15_25  and  C16_26 
REMARK    4  A    between atoms: C16_26  and  O4_28 
REMARK    5  A    between atoms: O4_28  and  C17_29 
ROOT
HETATM    1  C1  UNL     1       0.567 -12.730  22.523  1.00  0.00     0.028 C 
HETATM    2  C2  UNL     1       0.958 -12.493  23.747  1.00  0.00    -0.004 C 
HETATM    3  S1  UNL     1       1.882 -13.691  24.722  1.00  0.00    -0.070 SA
HETATM    4  C3  UNL     1       0.961 -13.603  26.242  1.00  0.00     0.107 C 
HETATM    5  N1  UNL     1       1.003 -14.402  27.200  1.00  0.00    -0.388 N 
ATOM      6  H11 UNL     1       0.475 -14.352  28.072  1.00  0.00     0.157 HD
ATOM      7  H12 UNL     1       1.571 -15.245  27.283  1.00  0.00     0.157 HD
HETATM    8  S2  UNL     1      -0.030 -12.134  26.097  1.00  0.00    -0.088 SA
HETATM    9  C4  UNL     1       0.785 -11.317  24.628  1.00  0.00     0.065 C 
HETATM   10  C5  UNL     1       2.111 -10.880  25.156  1.00  0.00     0.073 C 
HETATM   11  C6  UNL     1       2.623  -9.754  24.362  1.00  0.00    -0.011 C 
HETATM   12  S3  UNL     1       3.921  -9.783  23.805  1.00  0.00    -0.089 SA
HETATM   13  C7  UNL     1       1.738  -8.598  24.168  1.00  0.00     0.057 C 
HETATM   14  C8  UNL     1       0.399  -9.017  23.591  1.00  0.00     0.044 C 
HETATM   15  C15 UNL     1      -0.144 -10.275  24.152  1.00  0.00     0.119 C 
ENDROOT
BRANCH  14  16
HETATM   16  C9  UNL     1       0.397  -8.930  22.117  1.00  0.00     0.070 C 
HETATM   17  N2  UNL     1       0.295  -7.792  21.565  1.00  0.00    -0.335 N 
HETATM   18  C10 UNL     1       0.276  -7.514  20.194  1.00  0.00     0.279 C 
ATOM     19  H2  UNL     1       0.217  -6.991  22.192  1.00  0.00     0.168 HD
HETATM   20  O1  UNL     1       1.045  -6.626  19.748  1.00  0.00    -0.265 OA
BRANCH  18  21
HETATM   21  C11 UNL     1      -0.591  -8.201  19.254  1.00  0.00     0.142 A 
HETATM   22  C12 UNL     1      -1.858  -7.791  18.902  1.00  0.00     0.045 A 
HETATM   23  C13 UNL     1      -2.357  -8.717  17.977  1.00  0.00     0.027 A 
HETATM   24  C14 UNL     1      -1.344  -9.633  17.836  1.00  0.00     0.143 A 
HETATM   25  O2  UNL     1      -0.333  -9.296  18.596  1.00  0.00    -0.317 OA
ENDBRANCH  18  21
ENDBRANCH  14  16
BRANCH  15  26
HETATM   26  C16 UNL     1      -1.076  -9.901  25.268  1.00  0.00     0.265 C 
HETATM   27  O3  UNL     1      -2.065 -10.624  25.473  1.00  0.00    -0.265 OA
BRANCH  26  28
HETATM   28  O4  UNL     1      -0.893  -8.807  26.070  1.00  0.00    -0.321 OA
BRANCH  28  29
HETATM   29  C17 UNL     1      -0.611  -8.810  27.431  1.00  0.00     0.174 C 
HETATM   30  C18 UNL     1       0.796  -8.555  27.815  1.00  0.00     0.034 C 
ENDBRANCH  28  29
ENDBRANCH  26  28
ENDBRANCH  15  26
TORSDOF 5
ENDMDL
MODEL 5
REMARK VINA RESULT: -6.392979559      3.417      6.354
REMARK  5 active torsions:
REMARK  status: ('A' for Active; 'I' for Inactive)
REMARK    1  A    between atoms: C8_14  and  C9_15 
REMARK       I    between atoms: N2_16  and  C10_18 
REMARK    2  A    between atoms: C10_18  and  C11_20 
REMARK    3  A    between atoms: C15_25  and  C16_26 
REMARK    4  A    between atoms: C16_26  and  O4_28 
REMARK    5  A    between atoms: O4_28  and  C17_29 
ROOT
HETATM    1  C1  UNL     1       4.436 -10.327  22.115  1.00  0.00     0.028 C 
HETATM    2  C2  UNL     1       3.424 -11.124  21.896  1.00  0.00    -0.004 C 
HETATM    3  S1  UNL     1       3.497 -12.895  22.206  1.00  0.00    -0.070 SA
HETATM    4  C3  UNL     1       2.788 -13.487  20.684  1.00  0.00     0.107 C 
HETATM    5  N1  UNL     1       2.816 -14.653  20.240  1.00  0.00    -0.388 N 
ATOM      6  H11 UNL     1       2.410 -14.992  19.367  1.00  0.00     0.157 HD
ATOM      7  H12 UNL     1       3.246 -15.473  20.668  1.00  0.00     0.157 HD
HETATM    8  S2  UNL     1       2.039 -12.058  19.937  1.00  0.00    -0.088 SA
HETATM    9  C4  UNL     1       2.061 -10.870  21.378  1.00  0.00     0.065 C 
HETATM   10  C5  UNL     1       1.049 -11.434  22.319  1.00  0.00     0.073 C 
HETATM   11  C6  UNL     1       0.523 -10.371  23.188  1.00  0.00    -0.011 C 
HETATM   12  S3  UNL     1       0.512 -10.517  24.593  1.00  0.00    -0.089 SA
HETATM   13  C7  UNL     1       0.009  -9.155  22.545  1.00  0.00     0.057 C 
HETATM   14  C8  UNL     1       1.041  -8.542  21.617  1.00  0.00     0.044 C 
HETATM   15  C15 UNL     1       1.813  -9.525  20.823  1.00  0.00     0.119 C 
ENDROOT
BRANCH  14  16
HETATM   16  C9  UNL     1       1.847  -7.517  22.310  1.00  0.00     0.070 C 
HETATM   17  N2  UNL     1       1.415  -7.021  23.395  1.00  0.00    -0.335 N 
HETATM   18  C10 UNL     1       2.035  -6.048  24.187  1.00  0.00     0.279 C 
ATOM     19  H2  UNL     1       0.516  -7.371  23.726  1.00  0.00     0.168 HD
HETATM   20  O1  UNL     1       2.157  -6.263  25.420  1.00  0.00    -0.265 OA
BRANCH  18  21
HETATM   21  C11 UNL     1       2.545  -4.797  23.658  1.00  0.00     0.142 A 
HETATM   22  C12 UNL     1       1.805  -3.880  22.946  1.00  0.00     0.045 A 
HETATM   23  C13 UNL     1       2.657  -2.817  22.618  1.00  0.00     0.027 A 
HETATM   24  C14 UNL     1       3.866  -3.174  23.161  1.00  0.00     0.143 A 
HETATM   25  O2  UNL     1       3.759  -4.333  23.759  1.00  0.00    -0.317 OA
ENDBRANCH  18  21
ENDBRANCH  14  16
BRANCH  15  26
HETATM   26  C16 UNL     1       1.130  -9.661  19.493  1.00  0.00     0.265 C 
HETATM   27  O3  UNL     1       1.805  -9.477  18.467  1.00  0.00    -0.265 OA
BRANCH  26  28
HETATM   28  O4  UNL     1      -0.194  -9.976  19.353  1.00  0.00    -0.321 OA
BRANCH  28  29
HETATM   29  C17 UNL     1      -1.114  -9.351  18.519  1.00  0.00     0.174 C 
HETATM   30  C18 UNL     1      -1.550  -7.993  18.915  1.00  0.00     0.034 C 
ENDBRANCH  28  29
ENDBRANCH  26  28
ENDBRANCH  15  26
TORSDOF 5
ENDMDL
