MODEL 1
REMARK VINA RESULT: -7.153312811      0.000      0.000
REMARK  7 active torsions:
REMARK  status: ('A' for Active; 'I' for Inactive)
REMARK    1  A    between atoms: C2_2  and  N1_4 
REMARK    2  A    between atoms: N1_4  and  C3_6 
REMARK    3  A    between atoms: C6_9  and  N2_10 
REMARK    4  A    between atoms: N2_10  and  C7_12 
REMARK    5  A    between atoms: C9_17  and  C10_18 
REMARK    6  A    between atoms: C10_18  and  C11_19 
REMARK    7  A    between atoms: C11_19  and  O1_20 
ROOT
HETATM    1  N2  UNL     1      20.246  13.339   3.133  1.00  0.00    -0.221 N 
ATOM      2  H2  UNL     1      20.640  14.268   3.284  1.00  0.00     0.178 HD
ENDROOT
BRANCH   1   3
HETATM    3  C6  UNL     1      20.082  12.559   4.294  1.00  0.00     0.099 C 
HETATM    4  C5  UNL     1      20.149  11.081   4.117  1.00  0.00     0.028 C 
HETATM    5  C4  UNL     1      19.515  10.437   5.336  1.00  0.00     0.027 C 
HETATM    6  C3  UNL     1      20.057  10.927   6.636  1.00  0.00     0.082 C 
HETATM    7  C13 UNL     1      20.305  12.414   6.703  1.00  0.00     0.027 C 
HETATM    8  C12 UNL     1      21.020  12.915   5.439  1.00  0.00     0.028 C 
BRANCH   6   9
HETATM    9  N1  UNL     1      19.166  10.551   7.699  1.00  0.00    -0.380 N 
ATOM     10  H1  UNL     1      19.068  11.228   8.456  1.00  0.00     0.160 HD
BRANCH   9  11
HETATM   11  C2  UNL     1      18.416   9.381   7.831  1.00  0.00     0.069 C 
HETATM   12  C1  UNL     1      19.128   8.091   8.187  1.00  0.00     0.081 C 
HETATM   13  S1  UNL     1      16.805   9.219   7.646  1.00  0.00    -0.066 SA
ENDBRANCH   9  11
ENDBRANCH   6   9
ENDBRANCH   1   3
BRANCH   1  14
HETATM   14  C7  UNL     1      19.977  13.055   1.930  1.00  0.00     0.679 A 
HETATM   15  N3  UNL     1      18.808  12.969   1.280  1.00  0.00    -0.183 N 
HETATM   16  C8  UNL     1      19.005  12.632  -0.010  1.00  0.00     0.119 A 
ATOM     17  H3  UNL     1      17.896  13.136   1.704  1.00  0.00     0.185 HD
HETATM   18 BR1  UNL     1      17.611  12.376  -1.310  1.00  0.00    -0.029 Br
HETATM   19  C9  UNL     1      20.343  12.498  -0.194  1.00  0.00     0.063 A 
HETATM   20  N4  UNL     1      20.909  12.763   1.009  1.00  0.00    -0.193 N 
ATOM     21  H4  UNL     1      21.913  12.743   1.191  1.00  0.00     0.184 HD
BRANCH  19  22
HETATM   22  C10 UNL     1      21.047  12.152  -1.455  1.00  0.00     0.086 C 
BRANCH  22  23
HETATM   23  C11 UNL     1      21.442  10.707  -1.518  1.00  0.00     0.170 C 
BRANCH  23  24
HETATM   24  O1  UNL     1      22.163  10.296  -0.436  1.00  0.00    -0.400 OA
ATOM     25  H1  UNL     1      22.048   9.374  -0.236  1.00  0.00     0.209 HD
ENDBRANCH  23  24
ENDBRANCH  22  23
ENDBRANCH  19  22
ENDBRANCH   1  14
TORSDOF 7
ENDMDL
MODEL 2
REMARK VINA RESULT: -7.056995896      1.719      2.163
REMARK  7 active torsions:
REMARK  status: ('A' for Active; 'I' for Inactive)
REMARK    1  A    between atoms: C2_2  and  N1_4 
REMARK    2  A    between atoms: N1_4  and  C3_6 
REMARK    3  A    between atoms: C6_9  and  N2_10 
REMARK    4  A    between atoms: N2_10  and  C7_12 
REMARK    5  A    between atoms: C9_17  and  C10_18 
REMARK    6  A    between atoms: C10_18  and  C11_19 
REMARK    7  A    between atoms: C11_19  and  O1_20 
ROOT
HETATM    1  N2  UNL     1      20.801  13.448   3.854  1.00  0.00    -0.221 N 
ATOM      2  H2  UNL     1      20.965  14.290   4.405  1.00  0.00     0.178 HD
ENDROOT
BRANCH   1   3
HETATM    3  C6  UNL     1      20.502  12.291   4.599  1.00  0.00     0.099 C 
HETATM    4  C5  UNL     1      20.140  12.497   6.031  1.00  0.00     0.028 C 
HETATM    5  C4  UNL     1      20.302  11.170   6.747  1.00  0.00     0.027 C 
HETATM    6  C3  UNL     1      19.596  10.032   6.090  1.00  0.00     0.082 C 
HETATM    7  C13 UNL     1      19.690  10.008   4.584  1.00  0.00     0.027 C 
HETATM    8  C12 UNL     1      19.429  11.400   3.990  1.00  0.00     0.028 C 
BRANCH   6   9
HETATM    9  N1  UNL     1      20.100   8.791   6.612  1.00  0.00    -0.380 N 
ATOM     10  H1  UNL     1      21.110   8.745   6.749  1.00  0.00     0.160 HD
BRANCH   9  11
HETATM   11  C2  UNL     1      19.388   7.640   6.956  1.00  0.00     0.069 C 
HETATM   12  C1  UNL     1      20.139   6.462   7.546  1.00  0.00     0.081 C 
HETATM   13  S1  UNL     1      17.785   7.393   6.801  1.00  0.00    -0.066 SA
ENDBRANCH   9  11
ENDBRANCH   6   9
ENDBRANCH   1   3
BRANCH   1  14
HETATM   14  C7  UNL     1      20.896  13.593   2.601  1.00  0.00     0.679 A 
HETATM   15  N3  UNL     1      21.074  14.686   1.847  1.00  0.00    -0.183 N 
HETATM   16  C8  UNL     1      21.116  14.360   0.539  1.00  0.00     0.119 A 
ATOM     17  H3  UNL     1      21.164  15.634   2.212  1.00  0.00     0.185 HD
HETATM   18 BR1  UNL     1      21.333  15.612  -0.905  1.00  0.00    -0.029 Br
HETATM   19  C9  UNL     1      20.961  13.014   0.452  1.00  0.00     0.063 A 
HETATM   20  N4  UNL     1      20.830  12.575   1.728  1.00  0.00    -0.193 N 
ATOM     21  H4  UNL     1      20.698  11.598   1.991  1.00  0.00     0.184 HD
BRANCH  19  22
HETATM   22  C10 UNL     1      20.956  12.188  -0.782  1.00  0.00     0.086 C 
BRANCH  22  23
HETATM   23  C11 UNL     1      20.981  10.717  -0.492  1.00  0.00     0.170 C 
BRANCH  23  24
HETATM   24  O1  UNL     1      22.213  10.259  -0.126  1.00  0.00    -0.400 OA
ATOM     25  H1  UNL     1      22.206   9.773   0.690  1.00  0.00     0.209 HD
ENDBRANCH  23  24
ENDBRANCH  22  23
ENDBRANCH  19  22
ENDBRANCH   1  14
TORSDOF 7
ENDMDL
MODEL 3
REMARK VINA RESULT: -7.041582831      2.583      3.232
REMARK  7 active torsions:
REMARK  status: ('A' for Active; 'I' for Inactive)
REMARK    1  A    between atoms: C2_2  and  N1_4 
REMARK    2  A    between atoms: N1_4  and  C3_6 
REMARK    3  A    between atoms: C6_9  and  N2_10 
REMARK    4  A    between atoms: N2_10  and  C7_12 
REMARK    5  A    between atoms: C9_17  and  C10_18 
REMARK    6  A    between atoms: C10_18  and  C11_19 
REMARK    7  A    between atoms: C11_19  and  O1_20 
ROOT
HETATM    1  N2  UNL     1      20.197  12.110   5.157  1.00  0.00    -0.221 N 
ATOM      2  H2  UNL     1      20.646  12.697   5.860  1.00  0.00     0.178 HD
ENDROOT
BRANCH   1   3
HETATM    3  C6  UNL     1      19.695  10.883   5.630  1.00  0.00     0.099 C 
HETATM    4  C5  UNL     1      19.916   9.693   4.759  1.00  0.00     0.028 C 
HETATM    5  C4  UNL     1      18.945   8.612   5.193  1.00  0.00     0.027 C 
HETATM    6  C3  UNL     1      18.971   8.319   6.656  1.00  0.00     0.082 C 
HETATM    7  C13 UNL     1      19.082   9.532   7.547  1.00  0.00     0.027 C 
HETATM    8  C12 UNL     1      20.155  10.503   7.031  1.00  0.00     0.028 C 
BRANCH   6   9
HETATM    9  N1  UNL     1      17.795   7.576   7.017  1.00  0.00    -0.380 N 
ATOM     10  H1  UNL     1      17.914   6.566   7.093  1.00  0.00     0.160 HD
BRANCH   9  11
HETATM   11  C2  UNL     1      16.510   8.057   7.277  1.00  0.00     0.069 C 
HETATM   12  C1  UNL     1      16.044   8.159   8.717  1.00  0.00     0.081 C 
HETATM   13  S1  UNL     1      15.404   8.547   6.186  1.00  0.00    -0.066 SA
ENDBRANCH   9  11
ENDBRANCH   6   9
ENDBRANCH   1   3
BRANCH   1  14
HETATM   14  C7  UNL     1      20.173  12.590   3.986  1.00  0.00     0.679 A 
HETATM   15  N3  UNL     1      20.901  13.556   3.410  1.00  0.00    -0.183 N 
HETATM   16  C8  UNL     1      20.523  13.736   2.128  1.00  0.00     0.119 A 
ATOM     17  H3  UNL     1      21.638  14.083   3.877  1.00  0.00     0.185 HD
HETATM   18 BR1  UNL     1      21.279  15.031   0.925  1.00  0.00    -0.029 Br
HETATM   19  C9  UNL     1      19.521  12.855   1.875  1.00  0.00     0.063 A 
HETATM   20  N4  UNL     1      19.331  12.170   3.029  1.00  0.00    -0.193 N 
ATOM     21  H4  UNL     1      18.638  11.432   3.153  1.00  0.00     0.184 HD
BRANCH  19  22
HETATM   22  C10 UNL     1      18.794  12.666   0.593  1.00  0.00     0.086 C 
BRANCH  22  23
HETATM   23  C11 UNL     1      17.410  12.125   0.789  1.00  0.00     0.170 C 
BRANCH  23  24
HETATM   24  O1  UNL     1      16.664  12.853   1.670  1.00  0.00    -0.400 OA
ATOM     25  H1  UNL     1      15.810  12.474   1.843  1.00  0.00     0.209 HD
ENDBRANCH  23  24
ENDBRANCH  22  23
ENDBRANCH  19  22
ENDBRANCH   1  14
TORSDOF 7
ENDMDL
MODEL 4
REMARK VINA RESULT: -7.033400370      2.470      2.973
REMARK  7 active torsions:
REMARK  status: ('A' for Active; 'I' for Inactive)
REMARK    1  A    between atoms: C2_2  and  N1_4 
REMARK    2  A    between atoms: N1_4  and  C3_6 
REMARK    3  A    between atoms: C6_9  and  N2_10 
REMARK    4  A    between atoms: N2_10  and  C7_12 
REMARK    5  A    between atoms: C9_17  and  C10_18 
REMARK    6  A    between atoms: C10_18  and  C11_19 
REMARK    7  A    between atoms: C11_19  and  O1_20 
ROOT
HETATM    1  N2  UNL     1      20.844  13.490   3.784  1.00  0.00    -0.221 N 
ATOM      2  H2  UNL     1      21.088  14.365   4.249  1.00  0.00     0.178 HD
ENDROOT
BRANCH   1   3
HETATM    3  C6  UNL     1      20.561  12.411   4.643  1.00  0.00     0.099 C 
HETATM    4  C5  UNL     1      20.261  12.752   6.063  1.00  0.00     0.028 C 
HETATM    5  C4  UNL     1      20.436  11.493   6.890  1.00  0.00     0.027 C 
HETATM    6  C3  UNL     1      19.690  10.311   6.369  1.00  0.00     0.082 C 
HETATM    7  C13 UNL     1      19.720  10.149   4.869  1.00  0.00     0.027 C 
HETATM    8  C12 UNL     1      19.452  11.486   4.161  1.00  0.00     0.028 C 
BRANCH   6   9
HETATM    9  N1  UNL     1      20.199   9.114   6.981  1.00  0.00    -0.380 N 
ATOM     10  H1  UNL     1      21.214   9.053   7.057  1.00  0.00     0.160 HD
BRANCH   9  11
HETATM   11  C2  UNL     1      19.486   8.025   7.485  1.00  0.00     0.069 C 
HETATM   12  C1  UNL     1      20.148   6.661   7.505  1.00  0.00     0.081 C 
HETATM   13  S1  UNL     1      17.970   8.035   8.084  1.00  0.00    -0.066 SA
ENDBRANCH   9  11
ENDBRANCH   6   9
ENDBRANCH   1   3
BRANCH   1  14
HETATM   14  C7  UNL     1      20.838  13.533   2.519  1.00  0.00     0.679 A 
HETATM   15  N3  UNL     1      20.724  12.564   1.601  1.00  0.00    -0.183 N 
HETATM   16  C8  UNL     1      20.771  13.081   0.356  1.00  0.00     0.119 A 
ATOM     17  H3  UNL     1      20.616  11.573   1.814  1.00  0.00     0.185 HD
HETATM   18 BR1  UNL     1      20.666  12.058  -1.268  1.00  0.00    -0.029 Br
HETATM   19  C9  UNL     1      20.919  14.424   0.482  1.00  0.00     0.063 A 
HETATM   20  N4  UNL     1      20.957  14.669   1.814  1.00  0.00    -0.193 N 
ATOM     21  H4  UNL     1      21.061  15.596   2.227  1.00  0.00     0.184 HD
BRANCH  19  22
HETATM   22  C10 UNL     1      21.004  15.425  -0.613  1.00  0.00     0.086 C 
BRANCH  22  23
HETATM   23  C11 UNL     1      21.309  16.805  -0.112  1.00  0.00     0.170 C 
BRANCH  23  24
HETATM   24  O1  UNL     1      20.309  17.700  -0.355  1.00  0.00    -0.400 OA
ATOM     25  H1  UNL     1      20.109  18.252   0.392  1.00  0.00     0.209 HD
ENDBRANCH  23  24
ENDBRANCH  22  23
ENDBRANCH  19  22
ENDBRANCH   1  14
TORSDOF 7
ENDMDL
MODEL 5
REMARK VINA RESULT: -7.020007120      4.916      7.568
REMARK  7 active torsions:
REMARK  status: ('A' for Active; 'I' for Inactive)
REMARK    1  A    between atoms: C2_2  and  N1_4 
REMARK    2  A    between atoms: N1_4  and  C3_6 
REMARK    3  A    between atoms: C6_9  and  N2_10 
REMARK    4  A    between atoms: N2_10  and  C7_12 
REMARK    5  A    between atoms: C9_17  and  C10_18 
REMARK    6  A    between atoms: C10_18  and  C11_19 
REMARK    7  A    between atoms: C11_19  and  O1_20 
ROOT
HETATM    1  N2  UNL     1      18.722   8.998   3.275  1.00  0.00    -0.221 N 
ATOM      2  H2  UNL     1      18.867   8.205   2.650  1.00  0.00     0.178 HD
ENDROOT
BRANCH   1   3
HETATM    3  C6  UNL     1      19.276  10.217   2.839  1.00  0.00     0.099 C 
HETATM    4  C5  UNL     1      19.921  11.065   3.881  1.00  0.00     0.028 C 
HETATM    5  C4  UNL     1      20.035  12.473   3.329  1.00  0.00     0.027 C 
HETATM    6  C3  UNL     1      20.678  12.552   1.986  1.00  0.00     0.082 C 
HETATM    7  C13 UNL     1      20.262  11.473   1.016  1.00  0.00     0.027 C 
HETATM    8  C12 UNL     1      20.266  10.092   1.689  1.00  0.00     0.028 C 
BRANCH   6   9
HETATM    9  N1  UNL     1      20.410  13.838   1.401  1.00  0.00    -0.380 N 
ATOM     10  H1  UNL     1      19.436  14.021   1.161  1.00  0.00     0.160 HD
BRANCH   9  11
HETATM   11  C2  UNL     1      21.310  14.868   1.118  1.00  0.00     0.069 C 
HETATM   12  C1  UNL     1      22.607  14.942   1.900  1.00  0.00     0.081 C 
HETATM   13  S1  UNL     1      21.136  16.047   0.007  1.00  0.00    -0.066 SA
ENDBRANCH   9  11
ENDBRANCH   6   9
ENDBRANCH   1   3
BRANCH   1  14
HETATM   14  C7  UNL     1      18.071   8.743   4.330  1.00  0.00     0.679 A 
HETATM   15  N3  UNL     1      18.477   8.393   5.558  1.00  0.00    -0.183 N 
HETATM   16  C8  UNL     1      17.420   8.220   6.377  1.00  0.00     0.119 A 
ATOM     17  H3  UNL     1      19.451   8.272   5.835  1.00  0.00     0.185 HD
HETATM   18 BR1  UNL     1      17.527   7.694   8.223  1.00  0.00    -0.029 Br
HETATM   19  C9  UNL     1      16.300   8.470   5.650  1.00  0.00     0.063 A 
HETATM   20  N4  UNL     1      16.732   8.786   4.405  1.00  0.00    -0.193 N 
ATOM     21  H4  UNL     1      16.118   9.026   3.626  1.00  0.00     0.184 HD
BRANCH  19  22
HETATM   22  C10 UNL     1      14.893   8.424   6.123  1.00  0.00     0.086 C 
BRANCH  22  23
HETATM   23  C11 UNL     1      13.929   8.060   5.035  1.00  0.00     0.170 C 
BRANCH  23  24
HETATM   24  O1  UNL     1      13.498   9.134   4.313  1.00  0.00    -0.400 OA
ATOM     25  H1  UNL     1      13.081   9.802   4.845  1.00  0.00     0.209 HD
ENDBRANCH  23  24
ENDBRANCH  22  23
ENDBRANCH  19  22
ENDBRANCH   1  14
TORSDOF 7
ENDMDL
