MODEL 1
REMARK VINA RESULT: -6.167862716      0.000      0.000
REMARK  2 active torsions:
REMARK  status: ('A' for Active; 'I' for Inactive)
REMARK    1  A    between atoms: C2_3  and  O1_4 
REMARK    2  A    between atoms: O1_4  and  O2_5 
ROOT
HETATM    1  N1  UNL     1       6.835  45.756  19.035  1.00  0.00    -0.194 NA
HETATM    2  C1  UNL     1       7.270  45.077  18.202  1.00  0.00     0.101 C 
HETATM    3  C2  UNL     1       7.811  44.206  17.134  1.00  0.00     0.183 C 
HETATM    4  C3  UNL     1       7.088  42.921  17.136  1.00  0.00     0.057 C 
HETATM    5  C4  UNL     1       7.705  41.795  17.855  1.00  0.00     0.004 C 
HETATM    6  C5  UNL     1       9.181  41.681  17.778  1.00  0.00     0.000 C 
HETATM    7  C6  UNL     1       9.879  42.780  17.072  1.00  0.00     0.004 C 
HETATM    8  C7  UNL     1       9.289  44.135  17.272  1.00  0.00     0.057 C 
ENDROOT
BRANCH   3   9
HETATM    9  O1  UNL     1       7.492  44.876  15.928  1.00  0.00    -0.217 OA
BRANCH   9  10
HETATM   10  O2  UNL     1       7.803  46.156  16.027  1.00  0.00    -0.249 OA
ATOM     11  H2  UNL     1       7.020  46.669  16.189  1.00  0.00     0.253 HD
ENDBRANCH   9  10
ENDBRANCH   3   9
TORSDOF 2
ENDMDL
MODEL 2
REMARK VINA RESULT: -6.125312992      2.101      2.851
REMARK  2 active torsions:
REMARK  status: ('A' for Active; 'I' for Inactive)
REMARK    1  A    between atoms: C2_3  and  O1_4 
REMARK    2  A    between atoms: O1_4  and  O2_5 
ROOT
HETATM    1  N1  UNL     1       7.538  43.427  15.246  1.00  0.00    -0.194 NA
HETATM    2  C1  UNL     1       8.066  43.208  16.254  1.00  0.00     0.101 C 
HETATM    3  C2  UNL     1       8.748  42.939  17.541  1.00  0.00     0.183 C 
HETATM    4  C3  UNL     1      10.208  42.924  17.326  1.00  0.00     0.057 C 
HETATM    5  C4  UNL     1      10.852  41.615  17.135  1.00  0.00     0.004 C 
HETATM    6  C5  UNL     1      10.327  40.487  17.941  1.00  0.00     0.000 C 
HETATM    7  C6  UNL     1       9.138  40.783  18.771  1.00  0.00     0.004 C 
HETATM    8  C7  UNL     1       8.156  41.724  18.156  1.00  0.00     0.057 C 
ENDROOT
BRANCH   3   9
HETATM    9  O1  UNL     1       8.446  44.061  18.349  1.00  0.00    -0.217 OA
BRANCH   9  10
HETATM   10  O2  UNL     1       8.753  45.175  17.708  1.00  0.00    -0.249 OA
ATOM     11  H2  UNL     1       8.255  45.902  18.065  1.00  0.00     0.253 HD
ENDBRANCH   9  10
ENDBRANCH   3   9
TORSDOF 2
ENDMDL
MODEL 3
REMARK VINA RESULT: -6.079763210      1.466      1.959
REMARK  2 active torsions:
REMARK  status: ('A' for Active; 'I' for Inactive)
REMARK    1  A    between atoms: C2_3  and  O1_4 
REMARK    2  A    between atoms: O1_4  and  O2_5 
ROOT
HETATM    1  N1  UNL     1       7.557  44.338  19.019  1.00  0.00    -0.194 NA
HETATM    2  C1  UNL     1       8.071  43.559  18.331  1.00  0.00     0.101 C 
HETATM    3  C2  UNL     1       8.715  42.557  17.452  1.00  0.00     0.183 C 
HETATM    4  C3  UNL     1       8.390  41.201  17.935  1.00  0.00     0.057 C 
HETATM    5  C4  UNL     1       9.377  40.533  18.798  1.00  0.00     0.004 C 
HETATM    6  C5  UNL     1      10.807  40.756  18.476  1.00  0.00     0.000 C 
HETATM    7  C6  UNL     1      11.082  41.716  17.383  1.00  0.00     0.004 C 
HETATM    8  C7  UNL     1      10.158  42.886  17.322  1.00  0.00     0.057 C 
ENDROOT
BRANCH   3   9
HETATM    9  O1  UNL     1       8.087  42.726  16.194  1.00  0.00    -0.217 OA
BRANCH   9  10
HETATM   10  O2  UNL     1       7.786  43.999  16.008  1.00  0.00    -0.249 OA
ATOM     11  H2  UNL     1       7.648  44.168  15.083  1.00  0.00     0.253 HD
ENDBRANCH   9  10
ENDBRANCH   3   9
TORSDOF 2
ENDMDL
MODEL 4
REMARK VINA RESULT: -5.911223132      2.036      2.700
REMARK  2 active torsions:
REMARK  status: ('A' for Active; 'I' for Inactive)
REMARK    1  A    between atoms: C2_3  and  O1_4 
REMARK    2  A    between atoms: O1_4  and  O2_5 
ROOT
HETATM    1  N1  UNL     1       6.937  43.681  14.458  1.00  0.00    -0.194 NA
HETATM    2  C1  UNL     1       7.219  43.449  15.558  1.00  0.00     0.101 C 
HETATM    3  C2  UNL     1       7.581  43.167  16.965  1.00  0.00     0.183 C 
HETATM    4  C3  UNL     1       8.899  43.762  17.260  1.00  0.00     0.057 C 
HETATM    5  C4  UNL     1      10.076  42.885  17.169  1.00  0.00     0.004 C 
HETATM    6  C5  UNL     1       9.906  41.486  17.629  1.00  0.00     0.000 C 
HETATM    7  C6  UNL     1       8.534  41.099  18.030  1.00  0.00     0.004 C 
HETATM    8  C7  UNL     1       7.442  41.709  17.216  1.00  0.00     0.057 C 
ENDROOT
BRANCH   3   9
HETATM    9  O1  UNL     1       6.615  43.862  17.732  1.00  0.00    -0.217 OA
BRANCH   9  10
HETATM   10  O2  UNL     1       6.229  44.950  17.091  1.00  0.00    -0.249 OA
ATOM     11  H2  UNL     1       6.652  44.993  16.241  1.00  0.00     0.253 HD
ENDBRANCH   9  10
ENDBRANCH   3   9
TORSDOF 2
ENDMDL
MODEL 5
REMARK VINA RESULT: -5.854629134      1.058      1.225
REMARK  2 active torsions:
REMARK  status: ('A' for Active; 'I' for Inactive)
REMARK    1  A    between atoms: C2_3  and  O1_4 
REMARK    2  A    between atoms: O1_4  and  O2_5 
ROOT
HETATM    1  N1  UNL     1       6.922  44.990  19.615  1.00  0.00    -0.194 NA
HETATM    2  C1  UNL     1       7.331  44.370  18.725  1.00  0.00     0.101 C 
HETATM    3  C2  UNL     1       7.840  43.573  17.586  1.00  0.00     0.183 C 
HETATM    4  C3  UNL     1       7.550  42.145  17.820  1.00  0.00     0.057 C 
HETATM    5  C4  UNL     1       8.621  41.320  18.398  1.00  0.00     0.004 C 
HETATM    6  C5  UNL     1      10.004  41.611  17.952  1.00  0.00     0.000 C 
HETATM    7  C6  UNL     1      10.163  42.776  17.052  1.00  0.00     0.004 C 
HETATM    8  C7  UNL     1       9.263  43.929  17.346  1.00  0.00     0.057 C 
ENDROOT
BRANCH   3   9
HETATM    9  O1  UNL     1       7.066  43.993  16.478  1.00  0.00    -0.217 OA
BRANCH   9  10
HETATM   10  O2  UNL     1       5.847  44.313  16.875  1.00  0.00    -0.249 OA
ATOM     11  H2  UNL     1       5.237  44.228  16.151  1.00  0.00     0.253 HD
ENDBRANCH   9  10
ENDBRANCH   3   9
TORSDOF 2
ENDMDL
