MODEL 1
REMARK VINA RESULT: -5.520273859      0.000      0.000
REMARK  1 active torsions:
REMARK  status: ('A' for Active; 'I' for Inactive)
REMARK    1  A    between atoms: S1_3  and  C2_4 
ROOT
HETATM    1  N1  UNL     1       7.810  46.032  16.412  1.00  0.00    -0.184 NA
HETATM    2  C1  UNL     1       7.583  45.002  16.881  1.00  0.00     0.135 C 
HETATM    3  S1  UNL     1       7.233  43.432  17.630  1.00  0.00    -0.027 SA
ENDROOT
BRANCH   3   4
HETATM    4  C2  UNL     1       8.782  42.626  17.974  1.00  0.00     0.182 C 
HETATM    5  C3  UNL     1       8.720  41.097  17.828  1.00  0.00     0.037 C 
HETATM    6  C4  UNL     1      10.026  40.633  18.492  1.00  0.00     0.031 C 
HETATM    7  C5  UNL     1      11.141  41.260  17.681  1.00  0.00     0.196 C 
HETATM    8  O1  UNL     1      11.005  42.640  17.667  1.00  0.00    -0.285 OA
HETATM    9  N2  UNL     1       9.859  43.053  17.086  1.00  0.00    -0.085 NA
ENDBRANCH   3   4
TORSDOF 1
ENDMDL
MODEL 2
REMARK VINA RESULT: -5.468725010      2.604      4.291
REMARK  1 active torsions:
REMARK  status: ('A' for Active; 'I' for Inactive)
REMARK    1  A    between atoms: S1_3  and  C2_4 
ROOT
HETATM    1  N1  UNL     1      11.250  39.608  19.807  1.00  0.00    -0.184 NA
HETATM    2  C1  UNL     1      11.257  40.382  18.951  1.00  0.00     0.135 C 
HETATM    3  S1  UNL     1      11.271  41.595  17.655  1.00  0.00    -0.027 SA
ENDROOT
BRANCH   3   4
HETATM    4  C2  UNL     1       9.585  42.051  17.308  1.00  0.00     0.182 C 
HETATM    5  C3  UNL     1       8.554  41.131  17.978  1.00  0.00     0.037 C 
HETATM    6  C4  UNL     1       7.243  41.505  17.268  1.00  0.00     0.031 C 
HETATM    7  C5  UNL     1       7.017  42.971  17.574  1.00  0.00     0.196 C 
HETATM    8  O1  UNL     1       8.098  43.723  17.141  1.00  0.00    -0.285 OA
HETATM    9  N2  UNL     1       9.252  43.397  17.761  1.00  0.00    -0.085 NA
ENDBRANCH   3   4
TORSDOF 1
ENDMDL
MODEL 3
REMARK VINA RESULT: -5.452825993      2.557      4.476
REMARK  1 active torsions:
REMARK  status: ('A' for Active; 'I' for Inactive)
REMARK    1  A    between atoms: S1_3  and  C2_4 
ROOT
HETATM    1  N1  UNL     1      11.183  39.760  19.799  1.00  0.00    -0.184 NA
HETATM    2  C1  UNL     1      10.508  40.122  18.935  1.00  0.00     0.135 C 
HETATM    3  S1  UNL     1       9.496  40.686  17.591  1.00  0.00    -0.027 SA
ENDROOT
BRANCH   3   4
HETATM    4  C2  UNL     1       9.125  42.405  17.862  1.00  0.00     0.182 C 
HETATM    5  C3  UNL     1       9.020  43.220  16.563  1.00  0.00     0.037 C 
HETATM    6  C4  UNL     1       9.044  44.673  17.063  1.00  0.00     0.031 C 
HETATM    7  C5  UNL     1       7.826  44.818  17.953  1.00  0.00     0.196 C 
HETATM    8  O1  UNL     1       7.874  43.893  18.984  1.00  0.00    -0.285 OA
HETATM    9  N2  UNL     1       7.855  42.615  18.550  1.00  0.00    -0.085 NA
ENDBRANCH   3   4
TORSDOF 1
ENDMDL
MODEL 4
REMARK VINA RESULT: -5.432790744      1.551      1.551
REMARK  1 active torsions:
REMARK  status: ('A' for Active; 'I' for Inactive)
REMARK    1  A    between atoms: S1_3  and  C2_4 
ROOT
HETATM    1  N1  UNL     1       6.413  44.980  19.765  1.00  0.00    -0.184 NA
HETATM    2  C1  UNL     1       6.654  44.136  19.014  1.00  0.00     0.135 C 
HETATM    3  S1  UNL     1       7.014  42.819  17.882  1.00  0.00    -0.027 SA
ENDROOT
BRANCH   3   4
HETATM    4  C2  UNL     1       8.731  42.385  18.068  1.00  0.00     0.182 C 
HETATM    5  C3  UNL     1       9.001  40.881  17.906  1.00  0.00     0.037 C 
HETATM    6  C4  UNL     1      10.434  40.727  18.438  1.00  0.00     0.031 C 
HETATM    7  C5  UNL     1      11.298  41.584  17.537  1.00  0.00     0.196 C 
HETATM    8  O1  UNL     1      10.854  42.897  17.556  1.00  0.00    -0.285 OA
HETATM    9  N2  UNL     1       9.596  43.038  17.091  1.00  0.00    -0.085 NA
ENDBRANCH   3   4
TORSDOF 1
ENDMDL
MODEL 5
REMARK VINA RESULT: -5.351929493      1.380      1.380
REMARK  1 active torsions:
REMARK  status: ('A' for Active; 'I' for Inactive)
REMARK    1  A    between atoms: S1_3  and  C2_4 
ROOT
HETATM    1  N1  UNL     1       6.929  43.879  15.003  1.00  0.00    -0.184 NA
HETATM    2  C1  UNL     1       7.030  43.145  15.889  1.00  0.00     0.135 C 
HETATM    3  S1  UNL     1       7.181  42.041  17.269  1.00  0.00    -0.027 SA
ENDROOT
BRANCH   3   4
HETATM    4  C2  UNL     1       8.904  41.925  17.699  1.00  0.00     0.182 C 
HETATM    5  C3  UNL     1       9.491  40.520  17.495  1.00  0.00     0.037 C 
HETATM    6  C4  UNL     1      10.835  40.595  18.238  1.00  0.00     0.031 C 
HETATM    7  C5  UNL     1      11.629  41.677  17.536  1.00  0.00     0.196 C 
HETATM    8  O1  UNL     1      10.932  42.875  17.562  1.00  0.00    -0.285 OA
HETATM    9  N2  UNL     1       9.752  42.814  16.912  1.00  0.00    -0.085 NA
ENDBRANCH   3   4
TORSDOF 1
ENDMDL
