MODEL 1
REMARK VINA RESULT: -4.466204905      0.000      0.000
REMARK  1 active torsions:
REMARK  status: ('A' for Active; 'I' for Inactive)
REMARK    1  A    between atoms: C2_2  and  C3_3 
ROOT
HETATM    1  C3  UNL     1       8.868  42.766  17.656  1.00  0.00     0.324 C 
HETATM    2  N1  UNL     1       8.405  43.974  18.285  1.00  0.00    -0.142 NA
HETATM    3  S1  UNL     1       7.503  44.797  16.979  1.00  0.00    -0.033 SA
HETATM    4  C4  UNL     1       7.632  43.416  15.772  1.00  0.00     0.366 C 
HETATM    5  N2  UNL     1       7.952  42.347  16.655  1.00  0.00     0.114 N 
HETATM    6  C5  UNL     1       6.715  41.946  17.335  1.00  0.00     0.313 C 
ENDROOT
BRANCH   1   7
HETATM    7  C2  UNL     1      10.301  42.792  17.249  1.00  0.00     0.049 C 
HETATM    8  C1  UNL     1      11.122  41.631  17.640  1.00  0.00     0.009 C 
ENDBRANCH   1   7
TORSDOF 1
ENDMDL
MODEL 2
REMARK VINA RESULT: -4.452606632      1.634      1.713
REMARK  1 active torsions:
REMARK  status: ('A' for Active; 'I' for Inactive)
REMARK    1  A    between atoms: C2_2  and  C3_3 
ROOT
HETATM    1  C3  UNL     1       8.614  42.167  18.072  1.00  0.00     0.324 C 
HETATM    2  N1  UNL     1       9.428  43.281  17.665  1.00  0.00    -0.142 NA
HETATM    3  S1  UNL     1       8.350  44.200  16.575  1.00  0.00    -0.033 SA
HETATM    4  C4  UNL     1       6.857  43.171  16.887  1.00  0.00     0.366 C 
HETATM    5  N2  UNL     1       7.245  42.540  18.103  1.00  0.00     0.114 N 
HETATM    6  C5  UNL     1       7.082  43.519  19.183  1.00  0.00     0.313 C 
ENDROOT
BRANCH   1   7
HETATM    7  C2  UNL     1       8.920  40.889  17.370  1.00  0.00     0.049 C 
HETATM    8  C1  UNL     1      10.035  40.088  17.907  1.00  0.00     0.009 C 
ENDBRANCH   1   7
TORSDOF 1
ENDMDL
MODEL 3
REMARK VINA RESULT: -4.407004042      1.290      1.461
REMARK  1 active torsions:
REMARK  status: ('A' for Active; 'I' for Inactive)
REMARK    1  A    between atoms: C2_2  and  C3_3 
ROOT
HETATM    1  C3  UNL     1       9.035  42.571  17.057  1.00  0.00     0.324 C 
HETATM    2  N1  UNL     1       8.219  42.327  18.217  1.00  0.00    -0.142 NA
HETATM    3  S1  UNL     1       7.556  43.943  18.599  1.00  0.00    -0.033 SA
HETATM    4  C4  UNL     1       8.233  44.774  17.106  1.00  0.00     0.366 C 
HETATM    5  N2  UNL     1       8.497  43.638  16.291  1.00  0.00     0.114 N 
HETATM    6  C5  UNL     1       7.218  43.179  15.739  1.00  0.00     0.313 C 
ENDROOT
BRANCH   1   7
HETATM    7  C2  UNL     1      10.496  42.649  17.336  1.00  0.00     0.049 C 
HETATM    8  C1  UNL     1      11.157  41.399  17.757  1.00  0.00     0.009 C 
ENDBRANCH   1   7
TORSDOF 1
ENDMDL
MODEL 4
REMARK VINA RESULT: -4.377265225      1.705      2.439
REMARK  1 active torsions:
REMARK  status: ('A' for Active; 'I' for Inactive)
REMARK    1  A    between atoms: C2_2  and  C3_3 
ROOT
HETATM    1  C3  UNL     1       8.672  41.947  17.313  1.00  0.00     0.324 C 
HETATM    2  N1  UNL     1       7.451  41.755  16.575  1.00  0.00    -0.142 NA
HETATM    3  S1  UNL     1       6.247  42.667  17.532  1.00  0.00    -0.033 SA
HETATM    4  C4  UNL     1       7.460  43.389  18.710  1.00  0.00     0.366 C 
HETATM    5  N2  UNL     1       8.661  43.207  17.968  1.00  0.00     0.114 N 
HETATM    6  C5  UNL     1       8.703  44.241  16.929  1.00  0.00     0.313 C 
ENDROOT
BRANCH   1   7
HETATM    7  C2  UNL     1       9.073  40.785  18.154  1.00  0.00     0.049 C 
HETATM    8  C1  UNL     1      10.076  39.868  17.581  1.00  0.00     0.009 C 
ENDBRANCH   1   7
TORSDOF 1
ENDMDL
MODEL 5
REMARK VINA RESULT: -4.318821354      1.414      1.623
REMARK  1 active torsions:
REMARK  status: ('A' for Active; 'I' for Inactive)
REMARK    1  A    between atoms: C2_2  and  C3_3 
ROOT
HETATM    1  C3  UNL     1       9.318  42.483  17.871  1.00  0.00     0.324 C 
HETATM    2  N1  UNL     1       9.297  43.523  16.876  1.00  0.00    -0.142 NA
HETATM    3  S1  UNL     1       7.795  43.188  15.966  1.00  0.00    -0.033 SA
HETATM    4  C4  UNL     1       7.209  41.841  17.071  1.00  0.00     0.366 C 
HETATM    5  N2  UNL     1       7.995  42.112  18.226  1.00  0.00     0.114 N 
HETATM    6  C5  UNL     1       7.390  43.257  18.916  1.00  0.00     0.313 C 
ENDROOT
BRANCH   1   7
HETATM    7  C2  UNL     1      10.245  41.357  17.566  1.00  0.00     0.049 C 
HETATM    8  C1  UNL     1      11.681  41.683  17.492  1.00  0.00     0.009 C 
ENDBRANCH   1   7
TORSDOF 1
ENDMDL
