MODEL 1
REMARK VINA RESULT: -7.009952118      0.000      0.000
REMARK  9 active torsions:
REMARK  status: ('A' for Active; 'I' for Inactive)
REMARK    1  A    between atoms: C3_3  and  C5_5 
REMARK    2  A    between atoms: C5_5  and  O2_7 
REMARK    3  A    between atoms: O2_7  and  C6_8 
REMARK    4  A    between atoms: C9_12  and  C10_13 
REMARK    5  A    between atoms: C10_13  and  C11_14 
REMARK    6  A    between atoms: C11_14  and  O3_15 
REMARK    7  A    between atoms: N1_17  and  O4_19 
REMARK    8  A    between atoms: C17_27  and  O6_28 
REMARK    9  A    between atoms: O6_28  and  C18_29 
ROOT
HETATM    1  C6  UNL     1      -5.304  28.991  55.935  1.00  0.00     0.091 C 
HETATM    2  C7  UNL     1      -5.530  27.838  56.919  1.00  0.00     0.049 C 
HETATM    3  C8  UNL     1      -6.490  29.920  56.091  1.00  0.00     0.122 C 
HETATM    4 CL1  UNL     1      -6.781  30.620  54.450  1.00  0.00    -0.121 Cl
HETATM    5  C9  UNL     1      -6.351  31.056  57.037  1.00  0.00     0.021 C 
HETATM    6  C12 UNL     1      -5.350  30.960  58.109  1.00  0.00     0.023 C 
HETATM    7  C13 UNL     1      -4.439  32.191  58.192  1.00  0.00     0.174 C 
HETATM    8  O5  UNL     1      -3.147  31.779  57.902  1.00  0.00    -0.380 OA
HETATM    9  C14 UNL     1      -3.008  30.482  58.318  1.00  0.00     0.064 C 
HETATM   10  C15 UNL     1      -2.766  30.263  59.765  1.00  0.00     0.046 C 
HETATM   11  C16 UNL     1      -2.045  29.647  57.496  1.00  0.00     0.070 C 
HETATM   12  C17 UNL     1      -2.775  29.358  56.185  1.00  0.00     0.132 C 
HETATM   13  C21 UNL     1      -4.136  29.784  56.412  1.00  0.00     0.058 C 
HETATM   14  C22 UNL     1      -4.321  29.879  57.898  1.00  0.00     0.036 C 
ENDROOT
BRANCH   1  15
HETATM   15  O2  UNL     1      -5.151  28.529  54.631  1.00  0.00    -0.305 OA
BRANCH  15  16
HETATM   16  C5  UNL     1      -5.337  27.214  54.229  1.00  0.00     0.289 C 
HETATM   17  O1  UNL     1      -4.336  26.452  54.264  1.00  0.00    -0.260 OA
BRANCH  16  18
HETATM   18  C3  UNL     1      -6.594  26.648  53.772  1.00  0.00     0.009 C 
HETATM   19  C2  UNL     1      -7.041  26.773  52.540  1.00  0.00    -0.018 C 
HETATM   20  C1  UNL     1      -8.329  26.183  52.120  1.00  0.00     0.036 C 
HETATM   21  C4  UNL     1      -7.427  25.891  54.740  1.00  0.00     0.054 C 
ENDBRANCH  16  18
ENDBRANCH  15  16
ENDBRANCH   1  15
BRANCH   5  22
HETATM   22  C10 UNL     1      -7.718  31.341  57.599  1.00  0.00     0.092 C 
BRANCH  22  23
HETATM   23  C11 UNL     1      -8.279  32.634  57.203  1.00  0.00     0.135 C 
HETATM   24  N1  UNL     1      -9.338  32.657  56.441  1.00  0.00    -0.251 N 
ATOM     25  H1  UNL     1      -9.744  33.548  56.155  1.00  0.00     0.196 HD
BRANCH  23  26
HETATM   26  O3  UNL     1      -7.797  33.886  57.560  1.00  0.00    -0.348 OA
ATOM     27  H3  UNL     1      -7.731  34.647  56.995  1.00  0.00     0.219 HD
ENDBRANCH  23  26
BRANCH  24  28
HETATM   28  O4  UNL     1      -9.894  31.488  56.031  1.00  0.00    -0.288 OA
ATOM     29  H4  UNL     1     -10.703  31.189  56.430  1.00  0.00     0.244 HD
ENDBRANCH  24  28
ENDBRANCH  22  23
ENDBRANCH   5  22
BRANCH  12  30
HETATM   30  O6  UNL     1      -2.157  30.066  55.152  1.00  0.00    -0.380 OA
BRANCH  30  31
HETATM   31  C18 UNL     1      -0.992  30.696  55.457  1.00  0.00     0.122 A 
HETATM   32  C19 UNL     1       0.060  30.940  54.399  1.00  0.00     0.034 A 
HETATM   33  C20 UNL     1      -0.702  32.084  55.025  1.00  0.00     0.034 A 
ENDBRANCH  30  31
ENDBRANCH  12  30
TORSDOF 9
ENDMDL
MODEL 2
REMARK VINA RESULT: -6.995880807      2.767      4.846
REMARK  9 active torsions:
REMARK  status: ('A' for Active; 'I' for Inactive)
REMARK    1  A    between atoms: C3_3  and  C5_5 
REMARK    2  A    between atoms: C5_5  and  O2_7 
REMARK    3  A    between atoms: O2_7  and  C6_8 
REMARK    4  A    between atoms: C9_12  and  C10_13 
REMARK    5  A    between atoms: C10_13  and  C11_14 
REMARK    6  A    between atoms: C11_14  and  O3_15 
REMARK    7  A    between atoms: N1_17  and  O4_19 
REMARK    8  A    between atoms: C17_27  and  O6_28 
REMARK    9  A    between atoms: O6_28  and  C18_29 
ROOT
HETATM    1  C6  UNL     1      -4.203  28.662  56.225  1.00  0.00     0.091 C 
HETATM    2  C7  UNL     1      -4.797  27.971  57.456  1.00  0.00     0.049 C 
HETATM    3  C8  UNL     1      -4.825  27.990  55.019  1.00  0.00     0.122 C 
HETATM    4 CL1  UNL     1      -3.554  28.017  53.734  1.00  0.00    -0.121 Cl
HETATM    5  C9  UNL     1      -6.047  28.609  54.444  1.00  0.00     0.021 C 
HETATM    6  C12 UNL     1      -6.865  29.480  55.301  1.00  0.00     0.023 C 
HETATM    7  C13 UNL     1      -7.188  30.831  54.652  1.00  0.00     0.174 C 
HETATM    8  O5  UNL     1      -6.585  31.820  55.415  1.00  0.00    -0.380 OA
HETATM    9  C14 UNL     1      -6.545  31.391  56.715  1.00  0.00     0.064 C 
HETATM   10  C15 UNL     1      -7.793  31.526  57.505  1.00  0.00     0.046 C 
HETATM   11  C16 UNL     1      -5.363  31.898  57.519  1.00  0.00     0.070 C 
HETATM   12  C17 UNL     1      -4.158  31.106  57.011  1.00  0.00     0.132 C 
HETATM   13  C21 UNL     1      -4.717  30.061  56.187  1.00  0.00     0.058 C 
HETATM   14  C22 UNL     1      -6.167  29.944  56.554  1.00  0.00     0.036 C 
ENDROOT
BRANCH   1  15
HETATM   15  O2  UNL     1      -2.812  28.594  56.219  1.00  0.00    -0.305 OA
BRANCH  15  16
HETATM   16  C5  UNL     1      -2.048  27.928  57.168  1.00  0.00     0.289 C 
HETATM   17  O1  UNL     1      -1.832  28.523  58.256  1.00  0.00    -0.260 OA
BRANCH  16  18
HETATM   18  C3  UNL     1      -1.480  26.602  57.003  1.00  0.00     0.009 C 
HETATM   19  C2  UNL     1      -1.784  25.801  56.004  1.00  0.00    -0.018 C 
HETATM   20  C1  UNL     1      -1.183  24.457  55.879  1.00  0.00     0.036 C 
HETATM   21  C4  UNL     1      -0.505  26.116  58.012  1.00  0.00     0.054 C 
ENDBRANCH  16  18
ENDBRANCH  15  16
ENDBRANCH   1  15
BRANCH   5  22
HETATM   22  C10 UNL     1      -6.876  27.500  53.853  1.00  0.00     0.092 C 
BRANCH  22  23
HETATM   23  C11 UNL     1      -6.843  27.429  52.392  1.00  0.00     0.135 C 
HETATM   24  N1  UNL     1      -7.570  26.532  51.786  1.00  0.00    -0.251 N 
ATOM     25  H1  UNL     1      -7.561  26.467  50.768  1.00  0.00     0.196 HD
BRANCH  23  26
HETATM   26  O3  UNL     1      -6.099  28.238  51.544  1.00  0.00    -0.348 OA
ATOM     27  H3  UNL     1      -5.630  27.960  50.766  1.00  0.00     0.219 HD
ENDBRANCH  23  26
BRANCH  24  28
HETATM   28  O4  UNL     1      -8.338  25.685  52.519  1.00  0.00    -0.288 OA
ATOM     29  H4  UNL     1      -9.183  25.979  52.840  1.00  0.00     0.244 HD
ENDBRANCH  24  28
ENDBRANCH  22  23
ENDBRANCH   5  22
BRANCH  12  30
HETATM   30  O6  UNL     1      -3.317  31.962  56.296  1.00  0.00    -0.380 OA
BRANCH  30  31
HETATM   31  C18 UNL     1      -1.987  31.864  56.555  1.00  0.00     0.122 A 
HETATM   32  C19 UNL     1      -1.001  31.558  55.450  1.00  0.00     0.034 A 
HETATM   33  C20 UNL     1      -1.017  32.904  56.136  1.00  0.00     0.034 A 
ENDBRANCH  30  31
ENDBRANCH  12  30
TORSDOF 9
ENDMDL
MODEL 3
REMARK VINA RESULT: -6.930262924      2.603      4.913
REMARK  9 active torsions:
REMARK  status: ('A' for Active; 'I' for Inactive)
REMARK    1  A    between atoms: C3_3  and  C5_5 
REMARK    2  A    between atoms: C5_5  and  O2_7 
REMARK    3  A    between atoms: O2_7  and  C6_8 
REMARK    4  A    between atoms: C9_12  and  C10_13 
REMARK    5  A    between atoms: C10_13  and  C11_14 
REMARK    6  A    between atoms: C11_14  and  O3_15 
REMARK    7  A    between atoms: N1_17  and  O4_19 
REMARK    8  A    between atoms: C17_27  and  O6_28 
REMARK    9  A    between atoms: O6_28  and  C18_29 
ROOT
HETATM    1  C6  UNL     1      -4.342  28.363  55.895  1.00  0.00     0.091 C 
HETATM    2  C7  UNL     1      -4.817  27.783  57.232  1.00  0.00     0.049 C 
HETATM    3  C8  UNL     1      -5.259  27.792  54.835  1.00  0.00     0.122 C 
HETATM    4 CL1  UNL     1      -4.239  27.608  53.354  1.00  0.00    -0.121 Cl
HETATM    5  C9  UNL     1      -6.449  28.595  54.454  1.00  0.00     0.021 C 
HETATM    6  C12 UNL     1      -6.961  29.591  55.407  1.00  0.00     0.023 C 
HETATM    7  C13 UNL     1      -7.174  30.973  54.777  1.00  0.00     0.174 C 
HETATM    8  O5  UNL     1      -6.302  31.857  55.394  1.00  0.00    -0.380 OA
HETATM    9  C14 UNL     1      -6.107  31.434  56.682  1.00  0.00     0.064 C 
HETATM   10  C15 UNL     1      -7.165  31.772  57.666  1.00  0.00     0.046 C 
HETATM   11  C16 UNL     1      -4.740  31.750  57.258  1.00  0.00     0.070 C 
HETATM   12  C17 UNL     1      -3.780  30.772  56.582  1.00  0.00     0.132 C 
HETATM   13  C21 UNL     1      -4.629  29.826  55.898  1.00  0.00     0.058 C 
HETATM   14  C22 UNL     1      -5.995  29.945  56.508  1.00  0.00     0.036 C 
ENDROOT
BRANCH   1  15
HETATM   15  O2  UNL     1      -3.001  28.073  55.658  1.00  0.00    -0.305 OA
BRANCH  15  16
HETATM   16  C5  UNL     1      -2.329  26.967  56.160  1.00  0.00     0.289 C 
HETATM   17  O1  UNL     1      -2.546  25.858  55.605  1.00  0.00    -0.260 OA
BRANCH  16  18
HETATM   18  C3  UNL     1      -1.397  26.988  57.274  1.00  0.00     0.009 C 
HETATM   19  C2  UNL     1      -0.717  25.933  57.672  1.00  0.00    -0.018 C 
HETATM   20  C1  UNL     1       0.218  26.001  58.813  1.00  0.00     0.036 C 
HETATM   21  C4  UNL     1      -1.198  28.262  58.010  1.00  0.00     0.054 C 
ENDBRANCH  16  18
ENDBRANCH  15  16
ENDBRANCH   1  15
BRANCH   5  22
HETATM   22  C10 UNL     1      -7.531  27.630  54.048  1.00  0.00     0.092 C 
BRANCH  22  23
HETATM   23  C11 UNL     1      -7.481  27.218  52.645  1.00  0.00     0.135 C 
HETATM   24  N1  UNL     1      -7.342  25.952  52.362  1.00  0.00    -0.251 N 
ATOM     25  H1  UNL     1      -7.306  25.645  51.390  1.00  0.00     0.196 HD
BRANCH  23  26
HETATM   26  O3  UNL     1      -7.569  28.050  51.537  1.00  0.00    -0.348 OA
ATOM     27  H3  UNL     1      -7.251  27.861  50.662  1.00  0.00     0.219 HD
ENDBRANCH  23  26
BRANCH  24  28
HETATM   28  O4  UNL     1      -7.246  25.047  53.370  1.00  0.00    -0.288 OA
ATOM     29  H4  UNL     1      -6.961  24.161  53.178  1.00  0.00     0.244 HD
ENDBRANCH  24  28
ENDBRANCH  22  23
ENDBRANCH   5  22
BRANCH  12  30
HETATM   30  O6  UNL     1      -2.950  31.478  55.708  1.00  0.00    -0.380 OA
BRANCH  30  31
HETATM   31  C18 UNL     1      -1.611  31.323  55.880  1.00  0.00     0.122 A 
HETATM   32  C19 UNL     1      -0.768  30.633  54.832  1.00  0.00     0.034 A 
HETATM   33  C20 UNL     1      -0.615  32.109  55.114  1.00  0.00     0.034 A 
ENDBRANCH  30  31
ENDBRANCH  12  30
TORSDOF 9
ENDMDL
MODEL 4
REMARK VINA RESULT: -6.871744733      2.587      4.913
REMARK  9 active torsions:
REMARK  status: ('A' for Active; 'I' for Inactive)
REMARK    1  A    between atoms: C3_3  and  C5_5 
REMARK    2  A    between atoms: C5_5  and  O2_7 
REMARK    3  A    between atoms: O2_7  and  C6_8 
REMARK    4  A    between atoms: C9_12  and  C10_13 
REMARK    5  A    between atoms: C10_13  and  C11_14 
REMARK    6  A    between atoms: C11_14  and  O3_15 
REMARK    7  A    between atoms: N1_17  and  O4_19 
REMARK    8  A    between atoms: C17_27  and  O6_28 
REMARK    9  A    between atoms: O6_28  and  C18_29 
ROOT
HETATM    1  C6  UNL     1      -4.094  28.452  56.056  1.00  0.00     0.091 C 
HETATM    2  C7  UNL     1      -4.459  27.952  57.458  1.00  0.00     0.049 C 
HETATM    3  C8  UNL     1      -5.084  27.812  55.106  1.00  0.00     0.122 C 
HETATM    4 CL1  UNL     1      -4.179  27.544  53.565  1.00  0.00    -0.121 Cl
HETATM    5  C9  UNL     1      -6.308  28.582  54.771  1.00  0.00     0.021 C 
HETATM    6  C12 UNL     1      -6.757  29.631  55.699  1.00  0.00     0.023 C 
HETATM    7  C13 UNL     1      -7.034  30.970  55.005  1.00  0.00     0.174 C 
HETATM    8  O5  UNL     1      -6.127  31.896  55.498  1.00  0.00    -0.380 OA
HETATM    9  C14 UNL     1      -5.829  31.554  56.791  1.00  0.00     0.064 C 
HETATM   10  C15 UNL     1      -6.812  31.944  57.831  1.00  0.00     0.046 C 
HETATM   11  C16 UNL     1      -4.425  31.914  57.239  1.00  0.00     0.070 C 
HETATM   12  C17 UNL     1      -3.509  30.903  56.551  1.00  0.00     0.132 C 
HETATM   13  C21 UNL     1      -4.397  29.911  55.993  1.00  0.00     0.058 C 
HETATM   14  C22 UNL     1      -5.713  30.057  56.698  1.00  0.00     0.036 C 
ENDROOT
BRANCH   1  15
HETATM   15  O2  UNL     1      -2.772  28.157  55.734  1.00  0.00    -0.305 OA
BRANCH  15  16
HETATM   16  C5  UNL     1      -2.062  27.069  56.221  1.00  0.00     0.289 C 
HETATM   17  O1  UNL     1      -2.237  25.962  55.649  1.00  0.00    -0.260 OA
BRANCH  16  18
HETATM   18  C3  UNL     1      -1.134  27.108  57.338  1.00  0.00     0.009 C 
HETATM   19  C2  UNL     1      -0.557  26.035  57.839  1.00  0.00    -0.018 C 
HETATM   20  C1  UNL     1       0.379  26.121  58.979  1.00  0.00     0.036 C 
HETATM   21  C4  UNL     1      -0.817  28.420  57.955  1.00  0.00     0.054 C 
ENDBRANCH  16  18
ENDBRANCH  15  16
ENDBRANCH   1  15
BRANCH   5  22
HETATM   22  C10 UNL     1      -7.407  27.587  54.509  1.00  0.00     0.092 C 
BRANCH  22  23
HETATM   23  C11 UNL     1      -7.041  26.195  54.773  1.00  0.00     0.135 C 
HETATM   24  N1  UNL     1      -7.019  25.347  53.782  1.00  0.00    -0.251 N 
ATOM     25  H1  UNL     1      -6.767  24.373  53.946  1.00  0.00     0.196 HD
BRANCH  23  26
HETATM   26  O3  UNL     1      -6.702  25.651  56.005  1.00  0.00    -0.348 OA
ATOM     27  H3  UNL     1      -6.039  24.990  56.167  1.00  0.00     0.219 HD
ENDBRANCH  23  26
BRANCH  24  28
HETATM   28  O4  UNL     1      -7.335  25.771  52.531  1.00  0.00    -0.288 OA
ATOM     29  H4  UNL     1      -6.675  25.747  51.848  1.00  0.00     0.244 HD
ENDBRANCH  24  28
ENDBRANCH  22  23
ENDBRANCH   5  22
BRANCH  12  30
HETATM   30  O6  UNL     1      -2.756  31.560  55.573  1.00  0.00    -0.380 OA
BRANCH  30  31
HETATM   31  C18 UNL     1      -1.405  31.487  55.694  1.00  0.00     0.122 A 
HETATM   32  C19 UNL     1      -0.573  30.743  54.674  1.00  0.00     0.034 A 
HETATM   33  C20 UNL     1      -0.487  32.244  54.811  1.00  0.00     0.034 A 
ENDBRANCH  30  31
ENDBRANCH  12  30
TORSDOF 9
ENDMDL
MODEL 5
REMARK VINA RESULT: -6.857819466      2.747      4.728
REMARK  9 active torsions:
REMARK  status: ('A' for Active; 'I' for Inactive)
REMARK    1  A    between atoms: C3_3  and  C5_5 
REMARK    2  A    between atoms: C5_5  and  O2_7 
REMARK    3  A    between atoms: O2_7  and  C6_8 
REMARK    4  A    between atoms: C9_12  and  C10_13 
REMARK    5  A    between atoms: C10_13  and  C11_14 
REMARK    6  A    between atoms: C11_14  and  O3_15 
REMARK    7  A    between atoms: N1_17  and  O4_19 
REMARK    8  A    between atoms: C17_27  and  O6_28 
REMARK    9  A    between atoms: O6_28  and  C18_29 
ROOT
HETATM    1  C6  UNL     1      -4.174  28.624  56.208  1.00  0.00     0.091 C 
HETATM    2  C7  UNL     1      -4.593  28.178  57.613  1.00  0.00     0.049 C 
HETATM    3  C8  UNL     1      -5.091  27.905  55.242  1.00  0.00     0.122 C 
HETATM    4 CL1  UNL     1      -4.099  27.596  53.763  1.00  0.00    -0.121 Cl
HETATM    5  C9  UNL     1      -6.321  28.614  54.808  1.00  0.00     0.021 C 
HETATM    6  C12 UNL     1      -6.851  29.689  55.660  1.00  0.00     0.023 C 
HETATM    7  C13 UNL     1      -7.136  30.983  54.888  1.00  0.00     0.174 C 
HETATM    8  O5  UNL     1      -6.287  31.963  55.380  1.00  0.00    -0.380 OA
HETATM    9  C14 UNL     1      -6.045  31.694  56.701  1.00  0.00     0.064 C 
HETATM   10  C15 UNL     1      -7.093  32.098  57.670  1.00  0.00     0.046 C 
HETATM   11  C16 UNL     1      -4.679  32.124  57.200  1.00  0.00     0.070 C 
HETATM   12  C17 UNL     1      -3.696  31.115  56.609  1.00  0.00     0.132 C 
HETATM   13  C21 UNL     1      -4.520  30.066  56.058  1.00  0.00     0.058 C 
HETATM   14  C22 UNL     1      -5.875  30.200  56.688  1.00  0.00     0.036 C 
ENDROOT
BRANCH   1  15
HETATM   15  O2  UNL     1      -2.828  28.361  55.967  1.00  0.00    -0.305 OA
BRANCH  15  16
HETATM   16  C5  UNL     1      -1.946  27.828  56.897  1.00  0.00     0.289 C 
HETATM   17  O1  UNL     1      -1.611  28.562  57.863  1.00  0.00    -0.260 OA
BRANCH  16  18
HETATM   18  C3  UNL     1      -1.380  26.491  56.842  1.00  0.00     0.009 C 
HETATM   19  C2  UNL     1      -1.653  25.626  55.888  1.00  0.00    -0.018 C 
HETATM   20  C1  UNL     1      -1.056  24.275  55.875  1.00  0.00     0.036 C 
HETATM   21  C4  UNL     1      -0.446  26.070  57.916  1.00  0.00     0.054 C 
ENDBRANCH  16  18
ENDBRANCH  15  16
ENDBRANCH   1  15
BRANCH   5  22
HETATM   22  C10 UNL     1      -7.372  27.569  54.541  1.00  0.00     0.092 C 
BRANCH  22  23
HETATM   23  C11 UNL     1      -6.957  26.200  54.845  1.00  0.00     0.135 C 
HETATM   24  N1  UNL     1      -6.909  25.324  53.879  1.00  0.00    -0.251 N 
ATOM     25  H1  UNL     1      -6.622  24.364  54.071  1.00  0.00     0.196 HD
BRANCH  23  26
HETATM   26  O3  UNL     1      -6.593  25.705  56.091  1.00  0.00    -0.348 OA
ATOM     27  H3  UNL     1      -7.098  25.107  56.630  1.00  0.00     0.219 HD
ENDBRANCH  23  26
BRANCH  24  28
HETATM   28  O4  UNL     1      -7.244  25.699  52.617  1.00  0.00    -0.288 OA
ATOM     29  H4  UNL     1      -7.302  25.042  51.933  1.00  0.00     0.244 HD
ENDBRANCH  24  28
ENDBRANCH  22  23
ENDBRANCH   5  22
BRANCH  12  30
HETATM   30  O6  UNL     1      -2.916  31.750  55.640  1.00  0.00    -0.380 OA
BRANCH  30  31
HETATM   31  C18 UNL     1      -1.569  31.624  55.763  1.00  0.00     0.122 A 
HETATM   32  C19 UNL     1      -0.760  30.878  54.726  1.00  0.00     0.034 A 
HETATM   33  C20 UNL     1      -0.619  32.371  54.905  1.00  0.00     0.034 A 
ENDBRANCH  30  31
ENDBRANCH  12  30
TORSDOF 9
ENDMDL
