MODEL 1
REMARK VINA RESULT: -8.785357049      0.000      0.000
REMARK  6 active torsions:
REMARK  status: ('A' for Active; 'I' for Inactive)
REMARK    1  A    between atoms: O1_2  and  C2_3 
REMARK    2  A    between atoms: N2_6  and  C3_7 
REMARK    3  A    between atoms: C3_7  and  C4_8 
REMARK    4  A    between atoms: C13_20  and  C14_21 
REMARK    5  A    between atoms: C14_21  and  C15_22 
REMARK    6  A    between atoms: C17_29  and  C18_30 
ROOT
HETATM    1  C2  UNL     1      -2.938  26.532  55.871  1.00  0.00     0.171 A 
HETATM    2  N1  UNL     1      -4.135  26.062  55.505  1.00  0.00    -0.275 N 
ATOM      3  H1  UNL     1      -4.282  25.257  54.897  1.00  0.00     0.189 HD
HETATM    4  N2  UNL     1      -5.098  26.780  56.036  1.00  0.00    -0.269 N 
HETATM    5  C10 UNL     1      -4.586  27.771  56.787  1.00  0.00     0.138 A 
HETATM    6  N3  UNL     1      -4.857  28.809  57.580  1.00  0.00    -0.344 N 
ATOM      7  H3  UNL     1      -5.794  29.134  57.818  1.00  0.00     0.167 HD
HETATM    8  C11 UNL     1      -3.704  29.369  58.021  1.00  0.00     0.014 A 
HETATM    9  C12 UNL     1      -3.668  30.551  58.929  1.00  0.00     0.068 C 
HETATM   10  C13 UNL     1      -2.668  28.640  57.473  1.00  0.00    -0.012 A 
HETATM   11  C21 UNL     1      -3.195  27.627  56.691  1.00  0.00     0.070 A 
ENDROOT
BRANCH  10  12
HETATM   12  C14 UNL     1      -1.240  28.857  57.726  1.00  0.00     0.099 C 
BRANCH  12  13
HETATM   13  C15 UNL     1      -0.569  27.998  58.674  1.00  0.00     0.026 A 
HETATM   14  N4  UNL     1      -0.132  26.770  58.240  1.00  0.00    -0.311 N 
HETATM   15  C16 UNL     1       0.501  25.902  59.036  1.00  0.00     0.325 A 
ATOM     16  H4  UNL     1      -0.298  26.508  57.268  1.00  0.00     0.170 HD
HETATM   17  O2  UNL     1       0.887  24.774  58.581  1.00  0.00    -0.247 OA
HETATM   18  N5  UNL     1       0.722  26.240  60.315  1.00  0.00    -0.307 N 
HETATM   19  C17 UNL     1       0.328  27.418  60.815  1.00  0.00     0.054 A 
ATOM     20  H5  UNL     1       1.205  25.581  60.925  1.00  0.00     0.170 HD
HETATM   21  C19 UNL     1      -0.336  28.320  59.971  1.00  0.00    -0.011 A 
HETATM   22  C20 UNL     1      -0.745  29.613  60.564  1.00  0.00     0.052 C 
BRANCH  19  23
HETATM   23  C18 UNL     1       0.579  27.769  62.217  1.00  0.00     0.111 C 
HETATM   24  S1  UNL     1       0.406  26.726  63.454  1.00  0.00    -0.090 SA
ENDBRANCH  19  23
ENDBRANCH  12  13
ENDBRANCH  10  12
BRANCH   1  25
HETATM   25  O1  UNL     1      -1.714  26.024  55.505  1.00  0.00    -0.339 OA
HETATM   26  C1  UNL     1      -1.388  24.678  55.791  1.00  0.00     0.211 C 
ENDBRANCH   1  25
BRANCH   4  27
HETATM   27  C3  UNL     1      -6.511  26.537  55.842  1.00  0.00     0.192 C 
BRANCH  27  28
HETATM   28  C4  UNL     1      -6.921  26.671  54.428  1.00  0.00     0.000 A 
HETATM   29  C5  UNL     1      -7.394  25.588  53.730  1.00  0.00     0.012 A 
HETATM   30  C6  UNL     1      -7.788  25.690  52.396  1.00  0.00     0.001 A 
HETATM   31  C7  UNL     1      -7.705  26.903  51.752  1.00  0.00     0.003 A 
HETATM   32  C8  UNL     1      -7.233  28.001  52.434  1.00  0.00     0.043 A 
HETATM   33  C9  UNL     1      -6.842  27.879  53.774  1.00  0.00     0.124 A 
HETATM   34  F1  UNL     1      -6.386  28.994  54.391  1.00  0.00    -0.205 F 
ENDBRANCH  27  28
ENDBRANCH   4  27
TORSDOF 6
ENDMDL
MODEL 2
REMARK VINA RESULT: -8.587824967      1.981      2.522
REMARK  6 active torsions:
REMARK  status: ('A' for Active; 'I' for Inactive)
REMARK    1  A    between atoms: O1_2  and  C2_3 
REMARK    2  A    between atoms: N2_6  and  C3_7 
REMARK    3  A    between atoms: C3_7  and  C4_8 
REMARK    4  A    between atoms: C13_20  and  C14_21 
REMARK    5  A    between atoms: C14_21  and  C15_22 
REMARK    6  A    between atoms: C17_29  and  C18_30 
ROOT
HETATM    1  C2  UNL     1      -2.641  26.316  55.714  1.00  0.00     0.171 A 
HETATM    2  N1  UNL     1      -3.921  26.013  55.472  1.00  0.00    -0.275 N 
ATOM      3  H1  UNL     1      -4.233  25.265  54.852  1.00  0.00     0.189 HD
HETATM    4  N2  UNL     1      -4.721  26.810  56.140  1.00  0.00    -0.269 N 
HETATM    5  C10 UNL     1      -4.010  27.690  56.866  1.00  0.00     0.138 A 
HETATM    6  N3  UNL     1      -4.061  28.709  57.726  1.00  0.00    -0.344 N 
ATOM      7  H3  UNL     1      -4.918  29.129  58.086  1.00  0.00     0.167 HD
HETATM    8  C11 UNL     1      -2.805  29.103  58.052  1.00  0.00     0.014 A 
HETATM    9  C12 UNL     1      -2.522  30.220  58.998  1.00  0.00     0.068 C 
HETATM   10  C13 UNL     1      -1.935  28.286  57.358  1.00  0.00    -0.012 A 
HETATM   11  C21 UNL     1      -2.668  27.387  56.603  1.00  0.00     0.070 A 
ENDROOT
BRANCH  10  12
HETATM   12  C14 UNL     1      -0.472  28.319  57.451  1.00  0.00     0.099 C 
BRANCH  12  13
HETATM   13  C15 UNL     1       0.213  27.148  57.950  1.00  0.00     0.026 A 
HETATM   14  N4  UNL     1      -0.175  26.638  59.165  1.00  0.00    -0.311 N 
HETATM   15  C16 UNL     1       0.391  25.557  59.713  1.00  0.00     0.325 A 
ATOM     16  H4  UNL     1      -0.929  27.103  59.672  1.00  0.00     0.170 HD
HETATM   17  O2  UNL     1      -0.009  25.125  60.846  1.00  0.00    -0.247 OA
HETATM   18  N5  UNL     1       1.382  24.942  59.052  1.00  0.00    -0.307 N 
HETATM   19  C17 UNL     1       1.818  25.376  57.863  1.00  0.00     0.054 A 
ATOM     20  H5  UNL     1       1.817  24.118  59.467  1.00  0.00     0.170 HD
HETATM   21  C19 UNL     1       1.217  26.509  57.298  1.00  0.00    -0.011 A 
HETATM   22  C20 UNL     1       1.724  26.948  55.979  1.00  0.00     0.052 C 
BRANCH  19  23
HETATM   23  C18 UNL     1       2.904  24.688  57.155  1.00  0.00     0.111 C 
HETATM   24  S1  UNL     1       2.711  23.286  56.352  1.00  0.00    -0.090 SA
ENDBRANCH  19  23
ENDBRANCH  12  13
ENDBRANCH  10  12
BRANCH   1  25
HETATM   25  O1  UNL     1      -1.538  25.686  55.188  1.00  0.00    -0.339 OA
HETATM   26  C1  UNL     1      -1.115  24.441  55.706  1.00  0.00     0.211 C 
ENDBRANCH   1  25
BRANCH   4  27
HETATM   27  C3  UNL     1      -6.166  26.748  56.103  1.00  0.00     0.192 C 
BRANCH  27  28
HETATM   28  C4  UNL     1      -6.705  26.860  54.731  1.00  0.00     0.000 A 
HETATM   29  C5  UNL     1      -7.219  25.762  54.087  1.00  0.00     0.012 A 
HETATM   30  C6  UNL     1      -7.732  25.843  52.793  1.00  0.00     0.001 A 
HETATM   31  C7  UNL     1      -7.729  27.050  52.134  1.00  0.00     0.003 A 
HETATM   32  C8  UNL     1      -7.217  28.164  52.760  1.00  0.00     0.043 A 
HETATM   33  C9  UNL     1      -6.705  28.062  54.061  1.00  0.00     0.124 A 
HETATM   34  F1  UNL     1      -6.216  29.191  54.625  1.00  0.00    -0.205 F 
ENDBRANCH  27  28
ENDBRANCH   4  27
TORSDOF 6
ENDMDL
MODEL 3
REMARK VINA RESULT: -8.238118145      2.322      3.003
REMARK  6 active torsions:
REMARK  status: ('A' for Active; 'I' for Inactive)
REMARK    1  A    between atoms: O1_2  and  C2_3 
REMARK    2  A    between atoms: N2_6  and  C3_7 
REMARK    3  A    between atoms: C3_7  and  C4_8 
REMARK    4  A    between atoms: C13_20  and  C14_21 
REMARK    5  A    between atoms: C14_21  and  C15_22 
REMARK    6  A    between atoms: C17_29  and  C18_30 
ROOT
HETATM    1  C2  UNL     1      -2.263  26.415  55.855  1.00  0.00     0.171 A 
HETATM    2  N1  UNL     1      -3.598  26.333  55.875  1.00  0.00    -0.275 N 
ATOM      3  H1  UNL     1      -4.142  25.602  55.417  1.00  0.00     0.189 HD
HETATM    4  N2  UNL     1      -4.114  27.325  56.564  1.00  0.00    -0.269 N 
HETATM    5  C10 UNL     1      -3.142  28.121  57.041  1.00  0.00     0.138 A 
HETATM    6  N3  UNL     1      -2.858  29.208  57.762  1.00  0.00    -0.344 N 
ATOM      7  H3  UNL     1      -3.550  29.812  58.206  1.00  0.00     0.167 HD
HETATM    8  C11 UNL     1      -1.516  29.391  57.817  1.00  0.00     0.014 A 
HETATM    9  C12 UNL     1      -0.877  30.520  58.551  1.00  0.00     0.068 C 
HETATM   10  C13 UNL     1      -0.941  28.365  57.092  1.00  0.00    -0.012 A 
HETATM   11  C21 UNL     1      -1.943  27.551  56.592  1.00  0.00     0.070 A 
ENDROOT
BRANCH  10  12
HETATM   12  C14 UNL     1       0.497  28.134  56.930  1.00  0.00     0.099 C 
BRANCH  12  13
HETATM   13  C15 UNL     1       0.977  26.771  56.892  1.00  0.00     0.026 A 
HETATM   14  N4  UNL     1       1.471  26.289  55.705  1.00  0.00    -0.311 N 
HETATM   15  C16 UNL     1       1.941  25.045  55.565  1.00  0.00     0.325 A 
ATOM     16  H4  UNL     1       1.480  26.908  54.893  1.00  0.00     0.170 HD
HETATM   17  O2  UNL     1       2.389  24.649  54.438  1.00  0.00    -0.247 OA
HETATM   18  N5  UNL     1       1.931  24.228  56.628  1.00  0.00    -0.307 N 
HETATM   19  C17 UNL     1       1.467  24.621  57.821  1.00  0.00     0.054 A 
ATOM     20  H5  UNL     1       2.289  23.278  56.526  1.00  0.00     0.170 HD
HETATM   21  C19 UNL     1       0.976  25.928  57.955  1.00  0.00    -0.011 A 
HETATM   22  C20 UNL     1       0.482  26.321  59.293  1.00  0.00     0.052 C 
BRANCH  19  23
HETATM   23  C18 UNL     1       1.465  23.711  58.972  1.00  0.00     0.111 C 
HETATM   24  S1  UNL     1       2.161  22.241  58.961  1.00  0.00    -0.090 SA
ENDBRANCH  19  23
ENDBRANCH  12  13
ENDBRANCH  10  12
BRANCH   1  25
HETATM   25  O1  UNL     1      -1.401  25.545  55.232  1.00  0.00    -0.339 OA
HETATM   26  C1  UNL     1      -1.421  24.169  55.554  1.00  0.00     0.211 C 
ENDBRANCH   1  25
BRANCH   4  27
HETATM   27  C3  UNL     1      -5.529  27.529  56.782  1.00  0.00     0.192 C 
BRANCH  27  28
HETATM   28  C4  UNL     1      -6.314  27.450  55.532  1.00  0.00     0.000 A 
HETATM   29  C5  UNL     1      -6.351  28.508  54.658  1.00  0.00     0.012 A 
HETATM   30  C6  UNL     1      -7.084  28.456  53.473  1.00  0.00     0.001 A 
HETATM   31  C7  UNL     1      -7.792  27.319  53.160  1.00  0.00     0.003 A 
HETATM   32  C8  UNL     1      -7.770  26.247  54.022  1.00  0.00     0.043 A 
HETATM   33  C9  UNL     1      -7.028  26.318  55.208  1.00  0.00     0.124 A 
HETATM   34  F1  UNL     1      -7.043  25.232  56.016  1.00  0.00    -0.205 F 
ENDBRANCH  27  28
ENDBRANCH   4  27
TORSDOF 6
ENDMDL
MODEL 4
REMARK VINA RESULT: -8.162092225      4.438      5.896
REMARK  6 active torsions:
REMARK  status: ('A' for Active; 'I' for Inactive)
REMARK    1  A    between atoms: O1_2  and  C2_3 
REMARK    2  A    between atoms: N2_6  and  C3_7 
REMARK    3  A    between atoms: C3_7  and  C4_8 
REMARK    4  A    between atoms: C13_20  and  C14_21 
REMARK    5  A    between atoms: C14_21  and  C15_22 
REMARK    6  A    between atoms: C17_29  and  C18_30 
ROOT
HETATM    1  C2  UNL     1      -6.822  29.174  54.759  1.00  0.00     0.171 A 
HETATM    2  N1  UNL     1      -7.493  28.307  53.992  1.00  0.00    -0.275 N 
ATOM      3  H1  UNL     1      -8.375  28.512  53.521  1.00  0.00     0.189 HD
HETATM    4  N2  UNL     1      -6.863  27.158  53.930  1.00  0.00    -0.269 N 
HETATM    5  C10 UNL     1      -5.733  27.201  54.656  1.00  0.00     0.138 A 
HETATM    6  N3  UNL     1      -4.650  26.531  55.056  1.00  0.00    -0.344 N 
ATOM      7  H3  UNL     1      -4.433  25.566  54.804  1.00  0.00     0.167 HD
HETATM    8  C11 UNL     1      -3.881  27.320  55.845  1.00  0.00     0.014 A 
HETATM    9  C12 UNL     1      -2.598  26.864  56.450  1.00  0.00     0.068 C 
HETATM   10  C13 UNL     1      -4.522  28.540  55.938  1.00  0.00    -0.012 A 
HETATM   11  C21 UNL     1      -5.691  28.492  55.199  1.00  0.00     0.070 A 
ENDROOT
BRANCH  10  12
HETATM   12  C14 UNL     1      -4.018  29.719  56.650  1.00  0.00     0.099 C 
BRANCH  12  13
HETATM   13  C15 UNL     1      -3.531  30.836  55.873  1.00  0.00     0.026 A 
HETATM   14  N4  UNL     1      -4.441  31.764  55.429  1.00  0.00    -0.311 N 
HETATM   15  C16 UNL     1      -4.093  32.834  54.707  1.00  0.00     0.325 A 
ATOM     16  H4  UNL     1      -5.426  31.630  55.660  1.00  0.00     0.170 HD
HETATM   17  O2  UNL     1      -4.980  33.666  54.319  1.00  0.00    -0.247 OA
HETATM   18  N5  UNL     1      -2.800  33.014  54.401  1.00  0.00    -0.307 N 
HETATM   19  C17 UNL     1      -1.851  32.157  54.796  1.00  0.00     0.054 A 
ATOM     20  H5  UNL     1      -2.531  33.830  53.850  1.00  0.00     0.170 HD
HETATM   21  C19 UNL     1      -2.228  31.038  55.553  1.00  0.00    -0.011 A 
HETATM   22  C20 UNL     1      -1.145  30.122  55.976  1.00  0.00     0.052 C 
BRANCH  19  23
HETATM   23  C18 UNL     1      -0.442  32.372  54.451  1.00  0.00     0.111 C 
HETATM   24  S1  UNL     1       0.137  33.769  53.850  1.00  0.00    -0.090 SA
ENDBRANCH  19  23
ENDBRANCH  12  13
ENDBRANCH  10  12
BRANCH   1  25
HETATM   25  O1  UNL     1      -7.187  30.468  55.041  1.00  0.00    -0.339 OA
HETATM   26  C1  UNL     1      -7.607  30.821  56.345  1.00  0.00     0.211 C 
ENDBRANCH   1  25
BRANCH   4  27
HETATM   27  C3  UNL     1      -7.320  26.007  53.181  1.00  0.00     0.192 C 
BRANCH  27  28
HETATM   28  C4  UNL     1      -7.845  26.368  51.848  1.00  0.00     0.000 A 
HETATM   29  C5  UNL     1      -9.028  25.841  51.393  1.00  0.00     0.012 A 
HETATM   30  C6  UNL     1      -9.543  26.167  50.139  1.00  0.00     0.001 A 
HETATM   31  C7  UNL     1      -8.857  27.040  49.327  1.00  0.00     0.003 A 
HETATM   32  C8  UNL     1      -7.669  27.581  49.763  1.00  0.00     0.043 A 
HETATM   33  C9  UNL     1      -7.167  27.240  51.027  1.00  0.00     0.124 A 
HETATM   34  F1  UNL     1      -5.994  27.803  51.400  1.00  0.00    -0.205 F 
ENDBRANCH  27  28
ENDBRANCH   4  27
TORSDOF 6
ENDMDL
MODEL 5
REMARK VINA RESULT: -8.112650058      2.272      3.604
REMARK  6 active torsions:
REMARK  status: ('A' for Active; 'I' for Inactive)
REMARK    1  A    between atoms: O1_2  and  C2_3 
REMARK    2  A    between atoms: N2_6  and  C3_7 
REMARK    3  A    between atoms: C3_7  and  C4_8 
REMARK    4  A    between atoms: C13_20  and  C14_21 
REMARK    5  A    between atoms: C14_21  and  C15_22 
REMARK    6  A    between atoms: C17_29  and  C18_30 
ROOT
HETATM    1  C2  UNL     1      -3.072  29.487  56.010  1.00  0.00     0.171 A 
HETATM    2  N1  UNL     1      -4.392  29.662  55.882  1.00  0.00    -0.275 N 
ATOM      3  H1  UNL     1      -4.861  30.568  55.896  1.00  0.00     0.189 HD
HETATM    4  N2  UNL     1      -5.001  28.508  55.738  1.00  0.00    -0.269 N 
HETATM    5  C10 UNL     1      -4.112  27.501  55.763  1.00  0.00     0.138 A 
HETATM    6  N3  UNL     1      -3.936  26.180  55.680  1.00  0.00    -0.344 N 
ATOM      7  H3  UNL     1      -4.683  25.498  55.550  1.00  0.00     0.167 HD
HETATM    8  C11 UNL     1      -2.619  25.880  55.792  1.00  0.00     0.014 A 
HETATM    9  C12 UNL     1      -2.093  24.487  55.737  1.00  0.00     0.068 C 
HETATM   10  C13 UNL     1      -1.947  27.076  55.954  1.00  0.00    -0.012 A 
HETATM   11  C21 UNL     1      -2.864  28.113  55.939  1.00  0.00     0.070 A 
ENDROOT
BRANCH  10  12
HETATM   12  C14 UNL     1      -0.493  27.234  56.059  1.00  0.00     0.099 C 
BRANCH  12  13
HETATM   13  C15 UNL     1       0.180  26.671  57.208  1.00  0.00     0.026 A 
HETATM   14  N4  UNL     1      -0.100  27.197  58.445  1.00  0.00    -0.311 N 
HETATM   15  C16 UNL     1       0.466  26.747  59.570  1.00  0.00     0.325 A 
ATOM     16  H4  UNL     1      -0.769  27.965  58.509  1.00  0.00     0.170 HD
HETATM   17  O2  UNL     1       0.170  27.272  60.695  1.00  0.00    -0.247 OA
HETATM   18  N5  UNL     1       1.346  25.738  59.492  1.00  0.00    -0.307 N 
HETATM   19  C17 UNL     1       1.672  25.171  58.324  1.00  0.00     0.054 A 
ATOM     20  H5  UNL     1       1.779  25.392  60.348  1.00  0.00     0.170 HD
HETATM   21  C19 UNL     1       1.072  25.651  57.151  1.00  0.00    -0.011 A 
HETATM   22  C20 UNL     1       1.456  24.988  55.885  1.00  0.00     0.052 C 
BRANCH  19  23
HETATM   23  C18 UNL     1       2.637  24.067  58.260  1.00  0.00     0.111 C 
HETATM   24  S1  UNL     1       2.320  22.560  58.786  1.00  0.00    -0.090 SA
ENDBRANCH  19  23
ENDBRANCH  12  13
ENDBRANCH  10  12
BRANCH   1  25
HETATM   25  O1  UNL     1      -2.129  30.474  56.175  1.00  0.00    -0.339 OA
HETATM   26  C1  UNL     1      -1.336  30.890  55.081  1.00  0.00     0.211 C 
ENDBRANCH   1  25
BRANCH   4  27
HETATM   27  C3  UNL     1      -6.429  28.345  55.573  1.00  0.00     0.192 C 
BRANCH  27  28
HETATM   28  C4  UNL     1      -6.781  27.674  54.304  1.00  0.00     0.000 A 
HETATM   29  C5  UNL     1      -6.646  28.326  53.104  1.00  0.00     0.012 A 
HETATM   30  C6  UNL     1      -6.971  27.713  51.895  1.00  0.00     0.001 A 
HETATM   31  C7  UNL     1      -7.441  26.421  51.891  1.00  0.00     0.003 A 
HETATM   32  C8  UNL     1      -7.586  25.748  53.083  1.00  0.00     0.043 A 
HETATM   33  C9  UNL     1      -7.254  26.381  54.289  1.00  0.00     0.124 A 
HETATM   34  F1  UNL     1      -7.417  25.669  55.428  1.00  0.00    -0.205 F 
ENDBRANCH  27  28
ENDBRANCH   4  27
TORSDOF 6
ENDMDL
