MODEL 1
REMARK VINA RESULT: -7.933318865      0.000      0.000
REMARK  9 active torsions:
REMARK  status: ('A' for Active; 'I' for Inactive)
REMARK    1  A    between atoms: C2_2  and  N1_3 
REMARK    2  A    between atoms: C2_2  and  C13_19 
REMARK    3  A    between atoms: N1_3  and  C3_4 
REMARK    4  A    between atoms: N1_3  and  C7_8 
REMARK    5  A    between atoms: C3_4  and  C4_5 
REMARK    6  A    between atoms: C8_13  and  C9_14 
REMARK    7  A    between atoms: C13_19  and  N4_22 
REMARK    8  A    between atoms: N4_22  and  C14_25 
REMARK    9  A    between atoms: C21_32  and  O2_33 
ROOT
HETATM    1  C1  UNL     1      -2.431  29.096  57.986  1.00  0.00     0.040 C 
HETATM    2  C2  UNL     1      -3.101  27.915  57.175  1.00  0.00     0.186 C 
ENDROOT
BRANCH   2   3
HETATM    3  N1  UNL     1      -4.292  28.412  56.617  1.00  0.00    -0.333 N 
BRANCH   3   4
HETATM    4  C3  UNL     1      -4.707  29.822  56.509  1.00  0.00     0.132 C 
BRANCH   4   5
HETATM    5  C4  UNL     1      -6.027  30.045  57.149  1.00  0.00     0.004 A 
HETATM    6  C5  UNL     1      -7.147  30.621  56.268  1.00  0.00     0.007 A 
HETATM    7  C6  UNL     1      -6.598  31.397  57.437  1.00  0.00     0.007 A 
ENDBRANCH   4   5
ENDBRANCH   3   4
BRANCH   3   8
HETATM    8  C7  UNL     1      -5.239  27.532  55.957  1.00  0.00     0.243 A 
HETATM    9  N2  UNL     1      -5.783  26.450  56.476  1.00  0.00    -0.263 N 
HETATM   10  N3  UNL     1      -6.600  25.963  55.519  1.00  0.00    -0.279 N 
ATOM     11  H2  UNL     1      -5.621  26.061  57.405  1.00  0.00     0.190 HD
HETATM   12  C8  UNL     1      -6.529  26.755  54.467  1.00  0.00     0.149 A 
ATOM     13  H3  UNL     1      -7.176  25.125  55.596  1.00  0.00     0.189 HD
HETATM   14  O1  UNL     1      -5.693  27.731  54.720  1.00  0.00    -0.263 OA
BRANCH  12  15
HETATM   15  C9  UNL     1      -7.277  26.600  53.162  1.00  0.00     0.016 C 
HETATM   16  C10 UNL     1      -6.534  27.420  52.141  1.00  0.00     0.023 C 
HETATM   17  C11 UNL     1      -8.675  27.163  53.406  1.00  0.00     0.023 C 
HETATM   18  C12 UNL     1      -7.347  25.153  52.829  1.00  0.00     0.023 C 
ENDBRANCH  12  15
ENDBRANCH   3   8
ENDBRANCH   2   3
BRANCH   2  19
HETATM   19  C13 UNL     1      -2.016  27.492  56.238  1.00  0.00     0.424 C 
HETATM   20  F1  UNL     1      -1.703  28.834  55.653  1.00  0.00    -0.173 F 
HETATM   21  F2  UNL     1      -2.439  26.741  55.197  1.00  0.00    -0.173 F 
BRANCH  19  22
HETATM   22  N4  UNL     1      -0.773  27.056  56.762  1.00  0.00    -0.002 N 
ATOM     23  H42 UNL     1      -0.129  27.838  56.878  1.00  0.00     0.284 HD
ATOM     24  H41 UNL     1      -0.865  26.774  57.738  1.00  0.00     0.284 HD
BRANCH  22  25
HETATM   25  C14 UNL     1      -0.172  25.993  55.962  1.00  0.00     0.201 C 
HETATM   26  C15 UNL     1       1.254  26.176  55.610  1.00  0.00     0.020 C 
HETATM   27  C16 UNL     1       2.195  26.174  56.798  1.00  0.00     0.011 C 
HETATM   28  C23 UNL     1       1.711  24.997  54.747  1.00  0.00     0.044 C 
HETATM   29  C17 UNL     1       2.021  24.885  57.588  1.00  0.00    -0.011 C 
HETATM   30  C18 UNL     1       0.595  24.843  58.035  1.00  0.00     0.011 C 
HETATM   31  C22 UNL     1       2.345  23.687  56.719  1.00  0.00     0.042 C 
HETATM   32  C19 UNL     1      -0.290  24.710  56.798  1.00  0.00     0.020 C 
HETATM   33  C20 UNL     1       0.052  23.558  55.918  1.00  0.00     0.044 C 
HETATM   34  C21 UNL     1       1.499  23.697  55.484  1.00  0.00     0.059 C 
BRANCH  34  35
HETATM   35  O2  UNL     1       1.774  22.639  54.657  1.00  0.00    -0.390 OA
ATOM     36  H2  UNL     1       2.164  21.960  55.193  1.00  0.00     0.210 HD
ENDBRANCH  34  35
ENDBRANCH  22  25
ENDBRANCH  19  22
ENDBRANCH   2  19
TORSDOF 9
ENDMDL
MODEL 2
REMARK VINA RESULT: -7.843855644      2.377      8.109
REMARK  9 active torsions:
REMARK  status: ('A' for Active; 'I' for Inactive)
REMARK    1  A    between atoms: C2_2  and  N1_3 
REMARK    2  A    between atoms: C2_2  and  C13_19 
REMARK    3  A    between atoms: N1_3  and  C3_4 
REMARK    4  A    between atoms: N1_3  and  C7_8 
REMARK    5  A    between atoms: C3_4  and  C4_5 
REMARK    6  A    between atoms: C8_13  and  C9_14 
REMARK    7  A    between atoms: C13_19  and  N4_22 
REMARK    8  A    between atoms: N4_22  and  C14_25 
REMARK    9  A    between atoms: C21_32  and  O2_33 
ROOT
HETATM    1  C1  UNL     1      -3.001  28.823  57.033  1.00  0.00     0.040 C 
HETATM    2  C2  UNL     1      -4.261  28.754  56.081  1.00  0.00     0.186 C 
ENDROOT
BRANCH   2   3
HETATM    3  N1  UNL     1      -4.004  27.763  55.117  1.00  0.00    -0.333 N 
BRANCH   3   4
HETATM    4  C3  UNL     1      -4.389  27.779  53.695  1.00  0.00     0.132 C 
BRANCH   4   5
HETATM    5  C4  UNL     1      -5.806  27.375  53.517  1.00  0.00     0.004 A 
HETATM    6  C5  UNL     1      -6.482  27.748  52.188  1.00  0.00     0.007 A 
HETATM    7  C6  UNL     1      -6.952  28.337  53.493  1.00  0.00     0.007 A 
ENDBRANCH   4   5
ENDBRANCH   3   4
BRANCH   3   8
HETATM    8  C7  UNL     1      -3.188  26.603  55.429  1.00  0.00     0.243 A 
HETATM    9  N2  UNL     1      -3.602  25.353  55.471  1.00  0.00    -0.263 N 
HETATM   10  N3  UNL     1      -2.511  24.623  55.785  1.00  0.00    -0.279 N 
ATOM     11  H2  UNL     1      -4.547  25.009  55.302  1.00  0.00     0.190 HD
HETATM   12  C8  UNL     1      -1.486  25.441  55.919  1.00  0.00     0.149 A 
ATOM     13  H3  UNL     1      -2.484  23.610  55.899  1.00  0.00     0.189 HD
HETATM   14  O1  UNL     1      -1.886  26.670  55.702  1.00  0.00    -0.263 OA
BRANCH  12  15
HETATM   15  C9  UNL     1      -0.063  25.064  56.263  1.00  0.00     0.016 C 
HETATM   16  C10 UNL     1       0.061  23.584  56.012  1.00  0.00     0.023 C 
HETATM   17  C11 UNL     1       0.114  25.385  57.745  1.00  0.00     0.023 C 
HETATM   18  C12 UNL     1       0.856  25.887  55.435  1.00  0.00     0.023 C 
ENDBRANCH  12  15
ENDBRANCH   3   8
ENDBRANCH   2   3
BRANCH   2  19
HETATM   19  C13 UNL     1      -5.391  28.524  57.033  1.00  0.00     0.424 C 
HETATM   20  F1  UNL     1      -4.581  28.185  58.247  1.00  0.00    -0.173 F 
HETATM   21  F2  UNL     1      -6.123  27.418  56.774  1.00  0.00    -0.173 F 
BRANCH  19  22
HETATM   22  N4  UNL     1      -6.182  29.623  57.453  1.00  0.00    -0.002 N 
ATOM     23  H42 UNL     1      -7.103  29.314  57.765  1.00  0.00     0.284 HD
ATOM     24  H41 UNL     1      -5.835  30.012  58.330  1.00  0.00     0.284 HD
BRANCH  22  25
HETATM   25  C14 UNL     1      -6.292  30.655  56.426  1.00  0.00     0.201 C 
HETATM   26  C15 UNL     1      -7.668  31.011  56.012  1.00  0.00     0.020 C 
HETATM   27  C16 UNL     1      -8.507  31.639  57.107  1.00  0.00     0.011 C 
HETATM   28  C23 UNL     1      -7.600  32.074  54.913  1.00  0.00     0.044 C 
HETATM   29  C17 UNL     1      -7.798  32.870  57.652  1.00  0.00    -0.011 C 
HETATM   30  C18 UNL     1      -6.480  32.409  58.187  1.00  0.00     0.011 C 
HETATM   31  C22 UNL     1      -7.601  33.895  56.553  1.00  0.00     0.042 C 
HETATM   32  C19 UNL     1      -5.637  31.914  57.014  1.00  0.00     0.020 C 
HETATM   33  C20 UNL     1      -5.476  32.902  55.911  1.00  0.00     0.044 C 
HETATM   34  C21 UNL     1      -6.853  33.290  55.407  1.00  0.00     0.059 C 
BRANCH  34  35
HETATM   35  O2  UNL     1      -6.670  34.177  54.378  1.00  0.00    -0.390 OA
ATOM     36  H2  UNL     1      -7.362  34.018  53.747  1.00  0.00     0.210 HD
ENDBRANCH  34  35
ENDBRANCH  22  25
ENDBRANCH  19  22
ENDBRANCH   2  19
TORSDOF 9
ENDMDL
MODEL 3
REMARK VINA RESULT: -7.838895404      2.392      7.855
REMARK  9 active torsions:
REMARK  status: ('A' for Active; 'I' for Inactive)
REMARK    1  A    between atoms: C2_2  and  N1_3 
REMARK    2  A    between atoms: C2_2  and  C13_19 
REMARK    3  A    between atoms: N1_3  and  C3_4 
REMARK    4  A    between atoms: N1_3  and  C7_8 
REMARK    5  A    between atoms: C3_4  and  C4_5 
REMARK    6  A    between atoms: C8_13  and  C9_14 
REMARK    7  A    between atoms: C13_19  and  N4_22 
REMARK    8  A    between atoms: N4_22  and  C14_25 
REMARK    9  A    between atoms: C21_32  and  O2_33 
ROOT
HETATM    1  C1  UNL     1      -1.911  29.620  56.767  1.00  0.00     0.040 C 
HETATM    2  C2  UNL     1      -3.189  29.245  55.914  1.00  0.00     0.186 C 
ENDROOT
BRANCH   2   3
HETATM    3  N1  UNL     1      -3.355  27.851  55.999  1.00  0.00    -0.333 N 
BRANCH   3   4
HETATM    4  C3  UNL     1      -2.500  26.893  56.722  1.00  0.00     0.132 C 
BRANCH   4   5
HETATM    5  C4  UNL     1      -1.588  26.181  55.793  1.00  0.00     0.004 A 
HETATM    6  C5  UNL     1      -1.617  24.644  55.819  1.00  0.00     0.007 A 
HETATM    7  C6  UNL     1      -0.385  25.407  56.233  1.00  0.00     0.007 A 
ENDBRANCH   4   5
ENDBRANCH   3   4
BRANCH   3   8
HETATM    8  C7  UNL     1      -4.521  27.197  55.434  1.00  0.00     0.243 A 
HETATM    9  N2  UNL     1      -5.115  26.122  55.913  1.00  0.00    -0.263 N 
HETATM   10  N3  UNL     1      -6.151  25.884  55.082  1.00  0.00    -0.279 N 
ATOM     11  H2  UNL     1      -4.849  25.585  56.738  1.00  0.00     0.190 HD
HETATM   12  C8  UNL     1      -6.154  26.808  54.141  1.00  0.00     0.149 A 
ATOM     13  H3  UNL     1      -6.819  25.118  55.167  1.00  0.00     0.189 HD
HETATM   14  O1  UNL     1      -5.153  27.629  54.344  1.00  0.00    -0.263 OA
BRANCH  12  15
HETATM   15  C9  UNL     1      -7.136  26.937  53.000  1.00  0.00     0.016 C 
HETATM   16  C10 UNL     1      -6.429  27.698  51.909  1.00  0.00     0.023 C 
HETATM   17  C11 UNL     1      -8.318  27.734  53.546  1.00  0.00     0.023 C 
HETATM   18  C12 UNL     1      -7.567  25.575  52.593  1.00  0.00     0.023 C 
ENDBRANCH  12  15
ENDBRANCH   3   8
ENDBRANCH   2   3
BRANCH   2  19
HETATM   19  C13 UNL     1      -4.254  30.112  56.503  1.00  0.00     0.424 C 
HETATM   20  F1  UNL     1      -3.384  31.247  56.948  1.00  0.00    -0.173 F 
HETATM   21  F2  UNL     1      -4.807  29.624  57.635  1.00  0.00    -0.173 F 
BRANCH  19  22
HETATM   22  N4  UNL     1      -5.202  30.730  55.649  1.00  0.00    -0.002 N 
ATOM     23  H42 UNL     1      -4.815  31.569  55.218  1.00  0.00     0.284 HD
ATOM     24  H41 UNL     1      -5.358  30.171  54.810  1.00  0.00     0.284 HD
BRANCH  22  25
HETATM   25  C14 UNL     1      -6.460  31.019  56.330  1.00  0.00     0.201 C 
HETATM   26  C15 UNL     1      -6.429  32.137  57.300  1.00  0.00     0.020 C 
HETATM   27  C16 UNL     1      -6.146  33.491  56.683  1.00  0.00     0.011 C 
HETATM   28  C23 UNL     1      -7.811  32.280  57.943  1.00  0.00     0.044 C 
HETATM   29  C17 UNL     1      -7.170  33.782  55.595  1.00  0.00    -0.011 C 
HETATM   30  C18 UNL     1      -7.041  32.694  54.579  1.00  0.00     0.011 C 
HETATM   31  C22 UNL     1      -8.568  33.806  56.180  1.00  0.00     0.042 C 
HETATM   32  C19 UNL     1      -7.469  31.381  55.229  1.00  0.00     0.020 C 
HETATM   33  C20 UNL     1      -8.825  31.411  55.843  1.00  0.00     0.044 C 
HETATM   34  C21 UNL     1      -8.859  32.516  56.882  1.00  0.00     0.059 C 
BRANCH  34  35
HETATM   35  O2  UNL     1     -10.108  32.500  57.446  1.00  0.00    -0.390 OA
ATOM     36  H2  UNL     1      -9.994  32.640  58.378  1.00  0.00     0.210 HD
ENDBRANCH  34  35
ENDBRANCH  22  25
ENDBRANCH  19  22
ENDBRANCH   2  19
TORSDOF 9
ENDMDL
MODEL 4
REMARK VINA RESULT: -7.829410749      2.568      7.189
REMARK  9 active torsions:
REMARK  status: ('A' for Active; 'I' for Inactive)
REMARK    1  A    between atoms: C2_2  and  N1_3 
REMARK    2  A    between atoms: C2_2  and  C13_19 
REMARK    3  A    between atoms: N1_3  and  C3_4 
REMARK    4  A    between atoms: N1_3  and  C7_8 
REMARK    5  A    between atoms: C3_4  and  C4_5 
REMARK    6  A    between atoms: C8_13  and  C9_14 
REMARK    7  A    between atoms: C13_19  and  N4_22 
REMARK    8  A    between atoms: N4_22  and  C14_25 
REMARK    9  A    between atoms: C21_32  and  O2_33 
ROOT
HETATM    1  C1  UNL     1      -1.583  29.810  55.299  1.00  0.00     0.040 C 
HETATM    2  C2  UNL     1      -3.063  29.324  55.568  1.00  0.00     0.186 C 
ENDROOT
BRANCH   2   3
HETATM    3  N1  UNL     1      -3.086  27.930  55.386  1.00  0.00    -0.333 N 
BRANCH   3   4
HETATM    4  C3  UNL     1      -1.980  26.982  55.608  1.00  0.00     0.132 C 
BRANCH   4   5
HETATM    5  C4  UNL     1      -1.792  26.706  57.054  1.00  0.00     0.004 A 
HETATM    6  C5  UNL     1      -0.470  27.164  57.691  1.00  0.00     0.007 A 
HETATM    7  C6  UNL     1      -0.823  25.702  57.593  1.00  0.00     0.007 A 
ENDBRANCH   4   5
ENDBRANCH   3   4
BRANCH   3   8
HETATM    8  C7  UNL     1      -4.314  27.236  55.040  1.00  0.00     0.243 A 
HETATM    9  N2  UNL     1      -4.830  26.208  55.682  1.00  0.00    -0.263 N 
HETATM   10  N3  UNL     1      -5.968  25.906  55.022  1.00  0.00    -0.279 N 
ATOM     11  H2  UNL     1      -4.451  25.739  56.504  1.00  0.00     0.190 HD
HETATM   12  C8  UNL     1      -6.104  26.750  54.017  1.00  0.00     0.149 A 
ATOM     13  H3  UNL     1      -6.612  25.153  55.259  1.00  0.00     0.189 HD
HETATM   14  O1  UNL     1      -5.091  27.580  54.014  1.00  0.00    -0.263 OA
BRANCH  12  15
HETATM   15  C9  UNL     1      -7.233  26.789  53.013  1.00  0.00     0.016 C 
HETATM   16  C10 UNL     1      -6.738  27.597  51.842  1.00  0.00     0.023 C 
HETATM   17  C11 UNL     1      -8.396  27.490  53.710  1.00  0.00     0.023 C 
HETATM   18  C12 UNL     1      -7.599  25.392  52.661  1.00  0.00     0.023 C 
ENDBRANCH  12  15
ENDBRANCH   3   8
ENDBRANCH   2   3
BRANCH   2  19
HETATM   19  C13 UNL     1      -3.349  29.854  56.936  1.00  0.00     0.424 C 
HETATM   20  F1  UNL     1      -1.935  30.017  57.402  1.00  0.00    -0.173 F 
HETATM   21  F2  UNL     1      -3.899  28.952  57.780  1.00  0.00    -0.173 F 
BRANCH  19  22
HETATM   22  N4  UNL     1      -3.902  31.151  57.080  1.00  0.00    -0.002 N 
ATOM     23  H42 UNL     1      -4.275  31.289  58.019  1.00  0.00     0.284 HD
ATOM     24  H41 UNL     1      -3.172  31.863  57.088  1.00  0.00     0.284 HD
BRANCH  22  25
HETATM   25  C14 UNL     1      -4.910  31.442  56.065  1.00  0.00     0.201 C 
HETATM   26  C15 UNL     1      -6.042  30.491  55.985  1.00  0.00     0.020 C 
HETATM   27  C16 UNL     1      -6.916  30.455  57.222  1.00  0.00     0.011 C 
HETATM   28  C23 UNL     1      -6.979  30.923  54.855  1.00  0.00     0.044 C 
HETATM   29  C17 UNL     1      -7.440  31.853  57.519  1.00  0.00    -0.011 C 
HETATM   30  C18 UNL     1      -6.244  32.724  57.735  1.00  0.00     0.011 C 
HETATM   31  C22 UNL     1      -8.271  32.362  56.359  1.00  0.00     0.042 C 
HETATM   32  C19 UNL     1      -5.482  32.824  56.415  1.00  0.00     0.020 C 
HETATM   33  C20 UNL     1      -6.306  33.284  55.263  1.00  0.00     0.044 C 
HETATM   34  C21 UNL     1      -7.473  32.329  55.094  1.00  0.00     0.059 C 
BRANCH  34  35
HETATM   35  O2  UNL     1      -8.194  32.762  54.012  1.00  0.00    -0.390 OA
ATOM     36  H2  UNL     1      -8.548  31.991  53.586  1.00  0.00     0.210 HD
ENDBRANCH  34  35
ENDBRANCH  22  25
ENDBRANCH  19  22
ENDBRANCH   2  19
TORSDOF 9
ENDMDL
MODEL 5
REMARK VINA RESULT: -7.749744384      0.845      1.293
REMARK  9 active torsions:
REMARK  status: ('A' for Active; 'I' for Inactive)
REMARK    1  A    between atoms: C2_2  and  N1_3 
REMARK    2  A    between atoms: C2_2  and  C13_19 
REMARK    3  A    between atoms: N1_3  and  C3_4 
REMARK    4  A    between atoms: N1_3  and  C7_8 
REMARK    5  A    between atoms: C3_4  and  C4_5 
REMARK    6  A    between atoms: C8_13  and  C9_14 
REMARK    7  A    between atoms: C13_19  and  N4_22 
REMARK    8  A    between atoms: N4_22  and  C14_25 
REMARK    9  A    between atoms: C21_32  and  O2_33 
ROOT
HETATM    1  C1  UNL     1      -2.224  28.852  57.655  1.00  0.00     0.040 C 
HETATM    2  C2  UNL     1      -3.118  27.665  57.115  1.00  0.00     0.186 C 
ENDROOT
BRANCH   2   3
HETATM    3  N1  UNL     1      -4.301  28.230  56.606  1.00  0.00    -0.333 N 
BRANCH   3   4
HETATM    4  C3  UNL     1      -4.659  29.659  56.556  1.00  0.00     0.132 C 
BRANCH   4   5
HETATM    5  C4  UNL     1      -5.985  29.902  57.176  1.00  0.00     0.004 A 
HETATM    6  C5  UNL     1      -7.079  30.506  56.281  1.00  0.00     0.007 A 
HETATM    7  C6  UNL     1      -6.534  31.263  57.465  1.00  0.00     0.007 A 
ENDBRANCH   4   5
ENDBRANCH   3   4
BRANCH   3   8
HETATM    8  C7  UNL     1      -5.300  27.412  55.942  1.00  0.00     0.243 A 
HETATM    9  N2  UNL     1      -5.945  26.393  56.472  1.00  0.00    -0.263 N 
HETATM   10  N3  UNL     1      -6.774  25.949  55.505  1.00  0.00    -0.279 N 
ATOM     11  H2  UNL     1      -5.840  26.019  57.415  1.00  0.00     0.190 HD
HETATM   12  C8  UNL     1      -6.610  26.703  54.435  1.00  0.00     0.149 A 
ATOM     13  H3  UNL     1      -7.419  25.163  55.586  1.00  0.00     0.189 HD
HETATM   14  O1  UNL     1      -5.702  27.614  54.688  1.00  0.00    -0.263 OA
BRANCH  12  15
HETATM   15  C9  UNL     1      -7.334  26.574  53.114  1.00  0.00     0.016 C 
HETATM   16  C10 UNL     1      -6.572  27.413  52.124  1.00  0.00     0.023 C 
HETATM   17  C11 UNL     1      -8.735  27.133  53.343  1.00  0.00     0.023 C 
HETATM   18  C12 UNL     1      -7.398  25.134  52.752  1.00  0.00     0.023 C 
ENDBRANCH  12  15
ENDBRANCH   3   8
ENDBRANCH   2   3
BRANCH   2  19
HETATM   19  C13 UNL     1      -2.208  26.968  56.155  1.00  0.00     0.424 C 
HETATM   20  F1  UNL     1      -2.301  27.945  55.024  1.00  0.00    -0.173 F 
HETATM   21  F2  UNL     1      -2.699  25.809  55.664  1.00  0.00    -0.173 F 
BRANCH  19  22
HETATM   22  N4  UNL     1      -0.819  26.905  56.432  1.00  0.00    -0.002 N 
ATOM     23  H42 UNL     1      -0.273  27.277  55.655  1.00  0.00     0.284 HD
ATOM     24  H41 UNL     1      -0.558  27.577  57.153  1.00  0.00     0.284 HD
BRANCH  22  25
HETATM   25  C14 UNL     1      -0.382  25.558  56.784  1.00  0.00     0.201 C 
HETATM   26  C15 UNL     1       0.127  24.730  55.668  1.00  0.00     0.020 C 
HETATM   27  C16 UNL     1       1.395  25.258  55.027  1.00  0.00     0.011 C 
HETATM   28  C23 UNL     1       0.507  23.347  56.204  1.00  0.00     0.044 C 
HETATM   29  C17 UNL     1       2.476  25.416  56.086  1.00  0.00    -0.011 C 
HETATM   30  C18 UNL     1       1.949  26.379  57.100  1.00  0.00     0.011 C 
HETATM   31  C22 UNL     1       2.786  24.079  56.727  1.00  0.00     0.042 C 
HETATM   32  C19 UNL     1       0.757  25.730  57.800  1.00  0.00     0.020 C 
HETATM   33  C20 UNL     1       1.046  24.396  58.396  1.00  0.00     0.044 C 
HETATM   34  C21 UNL     1       1.541  23.475  57.296  1.00  0.00     0.059 C 
BRANCH  34  35
HETATM   35  O2  UNL     1       1.770  22.251  57.870  1.00  0.00    -0.390 OA
ATOM     36  H2  UNL     1       2.295  21.750  57.256  1.00  0.00     0.210 HD
ENDBRANCH  34  35
ENDBRANCH  22  25
ENDBRANCH  19  22
ENDBRANCH   2  19
TORSDOF 9
ENDMDL
