MODEL 1
REMARK VINA RESULT: -6.817637675      0.000      0.000
REMARK  11 active torsions:
REMARK  status: ('A' for Active; 'I' for Inactive)
REMARK    1  A    between atoms: C3_5  and  N2_7 
REMARK    2  A    between atoms: N2_7  and  C5_9 
REMARK    3  A    between atoms: C5_9  and  N3_11 
REMARK    4  A    between atoms: N3_11  and  N4_13 
REMARK    5  A    between atoms: N4_13  and  C6_14 
REMARK    6  A    between atoms: C6_14  and  C7_15 
REMARK    7  A    between atoms: C10_19  and  C11_20 
REMARK    8  A    between atoms: C11_20  and  C12_21 
REMARK    9  A    between atoms: C15_24  and  O1_25 
REMARK   10  A    between atoms: O1_25  and  C16_26 
REMARK   11  A    between atoms: C18_29  and  O3_30 
ROOT
HETATM    1  C1  UNL     1      -8.754  27.569  48.821  1.00  0.00     0.037 C 
HETATM    2  C2  UNL     1      -8.595  26.889  49.803  1.00  0.00     0.000 C 
HETATM    3  N1  UNL     1      -8.441  26.088  50.912  1.00  0.00    -0.306 N 
ATOM      4  H1  UNL     1      -8.950  25.206  50.959  1.00  0.00     0.177 HD
HETATM    5  C3  UNL     1      -7.679  26.417  51.888  1.00  0.00     0.086 C 
HETATM    6  C4  UNL     1      -7.537  25.518  53.073  1.00  0.00     0.089 C 
ENDROOT
BRANCH   5   7
HETATM    7  N2  UNL     1      -6.974  27.647  51.845  1.00  0.00    -0.321 N 
ATOM      8  H2  UNL     1      -6.950  28.201  50.989  1.00  0.00     0.169 HD
BRANCH   7   9
HETATM    9  C5  UNL     1      -6.304  28.093  53.007  1.00  0.00     0.202 C 
HETATM   10  S1  UNL     1      -7.026  28.995  54.125  1.00  0.00    -0.038 SA
BRANCH   9  11
HETATM   11  N3  UNL     1      -4.917  27.729  53.173  1.00  0.00    -0.209 N 
ATOM     12  H3  UNL     1      -4.278  27.865  52.390  1.00  0.00     0.204 HD
BRANCH  11  13
HETATM   13  N4  UNL     1      -4.446  27.232  54.289  1.00  0.00    -0.335 NA
BRANCH  13  14
HETATM   14  C6  UNL     1      -4.039  26.786  55.297  1.00  0.00     0.225 C 
BRANCH  14  15
HETATM   15  C7  UNL     1      -2.944  27.065  56.200  1.00  0.00     0.053 A 
HETATM   16  C8  UNL     1      -1.953  26.155  56.423  1.00  0.00     0.050 A 
HETATM   17 CL1  UNL     1      -1.941  24.622  55.595  1.00  0.00    -0.083 Cl
HETATM   18  C9  UNL     1      -0.902  26.431  57.320  1.00  0.00     0.034 A 
HETATM   19  C10 UNL     1      -0.826  27.612  58.009  1.00  0.00    -0.019 A 
HETATM   20  C15 UNL     1      -1.816  28.528  57.794  1.00  0.00     0.119 A 
HETATM   21  C18 UNL     1      -2.845  28.271  56.918  1.00  0.00     0.117 A 
BRANCH  19  22
HETATM   22  C11 UNL     1       0.306  27.819  58.935  1.00  0.00     0.045 C 
BRANCH  22  23
HETATM   23  C12 UNL     1       0.770  26.496  59.527  1.00  0.00    -0.018 C 
HETATM   24  C13 UNL     1       2.290  26.435  59.485  1.00  0.00     0.010 C 
HETATM   25  C14 UNL     1       0.402  26.550  60.991  1.00  0.00     0.010 C 
ENDBRANCH  22  23
ENDBRANCH  19  22
BRANCH  20  26
HETATM   26  O1  UNL     1      -1.775  29.723  58.468  1.00  0.00    -0.276 OA
BRANCH  26  27
HETATM   27  C16 UNL     1      -2.461  29.945  59.643  1.00  0.00     0.260 C 
HETATM   28  C17 UNL     1      -1.747  29.632  60.911  1.00  0.00     0.126 C 
HETATM   29  O2  UNL     1      -3.628  30.393  59.568  1.00  0.00    -0.265 OA
ENDBRANCH  26  27
ENDBRANCH  20  26
BRANCH  21  30
HETATM   30  O3  UNL     1      -3.843  29.208  56.712  1.00  0.00    -0.352 OA
HETATM   31  C19 UNL     1      -3.775  30.392  55.997  1.00  0.00     0.210 C 
ENDBRANCH  21  30
ENDBRANCH  14  15
ENDBRANCH  13  14
ENDBRANCH  11  13
ENDBRANCH   9  11
ENDBRANCH   7   9
ENDBRANCH   5   7
TORSDOF 11
ENDMDL
MODEL 2
REMARK VINA RESULT: -6.775446604      1.987      3.041
REMARK  11 active torsions:
REMARK  status: ('A' for Active; 'I' for Inactive)
REMARK    1  A    between atoms: C3_5  and  N2_7 
REMARK    2  A    between atoms: N2_7  and  C5_9 
REMARK    3  A    between atoms: C5_9  and  N3_11 
REMARK    4  A    between atoms: N3_11  and  N4_13 
REMARK    5  A    between atoms: N4_13  and  C6_14 
REMARK    6  A    between atoms: C6_14  and  C7_15 
REMARK    7  A    between atoms: C10_19  and  C11_20 
REMARK    8  A    between atoms: C11_20  and  C12_21 
REMARK    9  A    between atoms: C15_24  and  O1_25 
REMARK   10  A    between atoms: O1_25  and  C16_26 
REMARK   11  A    between atoms: C18_29  and  O3_30 
ROOT
HETATM    1  C1  UNL     1      -9.077  27.551  48.900  1.00  0.00     0.037 C 
HETATM    2  C2  UNL     1      -8.838  26.853  49.853  1.00  0.00     0.000 C 
HETATM    3  N1  UNL     1      -8.591  26.031  50.929  1.00  0.00    -0.306 N 
ATOM      4  H1  UNL     1      -9.043  25.117  50.966  1.00  0.00     0.177 HD
HETATM    5  C3  UNL     1      -7.813  26.376  51.885  1.00  0.00     0.086 C 
HETATM    6  C4  UNL     1      -7.569  25.453  53.035  1.00  0.00     0.089 C 
ENDROOT
BRANCH   5   7
HETATM    7  N2  UNL     1      -7.186  27.649  51.856  1.00  0.00    -0.321 N 
ATOM      8  H2  UNL     1      -7.219  28.223  51.014  1.00  0.00     0.169 HD
BRANCH   7   9
HETATM    9  C5  UNL     1      -6.515  28.109  53.011  1.00  0.00     0.202 C 
HETATM   10  S1  UNL     1      -7.217  29.074  54.089  1.00  0.00    -0.038 SA
BRANCH   9  11
HETATM   11  N3  UNL     1      -5.145  27.699  53.209  1.00  0.00    -0.209 N 
ATOM     12  H3  UNL     1      -4.514  27.694  52.407  1.00  0.00     0.204 HD
BRANCH  11  13
HETATM   13  N4  UNL     1      -4.679  27.333  54.376  1.00  0.00    -0.335 NA
BRANCH  13  14
HETATM   14  C6  UNL     1      -4.245  27.004  55.417  1.00  0.00     0.225 C 
BRANCH  14  15
HETATM   15  C7  UNL     1      -3.357  27.570  56.410  1.00  0.00     0.053 A 
HETATM   16  C8  UNL     1      -3.788  28.515  57.295  1.00  0.00     0.050 A 
HETATM   17 CL1  UNL     1      -5.445  29.056  57.295  1.00  0.00    -0.083 Cl
HETATM   18  C9  UNL     1      -2.910  29.074  58.244  1.00  0.00     0.034 A 
HETATM   19  C10 UNL     1      -1.594  28.704  58.323  1.00  0.00    -0.019 A 
HETATM   20  C15 UNL     1      -1.154  27.760  57.439  1.00  0.00     0.119 A 
HETATM   21  C18 UNL     1      -2.003  27.206  56.510  1.00  0.00     0.117 A 
BRANCH  19  22
HETATM   22  C11 UNL     1      -0.739  29.342  59.344  1.00  0.00     0.045 C 
BRANCH  22  23
HETATM   23  C12 UNL     1      -1.272  29.069  60.744  1.00  0.00    -0.018 C 
HETATM   24  C13 UNL     1      -0.233  28.283  61.531  1.00  0.00     0.010 C 
HETATM   25  C14 UNL     1      -1.365  30.417  61.419  1.00  0.00     0.010 C 
ENDBRANCH  22  23
ENDBRANCH  19  22
BRANCH  20  26
HETATM   26  O1  UNL     1       0.160  27.366  57.486  1.00  0.00    -0.276 OA
BRANCH  26  27
HETATM   27  C16 UNL     1       0.640  26.465  58.413  1.00  0.00     0.260 C 
HETATM   28  C17 UNL     1       2.094  26.530  58.726  1.00  0.00     0.126 C 
HETATM   29  O2  UNL     1      -0.169  25.662  58.928  1.00  0.00    -0.265 OA
ENDBRANCH  26  27
ENDBRANCH  20  26
BRANCH  21  30
HETATM   30  O3  UNL     1      -1.542  26.253  55.618  1.00  0.00    -0.352 OA
HETATM   31  C19 UNL     1      -1.501  24.877  55.776  1.00  0.00     0.210 C 
ENDBRANCH  21  30
ENDBRANCH  14  15
ENDBRANCH  13  14
ENDBRANCH  11  13
ENDBRANCH   9  11
ENDBRANCH   7   9
ENDBRANCH   5   7
TORSDOF 11
ENDMDL
MODEL 3
REMARK VINA RESULT: -6.763950934      2.970      4.417
REMARK  11 active torsions:
REMARK  status: ('A' for Active; 'I' for Inactive)
REMARK    1  A    between atoms: C3_5  and  N2_7 
REMARK    2  A    between atoms: N2_7  and  C5_9 
REMARK    3  A    between atoms: C5_9  and  N3_11 
REMARK    4  A    between atoms: N3_11  and  N4_13 
REMARK    5  A    between atoms: N4_13  and  C6_14 
REMARK    6  A    between atoms: C6_14  and  C7_15 
REMARK    7  A    between atoms: C10_19  and  C11_20 
REMARK    8  A    between atoms: C11_20  and  C12_21 
REMARK    9  A    between atoms: C15_24  and  O1_25 
REMARK   10  A    between atoms: O1_25  and  C16_26 
REMARK   11  A    between atoms: C18_29  and  O3_30 
ROOT
HETATM    1  C1  UNL     1      -7.641  27.157  50.823  1.00  0.00     0.037 C 
HETATM    2  C2  UNL     1      -7.792  26.745  51.946  1.00  0.00     0.000 C 
HETATM    3  N1  UNL     1      -8.003  26.274  53.222  1.00  0.00    -0.306 N 
ATOM      4  H1  UNL     1      -8.934  25.946  53.480  1.00  0.00     0.177 HD
HETATM    5  C3  UNL     1      -7.068  26.233  54.096  1.00  0.00     0.086 C 
HETATM    6  C4  UNL     1      -7.338  25.711  55.470  1.00  0.00     0.089 C 
ENDROOT
BRANCH   5   7
HETATM    7  N2  UNL     1      -5.770  26.696  53.758  1.00  0.00    -0.321 N 
ATOM      8  H2  UNL     1      -5.504  26.823  52.782  1.00  0.00     0.169 HD
BRANCH   7   9
HETATM    9  C5  UNL     1      -4.853  26.980  54.795  1.00  0.00     0.202 C 
HETATM   10  S1  UNL     1      -4.777  28.420  55.508  1.00  0.00    -0.038 SA
BRANCH   9  11
HETATM   11  N3  UNL     1      -3.949  25.933  55.207  1.00  0.00    -0.209 N 
ATOM     12  H3  UNL     1      -4.294  24.974  55.243  1.00  0.00     0.204 HD
BRANCH  11  13
HETATM   13  N4  UNL     1      -2.704  26.165  55.537  1.00  0.00    -0.335 NA
BRANCH  13  14
HETATM   14  C6  UNL     1      -1.585  26.384  55.821  1.00  0.00     0.225 C 
BRANCH  14  15
HETATM   15  C7  UNL     1      -0.800  26.429  57.036  1.00  0.00     0.053 A 
HETATM   16  C8  UNL     1      -0.724  27.560  57.794  1.00  0.00     0.050 A 
HETATM   17 CL1  UNL     1      -1.604  28.998  57.351  1.00  0.00    -0.083 Cl
HETATM   18  C9  UNL     1       0.058  27.597  58.965  1.00  0.00     0.034 A 
HETATM   19  C10 UNL     1       0.777  26.513  59.394  1.00  0.00    -0.019 A 
HETATM   20  C15 UNL     1       0.708  25.377  58.639  1.00  0.00     0.119 A 
HETATM   21  C18 UNL     1      -0.055  25.328  57.496  1.00  0.00     0.117 A 
BRANCH  19  22
HETATM   22  C11 UNL     1       1.576  26.638  60.630  1.00  0.00     0.045 C 
BRANCH  22  23
HETATM   23  C12 UNL     1       0.883  27.550  61.633  1.00  0.00    -0.018 C 
HETATM   24  C13 UNL     1       0.315  26.708  62.766  1.00  0.00     0.010 C 
HETATM   25  C14 UNL     1       1.978  28.387  62.252  1.00  0.00     0.010 C 
ENDBRANCH  22  23
ENDBRANCH  19  22
BRANCH  20  26
HETATM   26  O1  UNL     1       1.416  24.270  59.036  1.00  0.00    -0.276 OA
BRANCH  26  27
HETATM   27  C16 UNL     1       2.631  23.920  58.486  1.00  0.00     0.260 C 
HETATM   28  C17 UNL     1       2.933  22.466  58.387  1.00  0.00     0.126 C 
HETATM   29  O2  UNL     1       3.392  24.838  58.106  1.00  0.00    -0.265 OA
ENDBRANCH  26  27
ENDBRANCH  20  26
BRANCH  21  30
HETATM   30  O3  UNL     1      -0.113  24.170  56.739  1.00  0.00    -0.352 OA
HETATM   31  C19 UNL     1       0.600  23.856  55.595  1.00  0.00     0.210 C 
ENDBRANCH  21  30
ENDBRANCH  14  15
ENDBRANCH  13  14
ENDBRANCH  11  13
ENDBRANCH   9  11
ENDBRANCH   7   9
ENDBRANCH   5   7
TORSDOF 11
ENDMDL
MODEL 4
REMARK VINA RESULT: -6.760920476      2.248      3.265
REMARK  11 active torsions:
REMARK  status: ('A' for Active; 'I' for Inactive)
REMARK    1  A    between atoms: C3_5  and  N2_7 
REMARK    2  A    between atoms: N2_7  and  C5_9 
REMARK    3  A    between atoms: C5_9  and  N3_11 
REMARK    4  A    between atoms: N3_11  and  N4_13 
REMARK    5  A    between atoms: N4_13  and  C6_14 
REMARK    6  A    between atoms: C6_14  and  C7_15 
REMARK    7  A    between atoms: C10_19  and  C11_20 
REMARK    8  A    between atoms: C11_20  and  C12_21 
REMARK    9  A    between atoms: C15_24  and  O1_25 
REMARK   10  A    between atoms: O1_25  and  C16_26 
REMARK   11  A    between atoms: C18_29  and  O3_30 
ROOT
HETATM    1  C1  UNL     1      -9.129  27.537  48.935  1.00  0.00     0.037 C 
HETATM    2  C2  UNL     1      -8.893  26.830  49.882  1.00  0.00     0.000 C 
HETATM    3  N1  UNL     1      -8.653  26.001  50.955  1.00  0.00    -0.306 N 
ATOM      4  H1  UNL     1      -9.184  25.134  51.037  1.00  0.00     0.177 HD
HETATM    5  C3  UNL     1      -7.784  26.283  51.852  1.00  0.00     0.086 C 
HETATM    6  C4  UNL     1      -7.551  25.355  52.999  1.00  0.00     0.089 C 
ENDROOT
BRANCH   5   7
HETATM    7  N2  UNL     1      -7.046  27.492  51.760  1.00  0.00    -0.321 N 
ATOM      8  H2  UNL     1      -7.015  28.014  50.884  1.00  0.00     0.169 HD
BRANCH   7   9
HETATM    9  C5  UNL     1      -6.353  27.959  52.899  1.00  0.00     0.202 C 
HETATM   10  S1  UNL     1      -7.076  28.808  54.059  1.00  0.00    -0.038 SA
BRANCH   9  11
HETATM   11  N3  UNL     1      -4.943  27.669  53.004  1.00  0.00    -0.209 N 
ATOM     12  H3  UNL     1      -4.344  27.853  52.199  1.00  0.00     0.204 HD
BRANCH  11  13
HETATM   13  N4  UNL     1      -4.401  27.180  54.090  1.00  0.00    -0.335 NA
BRANCH  13  14
HETATM   14  C6  UNL     1      -3.927  26.748  55.075  1.00  0.00     0.225 C 
BRANCH  14  15
HETATM   15  C7  UNL     1      -2.937  27.179  56.039  1.00  0.00     0.053 A 
HETATM   16  C8  UNL     1      -3.177  28.216  56.892  1.00  0.00     0.050 A 
HETATM   17 CL1  UNL     1      -4.708  29.048  56.886  1.00  0.00    -0.083 Cl
HETATM   18  C9  UNL     1      -2.198  28.639  57.813  1.00  0.00     0.034 A 
HETATM   19  C10 UNL     1      -0.969  28.039  57.893  1.00  0.00    -0.019 A 
HETATM   20  C15 UNL     1      -0.720  27.001  57.041  1.00  0.00     0.119 A 
HETATM   21  C18 UNL     1      -1.670  26.578  56.140  1.00  0.00     0.117 A 
BRANCH  19  22
HETATM   22  C11 UNL     1       0.003  28.547  58.883  1.00  0.00     0.045 C 
BRANCH  22  23
HETATM   23  C12 UNL     1      -0.027  27.705  60.151  1.00  0.00    -0.018 C 
HETATM   24  C13 UNL     1       1.383  27.226  60.467  1.00  0.00     0.010 C 
HETATM   25  C14 UNL     1      -0.397  28.655  61.266  1.00  0.00     0.010 C 
ENDBRANCH  22  23
ENDBRANCH  19  22
BRANCH  20  26
HETATM   26  O1  UNL     1       0.501  26.377  57.091  1.00  0.00    -0.276 OA
BRANCH  26  27
HETATM   27  C16 UNL     1       1.468  26.543  56.122  1.00  0.00     0.260 C 
HETATM   28  C17 UNL     1       1.894  27.938  55.826  1.00  0.00     0.126 C 
HETATM   29  O2  UNL     1       1.923  25.520  55.562  1.00  0.00    -0.265 OA
ENDBRANCH  26  27
ENDBRANCH  20  26
BRANCH  21  30
HETATM   30  O3  UNL     1      -1.403  25.527  55.280  1.00  0.00    -0.352 OA
HETATM   31  C19 UNL     1      -1.405  24.170  55.556  1.00  0.00     0.210 C 
ENDBRANCH  21  30
ENDBRANCH  14  15
ENDBRANCH  13  14
ENDBRANCH  11  13
ENDBRANCH   9  11
ENDBRANCH   7   9
ENDBRANCH   5   7
TORSDOF 11
ENDMDL
MODEL 5
REMARK VINA RESULT: -6.703367825      0.973      1.225
REMARK  11 active torsions:
REMARK  status: ('A' for Active; 'I' for Inactive)
REMARK    1  A    between atoms: C3_5  and  N2_7 
REMARK    2  A    between atoms: N2_7  and  C5_9 
REMARK    3  A    between atoms: C5_9  and  N3_11 
REMARK    4  A    between atoms: N3_11  and  N4_13 
REMARK    5  A    between atoms: N4_13  and  C6_14 
REMARK    6  A    between atoms: C6_14  and  C7_15 
REMARK    7  A    between atoms: C10_19  and  C11_20 
REMARK    8  A    between atoms: C11_20  and  C12_21 
REMARK    9  A    between atoms: C15_24  and  O1_25 
REMARK   10  A    between atoms: O1_25  and  C16_26 
REMARK   11  A    between atoms: C18_29  and  O3_30 
ROOT
HETATM    1  C1  UNL     1      -9.092  27.544  48.968  1.00  0.00     0.037 C 
HETATM    2  C2  UNL     1      -8.859  26.841  49.919  1.00  0.00     0.000 C 
HETATM    3  N1  UNL     1      -8.622  26.016  50.996  1.00  0.00    -0.306 N 
ATOM      4  H1  UNL     1      -9.157  25.152  51.082  1.00  0.00     0.177 HD
HETATM    5  C3  UNL     1      -7.753  26.300  51.892  1.00  0.00     0.086 C 
HETATM    6  C4  UNL     1      -7.524  25.377  53.044  1.00  0.00     0.089 C 
ENDROOT
BRANCH   5   7
HETATM    7  N2  UNL     1      -7.009  27.505  51.793  1.00  0.00    -0.321 N 
ATOM      8  H2  UNL     1      -6.955  28.008  50.908  1.00  0.00     0.169 HD
BRANCH   7   9
HETATM    9  C5  UNL     1      -6.345  27.996  52.940  1.00  0.00     0.202 C 
HETATM   10  S1  UNL     1      -7.105  28.836  54.082  1.00  0.00    -0.038 SA
BRANCH   9  11
HETATM   11  N3  UNL     1      -4.931  27.736  53.069  1.00  0.00    -0.209 N 
ATOM     12  H3  UNL     1      -4.311  28.012  52.307  1.00  0.00     0.204 HD
BRANCH  11  13
HETATM   13  N4  UNL     1      -4.412  27.162  54.124  1.00  0.00    -0.335 NA
BRANCH  13  14
HETATM   14  C6  UNL     1      -3.946  26.632  55.064  1.00  0.00     0.225 C 
BRANCH  14  15
HETATM   15  C7  UNL     1      -2.912  26.930  56.031  1.00  0.00     0.053 A 
HETATM   16  C8  UNL     1      -1.942  26.023  56.341  1.00  0.00     0.050 A 
HETATM   17 CL1  UNL     1      -1.882  24.469  55.553  1.00  0.00    -0.083 Cl
HETATM   18  C9  UNL     1      -0.952  26.317  57.298  1.00  0.00     0.034 A 
HETATM   19  C10 UNL     1      -0.916  27.515  57.961  1.00  0.00    -0.019 A 
HETATM   20  C15 UNL     1      -1.885  28.429  57.659  1.00  0.00     0.119 A 
HETATM   21  C18 UNL     1      -2.855  28.153  56.724  1.00  0.00     0.117 A 
BRANCH  19  22
HETATM   22  C11 UNL     1       0.154  27.742  58.955  1.00  0.00     0.045 C 
BRANCH  22  23
HETATM   23  C12 UNL     1       0.619  26.426  59.559  1.00  0.00    -0.018 C 
HETATM   24  C13 UNL     1       2.135  26.336  59.458  1.00  0.00     0.010 C 
HETATM   25  C14 UNL     1       0.312  26.519  61.035  1.00  0.00     0.010 C 
ENDBRANCH  22  23
ENDBRANCH  19  22
BRANCH  20  26
HETATM   26  O1  UNL     1      -1.883  29.640  58.305  1.00  0.00    -0.276 OA
BRANCH  26  27
HETATM   27  C16 UNL     1      -1.450  30.806  57.710  1.00  0.00     0.260 C 
HETATM   28  C17 UNL     1      -2.263  32.029  57.954  1.00  0.00     0.126 C 
HETATM   29  O2  UNL     1      -0.411  30.763  57.014  1.00  0.00    -0.265 OA
ENDBRANCH  26  27
ENDBRANCH  20  26
BRANCH  21  30
HETATM   30  O3  UNL     1      -3.833  29.088  56.429  1.00  0.00    -0.352 OA
HETATM   31  C19 UNL     1      -4.982  29.383  57.144  1.00  0.00     0.210 C 
ENDBRANCH  21  30
ENDBRANCH  14  15
ENDBRANCH  13  14
ENDBRANCH  11  13
ENDBRANCH   9  11
ENDBRANCH   7   9
ENDBRANCH   5   7
TORSDOF 11
ENDMDL
