MODEL 1
REMARK VINA RESULT: -6.425135868      0.000      0.000
REMARK  11 active torsions:
REMARK  status: ('A' for Active; 'I' for Inactive)
REMARK    1  A    between atoms: N1_1  and  C1_4 
REMARK    2  A    between atoms: C2_7  and  C3_8 
REMARK    3  A    between atoms: C3_8  and  S1_9 
REMARK    4  A    between atoms: S1_9  and  C4_10 
REMARK    5  A    between atoms: C4_10  and  C5_11 
REMARK    6  A    between atoms: C5_11  and  N3_12 
REMARK    7  A    between atoms: C11_20  and  N5_21 
REMARK    8  A    between atoms: N5_21  and  C12_23 
REMARK    9  A    between atoms: C12_23  and  C13_24 
REMARK   10  A    between atoms: C13_24  and  C14_25 
REMARK   11  A    between atoms: C14_25  and  N6_26 
ROOT
HETATM    1  C1  UNL     1     -16.133 -63.461 -30.104  1.00  0.00     0.677 A 
HETATM    2  N2  UNL     1     -16.171 -64.778 -30.347  1.00  0.00    -0.195 N 
ATOM      3  H2  UNL     1     -16.849 -65.348 -29.843  1.00  0.00     0.184 HD
HETATM    4  C2  UNL     1     -15.351 -65.376 -31.228  1.00  0.00     0.039 A 
HETATM    5  C10 UNL     1     -14.438 -64.555 -31.895  1.00  0.00     0.075 A 
HETATM    6  C11 UNL     1     -14.383 -63.217 -31.665  1.00  0.00     0.118 A 
HETATM    7  N7  UNL     1     -15.238 -62.707 -30.770  1.00  0.00    -0.177 N 
ATOM      8  H7  UNL     1     -15.210 -61.705 -30.584  1.00  0.00     0.185 HD
ENDROOT
BRANCH   4   9
HETATM    9  C3  UNL     1     -15.384 -66.826 -31.502  1.00  0.00     0.131 C 
BRANCH   9  10
HETATM   10  S1  UNL     1     -15.578 -67.778 -29.960  1.00  0.00    -0.161 SA
BRANCH  10  11
HETATM   11  C4  UNL     1     -15.135 -69.487 -30.261  1.00  0.00     0.104 C 
BRANCH  11  12
HETATM   12  C5  UNL     1     -13.850 -69.833 -29.587  1.00  0.00     0.282 C 
BRANCH  12  13
HETATM   13  N3  UNL     1     -13.898 -69.750 -28.158  1.00  0.00     0.092 N 
HETATM   14  C6  UNL     1     -12.654 -69.283 -27.644  1.00  0.00     0.291 C 
HETATM   15  C7  UNL     1     -11.656 -70.356 -27.361  1.00  0.00     0.144 C 
HETATM   16  N4  UNL     1     -11.979 -71.637 -27.872  1.00  0.00    -0.418 N 
HETATM   17  C8  UNL     1     -13.332 -72.049 -27.702  1.00  0.00     0.144 C 
ATOM     18  H4  UNL     1     -11.286 -72.228 -28.332  1.00  0.00     0.153 HD
HETATM   19  C9  UNL     1     -14.311 -70.944 -27.495  1.00  0.00     0.291 C 
ENDBRANCH  12  13
ENDBRANCH  11  12
ENDBRANCH  10  11
ENDBRANCH   9  10
ENDBRANCH   4   9
BRANCH   1  20
HETATM   20  N1  UNL     1     -16.919 -62.915 -29.247  1.00  0.00    -0.234 N 
ATOM     21  H12 UNL     1     -16.730 -63.012 -28.250  1.00  0.00     0.174 HD
ATOM     22  H11 UNL     1     -17.742 -62.389 -29.541  1.00  0.00     0.174 HD
ENDBRANCH   1  20
BRANCH   6  23
HETATM   23  N5  UNL     1     -13.512 -62.503 -32.300  1.00  0.00    -0.376 N 
ATOM     24  H5  UNL     1     -13.702 -62.129 -33.230  1.00  0.00     0.161 HD
BRANCH  23  25
HETATM   25  C12 UNL     1     -12.237 -62.259 -31.619  1.00  0.00     0.123 C 
BRANCH  25  26
HETATM   26  C13 UNL     1     -12.101 -60.769 -31.330  1.00  0.00     0.047 C 
BRANCH  26  27
HETATM   27  C14 UNL     1     -12.426 -60.563 -29.871  1.00  0.00     0.231 C 
BRANCH  27  28
HETATM   28  N6  UNL     1     -12.057 -59.179 -29.572  1.00  0.00    -0.079 N 
ATOM     29  H63 UNL     1     -12.440 -58.836 -28.691  1.00  0.00     0.274 HD
ATOM     30  H62 UNL     1     -11.073 -59.062 -29.330  1.00  0.00     0.274 HD
ATOM     31  H61 UNL     1     -12.345 -58.633 -30.384  1.00  0.00     0.274 HD
ENDBRANCH  27  28
ENDBRANCH  26  27
ENDBRANCH  25  26
ENDBRANCH  23  25
ENDBRANCH   6  23
TORSDOF 11
ENDMDL
MODEL 2
REMARK VINA RESULT: -6.254198328      1.461      1.655
REMARK  11 active torsions:
REMARK  status: ('A' for Active; 'I' for Inactive)
REMARK    1  A    between atoms: N1_1  and  C1_4 
REMARK    2  A    between atoms: C2_7  and  C3_8 
REMARK    3  A    between atoms: C3_8  and  S1_9 
REMARK    4  A    between atoms: S1_9  and  C4_10 
REMARK    5  A    between atoms: C4_10  and  C5_11 
REMARK    6  A    between atoms: C5_11  and  N3_12 
REMARK    7  A    between atoms: C11_20  and  N5_21 
REMARK    8  A    between atoms: N5_21  and  C12_23 
REMARK    9  A    between atoms: C12_23  and  C13_24 
REMARK   10  A    between atoms: C13_24  and  C14_25 
REMARK   11  A    between atoms: C14_25  and  N6_26 
ROOT
HETATM    1  C1  UNL     1     -17.050 -64.567 -33.104  1.00  0.00     0.677 A 
HETATM    2  N2  UNL     1     -16.850 -65.585 -32.256  1.00  0.00    -0.195 N 
ATOM      3  H2  UNL     1     -17.561 -66.313 -32.188  1.00  0.00     0.184 HD
HETATM    4  C2  UNL     1     -15.749 -65.683 -31.490  1.00  0.00     0.039 A 
HETATM    5  C10 UNL     1     -14.803 -64.663 -31.615  1.00  0.00     0.075 A 
HETATM    6  C11 UNL     1     -14.986 -63.622 -32.470  1.00  0.00     0.118 A 
HETATM    7  N7  UNL     1     -16.112 -63.607 -33.193  1.00  0.00    -0.177 N 
ATOM      8  H7  UNL     1     -16.266 -62.833 -33.839  1.00  0.00     0.185 HD
ENDROOT
BRANCH   4   9
HETATM    9  C3  UNL     1     -15.519 -66.799 -30.552  1.00  0.00     0.131 C 
BRANCH   9  10
HETATM   10  S1  UNL     1     -15.444 -68.391 -31.436  1.00  0.00    -0.161 SA
BRANCH  10  11
HETATM   11  C4  UNL     1     -15.299 -69.722 -30.247  1.00  0.00     0.104 C 
BRANCH  11  12
HETATM   12  C5  UNL     1     -13.952 -69.724 -29.607  1.00  0.00     0.282 C 
BRANCH  12  13
HETATM   13  N3  UNL     1     -13.982 -69.693 -28.176  1.00  0.00     0.092 N 
HETATM   14  C6  UNL     1     -12.734 -69.239 -27.661  1.00  0.00     0.291 C 
HETATM   15  C7  UNL     1     -11.728 -70.316 -27.428  1.00  0.00     0.144 C 
HETATM   16  N4  UNL     1     -12.051 -71.579 -27.982  1.00  0.00    -0.418 N 
HETATM   17  C8  UNL     1     -13.399 -72.004 -27.812  1.00  0.00     0.144 C 
ATOM     18  H4  UNL     1     -11.360 -72.149 -28.472  1.00  0.00     0.153 HD
HETATM   19  C9  UNL     1     -14.382 -70.913 -27.553  1.00  0.00     0.291 C 
ENDBRANCH  12  13
ENDBRANCH  11  12
ENDBRANCH  10  11
ENDBRANCH   9  10
ENDBRANCH   4   9
BRANCH   1  20
HETATM   20  N1  UNL     1     -18.117 -64.489 -33.815  1.00  0.00    -0.234 N 
ATOM     21  H12 UNL     1     -18.991 -64.882 -33.466  1.00  0.00     0.174 HD
ATOM     22  H11 UNL     1     -18.111 -64.049 -34.735  1.00  0.00     0.174 HD
ENDBRANCH   1  20
BRANCH   6  23
HETATM   23  N5  UNL     1     -14.084 -62.698 -32.540  1.00  0.00    -0.376 N 
ATOM     24  H5  UNL     1     -13.691 -62.401 -33.432  1.00  0.00     0.161 HD
BRANCH  23  25
HETATM   25  C12 UNL     1     -13.656 -62.098 -31.272  1.00  0.00     0.123 C 
BRANCH  25  26
HETATM   26  C13 UNL     1     -12.223 -61.599 -31.414  1.00  0.00     0.047 C 
BRANCH  26  27
HETATM   27  C14 UNL     1     -12.043 -60.466 -30.433  1.00  0.00     0.231 C 
BRANCH  27  28
HETATM   28  N6  UNL     1     -13.234 -60.483 -29.583  1.00  0.00    -0.079 N 
ATOM     29  H63 UNL     1     -13.916 -61.193 -29.850  1.00  0.00     0.274 HD
ATOM     30  H62 UNL     1     -13.058 -60.832 -28.640  1.00  0.00     0.274 HD
ATOM     31  H61 UNL     1     -13.604 -59.533 -29.603  1.00  0.00     0.274 HD
ENDBRANCH  27  28
ENDBRANCH  26  27
ENDBRANCH  25  26
ENDBRANCH  23  25
ENDBRANCH   6  23
TORSDOF 11
ENDMDL
MODEL 3
REMARK VINA RESULT: -6.167782204      3.611      4.546
REMARK  11 active torsions:
REMARK  status: ('A' for Active; 'I' for Inactive)
REMARK    1  A    between atoms: N1_1  and  C1_4 
REMARK    2  A    between atoms: C2_7  and  C3_8 
REMARK    3  A    between atoms: C3_8  and  S1_9 
REMARK    4  A    between atoms: S1_9  and  C4_10 
REMARK    5  A    between atoms: C4_10  and  C5_11 
REMARK    6  A    between atoms: C5_11  and  N3_12 
REMARK    7  A    between atoms: C11_20  and  N5_21 
REMARK    8  A    between atoms: N5_21  and  C12_23 
REMARK    9  A    between atoms: C12_23  and  C13_24 
REMARK   10  A    between atoms: C13_24  and  C14_25 
REMARK   11  A    between atoms: C14_25  and  N6_26 
ROOT
HETATM    1  C1  UNL     1     -15.084 -63.238 -31.698  1.00  0.00     0.677 A 
HETATM    2  N2  UNL     1     -16.264 -63.848 -31.530  1.00  0.00    -0.195 N 
ATOM      3  H2  UNL     1     -16.514 -64.613 -32.156  1.00  0.00     0.184 HD
HETATM    4  C2  UNL     1     -17.133 -63.492 -30.567  1.00  0.00     0.039 A 
HETATM    5  C10 UNL     1     -16.750 -62.439 -29.732  1.00  0.00     0.075 A 
HETATM    6  C11 UNL     1     -15.556 -61.807 -29.885  1.00  0.00     0.118 A 
HETATM    7  N7  UNL     1     -14.755 -62.229 -30.871  1.00  0.00    -0.177 N 
ATOM      8  H7  UNL     1     -13.855 -61.765 -31.000  1.00  0.00     0.185 HD
ENDROOT
BRANCH   4   9
HETATM    9  C3  UNL     1     -18.436 -64.157 -30.373  1.00  0.00     0.131 C 
BRANCH   9  10
HETATM   10  S1  UNL     1     -18.843 -65.225 -31.793  1.00  0.00    -0.161 SA
BRANCH  10  11
HETATM   11  C4  UNL     1     -18.428 -66.921 -31.395  1.00  0.00     0.104 C 
BRANCH  11  12
HETATM   12  C5  UNL     1     -17.635 -67.549 -32.490  1.00  0.00     0.282 C 
BRANCH  12  13
HETATM   13  N3  UNL     1     -16.248 -67.728 -32.180  1.00  0.00     0.092 N 
HETATM   14  C6  UNL     1     -15.433 -67.044 -33.128  1.00  0.00     0.291 C 
HETATM   15  C7  UNL     1     -15.074 -67.847 -34.333  1.00  0.00     0.144 C 
HETATM   16  N4  UNL     1     -15.788 -69.060 -34.491  1.00  0.00    -0.418 N 
HETATM   17  C8  UNL     1     -15.957 -69.838 -33.310  1.00  0.00     0.144 C 
ATOM     18  H4  UNL     1     -16.159 -69.358 -35.394  1.00  0.00     0.153 HD
HETATM   19  C9  UNL     1     -15.832 -69.085 -32.030  1.00  0.00     0.291 C 
ENDBRANCH  12  13
ENDBRANCH  11  12
ENDBRANCH  10  11
ENDBRANCH   9  10
ENDBRANCH   4   9
BRANCH   1  20
HETATM   20  N1  UNL     1     -14.277 -63.588 -32.634  1.00  0.00    -0.234 N 
ATOM     21  H12 UNL     1     -14.610 -64.173 -33.400  1.00  0.00     0.174 HD
ATOM     22  H11 UNL     1     -13.298 -63.302 -32.626  1.00  0.00     0.174 HD
ENDBRANCH   1  20
BRANCH   6  23
HETATM   23  N5  UNL     1     -15.254 -60.831 -29.093  1.00  0.00    -0.376 N 
ATOM     24  H5  UNL     1     -15.968 -60.213 -28.708  1.00  0.00     0.161 HD
BRANCH  23  25
HETATM   25  C12 UNL     1     -13.833 -60.657 -28.774  1.00  0.00     0.123 C 
BRANCH  25  26
HETATM   26  C13 UNL     1     -13.563 -59.185 -28.484  1.00  0.00     0.047 C 
BRANCH  26  27
HETATM   27  C14 UNL     1     -12.333 -58.793 -29.267  1.00  0.00     0.231 C 
BRANCH  27  28
HETATM   28  N6  UNL     1     -11.913 -60.000 -29.980  1.00  0.00    -0.079 N 
ATOM     29  H63 UNL     1     -11.847 -60.824 -29.383  1.00  0.00     0.274 HD
ATOM     30  H62 UNL     1     -12.622 -60.366 -30.615  1.00  0.00     0.274 HD
ATOM     31  H61 UNL     1     -11.037 -59.758 -30.443  1.00  0.00     0.274 HD
ENDBRANCH  27  28
ENDBRANCH  26  27
ENDBRANCH  25  26
ENDBRANCH  23  25
ENDBRANCH   6  23
TORSDOF 11
ENDMDL
MODEL 4
REMARK VINA RESULT: -6.097925752      3.127      4.111
REMARK  11 active torsions:
REMARK  status: ('A' for Active; 'I' for Inactive)
REMARK    1  A    between atoms: N1_1  and  C1_4 
REMARK    2  A    between atoms: C2_7  and  C3_8 
REMARK    3  A    between atoms: C3_8  and  S1_9 
REMARK    4  A    between atoms: S1_9  and  C4_10 
REMARK    5  A    between atoms: C4_10  and  C5_11 
REMARK    6  A    between atoms: C5_11  and  N3_12 
REMARK    7  A    between atoms: C11_20  and  N5_21 
REMARK    8  A    between atoms: N5_21  and  C12_23 
REMARK    9  A    between atoms: C12_23  and  C13_24 
REMARK   10  A    between atoms: C13_24  and  C14_25 
REMARK   11  A    between atoms: C14_25  and  N6_26 
ROOT
HETATM    1  C1  UNL     1     -17.120 -63.993 -33.045  1.00  0.00     0.677 A 
HETATM    2  N2  UNL     1     -17.311 -64.530 -31.833  1.00  0.00    -0.195 N 
ATOM      3  H2  UNL     1     -18.179 -65.033 -31.651  1.00  0.00     0.184 HD
HETATM    4  C2  UNL     1     -16.401 -64.434 -30.847  1.00  0.00     0.039 A 
HETATM    5  C10 UNL     1     -15.227 -63.736 -31.140  1.00  0.00     0.075 A 
HETATM    6  C11 UNL     1     -15.013 -63.183 -32.363  1.00  0.00     0.118 A 
HETATM    7  N7  UNL     1     -15.974 -63.330 -33.284  1.00  0.00    -0.177 N 
ATOM      8  H7  UNL     1     -15.831 -62.921 -34.208  1.00  0.00     0.185 HD
ENDROOT
BRANCH   4   9
HETATM    9  C3  UNL     1     -16.601 -65.022 -29.508  1.00  0.00     0.131 C 
BRANCH   9  10
HETATM   10  S1  UNL     1     -16.638 -66.842 -29.593  1.00  0.00    -0.161 SA
BRANCH  10  11
HETATM   11  C4  UNL     1     -15.307 -67.412 -30.646  1.00  0.00     0.104 C 
BRANCH  11  12
HETATM   12  C5  UNL     1     -15.646 -68.719 -31.277  1.00  0.00     0.282 C 
BRANCH  12  13
HETATM   13  N3  UNL     1     -16.883 -68.718 -32.000  1.00  0.00     0.092 N 
HETATM   14  C6  UNL     1     -17.339 -70.051 -32.210  1.00  0.00     0.291 C 
HETATM   15  C7  UNL     1     -16.829 -70.694 -33.456  1.00  0.00     0.144 C 
HETATM   16  N4  UNL     1     -15.780 -70.003 -34.112  1.00  0.00    -0.418 N 
HETATM   17  C8  UNL     1     -15.938 -68.591 -34.215  1.00  0.00     0.144 C 
ATOM     18  H4  UNL     1     -14.963 -70.486 -34.486  1.00  0.00     0.153 HD
HETATM   19  C9  UNL     1     -16.868 -67.981 -33.223  1.00  0.00     0.291 C 
ENDBRANCH  12  13
ENDBRANCH  11  12
ENDBRANCH  10  11
ENDBRANCH   9  10
ENDBRANCH   4   9
BRANCH   1  20
HETATM   20  N1  UNL     1     -18.011 -64.088 -33.966  1.00  0.00    -0.234 N 
ATOM     21  H12 UNL     1     -18.396 -65.000 -34.209  1.00  0.00     0.174 HD
ATOM     22  H11 UNL     1     -18.338 -63.266 -34.474  1.00  0.00     0.174 HD
ENDBRANCH   1  20
BRANCH   6  23
HETATM   23  N5  UNL     1     -13.914 -62.538 -32.580  1.00  0.00    -0.376 N 
ATOM     24  H5  UNL     1     -13.753 -62.034 -33.452  1.00  0.00     0.161 HD
BRANCH  23  25
HETATM   25  C12 UNL     1     -12.911 -62.568 -31.512  1.00  0.00     0.123 C 
BRANCH  25  26
HETATM   26  C13 UNL     1     -12.321 -61.173 -31.341  1.00  0.00     0.047 C 
BRANCH  26  27
HETATM   27  C14 UNL     1     -12.710 -60.687 -29.966  1.00  0.00     0.231 C 
BRANCH  27  28
HETATM   28  N6  UNL     1     -11.930 -59.470 -29.738  1.00  0.00    -0.079 N 
ATOM     29  H63 UNL     1     -11.941 -58.824 -30.527  1.00  0.00     0.274 HD
ATOM     30  H62 UNL     1     -12.349 -58.837 -29.057  1.00  0.00     0.274 HD
ATOM     31  H61 UNL     1     -10.994 -59.784 -29.481  1.00  0.00     0.274 HD
ENDBRANCH  27  28
ENDBRANCH  26  27
ENDBRANCH  25  26
ENDBRANCH  23  25
ENDBRANCH   6  23
TORSDOF 11
ENDMDL
MODEL 5
REMARK VINA RESULT: -6.042108479      1.837      2.517
REMARK  11 active torsions:
REMARK  status: ('A' for Active; 'I' for Inactive)
REMARK    1  A    between atoms: N1_1  and  C1_4 
REMARK    2  A    between atoms: C2_7  and  C3_8 
REMARK    3  A    between atoms: C3_8  and  S1_9 
REMARK    4  A    between atoms: S1_9  and  C4_10 
REMARK    5  A    between atoms: C4_10  and  C5_11 
REMARK    6  A    between atoms: C5_11  and  N3_12 
REMARK    7  A    between atoms: C11_20  and  N5_21 
REMARK    8  A    between atoms: N5_21  and  C12_23 
REMARK    9  A    between atoms: C12_23  and  C13_24 
REMARK   10  A    between atoms: C13_24  and  C14_25 
REMARK   11  A    between atoms: C14_25  and  N6_26 
ROOT
HETATM    1  C1  UNL     1     -16.070 -63.215 -30.209  1.00  0.00     0.677 A 
HETATM    2  N2  UNL     1     -16.122 -64.548 -30.331  1.00  0.00    -0.195 N 
ATOM      3  H2  UNL     1     -16.840 -65.058 -29.816  1.00  0.00     0.184 HD
HETATM    4  C2  UNL     1     -15.266 -65.239 -31.104  1.00  0.00     0.039 A 
HETATM    5  C10 UNL     1     -14.300 -64.499 -31.790  1.00  0.00     0.075 A 
HETATM    6  C11 UNL     1     -14.229 -63.146 -31.681  1.00  0.00     0.118 A 
HETATM    7  N7  UNL     1     -15.123 -62.541 -30.888  1.00  0.00    -0.177 N 
ATOM      8  H7  UNL     1     -15.084 -61.526 -30.795  1.00  0.00     0.185 HD
ENDROOT
BRANCH   4   9
HETATM    9  C3  UNL     1     -15.315 -66.707 -31.244  1.00  0.00     0.131 C 
BRANCH   9  10
HETATM   10  S1  UNL     1     -15.698 -67.187 -32.960  1.00  0.00    -0.161 SA
BRANCH  10  11
HETATM   11  C4  UNL     1     -16.646 -68.706 -32.952  1.00  0.00     0.104 C 
BRANCH  11  12
HETATM   12  C5  UNL     1     -15.777 -69.878 -32.648  1.00  0.00     0.282 C 
BRANCH  12  13
HETATM   13  N3  UNL     1     -16.343 -70.800 -31.710  1.00  0.00     0.092 N 
HETATM   14  C6  UNL     1     -16.210 -70.304 -30.381  1.00  0.00     0.291 C 
HETATM   15  C7  UNL     1     -14.939 -70.684 -29.700  1.00  0.00     0.144 C 
HETATM   16  N4  UNL     1     -13.946 -71.253 -30.536  1.00  0.00    -0.418 N 
HETATM   17  C8  UNL     1     -14.408 -72.219 -31.475  1.00  0.00     0.144 C 
ATOM     18  H4  UNL     1     -12.964 -70.987 -30.471  1.00  0.00     0.153 HD
HETATM   19  C9  UNL     1     -15.859 -72.139 -31.809  1.00  0.00     0.291 C 
ENDBRANCH  12  13
ENDBRANCH  11  12
ENDBRANCH  10  11
ENDBRANCH   9  10
ENDBRANCH   4   9
BRANCH   1  20
HETATM   20  N1  UNL     1     -16.891 -62.579 -29.453  1.00  0.00    -0.234 N 
ATOM     21  H12 UNL     1     -16.860 -62.713 -28.443  1.00  0.00     0.174 HD
ATOM     22  H11 UNL     1     -17.587 -61.944 -29.842  1.00  0.00     0.174 HD
ENDBRANCH   1  20
BRANCH   6  23
HETATM   23  N5  UNL     1     -13.309 -62.509 -32.328  1.00  0.00    -0.376 N 
ATOM     24  H5  UNL     1     -13.423 -62.255 -33.309  1.00  0.00     0.161 HD
BRANCH  23  25
HETATM   25  C12 UNL     1     -12.093 -62.170 -31.582  1.00  0.00     0.123 C 
BRANCH  25  26
HETATM   26  C13 UNL     1     -12.080 -60.671 -31.302  1.00  0.00     0.047 C 
BRANCH  26  27
HETATM   27  C14 UNL     1     -12.385 -60.486 -29.836  1.00  0.00     0.231 C 
BRANCH  27  28
HETATM   28  N6  UNL     1     -12.032 -59.100 -29.528  1.00  0.00    -0.079 N 
ATOM     29  H63 UNL     1     -11.210 -58.767 -30.031  1.00  0.00     0.274 HD
ATOM     30  H62 UNL     1     -12.690 -58.417 -29.904  1.00  0.00     0.274 HD
ATOM     31  H61 UNL     1     -11.936 -59.057 -28.513  1.00  0.00     0.274 HD
ENDBRANCH  27  28
ENDBRANCH  26  27
ENDBRANCH  25  26
ENDBRANCH  23  25
ENDBRANCH   6  23
TORSDOF 11
ENDMDL
