MODEL 1
REMARK VINA RESULT: -6.197876065      0.000      0.000
REMARK  13 active torsions:
REMARK  status: ('A' for Active; 'I' for Inactive)
REMARK    1  A    between atoms: C2_2  and  C4_4 
REMARK    2  A    between atoms: C4_4  and  C5_5 
REMARK    3  A    between atoms: C5_5  and  N1_6 
REMARK    4  A    between atoms: C5_5  and  C7_10 
REMARK    5  A    between atoms: C7_10  and  N3_12 
REMARK    6  A    between atoms: N3_12  and  C9_14 
REMARK    7  A    between atoms: C9_14  and  C10_15 
REMARK    8  A    between atoms: C9_14  and  C13_26 
REMARK    9  A    between atoms: C10_15  and  O1_16 
REMARK   10  A    between atoms: C10_15  and  N4_18 
REMARK   11  A    between atoms: N4_18  and  C11_20 
REMARK   12  A    between atoms: C11_20  and  C12_21 
REMARK   13  A    between atoms: C12_21  and  N5_22 
ROOT
HETATM    1  N1  UNL     1     -15.794 -61.909 -30.334  1.00  0.00    -0.322 N 
ATOM      2  H1  UNL     1     -16.739 -61.834 -30.711  1.00  0.00     0.172 HD
HETATM    3  C6  UNL     1     -15.354 -61.067 -29.300  1.00  0.00     0.177 C 
HETATM    4  N2  UNL     1     -14.978 -60.382 -28.471  1.00  0.00    -0.172 NA
ENDROOT
BRANCH   1   5
HETATM    5  C5  UNL     1     -14.864 -62.881 -30.839  1.00  0.00     0.114 C 
BRANCH   5   6
HETATM    6  C4  UNL     1     -13.942 -62.278 -31.828  1.00  0.00     0.031 C 
BRANCH   6   7
HETATM    7  C2  UNL     1     -12.558 -62.148 -31.238  1.00  0.00    -0.021 C 
HETATM    8  C1  UNL     1     -11.478 -62.852 -31.968  1.00  0.00     0.009 C 
HETATM    9  C3  UNL     1     -12.149 -60.661 -31.193  1.00  0.00     0.009 C 
ENDBRANCH   6   7
ENDBRANCH   5   6
BRANCH   5  10
HETATM   10  C7  UNL     1     -15.723 -64.029 -31.377  1.00  0.00     0.097 C 
HETATM   11  C8  UNL     1     -14.785 -65.243 -31.338  1.00  0.00     0.034 C 
BRANCH  10  12
HETATM   12  N3  UNL     1     -16.215 -63.777 -32.661  1.00  0.00    -0.400 N 
ATOM     13  H3  UNL     1     -15.582 -63.499 -33.412  1.00  0.00     0.154 HD
BRANCH  12  14
HETATM   14  C9  UNL     1     -17.633 -63.916 -32.912  1.00  0.00     0.204 C 
BRANCH  14  15
HETATM   15  C10 UNL     1     -18.058 -62.859 -33.852  1.00  0.00     0.140 C 
BRANCH  15  16
HETATM   16  O1  UNL     1     -18.966 -62.031 -33.393  1.00  0.00    -0.348 OA
ATOM     17  H1  UNL     1     -18.800 -61.110 -33.561  1.00  0.00     0.219 HD
ENDBRANCH  15  16
BRANCH  15  18
HETATM   18  N4  UNL     1     -17.667 -62.582 -35.153  1.00  0.00    -0.371 N 
ATOM     19  H4  UNL     1     -17.025 -63.197 -35.653  1.00  0.00     0.161 HD
BRANCH  18  20
HETATM   20  C11 UNL     1     -18.199 -61.393 -35.778  1.00  0.00     0.148 C 
BRANCH  20  21
HETATM   21  C12 UNL     1     -17.379 -60.835 -36.898  1.00  0.00     0.249 C 
BRANCH  21  22
HETATM   22  N5  UNL     1     -16.965 -61.810 -37.854  1.00  0.00    -0.078 N 
ATOM     23  H53 UNL     1     -16.008 -61.629 -38.158  1.00  0.00     0.274 HD
ATOM     24  H52 UNL     1     -16.835 -62.717 -37.407  1.00  0.00     0.274 HD
ATOM     25  H51 UNL     1     -17.586 -61.893 -38.658  1.00  0.00     0.274 HD
ENDBRANCH  21  22
ENDBRANCH  20  21
ENDBRANCH  18  20
ENDBRANCH  15  18
ENDBRANCH  14  15
BRANCH  14  26
HETATM   26  C13 UNL     1     -18.038 -65.239 -33.365  1.00  0.00     0.056 A 
HETATM   27  C14 UNL     1     -19.303 -65.580 -33.785  1.00  0.00     0.116 A 
HETATM   28  N6  UNL     1     -19.296 -66.890 -34.112  1.00  0.00    -0.360 N 
HETATM   29  C15 UNL     1     -18.056 -67.382 -33.906  1.00  0.00     0.180 A 
ATOM     30  H6  UNL     1     -20.096 -67.421 -34.457  1.00  0.00     0.166 HD
HETATM   31  N7  UNL     1     -17.323 -66.357 -33.454  1.00  0.00    -0.353 N 
ATOM     32  H7  UNL     1     -16.336 -66.426 -33.209  1.00  0.00     0.166 HD
ENDBRANCH  14  26
ENDBRANCH  12  14
ENDBRANCH  10  12
ENDBRANCH   5  10
ENDBRANCH   1   5
TORSDOF 13
ENDMDL
MODEL 2
REMARK VINA RESULT: -5.896573491      2.718      4.409
REMARK  13 active torsions:
REMARK  status: ('A' for Active; 'I' for Inactive)
REMARK    1  A    between atoms: C2_2  and  C4_4 
REMARK    2  A    between atoms: C4_4  and  C5_5 
REMARK    3  A    between atoms: C5_5  and  N1_6 
REMARK    4  A    between atoms: C5_5  and  C7_10 
REMARK    5  A    between atoms: C7_10  and  N3_12 
REMARK    6  A    between atoms: N3_12  and  C9_14 
REMARK    7  A    between atoms: C9_14  and  C10_15 
REMARK    8  A    between atoms: C9_14  and  C13_26 
REMARK    9  A    between atoms: C10_15  and  O1_16 
REMARK   10  A    between atoms: C10_15  and  N4_18 
REMARK   11  A    between atoms: N4_18  and  C11_20 
REMARK   12  A    between atoms: C11_20  and  C12_21 
REMARK   13  A    between atoms: C12_21  and  N5_22 
ROOT
HETATM    1  N1  UNL     1     -16.757 -62.113 -30.450  1.00  0.00    -0.322 N 
ATOM      2  H1  UNL     1     -16.648 -61.850 -31.430  1.00  0.00     0.172 HD
HETATM    3  C6  UNL     1     -16.063 -61.440 -29.433  1.00  0.00     0.177 C 
HETATM    4  N2  UNL     1     -15.495 -60.912 -28.598  1.00  0.00    -0.172 NA
ENDROOT
BRANCH   1   5
HETATM    5  C5  UNL     1     -17.629 -63.187 -30.060  1.00  0.00     0.114 C 
BRANCH   5   6
HETATM    6  C4  UNL     1     -16.946 -64.127 -29.142  1.00  0.00     0.031 C 
BRANCH   6   7
HETATM    7  C2  UNL     1     -17.935 -64.708 -28.160  1.00  0.00    -0.021 C 
HETATM    8  C1  UNL     1     -17.493 -65.929 -27.448  1.00  0.00     0.009 C 
HETATM    9  C3  UNL     1     -18.259 -63.666 -27.070  1.00  0.00     0.009 C 
ENDBRANCH   6   7
ENDBRANCH   5   6
BRANCH   5  10
HETATM   10  C7  UNL     1     -18.123 -63.810 -31.369  1.00  0.00     0.097 C 
HETATM   11  C8  UNL     1     -19.638 -63.948 -31.165  1.00  0.00     0.034 C 
BRANCH  10  12
HETATM   12  N3  UNL     1     -17.510 -65.035 -31.647  1.00  0.00    -0.400 N 
ATOM     13  H3  UNL     1     -17.399 -65.736 -30.913  1.00  0.00     0.154 HD
BRANCH  12  14
HETATM   14  C9  UNL     1     -17.034 -65.296 -32.989  1.00  0.00     0.204 C 
BRANCH  14  15
HETATM   15  C10 UNL     1     -15.882 -64.414 -33.266  1.00  0.00     0.140 C 
BRANCH  15  16
HETATM   16  O1  UNL     1     -16.145 -63.360 -34.003  1.00  0.00    -0.348 OA
ATOM     17  H1  UNL     1     -15.452 -62.712 -34.049  1.00  0.00     0.219 HD
ENDBRANCH  15  16
BRANCH  15  18
HETATM   18  N4  UNL     1     -14.551 -64.503 -32.888  1.00  0.00    -0.371 N 
ATOM     19  H4  UNL     1     -13.878 -65.027 -33.447  1.00  0.00     0.161 HD
BRANCH  18  20
HETATM   20  C11 UNL     1     -14.148 -63.828 -31.675  1.00  0.00     0.148 C 
BRANCH  20  21
HETATM   21  C12 UNL     1     -13.518 -62.485 -31.869  1.00  0.00     0.249 C 
BRANCH  21  22
HETATM   22  N5  UNL     1     -12.153 -62.539 -32.280  1.00  0.00    -0.078 N 
ATOM     23  H53 UNL     1     -11.705 -63.383 -31.925  1.00  0.00     0.274 HD
ATOM     24  H52 UNL     1     -12.088 -62.717 -33.282  1.00  0.00     0.274 HD
ATOM     25  H51 UNL     1     -11.610 -61.713 -32.028  1.00  0.00     0.274 HD
ENDBRANCH  21  22
ENDBRANCH  20  21
ENDBRANCH  18  20
ENDBRANCH  15  18
ENDBRANCH  14  15
BRANCH  14  26
HETATM   26  C13 UNL     1     -16.725 -66.692 -33.257  1.00  0.00     0.056 A 
HETATM   27  C14 UNL     1     -17.450 -67.519 -34.085  1.00  0.00     0.116 A 
HETATM   28  N6  UNL     1     -16.868 -68.738 -34.071  1.00  0.00    -0.360 N 
HETATM   29  C15 UNL     1     -15.796 -68.698 -33.253  1.00  0.00     0.180 A 
ATOM     30  H6  UNL     1     -17.187 -69.555 -34.593  1.00  0.00     0.166 HD
HETATM   31  N7  UNL     1     -15.740 -67.448 -32.778  1.00  0.00    -0.353 N 
ATOM     32  H7  UNL     1     -15.029 -67.115 -32.127  1.00  0.00     0.166 HD
ENDBRANCH  14  26
ENDBRANCH  12  14
ENDBRANCH  10  12
ENDBRANCH   5  10
ENDBRANCH   1   5
TORSDOF 13
ENDMDL
MODEL 3
REMARK VINA RESULT: -5.894775440      2.685      6.498
REMARK  13 active torsions:
REMARK  status: ('A' for Active; 'I' for Inactive)
REMARK    1  A    between atoms: C2_2  and  C4_4 
REMARK    2  A    between atoms: C4_4  and  C5_5 
REMARK    3  A    between atoms: C5_5  and  N1_6 
REMARK    4  A    between atoms: C5_5  and  C7_10 
REMARK    5  A    between atoms: C7_10  and  N3_12 
REMARK    6  A    between atoms: N3_12  and  C9_14 
REMARK    7  A    between atoms: C9_14  and  C10_15 
REMARK    8  A    between atoms: C9_14  and  C13_26 
REMARK    9  A    between atoms: C10_15  and  O1_16 
REMARK   10  A    between atoms: C10_15  and  N4_18 
REMARK   11  A    between atoms: N4_18  and  C11_20 
REMARK   12  A    between atoms: C11_20  and  C12_21 
REMARK   13  A    between atoms: C12_21  and  N5_22 
ROOT
HETATM    1  N1  UNL     1     -18.327 -62.955 -32.059  1.00  0.00    -0.322 N 
ATOM      2  H1  UNL     1     -18.248 -61.960 -31.850  1.00  0.00     0.172 HD
HETATM    3  C6  UNL     1     -18.370 -63.420 -33.383  1.00  0.00     0.177 C 
HETATM    4  N2  UNL     1     -18.421 -63.811 -34.452  1.00  0.00    -0.172 NA
ENDROOT
BRANCH   1   5
HETATM    5  C5  UNL     1     -18.398 -63.934 -31.009  1.00  0.00     0.114 C 
BRANCH   5   6
HETATM    6  C4  UNL     1     -19.521 -63.652 -30.087  1.00  0.00     0.031 C 
BRANCH   6   7
HETATM    7  C2  UNL     1     -20.830 -64.065 -30.718  1.00  0.00    -0.021 C 
HETATM    8  C1  UNL     1     -21.363 -65.379 -30.292  1.00  0.00     0.009 C 
HETATM    9  C3  UNL     1     -21.920 -63.028 -30.380  1.00  0.00     0.009 C 
ENDBRANCH   6   7
ENDBRANCH   5   6
BRANCH   5  10
HETATM   10  C7  UNL     1     -17.013 -63.934 -30.356  1.00  0.00     0.097 C 
HETATM   11  C8  UNL     1     -17.291 -63.547 -28.897  1.00  0.00     0.034 C 
BRANCH  10  12
HETATM   12  N3  UNL     1     -16.124 -63.054 -30.980  1.00  0.00    -0.400 N 
ATOM     13  H3  UNL     1     -16.386 -62.080 -31.138  1.00  0.00     0.154 HD
BRANCH  12  14
HETATM   14  C9  UNL     1     -14.827 -63.542 -31.398  1.00  0.00     0.204 C 
BRANCH  14  15
HETATM   15  C10 UNL     1     -14.954 -64.140 -32.743  1.00  0.00     0.140 C 
BRANCH  15  16
HETATM   16  O1  UNL     1     -15.283 -63.307 -33.701  1.00  0.00    -0.348 OA
ATOM     17  H1  UNL     1     -16.111 -62.856 -33.582  1.00  0.00     0.219 HD
ENDBRANCH  15  16
BRANCH  15  18
HETATM   18  N4  UNL     1     -14.790 -65.446 -33.181  1.00  0.00    -0.371 N 
ATOM     19  H4  UNL     1     -13.934 -65.741 -33.650  1.00  0.00     0.161 HD
BRANCH  18  20
HETATM   20  C11 UNL     1     -15.874 -66.375 -32.951  1.00  0.00     0.148 C 
BRANCH  20  21
HETATM   21  C12 UNL     1     -15.530 -67.818 -33.137  1.00  0.00     0.249 C 
BRANCH  21  22
HETATM   22  N5  UNL     1     -15.073 -68.141 -34.450  1.00  0.00    -0.078 N 
ATOM     23  H53 UNL     1     -15.851 -68.153 -35.108  1.00  0.00     0.274 HD
ATOM     24  H52 UNL     1     -14.529 -67.371 -34.839  1.00  0.00     0.274 HD
ATOM     25  H51 UNL     1     -14.546 -69.013 -34.503  1.00  0.00     0.274 HD
ENDBRANCH  21  22
ENDBRANCH  20  21
ENDBRANCH  18  20
ENDBRANCH  15  18
ENDBRANCH  14  15
BRANCH  14  26
HETATM   26  C13 UNL     1     -13.764 -62.550 -31.344  1.00  0.00     0.056 A 
HETATM   27  C14 UNL     1     -13.653 -61.559 -30.395  1.00  0.00     0.116 A 
HETATM   28  N6  UNL     1     -12.552 -60.830 -30.680  1.00  0.00    -0.360 N 
HETATM   29  C15 UNL     1     -11.969 -61.339 -31.786  1.00  0.00     0.180 A 
ATOM     30  H6  UNL     1     -12.217 -60.027 -30.147  1.00  0.00     0.166 HD
HETATM   31  N7  UNL     1     -12.728 -62.375 -32.160  1.00  0.00    -0.353 N 
ATOM     32  H7  UNL     1     -12.535 -62.960 -32.973  1.00  0.00     0.166 HD
ENDBRANCH  14  26
ENDBRANCH  12  14
ENDBRANCH  10  12
ENDBRANCH   5  10
ENDBRANCH   1   5
TORSDOF 13
ENDMDL
MODEL 4
REMARK VINA RESULT: -5.832823813      3.047      5.233
REMARK  13 active torsions:
REMARK  status: ('A' for Active; 'I' for Inactive)
REMARK    1  A    between atoms: C2_2  and  C4_4 
REMARK    2  A    between atoms: C4_4  and  C5_5 
REMARK    3  A    between atoms: C5_5  and  N1_6 
REMARK    4  A    between atoms: C5_5  and  C7_10 
REMARK    5  A    between atoms: C7_10  and  N3_12 
REMARK    6  A    between atoms: N3_12  and  C9_14 
REMARK    7  A    between atoms: C9_14  and  C10_15 
REMARK    8  A    between atoms: C9_14  and  C13_26 
REMARK    9  A    between atoms: C10_15  and  O1_16 
REMARK   10  A    between atoms: C10_15  and  N4_18 
REMARK   11  A    between atoms: N4_18  and  C11_20 
REMARK   12  A    between atoms: C11_20  and  C12_21 
REMARK   13  A    between atoms: C12_21  and  N5_22 
ROOT
HETATM    1  N1  UNL     1     -16.026 -63.778 -33.356  1.00  0.00    -0.322 N 
ATOM      2  H1  UNL     1     -15.304 -63.629 -34.061  1.00  0.00     0.172 HD
HETATM    3  C6  UNL     1     -17.387 -63.784 -33.698  1.00  0.00     0.177 C 
HETATM    4  N2  UNL     1     -18.497 -63.778 -33.959  1.00  0.00    -0.172 NA
ENDROOT
BRANCH   1   5
HETATM    5  C5  UNL     1     -15.688 -63.989 -31.975  1.00  0.00     0.114 C 
BRANCH   5   6
HETATM    6  C4  UNL     1     -14.228 -63.876 -31.756  1.00  0.00     0.031 C 
BRANCH   6   7
HETATM    7  C2  UNL     1     -13.834 -62.425 -31.608  1.00  0.00    -0.021 C 
HETATM    8  C1  UNL     1     -14.318 -61.749 -30.383  1.00  0.00     0.009 C 
HETATM    9  C3  UNL     1     -12.297 -62.303 -31.589  1.00  0.00     0.009 C 
ENDBRANCH   6   7
ENDBRANCH   5   6
BRANCH   5  10
HETATM   10  C7  UNL     1     -16.290 -65.349 -31.610  1.00  0.00     0.097 C 
HETATM   11  C8  UNL     1     -16.436 -65.291 -30.083  1.00  0.00     0.034 C 
BRANCH  10  12
HETATM   12  N3  UNL     1     -15.494 -66.419 -32.028  1.00  0.00    -0.400 N 
ATOM     13  H3  UNL     1     -14.501 -66.282 -32.218  1.00  0.00     0.154 HD
BRANCH  12  14
HETATM   14  C9  UNL     1     -16.097 -67.726 -32.187  1.00  0.00     0.204 C 
BRANCH  14  15
HETATM   15  C10 UNL     1     -16.208 -68.028 -33.628  1.00  0.00     0.140 C 
BRANCH  15  16
HETATM   16  O1  UNL     1     -15.078 -68.309 -34.232  1.00  0.00    -0.348 OA
ATOM     17  H1  UNL     1     -14.292 -68.010 -33.788  1.00  0.00     0.219 HD
ENDBRANCH  15  16
BRANCH  15  18
HETATM   18  N4  UNL     1     -17.307 -68.063 -34.472  1.00  0.00    -0.371 N 
ATOM     19  H4  UNL     1     -17.261 -68.529 -35.378  1.00  0.00     0.161 HD
BRANCH  18  20
HETATM   20  C11 UNL     1     -18.521 -67.419 -34.026  1.00  0.00     0.148 C 
BRANCH  20  21
HETATM   21  C12 UNL     1     -19.738 -68.287 -34.008  1.00  0.00     0.249 C 
BRANCH  21  22
HETATM   22  N5  UNL     1     -19.456 -69.683 -34.093  1.00  0.00    -0.078 N 
ATOM     23  H53 UNL     1     -19.437 -70.102 -33.163  1.00  0.00     0.274 HD
ATOM     24  H52 UNL     1     -20.248 -70.185 -34.492  1.00  0.00     0.274 HD
ATOM     25  H51 UNL     1     -18.599 -69.904 -34.601  1.00  0.00     0.274 HD
ENDBRANCH  21  22
ENDBRANCH  20  21
ENDBRANCH  18  20
ENDBRANCH  15  18
ENDBRANCH  14  15
BRANCH  14  26
HETATM   26  C13 UNL     1     -15.426 -68.792 -31.458  1.00  0.00     0.056 A 
HETATM   27  C14 UNL     1     -14.696 -68.625 -30.303  1.00  0.00     0.116 A 
HETATM   28  N6  UNL     1     -14.217 -69.832 -29.933  1.00  0.00    -0.360 N 
HETATM   29  C15 UNL     1     -14.628 -70.754 -30.829  1.00  0.00     0.180 A 
ATOM     30  H6  UNL     1     -13.641 -70.017 -29.113  1.00  0.00     0.166 HD
HETATM   31  N7  UNL     1     -15.354 -70.091 -31.737  1.00  0.00    -0.353 N 
ATOM     32  H7  UNL     1     -15.799 -70.528 -32.543  1.00  0.00     0.166 HD
ENDBRANCH  14  26
ENDBRANCH  12  14
ENDBRANCH  10  12
ENDBRANCH   5  10
ENDBRANCH   1   5
TORSDOF 13
ENDMDL
MODEL 5
REMARK VINA RESULT: -5.727262762      3.107      5.455
REMARK  13 active torsions:
REMARK  status: ('A' for Active; 'I' for Inactive)
REMARK    1  A    between atoms: C2_2  and  C4_4 
REMARK    2  A    between atoms: C4_4  and  C5_5 
REMARK    3  A    between atoms: C5_5  and  N1_6 
REMARK    4  A    between atoms: C5_5  and  C7_10 
REMARK    5  A    between atoms: C7_10  and  N3_12 
REMARK    6  A    between atoms: N3_12  and  C9_14 
REMARK    7  A    between atoms: C9_14  and  C10_15 
REMARK    8  A    between atoms: C9_14  and  C13_26 
REMARK    9  A    between atoms: C10_15  and  O1_16 
REMARK   10  A    between atoms: C10_15  and  N4_18 
REMARK   11  A    between atoms: N4_18  and  C11_20 
REMARK   12  A    between atoms: C11_20  and  C12_21 
REMARK   13  A    between atoms: C12_21  and  N5_22 
ROOT
HETATM    1  N1  UNL     1     -15.982 -62.538 -30.732  1.00  0.00    -0.322 N 
ATOM      2  H1  UNL     1     -16.818 -62.746 -31.278  1.00  0.00     0.172 HD
HETATM    3  C6  UNL     1     -16.036 -61.688 -29.616  1.00  0.00     0.177 C 
HETATM    4  N2  UNL     1     -16.060 -60.988 -28.716  1.00  0.00    -0.172 NA
ENDROOT
BRANCH   1   5
HETATM    5  C5  UNL     1     -14.707 -63.104 -31.074  1.00  0.00     0.114 C 
BRANCH   5   6
HETATM    6  C4  UNL     1     -13.847 -62.115 -31.763  1.00  0.00     0.031 C 
BRANCH   6   7
HETATM    7  C2  UNL     1     -12.513 -62.007 -31.063  1.00  0.00    -0.021 C 
HETATM    8  C1  UNL     1     -11.364 -62.616 -31.772  1.00  0.00     0.009 C 
HETATM    9  C3  UNL     1     -12.153 -60.522 -30.855  1.00  0.00     0.009 C 
ENDBRANCH   6   7
ENDBRANCH   5   6
BRANCH   5  10
HETATM   10  C7  UNL     1     -15.023 -64.360 -31.890  1.00  0.00     0.097 C 
HETATM   11  C8  UNL     1     -15.836 -63.835 -33.081  1.00  0.00     0.034 C 
BRANCH  10  12
HETATM   12  N3  UNL     1     -15.723 -65.319 -31.151  1.00  0.00    -0.400 N 
ATOM     13  H3  UNL     1     -16.417 -65.034 -30.460  1.00  0.00     0.154 HD
BRANCH  12  14
HETATM   14  C9  UNL     1     -15.449 -66.722 -31.380  1.00  0.00     0.204 C 
BRANCH  14  15
HETATM   15  C10 UNL     1     -15.745 -67.474 -30.143  1.00  0.00     0.140 C 
BRANCH  15  16
HETATM   16  O1  UNL     1     -16.172 -66.751 -29.135  1.00  0.00    -0.348 OA
ATOM     17  H1  UNL     1     -15.926 -67.069 -28.273  1.00  0.00     0.219 HD
ENDBRANCH  15  16
BRANCH  15  18
HETATM   18  N4  UNL     1     -15.647 -68.825 -29.850  1.00  0.00    -0.371 N 
ATOM     19  H4  UNL     1     -16.464 -69.362 -29.557  1.00  0.00     0.161 HD
BRANCH  18  20
HETATM   20  C11 UNL     1     -14.349 -69.450 -29.972  1.00  0.00     0.148 C 
BRANCH  20  21
HETATM   21  C12 UNL     1     -13.545 -69.508 -28.712  1.00  0.00     0.249 C 
BRANCH  21  22
HETATM   22  N5  UNL     1     -12.801 -70.715 -28.555  1.00  0.00    -0.078 N 
ATOM     23  H53 UNL     1     -12.553 -70.858 -27.576  1.00  0.00     0.274 HD
ATOM     24  H52 UNL     1     -13.400 -71.527 -28.702  1.00  0.00     0.274 HD
ATOM     25  H51 UNL     1     -11.971 -70.772 -29.146  1.00  0.00     0.274 HD
ENDBRANCH  21  22
ENDBRANCH  20  21
ENDBRANCH  18  20
ENDBRANCH  15  18
ENDBRANCH  14  15
BRANCH  14  26
HETATM   26  C13 UNL     1     -16.128 -67.288 -32.535  1.00  0.00     0.056 A 
HETATM   27  C14 UNL     1     -15.531 -68.061 -33.505  1.00  0.00     0.116 A 
HETATM   28  N6  UNL     1     -16.473 -68.387 -34.417  1.00  0.00    -0.360 N 
HETATM   29  C15 UNL     1     -17.647 -67.836 -34.044  1.00  0.00     0.180 A 
ATOM     30  H6  UNL     1     -16.321 -68.956 -35.251  1.00  0.00     0.166 HD
HETATM   31  N7  UNL     1     -17.401 -67.179 -32.904  1.00  0.00    -0.353 N 
ATOM     32  H7  UNL     1     -18.105 -66.658 -32.382  1.00  0.00     0.166 HD
ENDBRANCH  14  26
ENDBRANCH  12  14
ENDBRANCH  10  12
ENDBRANCH   5  10
ENDBRANCH   1   5
TORSDOF 13
ENDMDL
