MODEL 1
REMARK VINA RESULT: -6.541675780      0.000      0.000
REMARK  11 active torsions:
REMARK  status: ('A' for Active; 'I' for Inactive)
REMARK    1  A    between atoms: N1_2  and  C2_4 
REMARK    2  A    between atoms: C3_9  and  N4_10 
REMARK    3  A    between atoms: N4_10  and  C4_12 
REMARK    4  A    between atoms: C4_12  and  C5_13 
REMARK    5  A    between atoms: C5_13  and  N5_14 
REMARK    6  A    between atoms: N5_14  and  C6_16 
REMARK    7  A    between atoms: C6_16  and  C7_17 
REMARK    8  A    between atoms: N6_18  and  N7_20 
REMARK    9  A    between atoms: N7_20  and  C8_22 
REMARK   10  A    between atoms: C8_22  and  C9_23 
REMARK   11  A    between atoms: C9_23  and  C10_24 
ROOT
HETATM    1  N5  UNL     1     -17.942 -62.730 -31.320  1.00  0.00    -0.415 N 
ATOM      2  H5  UNL     1     -18.066 -61.775 -31.655  1.00  0.00     0.153 HD
ENDROOT
BRANCH   1   3
HETATM    3  C5  UNL     1     -17.123 -62.983 -30.200  1.00  0.00     0.134 C 
BRANCH   3   4
HETATM    4  C4  UNL     1     -15.771 -63.566 -30.448  1.00  0.00     0.157 C 
BRANCH   4   5
HETATM    5  N4  UNL     1     -15.052 -63.058 -31.557  1.00  0.00    -0.223 N 
ATOM      6  H4  UNL     1     -15.434 -63.245 -32.484  1.00  0.00     0.177 HD
BRANCH   5   7
HETATM    7  C3  UNL     1     -13.963 -62.381 -31.499  1.00  0.00     0.707 A 
HETATM    8  N3  UNL     1     -12.945 -62.450 -32.374  1.00  0.00    -0.117 N 
HETATM    9  N2  UNL     1     -12.006 -61.625 -31.989  1.00  0.00    -0.117 N 
ATOM     10  H3  UNL     1     -12.911 -63.045 -33.201  1.00  0.00     0.206 HD
HETATM   11  C2  UNL     1     -12.420 -61.028 -30.868  1.00  0.00     0.707 A 
ATOM     12  H2  UNL     1     -11.115 -61.466 -32.460  1.00  0.00     0.206 HD
HETATM   13  N9  UNL     1     -13.657 -61.495 -30.545  1.00  0.00    -0.020 N 
ATOM     14  H9  UNL     1     -14.230 -61.227 -29.744  1.00  0.00     0.203 HD
BRANCH  11  15
HETATM   15  N1  UNL     1     -11.807 -60.158 -30.169  1.00  0.00    -0.229 N 
HETATM   16  C1  UNL     1     -12.440 -59.226 -29.296  1.00  0.00     0.165 C 
ATOM     17  H1  UNL     1     -10.790 -60.125 -30.238  1.00  0.00     0.177 HD
ENDBRANCH  11  15
ENDBRANCH   5   7
ENDBRANCH   4   5
ENDBRANCH   3   4
ENDBRANCH   1   3
BRANCH   1  18
HETATM   18  C6  UNL     1     -18.588 -63.799 -31.977  1.00  0.00     0.160 C 
BRANCH  18  19
HETATM   19  C7  UNL     1     -18.109 -64.099 -33.345  1.00  0.00     0.099 C 
HETATM   20  N6  UNL     1     -17.482 -65.189 -33.613  1.00  0.00    -0.319 N 
ATOM     21  H6  UNL     1     -17.158 -65.380 -34.562  1.00  0.00     0.185 HD
BRANCH  20  22
HETATM   22  N7  UNL     1     -17.251 -66.105 -32.589  1.00  0.00    -0.337 N 
ATOM     23  H7  UNL     1     -17.994 -66.352 -31.935  1.00  0.00     0.180 HD
BRANCH  22  24
HETATM   24  C8  UNL     1     -15.931 -66.703 -32.472  1.00  0.00     0.145 C 
BRANCH  24  25
HETATM   25  C9  UNL     1     -15.702 -67.611 -33.683  1.00  0.00     0.078 C 
BRANCH  25  26
HETATM   26  C10 UNL     1     -15.785 -69.007 -33.188  1.00  0.00     0.010 A 
HETATM   27  C11 UNL     1     -15.531 -69.276 -31.852  1.00  0.00     0.025 A 
HETATM   28  C12 UNL     1     -15.619 -70.570 -31.411  1.00  0.00     0.003 A 
HETATM   29  C13 UNL     1     -15.951 -71.565 -32.275  1.00  0.00     0.017 A 
HETATM   30  C14 UNL     1     -16.201 -71.280 -33.600  1.00  0.00     0.088 A 
HETATM   31  N8  UNL     1     -16.107 -70.002 -34.007  1.00  0.00    -0.369 N 
ATOM     32  H8  UNL     1     -16.291 -69.787 -34.987  1.00  0.00     0.165 HD
ENDBRANCH  25  26
ENDBRANCH  24  25
ENDBRANCH  22  24
ENDBRANCH  20  22
ENDBRANCH  18  19
ENDBRANCH   1  18
TORSDOF 11
ENDMDL
MODEL 2
REMARK VINA RESULT: -6.414481179      1.998      6.740
REMARK  11 active torsions:
REMARK  status: ('A' for Active; 'I' for Inactive)
REMARK    1  A    between atoms: N1_2  and  C2_4 
REMARK    2  A    between atoms: C3_9  and  N4_10 
REMARK    3  A    between atoms: N4_10  and  C4_12 
REMARK    4  A    between atoms: C4_12  and  C5_13 
REMARK    5  A    between atoms: C5_13  and  N5_14 
REMARK    6  A    between atoms: N5_14  and  C6_16 
REMARK    7  A    between atoms: C6_16  and  C7_17 
REMARK    8  A    between atoms: N6_18  and  N7_20 
REMARK    9  A    between atoms: N7_20  and  C8_22 
REMARK   10  A    between atoms: C8_22  and  C9_23 
REMARK   11  A    between atoms: C9_23  and  C10_24 
ROOT
HETATM    1  N5  UNL     1     -12.147 -60.330 -31.041  1.00  0.00    -0.415 N 
ATOM      2  H5  UNL     1     -12.224 -59.491 -31.616  1.00  0.00     0.153 HD
ENDROOT
BRANCH   1   3
HETATM    3  C5  UNL     1     -11.945 -61.586 -31.650  1.00  0.00     0.134 C 
BRANCH   3   4
HETATM    4  C4  UNL     1     -13.039 -62.596 -31.534  1.00  0.00     0.157 C 
BRANCH   4   5
HETATM    5  N4  UNL     1     -14.022 -62.590 -32.554  1.00  0.00    -0.223 N 
ATOM      6  H4  UNL     1     -14.091 -61.750 -33.128  1.00  0.00     0.177 HD
BRANCH   5   7
HETATM    7  C3  UNL     1     -14.833 -63.549 -32.820  1.00  0.00     0.707 A 
HETATM    8  N3  UNL     1     -16.008 -63.432 -33.461  1.00  0.00    -0.117 N 
HETATM    9  N2  UNL     1     -16.560 -64.616 -33.542  1.00  0.00    -0.117 N 
ATOM     10  H3  UNL     1     -16.403 -62.565 -33.824  1.00  0.00     0.206 HD
HETATM   11  C2  UNL     1     -15.740 -65.491 -32.953  1.00  0.00     0.707 A 
ATOM     12  H2  UNL     1     -17.457 -64.832 -33.976  1.00  0.00     0.206 HD
HETATM   13  N9  UNL     1     -14.642 -64.831 -32.491  1.00  0.00    -0.020 N 
ATOM     14  H9  UNL     1     -13.844 -65.231 -31.998  1.00  0.00     0.203 HD
BRANCH  11  15
HETATM   15  N1  UNL     1     -15.900 -66.746 -32.813  1.00  0.00    -0.229 N 
HETATM   16  C1  UNL     1     -15.367 -67.735 -33.689  1.00  0.00     0.165 C 
ATOM     17  H1  UNL     1     -16.451 -67.067 -32.017  1.00  0.00     0.177 HD
ENDBRANCH  11  15
ENDBRANCH   5   7
ENDBRANCH   4   5
ENDBRANCH   3   4
ENDBRANCH   1   3
BRANCH   1  18
HETATM   18  C6  UNL     1     -12.242 -60.236 -29.636  1.00  0.00     0.160 C 
BRANCH  18  19
HETATM   19  C7  UNL     1     -13.208 -59.240 -29.121  1.00  0.00     0.099 C 
HETATM   20  N6  UNL     1     -14.388 -59.581 -28.743  1.00  0.00    -0.319 N 
ATOM     21  H6  UNL     1     -15.042 -58.882 -28.391  1.00  0.00     0.185 HD
BRANCH  20  22
HETATM   22  N7  UNL     1     -14.761 -60.922 -28.821  1.00  0.00    -0.337 N 
ATOM     23  H7  UNL     1     -14.209 -61.643 -28.356  1.00  0.00     0.180 HD
BRANCH  22  24
HETATM   24  C8  UNL     1     -15.951 -61.272 -29.579  1.00  0.00     0.145 C 
BRANCH  24  25
HETATM   25  C9  UNL     1     -16.089 -62.797 -29.585  1.00  0.00     0.078 C 
BRANCH  25  26
HETATM   26  C10 UNL     1     -17.471 -63.096 -30.037  1.00  0.00     0.010 A 
HETATM   27  C11 UNL     1     -18.255 -63.975 -29.307  1.00  0.00     0.025 A 
HETATM   28  C12 UNL     1     -19.530 -64.234 -29.736  1.00  0.00     0.003 A 
HETATM   29  C13 UNL     1     -20.009 -63.633 -30.856  1.00  0.00     0.017 A 
HETATM   30  C14 UNL     1     -19.217 -62.760 -31.570  1.00  0.00     0.088 A 
HETATM   31  N8  UNL     1     -17.969 -62.525 -31.128  1.00  0.00    -0.369 N 
ATOM     32  H8  UNL     1     -17.378 -61.879 -31.654  1.00  0.00     0.165 HD
ENDBRANCH  25  26
ENDBRANCH  24  25
ENDBRANCH  22  24
ENDBRANCH  20  22
ENDBRANCH  18  19
ENDBRANCH   1  18
TORSDOF 11
ENDMDL
MODEL 3
REMARK VINA RESULT: -6.371505048      2.506      7.488
REMARK  11 active torsions:
REMARK  status: ('A' for Active; 'I' for Inactive)
REMARK    1  A    between atoms: N1_2  and  C2_4 
REMARK    2  A    between atoms: C3_9  and  N4_10 
REMARK    3  A    between atoms: N4_10  and  C4_12 
REMARK    4  A    between atoms: C4_12  and  C5_13 
REMARK    5  A    between atoms: C5_13  and  N5_14 
REMARK    6  A    between atoms: N5_14  and  C6_16 
REMARK    7  A    between atoms: C6_16  and  C7_17 
REMARK    8  A    between atoms: N6_18  and  N7_20 
REMARK    9  A    between atoms: N7_20  and  C8_22 
REMARK   10  A    between atoms: C8_22  and  C9_23 
REMARK   11  A    between atoms: C9_23  and  C10_24 
ROOT
HETATM    1  N5  UNL     1     -16.616 -66.816 -30.726  1.00  0.00    -0.415 N 
ATOM      2  H5  UNL     1     -16.862 -66.861 -29.737  1.00  0.00     0.153 HD
ENDROOT
BRANCH   1   3
HETATM    3  C5  UNL     1     -17.471 -67.386 -31.691  1.00  0.00     0.134 C 
BRANCH   3   4
HETATM    4  C4  UNL     1     -18.911 -66.991 -31.660  1.00  0.00     0.157 C 
BRANCH   4   5
HETATM    5  N4  UNL     1     -19.345 -66.084 -32.657  1.00  0.00    -0.223 N 
ATOM      6  H4  UNL     1     -20.140 -66.367 -33.230  1.00  0.00     0.177 HD
BRANCH   5   7
HETATM    7  C3  UNL     1     -18.826 -64.936 -32.905  1.00  0.00     0.707 A 
HETATM    8  N3  UNL     1     -18.647 -63.944 -32.016  1.00  0.00    -0.117 N 
HETATM    9  N2  UNL     1     -18.100 -62.926 -32.630  1.00  0.00    -0.117 N 
ATOM     10  H3  UNL     1     -18.897 -63.979 -31.028  1.00  0.00     0.206 HD
HETATM   11  C2  UNL     1     -17.927 -63.265 -33.910  1.00  0.00     0.707 A 
ATOM     12  H2  UNL     1     -17.849 -62.033 -32.206  1.00  0.00     0.206 HD
HETATM   13  N9  UNL     1     -18.381 -64.534 -34.100  1.00  0.00    -0.020 N 
ATOM     14  H9  UNL     1     -18.383 -65.067 -34.971  1.00  0.00     0.203 HD
BRANCH  11  15
HETATM   15  N1  UNL     1     -17.427 -62.564 -34.848  1.00  0.00    -0.229 N 
HETATM   16  C1  UNL     1     -18.143 -61.589 -35.602  1.00  0.00     0.165 C 
ATOM     17  H1  UNL     1     -16.444 -62.710 -35.076  1.00  0.00     0.177 HD
ENDBRANCH  11  15
ENDBRANCH   5   7
ENDBRANCH   4   5
ENDBRANCH   3   4
ENDBRANCH   1   3
BRANCH   1  18
HETATM   18  C6  UNL     1     -15.420 -66.184 -31.129  1.00  0.00     0.160 C 
BRANCH  18  19
HETATM   19  C7  UNL     1     -15.349 -65.787 -32.553  1.00  0.00     0.099 C 
HETATM   20  N6  UNL     1     -14.621 -64.802 -32.941  1.00  0.00    -0.319 N 
ATOM     21  H6  UNL     1     -14.585 -64.541 -33.927  1.00  0.00     0.185 HD
BRANCH  20  22
HETATM   22  N7  UNL     1     -13.883 -64.094 -31.994  1.00  0.00    -0.337 N 
ATOM     23  H7  UNL     1     -13.357 -64.585 -31.272  1.00  0.00     0.180 HD
BRANCH  22  24
HETATM   24  C8  UNL     1     -13.877 -62.641 -32.058  1.00  0.00     0.145 C 
BRANCH  24  25
HETATM   25  C9  UNL     1     -12.538 -62.138 -31.514  1.00  0.00     0.078 C 
BRANCH  25  26
HETATM   26  C10 UNL     1     -12.854 -61.103 -30.499  1.00  0.00     0.010 A 
HETATM   27  C11 UNL     1     -14.038 -61.185 -29.784  1.00  0.00     0.025 A 
HETATM   28  C12 UNL     1     -14.310 -60.224 -28.846  1.00  0.00     0.003 A 
HETATM   29  C13 UNL     1     -13.428 -59.214 -28.627  1.00  0.00     0.017 A 
HETATM   30  C14 UNL     1     -12.254 -59.148 -29.347  1.00  0.00     0.088 A 
HETATM   31  N8  UNL     1     -12.012 -60.103 -30.262  1.00  0.00    -0.369 N 
ATOM     32  H8  UNL     1     -11.144 -60.058 -30.797  1.00  0.00     0.165 HD
ENDBRANCH  25  26
ENDBRANCH  24  25
ENDBRANCH  22  24
ENDBRANCH  20  22
ENDBRANCH  18  19
ENDBRANCH   1  18
TORSDOF 11
ENDMDL
MODEL 4
REMARK VINA RESULT: -6.368267305      0.994      1.461
REMARK  11 active torsions:
REMARK  status: ('A' for Active; 'I' for Inactive)
REMARK    1  A    between atoms: N1_2  and  C2_4 
REMARK    2  A    between atoms: C3_9  and  N4_10 
REMARK    3  A    between atoms: N4_10  and  C4_12 
REMARK    4  A    between atoms: C4_12  and  C5_13 
REMARK    5  A    between atoms: C5_13  and  N5_14 
REMARK    6  A    between atoms: N5_14  and  C6_16 
REMARK    7  A    between atoms: C6_16  and  C7_17 
REMARK    8  A    between atoms: N6_18  and  N7_20 
REMARK    9  A    between atoms: N7_20  and  C8_22 
REMARK   10  A    between atoms: C8_22  and  C9_23 
REMARK   11  A    between atoms: C9_23  and  C10_24 
ROOT
HETATM    1  N5  UNL     1     -17.887 -62.613 -31.155  1.00  0.00    -0.415 N 
ATOM      2  H5  UNL     1     -18.103 -61.647 -31.401  1.00  0.00     0.153 HD
ENDROOT
BRANCH   1   3
HETATM    3  C5  UNL     1     -16.919 -62.890 -30.168  1.00  0.00     0.134 C 
BRANCH   3   4
HETATM    4  C4  UNL     1     -15.698 -63.641 -30.586  1.00  0.00     0.157 C 
BRANCH   4   5
HETATM    5  N4  UNL     1     -14.962 -63.106 -31.672  1.00  0.00    -0.223 N 
ATOM      6  H4  UNL     1     -15.321 -63.283 -32.610  1.00  0.00     0.177 HD
BRANCH   5   7
HETATM    7  C3  UNL     1     -13.883 -62.417 -31.579  1.00  0.00     0.707 A 
HETATM    8  N3  UNL     1     -12.837 -62.474 -32.421  1.00  0.00    -0.117 N 
HETATM    9  N2  UNL     1     -11.919 -61.639 -32.006  1.00  0.00    -0.117 N 
ATOM     10  H3  UNL     1     -12.770 -63.070 -33.246  1.00  0.00     0.206 HD
HETATM   11  C2  UNL     1     -12.376 -61.046 -30.899  1.00  0.00     0.707 A 
ATOM     12  H2  UNL     1     -11.016 -61.470 -32.448  1.00  0.00     0.206 HD
HETATM   13  N9  UNL     1     -13.617 -61.528 -30.616  1.00  0.00    -0.020 N 
ATOM     14  H9  UNL     1     -14.218 -61.266 -29.834  1.00  0.00     0.203 HD
BRANCH  11  15
HETATM   15  N1  UNL     1     -11.796 -60.170 -30.181  1.00  0.00    -0.229 N 
HETATM   16  C1  UNL     1     -12.465 -59.256 -29.317  1.00  0.00     0.165 C 
ATOM     17  H1  UNL     1     -10.778 -60.117 -30.229  1.00  0.00     0.177 HD
ENDBRANCH  11  15
ENDBRANCH   5   7
ENDBRANCH   4   5
ENDBRANCH   3   4
ENDBRANCH   1   3
BRANCH   1  18
HETATM   18  C6  UNL     1     -18.556 -63.674 -31.804  1.00  0.00     0.160 C 
BRANCH  18  19
HETATM   19  C7  UNL     1     -18.241 -63.852 -33.239  1.00  0.00     0.099 C 
HETATM   20  N6  UNL     1     -17.683 -64.924 -33.677  1.00  0.00    -0.319 N 
ATOM     21  H6  UNL     1     -17.473 -65.030 -34.669  1.00  0.00     0.185 HD
BRANCH  20  22
HETATM   22  N7  UNL     1     -17.369 -65.938 -32.774  1.00  0.00    -0.337 N 
ATOM     23  H7  UNL     1     -18.034 -66.219 -32.054  1.00  0.00     0.180 HD
BRANCH  22  24
HETATM   24  C8  UNL     1     -16.072 -66.589 -32.880  1.00  0.00     0.145 C 
BRANCH  24  25
HETATM   25  C9  UNL     1     -16.300 -68.078 -33.154  1.00  0.00     0.078 C 
BRANCH  25  26
HETATM   26  C10 UNL     1     -15.644 -68.818 -32.047  1.00  0.00     0.010 A 
HETATM   27  C11 UNL     1     -15.577 -70.201 -32.094  1.00  0.00     0.025 A 
HETATM   28  C12 UNL     1     -14.962 -70.867 -31.067  1.00  0.00     0.003 A 
HETATM   29  C13 UNL     1     -14.429 -70.175 -30.026  1.00  0.00     0.017 A 
HETATM   30  C14 UNL     1     -14.504 -68.799 -29.996  1.00  0.00     0.088 A 
HETATM   31  N8  UNL     1     -15.114 -68.170 -31.016  1.00  0.00    -0.369 N 
ATOM     32  H8  UNL     1     -15.172 -67.152 -30.997  1.00  0.00     0.165 HD
ENDBRANCH  25  26
ENDBRANCH  24  25
ENDBRANCH  22  24
ENDBRANCH  20  22
ENDBRANCH  18  19
ENDBRANCH   1  18
TORSDOF 11
ENDMDL
MODEL 5
REMARK VINA RESULT: -6.276617231      4.613      8.090
REMARK  11 active torsions:
REMARK  status: ('A' for Active; 'I' for Inactive)
REMARK    1  A    between atoms: N1_2  and  C2_4 
REMARK    2  A    between atoms: C3_9  and  N4_10 
REMARK    3  A    between atoms: N4_10  and  C4_12 
REMARK    4  A    between atoms: C4_12  and  C5_13 
REMARK    5  A    between atoms: C5_13  and  N5_14 
REMARK    6  A    between atoms: N5_14  and  C6_16 
REMARK    7  A    between atoms: C6_16  and  C7_17 
REMARK    8  A    between atoms: N6_18  and  N7_20 
REMARK    9  A    between atoms: N7_20  and  C8_22 
REMARK   10  A    between atoms: C8_22  and  C9_23 
REMARK   11  A    between atoms: C9_23  and  C10_24 
ROOT
HETATM    1  N5  UNL     1     -18.147 -62.924 -34.336  1.00  0.00    -0.415 N 
ATOM      2  H5  UNL     1     -19.122 -62.643 -34.235  1.00  0.00     0.153 HD
ENDROOT
BRANCH   1   3
HETATM    3  C5  UNL     1     -17.313 -62.258 -35.257  1.00  0.00     0.134 C 
BRANCH   3   4
HETATM    4  C4  UNL     1     -17.952 -61.282 -36.190  1.00  0.00     0.157 C 
BRANCH   4   5
HETATM    5  N4  UNL     1     -18.824 -60.328 -35.613  1.00  0.00    -0.223 N 
ATOM      6  H4  UNL     1     -19.327 -60.607 -34.770  1.00  0.00     0.177 HD
BRANCH   5   7
HETATM    7  C3  UNL     1     -19.038 -59.142 -36.056  1.00  0.00     0.707 A 
HETATM    8  N3  UNL     1     -20.242 -58.605 -36.321  1.00  0.00    -0.117 N 
HETATM    9  N2  UNL     1     -20.067 -57.386 -36.763  1.00  0.00    -0.117 N 
ATOM     10  H3  UNL     1     -21.140 -59.071 -36.198  1.00  0.00     0.206 HD
HETATM   11  C2  UNL     1     -18.754 -57.141 -36.782  1.00  0.00     0.707 A 
ATOM     12  H2  UNL     1     -20.803 -56.738 -37.045  1.00  0.00     0.206 HD
HETATM   13  N9  UNL     1     -18.089 -58.242 -36.336  1.00  0.00    -0.020 N 
ATOM     14  H9  UNL     1     -17.081 -58.358 -36.238  1.00  0.00     0.203 HD
BRANCH  11  15
HETATM   15  N1  UNL     1     -18.159 -56.076 -37.144  1.00  0.00    -0.229 N 
HETATM   16  C1  UNL     1     -17.740 -55.040 -36.260  1.00  0.00     0.165 C 
ATOM     17  H1  UNL     1     -17.969 -55.954 -38.139  1.00  0.00     0.177 HD
ENDBRANCH  11  15
ENDBRANCH   5   7
ENDBRANCH   4   5
ENDBRANCH   3   4
ENDBRANCH   1   3
BRANCH   1  18
HETATM   18  C6  UNL     1     -17.631 -63.980 -33.553  1.00  0.00     0.160 C 
BRANCH  18  19
HETATM   19  C7  UNL     1     -17.680 -63.779 -32.088  1.00  0.00     0.099 C 
HETATM   20  N6  UNL     1     -16.639 -63.421 -31.424  1.00  0.00    -0.319 N 
ATOM     21  H6  UNL     1     -16.690 -63.287 -30.414  1.00  0.00     0.185 HD
BRANCH  20  22
HETATM   22  N7  UNL     1     -15.440 -63.219 -32.105  1.00  0.00    -0.337 N 
ATOM     23  H7  UNL     1     -15.439 -62.939 -33.086  1.00  0.00     0.180 HD
BRANCH  22  24
HETATM   24  C8  UNL     1     -14.189 -63.414 -31.388  1.00  0.00     0.145 C 
BRANCH  24  25
HETATM   25  C9  UNL     1     -13.214 -62.311 -31.808  1.00  0.00     0.078 C 
BRANCH  25  26
HETATM   26  C10 UNL     1     -13.217 -61.305 -30.717  1.00  0.00     0.010 A 
HETATM   27  C11 UNL     1     -14.262 -61.284 -29.808  1.00  0.00     0.025 A 
HETATM   28  C12 UNL     1     -14.244 -60.353 -28.803  1.00  0.00     0.003 A 
HETATM   29  C13 UNL     1     -13.216 -59.470 -28.708  1.00  0.00     0.017 A 
HETATM   30  C14 UNL     1     -12.184 -59.504 -29.621  1.00  0.00     0.088 A 
HETATM   31  N8  UNL     1     -12.226 -60.428 -30.598  1.00  0.00    -0.369 N 
ATOM     32  H8  UNL     1     -11.464 -60.457 -31.276  1.00  0.00     0.165 HD
ENDBRANCH  25  26
ENDBRANCH  24  25
ENDBRANCH  22  24
ENDBRANCH  20  22
ENDBRANCH  18  19
ENDBRANCH   1  18
TORSDOF 11
ENDMDL
