MODEL 1
REMARK VINA RESULT: -5.854192481      0.000      0.000
REMARK  7 active torsions:
REMARK  status: ('A' for Active; 'I' for Inactive)
REMARK    1  A    between atoms: C1_4  and  C2_5 
REMARK    2  A    between atoms: C2_5  and  C3_6 
REMARK    3  A    between atoms: C3_6  and  C4_7 
REMARK    4  A    between atoms: C4_7  and  N2_8 
REMARK    5  A    between atoms: C4_7  and  N3_12 
REMARK    6  A    between atoms: N3_12  and  C5_14 
REMARK    7  A    between atoms: C5_14  and  C6_15 
ROOT
HETATM    1  C4  UNL     1     123.898  54.033  31.463  1.00  0.00     0.281 C 
ENDROOT
BRANCH   1   2
HETATM    2  C3  UNL     1     122.987  54.218  30.250  1.00  0.00     0.059 C 
BRANCH   2   3
HETATM    3  C2  UNL     1     123.249  55.604  29.686  1.00  0.00     0.047 C 
BRANCH   3   4
HETATM    4  C1  UNL     1     124.179  55.577  28.542  1.00  0.00     0.052 C 
HETATM    5  N1  UNL     1     124.335  54.586  27.771  1.00  0.00    -0.411 N 
ATOM      6  H12 UNL     1     123.772  53.758  27.969  1.00  0.00     0.155 HD
ATOM      7  H11 UNL     1     124.978  54.567  26.980  1.00  0.00     0.155 HD
ENDBRANCH   3   4
ENDBRANCH   2   3
ENDBRANCH   1   2
BRANCH   1   8
HETATM    8  N2  UNL     1     123.024  53.695  32.572  1.00  0.00    -0.058 N 
ATOM      9  H23 UNL     1     122.115  53.337  32.280  1.00  0.00     0.276 HD
ATOM     10  H22 UNL     1     123.323  52.868  33.089  1.00  0.00     0.276 HD
ATOM     11  H21 UNL     1     122.963  54.536  33.149  1.00  0.00     0.276 HD
ENDBRANCH   1   8
BRANCH   1  12
HETATM   12  N3  UNL     1     124.854  53.044  31.174  1.00  0.00    -0.373 N 
ATOM     13  H3  UNL     1     124.550  52.123  30.860  1.00  0.00     0.160 HD
BRANCH  12  14
HETATM   14  C5  UNL     1     126.218  53.316  31.315  1.00  0.00     0.099 C 
BRANCH  14  15
HETATM   15  C6  UNL     1     126.890  52.746  32.538  1.00  0.00     0.259 C 
HETATM   16  O1  UNL     1     127.267  51.404  32.422  1.00  0.00    -0.260 OA
HETATM   17  N4  UNL     1     128.368  51.701  33.128  1.00  0.00    -0.251 N 
HETATM   18  C7  UNL     1     128.351  52.992  32.552  1.00  0.00     0.132 C 
ATOM     19  H4  UNL     1     128.963  51.207  33.794  1.00  0.00     0.196 HD
HETATM   20  N5  UNL     1     129.198  53.906  32.219  1.00  0.00    -0.385 N 
ATOM     21  H52 UNL     1     129.185  54.837  31.804  1.00  0.00     0.157 HD
ATOM     22  H51 UNL     1     130.204  54.075  32.229  1.00  0.00     0.157 HD
ENDBRANCH  14  15
ENDBRANCH  12  14
ENDBRANCH   1  12
TORSDOF 7
ENDMDL
MODEL 2
REMARK VINA RESULT: -5.830979058      1.084      1.458
REMARK  7 active torsions:
REMARK  status: ('A' for Active; 'I' for Inactive)
REMARK    1  A    between atoms: C1_4  and  C2_5 
REMARK    2  A    between atoms: C2_5  and  C3_6 
REMARK    3  A    between atoms: C3_6  and  C4_7 
REMARK    4  A    between atoms: C4_7  and  N2_8 
REMARK    5  A    between atoms: C4_7  and  N3_12 
REMARK    6  A    between atoms: N3_12  and  C5_14 
REMARK    7  A    between atoms: C5_14  and  C6_15 
ROOT
HETATM    1  C4  UNL     1     123.898  54.023  31.685  1.00  0.00     0.281 C 
ENDROOT
BRANCH   1   2
HETATM    2  C3  UNL     1     123.254  53.993  30.300  1.00  0.00     0.059 C 
BRANCH   2   3
HETATM    3  C2  UNL     1     123.212  55.421  29.782  1.00  0.00     0.047 C 
BRANCH   3   4
HETATM    4  C1  UNL     1     123.967  55.584  28.525  1.00  0.00     0.052 C 
HETATM    5  N1  UNL     1     124.365  54.626  27.802  1.00  0.00    -0.411 N 
ATOM      6  H12 UNL     1     124.141  53.684  28.123  1.00  0.00     0.155 HD
ATOM      7  H11 UNL     1     124.888  54.738  26.932  1.00  0.00     0.155 HD
ENDBRANCH   3   4
ENDBRANCH   2   3
ENDBRANCH   1   2
BRANCH   1   8
HETATM    8  N2  UNL     1     122.821  53.798  32.632  1.00  0.00    -0.058 N 
ATOM      9  H23 UNL     1     122.045  54.451  32.529  1.00  0.00     0.276 HD
ATOM     10  H22 UNL     1     122.290  52.946  32.450  1.00  0.00     0.276 HD
ATOM     11  H21 UNL     1     123.251  53.820  33.558  1.00  0.00     0.276 HD
ENDBRANCH   1   8
BRANCH   1  12
HETATM   12  N3  UNL     1     124.914  53.054  31.742  1.00  0.00    -0.373 N 
ATOM     13  H3  UNL     1     124.794  52.228  32.327  1.00  0.00     0.160 HD
BRANCH  12  14
HETATM   14  C5  UNL     1     126.089  53.216  31.001  1.00  0.00     0.099 C 
BRANCH  14  15
HETATM   15  C6  UNL     1     127.382  53.087  31.764  1.00  0.00     0.259 C 
HETATM   16  O1  UNL     1     127.488  53.928  32.876  1.00  0.00    -0.260 OA
HETATM   17  N4  UNL     1     128.122  52.932  33.512  1.00  0.00    -0.251 N 
HETATM   18  C7  UNL     1     127.339  52.009  32.780  1.00  0.00     0.132 C 
ATOM     19  H4  UNL     1     128.855  52.867  34.219  1.00  0.00     0.196 HD
HETATM   20  N5  UNL     1     126.850  50.827  32.940  1.00  0.00    -0.385 N 
ATOM     21  H52 UNL     1     126.285  50.162  32.412  1.00  0.00     0.157 HD
ATOM     22  H51 UNL     1     126.820  50.085  33.639  1.00  0.00     0.157 HD
ENDBRANCH  14  15
ENDBRANCH  12  14
ENDBRANCH   1  12
TORSDOF 7
ENDMDL
MODEL 3
REMARK VINA RESULT: -5.809701629      1.459      2.787
REMARK  7 active torsions:
REMARK  status: ('A' for Active; 'I' for Inactive)
REMARK    1  A    between atoms: C1_4  and  C2_5 
REMARK    2  A    between atoms: C2_5  and  C3_6 
REMARK    3  A    between atoms: C3_6  and  C4_7 
REMARK    4  A    between atoms: C4_7  and  N2_8 
REMARK    5  A    between atoms: C4_7  and  N3_12 
REMARK    6  A    between atoms: N3_12  and  C5_14 
REMARK    7  A    between atoms: C5_14  and  C6_15 
ROOT
HETATM    1  C4  UNL     1     124.359  53.448  30.123  1.00  0.00     0.281 C 
ENDROOT
BRANCH   1   2
HETATM    2  C3  UNL     1     123.149  53.739  31.010  1.00  0.00     0.059 C 
BRANCH   2   3
HETATM    3  C2  UNL     1     123.314  52.936  32.290  1.00  0.00     0.047 C 
BRANCH   3   4
HETATM    4  C1  UNL     1     123.294  51.482  32.046  1.00  0.00     0.052 C 
HETATM    5  N1  UNL     1     124.220  50.688  32.384  1.00  0.00    -0.411 N 
ATOM      6  H12 UNL     1     125.026  51.097  32.856  1.00  0.00     0.155 HD
ATOM      7  H11 UNL     1     124.206  49.682  32.216  1.00  0.00     0.155 HD
ENDBRANCH   3   4
ENDBRANCH   2   3
ENDBRANCH   1   2
BRANCH   1   8
HETATM    8  N2  UNL     1     124.030  53.975  28.811  1.00  0.00    -0.058 N 
ATOM      9  H23 UNL     1     123.732  54.950  28.828  1.00  0.00     0.276 HD
ATOM     10  H22 UNL     1     124.843  54.105  28.209  1.00  0.00     0.276 HD
ATOM     11  H21 UNL     1     123.331  53.342  28.421  1.00  0.00     0.276 HD
ENDBRANCH   1   8
BRANCH   1  12
HETATM   12  N3  UNL     1     125.502  54.031  30.698  1.00  0.00    -0.373 N 
ATOM     13  H3  UNL     1     125.469  54.998  31.019  1.00  0.00     0.160 HD
BRANCH  12  14
HETATM   14  C5  UNL     1     126.682  53.294  30.832  1.00  0.00     0.099 C 
BRANCH  14  15
HETATM   15  C6  UNL     1     127.040  52.856  32.229  1.00  0.00     0.259 C 
HETATM   16  O1  UNL     1     127.290  51.487  32.364  1.00  0.00    -0.260 OA
HETATM   17  N4  UNL     1     128.259  51.796  33.238  1.00  0.00    -0.251 N 
HETATM   18  C7  UNL     1     128.489  52.988  32.513  1.00  0.00     0.132 C 
ATOM     19  H4  UNL     1     128.658  51.360  34.069  1.00  0.00     0.196 HD
HETATM   20  N5  UNL     1     129.476  53.775  32.249  1.00  0.00    -0.385 N 
ATOM     21  H52 UNL     1     129.642  54.634  31.725  1.00  0.00     0.157 HD
ATOM     22  H51 UNL     1     130.473  53.866  32.444  1.00  0.00     0.157 HD
ENDBRANCH  14  15
ENDBRANCH  12  14
ENDBRANCH   1  12
TORSDOF 7
ENDMDL
MODEL 4
REMARK VINA RESULT: -5.675621858      1.411      2.718
REMARK  7 active torsions:
REMARK  status: ('A' for Active; 'I' for Inactive)
REMARK    1  A    between atoms: C1_4  and  C2_5 
REMARK    2  A    between atoms: C2_5  and  C3_6 
REMARK    3  A    between atoms: C3_6  and  C4_7 
REMARK    4  A    between atoms: C4_7  and  N2_8 
REMARK    5  A    between atoms: C4_7  and  N3_12 
REMARK    6  A    between atoms: N3_12  and  C5_14 
REMARK    7  A    between atoms: C5_14  and  C6_15 
ROOT
HETATM    1  C4  UNL     1     125.224  53.658  29.666  1.00  0.00     0.281 C 
ENDROOT
BRANCH   1   2
HETATM    2  C3  UNL     1     123.767  53.455  30.078  1.00  0.00     0.059 C 
BRANCH   2   3
HETATM    3  C2  UNL     1     123.237  54.793  30.565  1.00  0.00     0.047 C 
BRANCH   3   4
HETATM    4  C1  UNL     1     122.753  54.731  31.957  1.00  0.00     0.052 C 
HETATM    5  N1  UNL     1     122.861  53.717  32.707  1.00  0.00    -0.411 N 
ATOM      6  H12 UNL     1     123.315  52.897  32.306  1.00  0.00     0.155 HD
ATOM      7  H11 UNL     1     122.526  53.674  33.670  1.00  0.00     0.155 HD
ENDBRANCH   3   4
ENDBRANCH   2   3
ENDBRANCH   1   2
BRANCH   1   8
HETATM    8  N2  UNL     1     125.211  54.689  28.643  1.00  0.00    -0.058 N 
ATOM      9  H23 UNL     1     124.476  55.384  28.776  1.00  0.00     0.276 HD
ATOM     10  H22 UNL     1     126.001  55.332  28.703  1.00  0.00     0.276 HD
ATOM     11  H21 UNL     1     125.152  54.198  27.750  1.00  0.00     0.276 HD
ENDBRANCH   1   8
BRANCH   1  12
HETATM   12  N3  UNL     1     125.981  53.996  30.801  1.00  0.00    -0.373 N 
ATOM     13  H3  UNL     1     126.227  54.970  30.973  1.00  0.00     0.160 HD
BRANCH  12  14
HETATM   14  C5  UNL     1     126.398  53.005  31.694  1.00  0.00     0.099 C 
BRANCH  14  15
HETATM   15  C6  UNL     1     127.872  52.690  31.701  1.00  0.00     0.259 C 
HETATM   16  O1  UNL     1     128.705  53.798  31.515  1.00  0.00    -0.260 OA
HETATM   17  N4  UNL     1     129.556  53.250  32.394  1.00  0.00    -0.251 N 
HETATM   18  C7  UNL     1     128.447  52.687  33.068  1.00  0.00     0.132 C 
ATOM     19  H4  UNL     1     130.568  53.242  32.522  1.00  0.00     0.196 HD
HETATM   20  N5  UNL     1     128.125  52.349  34.270  1.00  0.00    -0.385 N 
ATOM     21  H52 UNL     1     127.326  51.943  34.755  1.00  0.00     0.157 HD
ATOM     22  H51 UNL     1     128.521  52.347  35.210  1.00  0.00     0.157 HD
ENDBRANCH  14  15
ENDBRANCH  12  14
ENDBRANCH   1  12
TORSDOF 7
ENDMDL
MODEL 5
REMARK VINA RESULT: -5.641189945      1.363      1.767
REMARK  7 active torsions:
REMARK  status: ('A' for Active; 'I' for Inactive)
REMARK    1  A    between atoms: C1_4  and  C2_5 
REMARK    2  A    between atoms: C2_5  and  C3_6 
REMARK    3  A    between atoms: C3_6  and  C4_7 
REMARK    4  A    between atoms: C4_7  and  N2_8 
REMARK    5  A    between atoms: C4_7  and  N3_12 
REMARK    6  A    between atoms: N3_12  and  C5_14 
REMARK    7  A    between atoms: C5_14  and  C6_15 
ROOT
HETATM    1  C4  UNL     1     124.194  52.839  31.816  1.00  0.00     0.281 C 
ENDROOT
BRANCH   1   2
HETATM    2  C3  UNL     1     123.977  52.890  30.304  1.00  0.00     0.059 C 
BRANCH   2   3
HETATM    3  C2  UNL     1     124.444  54.252  29.819  1.00  0.00     0.047 C 
BRANCH   3   4
HETATM    4  C1  UNL     1     123.327  55.200  29.650  1.00  0.00     0.052 C 
HETATM    5  N1  UNL     1     122.981  55.707  28.544  1.00  0.00    -0.411 N 
ATOM      6  H12 UNL     1     123.522  55.432  27.724  1.00  0.00     0.155 HD
ATOM      7  H11 UNL     1     122.208  56.363  28.427  1.00  0.00     0.155 HD
ENDBRANCH   3   4
ENDBRANCH   2   3
ENDBRANCH   1   2
BRANCH   1   8
HETATM    8  N2  UNL     1     122.869  52.848  32.410  1.00  0.00    -0.058 N 
ATOM      9  H23 UNL     1     122.491  51.915  32.575  1.00  0.00     0.276 HD
ATOM     10  H22 UNL     1     122.861  53.157  33.382  1.00  0.00     0.276 HD
ATOM     11  H21 UNL     1     122.289  53.420  31.796  1.00  0.00     0.276 HD
ENDBRANCH   1   8
BRANCH   1  12
HETATM   12  N3  UNL     1     124.950  51.699  32.135  1.00  0.00    -0.373 N 
ATOM     13  H3  UNL     1     124.617  50.776  31.857  1.00  0.00     0.160 HD
BRANCH  12  14
HETATM   14  C5  UNL     1     126.157  51.821  32.831  1.00  0.00     0.099 C 
BRANCH  14  15
HETATM   15  C6  UNL     1     127.256  52.581  32.132  1.00  0.00     0.259 C 
HETATM   16  O1  UNL     1     127.223  53.965  32.329  1.00  0.00    -0.260 OA
HETATM   17  N4  UNL     1     128.563  53.946  32.365  1.00  0.00    -0.251 N 
HETATM   18  C7  UNL     1     128.497  52.655  32.938  1.00  0.00     0.132 C 
ATOM     19  H4  UNL     1     129.309  54.587  32.095  1.00  0.00     0.196 HD
HETATM   20  N5  UNL     1     129.188  51.930  33.750  1.00  0.00    -0.385 N 
ATOM     21  H52 UNL     1     129.140  50.999  34.164  1.00  0.00     0.157 HD
ATOM     22  H51 UNL     1     130.043  51.981  34.305  1.00  0.00     0.157 HD
ENDBRANCH  14  15
ENDBRANCH  12  14
ENDBRANCH   1  12
TORSDOF 7
ENDMDL
