MODEL 1
REMARK VINA RESULT: -6.207651309      0.000      0.000
REMARK  6 active torsions:
REMARK  status: ('A' for Active; 'I' for Inactive)
REMARK    1  A    between atoms: C2_2  and  O1_3 
REMARK    2  A    between atoms: O1_3  and  C3_4 
REMARK    3  A    between atoms: C3_4  and  C4_5 
REMARK    4  A    between atoms: C4_5  and  C5_6 
REMARK    5  A    between atoms: C5_6  and  N1_7 
REMARK    6  A    between atoms: C7_16  and  N5_17 
ROOT
HETATM    1  N1  UNL     1     128.125  53.161  32.467  1.00  0.00    -0.278 N 
HETATM    2  N2  UNL     1     129.331  53.800  32.550  1.00  0.00    -0.270 N 
ATOM      3  H2  UNL     1     129.555  54.747  32.243  1.00  0.00     0.190 HD
HETATM    4  C6  UNL     1     130.209  52.850  33.161  1.00  0.00     0.190 C 
HETATM    5  N3  UNL     1     131.512  52.945  33.267  1.00  0.00    -0.370 N 
ATOM      6  H31 UNL     1     132.139  52.268  33.703  1.00  0.00     0.159 HD
ATOM      7  H32 UNL     1     132.079  53.721  32.924  1.00  0.00     0.159 HD
HETATM    8  N4  UNL     1     129.421  51.768  33.639  1.00  0.00    -0.317 N 
ATOM      9  H4  UNL     1     129.761  50.894  34.039  1.00  0.00     0.166 HD
HETATM   10  C7  UNL     1     128.032  52.154  33.446  1.00  0.00     0.406 C 
ENDROOT
BRANCH   1  11
HETATM   11  C5  UNL     1     127.517  53.009  31.235  1.00  0.00     0.149 C 
BRANCH  11  12
HETATM   12  C4  UNL     1     126.103  53.630  31.268  1.00  0.00     0.048 C 
BRANCH  12  13
HETATM   13  C3  UNL     1     125.602  53.777  29.858  1.00  0.00     0.169 C 
BRANCH  13  14
HETATM   14  O1  UNL     1     125.656  55.055  29.403  1.00  0.00    -0.391 OA
BRANCH  14  15
HETATM   15  C2  UNL     1     124.671  55.394  28.517  1.00  0.00     0.163 C 
HETATM   16  C1  UNL     1     123.333  55.579  29.242  1.00  0.00     0.033 C 
ENDBRANCH  14  15
ENDBRANCH  13  14
ENDBRANCH  12  13
ENDBRANCH  11  12
ENDBRANCH   1  11
BRANCH  10  17
HETATM   17  N5  UNL     1     127.612  52.752  34.724  1.00  0.00    -0.039 N 
ATOM     18  H53 UNL     1     128.195  53.547  34.989  1.00  0.00     0.279 HD
ATOM     19  H52 UNL     1     126.722  53.244  34.646  1.00  0.00     0.279 HD
ATOM     20  H51 UNL     1     127.592  52.031  35.445  1.00  0.00     0.279 HD
ENDBRANCH  10  17
TORSDOF 6
ENDMDL
MODEL 2
REMARK VINA RESULT: -5.949915822      1.705      1.948
REMARK  6 active torsions:
REMARK  status: ('A' for Active; 'I' for Inactive)
REMARK    1  A    between atoms: C2_2  and  O1_3 
REMARK    2  A    between atoms: O1_3  and  C3_4 
REMARK    3  A    between atoms: C3_4  and  C4_5 
REMARK    4  A    between atoms: C4_5  and  C5_6 
REMARK    5  A    between atoms: C5_6  and  N1_7 
REMARK    6  A    between atoms: C7_16  and  N5_17 
ROOT
HETATM    1  N1  UNL     1     128.157  53.103  32.469  1.00  0.00    -0.278 N 
HETATM    2  N2  UNL     1     129.354  53.761  32.541  1.00  0.00    -0.270 N 
ATOM      3  H2  UNL     1     129.566  54.703  32.213  1.00  0.00     0.190 HD
HETATM    4  C6  UNL     1     130.243  52.838  33.177  1.00  0.00     0.190 C 
HETATM    5  N3  UNL     1     131.545  52.954  33.286  1.00  0.00    -0.370 N 
ATOM      6  H31 UNL     1     132.179  52.296  33.740  1.00  0.00     0.159 HD
ATOM      7  H32 UNL     1     132.101  53.730  32.927  1.00  0.00     0.159 HD
HETATM    8  N4  UNL     1     129.468  51.757  33.678  1.00  0.00    -0.317 N 
ATOM      9  H4  UNL     1     129.820  50.897  34.099  1.00  0.00     0.166 HD
HETATM   10  C7  UNL     1     128.076  52.118  33.470  1.00  0.00     0.406 C 
ENDROOT
BRANCH   1  11
HETATM   11  C5  UNL     1     127.557  52.914  31.239  1.00  0.00     0.149 C 
BRANCH  11  12
HETATM   12  C4  UNL     1     126.275  53.769  31.144  1.00  0.00     0.048 C 
BRANCH  12  13
HETATM   13  C3  UNL     1     125.081  52.888  31.386  1.00  0.00     0.169 C 
BRANCH  13  14
HETATM   14  O1  UNL     1     124.457  53.146  32.563  1.00  0.00    -0.391 OA
BRANCH  14  15
HETATM   15  C2  UNL     1     123.105  53.328  32.472  1.00  0.00     0.163 C 
HETATM   16  C1  UNL     1     122.783  54.737  31.963  1.00  0.00     0.033 C 
ENDBRANCH  14  15
ENDBRANCH  13  14
ENDBRANCH  12  13
ENDBRANCH  11  12
ENDBRANCH   1  11
BRANCH  10  17
HETATM   17  N5  UNL     1     127.641  52.739  34.733  1.00  0.00    -0.039 N 
ATOM     18  H53 UNL     1     128.092  53.640  34.894  1.00  0.00     0.279 HD
ATOM     19  H52 UNL     1     126.675  53.065  34.691  1.00  0.00     0.279 HD
ATOM     20  H51 UNL     1     127.795  52.087  35.502  1.00  0.00     0.279 HD
ENDBRANCH  10  17
TORSDOF 6
ENDMDL
MODEL 3
REMARK VINA RESULT: -5.936818931      0.896      1.030
REMARK  6 active torsions:
REMARK  status: ('A' for Active; 'I' for Inactive)
REMARK    1  A    between atoms: C2_2  and  O1_3 
REMARK    2  A    between atoms: O1_3  and  C3_4 
REMARK    3  A    between atoms: C3_4  and  C4_5 
REMARK    4  A    between atoms: C4_5  and  C5_6 
REMARK    5  A    between atoms: C5_6  and  N1_7 
REMARK    6  A    between atoms: C7_16  and  N5_17 
ROOT
HETATM    1  N1  UNL     1     128.158  53.153  32.479  1.00  0.00    -0.278 N 
HETATM    2  N2  UNL     1     129.363  53.794  32.562  1.00  0.00    -0.270 N 
ATOM      3  H2  UNL     1     129.584  54.743  32.260  1.00  0.00     0.190 HD
HETATM    4  C6  UNL     1     130.246  52.842  33.164  1.00  0.00     0.190 C 
HETATM    5  N3  UNL     1     131.549  52.939  33.267  1.00  0.00    -0.370 N 
ATOM      6  H31 UNL     1     132.178  52.261  33.696  1.00  0.00     0.159 HD
ATOM      7  H32 UNL     1     132.112  53.719  32.927  1.00  0.00     0.159 HD
HETATM    8  N4  UNL     1     129.461  51.756  33.638  1.00  0.00    -0.317 N 
ATOM      9  H4  UNL     1     129.805  50.880  34.031  1.00  0.00     0.166 HD
HETATM   10  C7  UNL     1     128.071  52.140  33.452  1.00  0.00     0.406 C 
ENDROOT
BRANCH   1  11
HETATM   11  C5  UNL     1     127.547  53.008  31.248  1.00  0.00     0.149 C 
BRANCH  11  12
HETATM   12  C4  UNL     1     126.032  53.277  31.379  1.00  0.00     0.048 C 
BRANCH  12  13
HETATM   13  C3  UNL     1     125.515  53.805  30.070  1.00  0.00     0.169 C 
BRANCH  13  14
HETATM   14  O1  UNL     1     124.693  54.876  30.214  1.00  0.00    -0.391 OA
BRANCH  14  15
HETATM   15  C2  UNL     1     123.358  54.578  30.238  1.00  0.00     0.163 C 
HETATM   16  C1  UNL     1     122.776  54.820  31.635  1.00  0.00     0.033 C 
ENDBRANCH  14  15
ENDBRANCH  13  14
ENDBRANCH  12  13
ENDBRANCH  11  12
ENDBRANCH   1  11
BRANCH  10  17
HETATM   17  N5  UNL     1     127.653  52.729  34.735  1.00  0.00    -0.039 N 
ATOM     18  H53 UNL     1     128.415  52.756  35.413  1.00  0.00     0.279 HD
ATOM     19  H52 UNL     1     127.487  53.733  34.663  1.00  0.00     0.279 HD
ATOM     20  H51 UNL     1     126.839  52.227  35.089  1.00  0.00     0.279 HD
ENDBRANCH  10  17
TORSDOF 6
ENDMDL
MODEL 4
REMARK VINA RESULT: -5.880867407      1.451      1.865
REMARK  6 active torsions:
REMARK  status: ('A' for Active; 'I' for Inactive)
REMARK    1  A    between atoms: C2_2  and  O1_3 
REMARK    2  A    between atoms: O1_3  and  C3_4 
REMARK    3  A    between atoms: C3_4  and  C4_5 
REMARK    4  A    between atoms: C4_5  and  C5_6 
REMARK    5  A    between atoms: C5_6  and  N1_7 
REMARK    6  A    between atoms: C7_16  and  N5_17 
ROOT
HETATM    1  N1  UNL     1     128.040  53.138  32.524  1.00  0.00    -0.278 N 
HETATM    2  N2  UNL     1     129.249  53.777  32.558  1.00  0.00    -0.270 N 
ATOM      3  H2  UNL     1     129.464  54.718  32.228  1.00  0.00     0.190 HD
HETATM    4  C6  UNL     1     130.145  52.837  33.159  1.00  0.00     0.190 C 
HETATM    5  N3  UNL     1     131.451  52.932  33.223  1.00  0.00    -0.370 N 
ATOM      6  H31 UNL     1     132.090  52.262  33.651  1.00  0.00     0.159 HD
ATOM      7  H32 UNL     1     132.007  53.701  32.849  1.00  0.00     0.159 HD
HETATM    8  N4  UNL     1     129.370  51.765  33.680  1.00  0.00    -0.317 N 
ATOM      9  H4  UNL     1     129.722  50.897  34.085  1.00  0.00     0.166 HD
HETATM   10  C7  UNL     1     127.977  52.150  33.523  1.00  0.00     0.406 C 
ENDROOT
BRANCH   1  11
HETATM   11  C5  UNL     1     127.394  52.966  31.315  1.00  0.00     0.149 C 
BRANCH  11  12
HETATM   12  C4  UNL     1     126.192  53.930  31.219  1.00  0.00     0.048 C 
BRANCH  12  13
HETATM   13  C3  UNL     1     125.386  53.587  29.997  1.00  0.00     0.169 C 
BRANCH  13  14
HETATM   14  O1  UNL     1     124.618  52.479  30.159  1.00  0.00    -0.391 OA
BRANCH  14  15
HETATM   15  C2  UNL     1     123.440  52.687  30.821  1.00  0.00     0.163 C 
HETATM   16  C1  UNL     1     123.307  51.720  32.003  1.00  0.00     0.033 C 
ENDBRANCH  14  15
ENDBRANCH  13  14
ENDBRANCH  12  13
ENDBRANCH  11  12
ENDBRANCH   1  11
BRANCH  10  17
HETATM   17  N5  UNL     1     127.597  52.770  34.803  1.00  0.00    -0.039 N 
ATOM     18  H53 UNL     1     126.614  52.618  35.028  1.00  0.00     0.279 HD
ATOM     19  H52 UNL     1     128.006  52.288  35.603  1.00  0.00     0.279 HD
ATOM     20  H51 UNL     1     127.840  53.761  34.785  1.00  0.00     0.279 HD
ENDBRANCH  10  17
TORSDOF 6
ENDMDL
MODEL 5
REMARK VINA RESULT: -5.360825258      3.864      6.097
REMARK  6 active torsions:
REMARK  status: ('A' for Active; 'I' for Inactive)
REMARK    1  A    between atoms: C2_2  and  O1_3 
REMARK    2  A    between atoms: O1_3  and  C3_4 
REMARK    3  A    between atoms: C3_4  and  C4_5 
REMARK    4  A    between atoms: C4_5  and  C5_6 
REMARK    5  A    between atoms: C5_6  and  N1_7 
REMARK    6  A    between atoms: C7_16  and  N5_17 
ROOT
HETATM    1  N1  UNL     1     124.909  53.602  30.138  1.00  0.00    -0.278 N 
HETATM    2  N2  UNL     1     125.191  54.343  29.024  1.00  0.00    -0.270 N 
ATOM      3  H2  UNL     1     125.971  54.222  28.378  1.00  0.00     0.190 HD
HETATM    4  C6  UNL     1     124.151  55.324  28.962  1.00  0.00     0.190 C 
HETATM    5  N3  UNL     1     124.111  56.372  28.175  1.00  0.00    -0.370 N 
ATOM      6  H31 UNL     1     123.369  57.072  28.131  1.00  0.00     0.159 HD
ATOM      7  H32 UNL     1     124.825  56.628  27.493  1.00  0.00     0.159 HD
HETATM    8  N4  UNL     1     123.156  54.968  29.912  1.00  0.00    -0.317 N 
ATOM      9  H4  UNL     1     122.336  55.516  30.172  1.00  0.00     0.166 HD
HETATM   10  C7  UNL     1     123.536  53.668  30.440  1.00  0.00     0.406 C 
ENDROOT
BRANCH   1  11
HETATM   11  C5  UNL     1     125.851  53.499  31.144  1.00  0.00     0.149 C 
BRANCH  11  12
HETATM   12  C4  UNL     1     125.382  52.477  32.201  1.00  0.00     0.048 C 
BRANCH  12  13
HETATM   13  C3  UNL     1     126.585  51.797  32.792  1.00  0.00     0.169 C 
BRANCH  13  14
HETATM   14  O1  UNL     1     127.453  52.661  33.377  1.00  0.00    -0.391 OA
BRANCH  14  15
HETATM   15  C2  UNL     1     128.774  52.393  33.152  1.00  0.00     0.163 C 
HETATM   16  C1  UNL     1     129.337  53.319  32.069  1.00  0.00     0.033 C 
ENDBRANCH  14  15
ENDBRANCH  13  14
ENDBRANCH  12  13
ENDBRANCH  11  12
ENDBRANCH   1  11
BRANCH  10  17
HETATM   17  N5  UNL     1     122.808  52.685  29.620  1.00  0.00    -0.039 N 
ATOM     18  H53 UNL     1     123.321  51.809  29.521  1.00  0.00     0.279 HD
ATOM     19  H52 UNL     1     121.984  52.319  30.098  1.00  0.00     0.279 HD
ATOM     20  H51 UNL     1     122.576  53.102  28.718  1.00  0.00     0.279 HD
ENDBRANCH  10  17
TORSDOF 6
ENDMDL
