MODEL 1
REMARK VINA RESULT: -7.853562020      0.000      0.000
REMARK  9 active torsions:
REMARK  status: ('A' for Active; 'I' for Inactive)
REMARK    1  A    between atoms: C2_2  and  C3_3 
REMARK    2  A    between atoms: C2_2  and  N1_13 
REMARK    3  A    between atoms: C3_3  and  C4_4 
REMARK    4  A    between atoms: C4_4  and  C5_5 
REMARK    5  A    between atoms: C4_4  and  C9_10 
REMARK    6  A    between atoms: N1_13  and  C12_15 
REMARK    7  A    between atoms: C12_15  and  C13_16 
REMARK    8  A    between atoms: C13_16  and  O2_17 
REMARK    9  A    between atoms: C13_16  and  C14_19 
ROOT
HETATM    1  C1  UNL     1     -18.590  20.071 -47.456  1.00  0.00     0.032 C 
HETATM    2  C2  UNL     1     -17.394  20.718 -46.786  1.00  0.00     0.073 C 
ENDROOT
BRANCH   2   3
HETATM    3  C3  UNL     1     -16.169  20.312 -47.607  1.00  0.00     0.036 C 
BRANCH   3   4
HETATM    4  C4  UNL     1     -15.160  21.370 -47.799  1.00  0.00     0.049 C 
BRANCH   4   5
HETATM    5  C5  UNL     1     -15.633  22.584 -48.494  1.00  0.00     0.057 A 
HETATM    6  C6  UNL     1     -15.431  22.889 -49.834  1.00  0.00     0.035 A 
HETATM    7  C7  UNL     1     -16.027  24.103 -50.061  1.00  0.00     0.027 A 
HETATM    8  C8  UNL     1     -16.576  24.511 -48.870  1.00  0.00     0.142 A 
HETATM    9  O1  UNL     1     -16.318  23.593 -47.993  1.00  0.00    -0.327 OA
ENDBRANCH   4   5
BRANCH   4  10
HETATM   10  C9  UNL     1     -13.855  20.872 -48.363  1.00  0.00    -0.004 A 
HETATM   11  C10 UNL     1     -13.734  19.593 -49.093  1.00  0.00     0.006 A 
HETATM   12  C11 UNL     1     -13.039  19.818 -47.786  1.00  0.00     0.006 A 
ENDBRANCH   4  10
ENDBRANCH   3   4
ENDBRANCH   2   3
BRANCH   2  13
HETATM   13  N1  UNL     1     -17.199  20.313 -45.452  1.00  0.00    -0.415 N 
ATOM     14  H1  UNL     1     -17.167  21.006 -44.704  1.00  0.00     0.153 HD
BRANCH  13  15
HETATM   15  C12 UNL     1     -17.047  18.934 -45.153  1.00  0.00     0.146 C 
BRANCH  15  16
HETATM   16  C13 UNL     1     -17.447  18.586 -43.776  1.00  0.00     0.139 C 
BRANCH  16  17
HETATM   17  O2  UNL     1     -17.856  19.655 -43.027  1.00  0.00    -0.394 OA
ATOM     18  H2  UNL     1     -17.260  19.885 -42.323  1.00  0.00     0.210 HD
ENDBRANCH  16  17
BRANCH  16  19
HETATM   19  C14 UNL     1     -18.497  17.502 -43.689  1.00  0.00     0.016 C 
HETATM   20  C15 UNL     1     -19.391  17.859 -42.512  1.00  0.00     0.007 C 
HETATM   21  C16 UNL     1     -20.431  16.807 -42.229  1.00  0.00     0.000 C 
HETATM   22  C17 UNL     1     -21.256  16.607 -43.475  1.00  0.00     0.000 C 
HETATM   23  C18 UNL     1     -20.418  16.368 -44.694  1.00  0.00     0.000 C 
HETATM   24  C19 UNL     1     -19.354  17.413 -44.909  1.00  0.00     0.007 C 
ENDBRANCH  16  19
ENDBRANCH  15  16
ENDBRANCH  13  15
ENDBRANCH   2  13
TORSDOF 9
ENDMDL
MODEL 2
REMARK VINA RESULT: -7.681550870      2.160      6.716
REMARK  9 active torsions:
REMARK  status: ('A' for Active; 'I' for Inactive)
REMARK    1  A    between atoms: C2_2  and  C3_3 
REMARK    2  A    between atoms: C2_2  and  N1_13 
REMARK    3  A    between atoms: C3_3  and  C4_4 
REMARK    4  A    between atoms: C4_4  and  C5_5 
REMARK    5  A    between atoms: C4_4  and  C9_10 
REMARK    6  A    between atoms: N1_13  and  C12_15 
REMARK    7  A    between atoms: C12_15  and  C13_16 
REMARK    8  A    between atoms: C13_16  and  O2_17 
REMARK    9  A    between atoms: C13_16  and  C14_19 
ROOT
HETATM    1  C1  UNL     1     -13.184  19.939 -47.337  1.00  0.00     0.032 C 
HETATM    2  C2  UNL     1     -14.566  20.328 -47.825  1.00  0.00     0.073 C 
ENDROOT
BRANCH   2   3
HETATM    3  C3  UNL     1     -15.447  19.089 -47.654  1.00  0.00     0.036 C 
BRANCH   3   4
HETATM    4  C4  UNL     1     -16.751  19.328 -47.008  1.00  0.00     0.049 C 
BRANCH   4   5
HETATM    5  C5  UNL     1     -16.843  18.925 -45.591  1.00  0.00     0.057 A 
HETATM    6  C6  UNL     1     -16.237  17.815 -45.016  1.00  0.00     0.035 A 
HETATM    7  C7  UNL     1     -16.586  17.814 -43.689  1.00  0.00     0.027 A 
HETATM    8  C8  UNL     1     -17.388  18.910 -43.482  1.00  0.00     0.142 A 
HETATM    9  O1  UNL     1     -17.505  19.520 -44.619  1.00  0.00    -0.327 OA
ENDBRANCH   4   5
BRANCH   4  10
HETATM   10  C9  UNL     1     -17.927  18.836 -47.811  1.00  0.00    -0.004 A 
HETATM   11  C10 UNL     1     -19.249  19.497 -47.784  1.00  0.00     0.006 A 
HETATM   12  C11 UNL     1     -19.060  18.101 -47.275  1.00  0.00     0.006 A 
ENDBRANCH   4  10
ENDBRANCH   3   4
ENDBRANCH   2   3
BRANCH   2  13
HETATM   13  N1  UNL     1     -14.602  20.727 -49.175  1.00  0.00    -0.415 N 
ATOM     14  H1  UNL     1     -14.476  20.039 -49.918  1.00  0.00     0.153 HD
BRANCH  13  15
HETATM   15  C12 UNL     1     -14.815  22.093 -49.496  1.00  0.00     0.146 C 
BRANCH  15  16
HETATM   16  C13 UNL     1     -15.692  22.790 -48.534  1.00  0.00     0.139 C 
BRANCH  16  17
HETATM   17  O2  UNL     1     -15.202  23.992 -48.104  1.00  0.00    -0.394 OA
ATOM     18  H2  UNL     1     -14.274  23.981 -47.899  1.00  0.00     0.210 HD
ENDBRANCH  16  17
BRANCH  16  19
HETATM   19  C14 UNL     1     -17.110  22.987 -49.017  1.00  0.00     0.016 C 
HETATM   20  C15 UNL     1     -17.981  23.084 -47.774  1.00  0.00     0.007 C 
HETATM   21  C16 UNL     1     -19.449  23.176 -48.095  1.00  0.00     0.000 C 
HETATM   22  C17 UNL     1     -19.667  24.373 -48.985  1.00  0.00     0.000 C 
HETATM   23  C18 UNL     1     -18.750  24.390 -50.170  1.00  0.00     0.000 C 
HETATM   24  C19 UNL     1     -17.295  24.240 -49.808  1.00  0.00     0.007 C 
ENDBRANCH  16  19
ENDBRANCH  15  16
ENDBRANCH  13  15
ENDBRANCH   2  13
TORSDOF 9
ENDMDL
MODEL 3
REMARK VINA RESULT: -7.485316435      2.279      6.684
REMARK  9 active torsions:
REMARK  status: ('A' for Active; 'I' for Inactive)
REMARK    1  A    between atoms: C2_2  and  C3_3 
REMARK    2  A    between atoms: C2_2  and  N1_13 
REMARK    3  A    between atoms: C3_3  and  C4_4 
REMARK    4  A    between atoms: C4_4  and  C5_5 
REMARK    5  A    between atoms: C4_4  and  C9_10 
REMARK    6  A    between atoms: N1_13  and  C12_15 
REMARK    7  A    between atoms: C12_15  and  C13_16 
REMARK    8  A    between atoms: C13_16  and  O2_17 
REMARK    9  A    between atoms: C13_16  and  C14_19 
ROOT
HETATM    1  C1  UNL     1     -13.481  19.584 -48.186  1.00  0.00     0.032 C 
HETATM    2  C2  UNL     1     -14.765  19.697 -47.388  1.00  0.00     0.073 C 
ENDROOT
BRANCH   2   3
HETATM    3  C3  UNL     1     -15.634  18.508 -47.800  1.00  0.00     0.036 C 
BRANCH   3   4
HETATM    4  C4  UNL     1     -16.757  18.204 -46.893  1.00  0.00     0.049 C 
BRANCH   4   5
HETATM    5  C5  UNL     1     -18.063  18.771 -47.283  1.00  0.00     0.057 A 
HETATM    6  C6  UNL     1     -19.282  18.105 -47.263  1.00  0.00     0.035 A 
HETATM    7  C7  UNL     1     -20.229  18.994 -47.704  1.00  0.00     0.027 A 
HETATM    8  C8  UNL     1     -19.579  20.172 -47.981  1.00  0.00     0.142 A 
HETATM    9  O1  UNL     1     -18.323  19.988 -47.719  1.00  0.00    -0.327 OA
ENDBRANCH   4   5
BRANCH   4  10
HETATM   10  C9  UNL     1     -16.448  18.451 -45.440  1.00  0.00    -0.004 A 
HETATM   11  C10 UNL     1     -17.143  17.746 -44.342  1.00  0.00     0.006 A 
HETATM   12  C11 UNL     1     -17.270  19.227 -44.527  1.00  0.00     0.006 A 
ENDBRANCH   4  10
ENDBRANCH   3   4
ENDBRANCH   2   3
BRANCH   2  13
HETATM   13  N1  UNL     1     -15.482  20.886 -47.627  1.00  0.00    -0.415 N 
ATOM     14  H1  UNL     1     -16.345  21.076 -47.120  1.00  0.00     0.153 HD
BRANCH  13  15
HETATM   15  C12 UNL     1     -14.994  21.818 -48.580  1.00  0.00     0.146 C 
BRANCH  15  16
HETATM   16  C13 UNL     1     -15.556  23.173 -48.414  1.00  0.00     0.139 C 
BRANCH  16  17
HETATM   17  O2  UNL     1     -14.669  24.180 -48.679  1.00  0.00    -0.394 OA
ATOM     18  H2  UNL     1     -14.912  25.018 -48.302  1.00  0.00     0.210 HD
ENDBRANCH  16  17
BRANCH  16  19
HETATM   19  C14 UNL     1     -16.823  23.421 -49.199  1.00  0.00     0.016 C 
HETATM   20  C15 UNL     1     -17.934  23.612 -48.179  1.00  0.00     0.007 C 
HETATM   21  C16 UNL     1     -19.291  23.763 -48.815  1.00  0.00     0.000 C 
HETATM   22  C17 UNL     1     -19.242  24.932 -49.765  1.00  0.00     0.000 C 
HETATM   23  C18 UNL     1     -18.092  24.855 -50.722  1.00  0.00     0.000 C 
HETATM   24  C19 UNL     1     -16.760  24.648 -50.048  1.00  0.00     0.007 C 
ENDBRANCH  16  19
ENDBRANCH  15  16
ENDBRANCH  13  15
ENDBRANCH   2  13
TORSDOF 9
ENDMDL
MODEL 4
REMARK VINA RESULT: -7.413930172      3.203      8.130
REMARK  9 active torsions:
REMARK  status: ('A' for Active; 'I' for Inactive)
REMARK    1  A    between atoms: C2_2  and  C3_3 
REMARK    2  A    between atoms: C2_2  and  N1_13 
REMARK    3  A    between atoms: C3_3  and  C4_4 
REMARK    4  A    between atoms: C4_4  and  C5_5 
REMARK    5  A    between atoms: C4_4  and  C9_10 
REMARK    6  A    between atoms: N1_13  and  C12_15 
REMARK    7  A    between atoms: C12_15  and  C13_16 
REMARK    8  A    between atoms: C13_16  and  O2_17 
REMARK    9  A    between atoms: C13_16  and  C14_19 
ROOT
HETATM    1  C1  UNL     1     -19.396  23.203 -47.952  1.00  0.00     0.032 C 
HETATM    2  C2  UNL     1     -18.193  22.392 -48.391  1.00  0.00     0.073 C 
ENDROOT
BRANCH   2   3
HETATM    3  C3  UNL     1     -17.501  21.920 -47.111  1.00  0.00     0.036 C 
BRANCH   3   4
HETATM    4  C4  UNL     1     -16.960  20.549 -47.156  1.00  0.00     0.049 C 
BRANCH   4   5
HETATM    5  C5  UNL     1     -15.553  20.432 -47.587  1.00  0.00     0.057 A 
HETATM    6  C6  UNL     1     -14.615  19.540 -47.081  1.00  0.00     0.035 A 
HETATM    7  C7  UNL     1     -13.442  19.772 -47.754  1.00  0.00     0.027 A 
HETATM    8  C8  UNL     1     -13.683  20.788 -48.646  1.00  0.00     0.142 A 
HETATM    9  O1  UNL     1     -14.924  21.135 -48.508  1.00  0.00    -0.327 OA
ENDBRANCH   4   5
BRANCH   4  10
HETATM   10  C9  UNL     1     -17.850  19.568 -47.873  1.00  0.00    -0.004 A 
HETATM   11  C10 UNL     1     -19.081  19.013 -47.270  1.00  0.00     0.006 A 
HETATM   12  C11 UNL     1     -17.911  18.141 -47.608  1.00  0.00     0.006 A 
ENDBRANCH   4  10
ENDBRANCH   3   4
ENDBRANCH   2   3
BRANCH   2  13
HETATM   13  N1  UNL     1     -17.267  23.119 -49.165  1.00  0.00    -0.415 N 
ATOM     14  H1  UNL     1     -16.868  22.708 -50.008  1.00  0.00     0.153 HD
BRANCH  13  15
HETATM   15  C12 UNL     1     -16.893  24.427 -48.763  1.00  0.00     0.146 C 
BRANCH  15  16
HETATM   16  C13 UNL     1     -15.454  24.705 -48.939  1.00  0.00     0.139 C 
BRANCH  16  17
HETATM   17  O2  UNL     1     -14.834  23.881 -49.837  1.00  0.00    -0.394 OA
ATOM     18  H2  UNL     1     -14.037  23.480 -49.508  1.00  0.00     0.210 HD
ENDBRANCH  16  17
BRANCH  16  19
HETATM   19  C14 UNL     1     -15.137  26.139 -49.296  1.00  0.00     0.016 C 
HETATM   20  C15 UNL     1     -14.335  26.096 -50.587  1.00  0.00     0.007 C 
HETATM   21  C16 UNL     1     -13.849  27.456 -51.017  1.00  0.00     0.000 C 
HETATM   22  C17 UNL     1     -15.044  28.361 -51.169  1.00  0.00     0.000 C 
HETATM   23  C18 UNL     1     -15.937  28.352 -49.966  1.00  0.00     0.000 C 
HETATM   24  C19 UNL     1     -16.356  26.969 -49.537  1.00  0.00     0.007 C 
ENDBRANCH  16  19
ENDBRANCH  15  16
ENDBRANCH  13  15
ENDBRANCH   2  13
TORSDOF 9
ENDMDL
MODEL 5
REMARK VINA RESULT: -7.392196953      2.392      7.156
REMARK  9 active torsions:
REMARK  status: ('A' for Active; 'I' for Inactive)
REMARK    1  A    between atoms: C2_2  and  C3_3 
REMARK    2  A    between atoms: C2_2  and  N1_13 
REMARK    3  A    between atoms: C3_3  and  C4_4 
REMARK    4  A    between atoms: C4_4  and  C5_5 
REMARK    5  A    between atoms: C4_4  and  C9_10 
REMARK    6  A    between atoms: N1_13  and  C12_15 
REMARK    7  A    between atoms: C12_15  and  C13_16 
REMARK    8  A    between atoms: C13_16  and  O2_17 
REMARK    9  A    between atoms: C13_16  and  C14_19 
ROOT
HETATM    1  C1  UNL     1     -13.437  19.244 -48.235  1.00  0.00     0.032 C 
HETATM    2  C2  UNL     1     -14.823  19.602 -47.737  1.00  0.00     0.073 C 
ENDROOT
BRANCH   2   3
HETATM    3  C3  UNL     1     -15.679  18.345 -47.900  1.00  0.00     0.036 C 
BRANCH   3   4
HETATM    4  C4  UNL     1     -16.737  18.167 -46.889  1.00  0.00     0.049 C 
BRANCH   4   5
HETATM    5  C5  UNL     1     -18.071  18.674 -47.266  1.00  0.00     0.057 A 
HETATM    6  C6  UNL     1     -19.262  17.961 -47.208  1.00  0.00     0.035 A 
HETATM    7  C7  UNL     1     -20.252  18.802 -47.651  1.00  0.00     0.027 A 
HETATM    8  C8  UNL     1     -19.654  19.997 -47.967  1.00  0.00     0.142 A 
HETATM    9  O1  UNL     1     -18.387  19.868 -47.725  1.00  0.00    -0.327 OA
ENDBRANCH   4   5
BRANCH   4  10
HETATM   10  C9  UNL     1     -16.338  18.612 -45.506  1.00  0.00    -0.004 A 
HETATM   11  C10 UNL     1     -16.616  17.812 -44.295  1.00  0.00     0.006 A 
HETATM   12  C11 UNL     1     -17.240  19.156 -44.506  1.00  0.00     0.006 A 
ENDBRANCH   4  10
ENDBRANCH   3   4
ENDBRANCH   2   3
BRANCH   2  13
HETATM   13  N1  UNL     1     -15.429  20.657 -48.447  1.00  0.00    -0.415 N 
ATOM     14  H1  UNL     1     -15.790  20.502 -49.388  1.00  0.00     0.153 HD
BRANCH  13  15
HETATM   15  C12 UNL     1     -15.534  21.937 -47.844  1.00  0.00     0.146 C 
BRANCH  15  16
HETATM   16  C13 UNL     1     -16.755  22.669 -48.233  1.00  0.00     0.139 C 
BRANCH  16  17
HETATM   17  O2  UNL     1     -17.645  22.852 -47.211  1.00  0.00    -0.394 OA
ATOM     18  H2  UNL     1     -17.394  22.428 -46.399  1.00  0.00     0.210 HD
ENDBRANCH  16  17
BRANCH  16  19
HETATM   19  C14 UNL     1     -16.495  24.003 -48.895  1.00  0.00     0.016 C 
HETATM   20  C15 UNL     1     -15.090  23.933 -49.471  1.00  0.00     0.007 C 
HETATM   21  C16 UNL     1     -14.641  25.237 -50.076  1.00  0.00     0.000 C 
HETATM   22  C17 UNL     1     -15.629  25.630 -51.145  1.00  0.00     0.000 C 
HETATM   23  C18 UNL     1     -17.048  25.603 -50.663  1.00  0.00     0.000 C 
HETATM   24  C19 UNL     1     -17.439  24.299 -50.015  1.00  0.00     0.007 C 
ENDBRANCH  16  19
ENDBRANCH  15  16
ENDBRANCH  13  15
ENDBRANCH   2  13
TORSDOF 9
ENDMDL
