MODEL 1
REMARK VINA RESULT: -7.409640828      0.000      0.000
REMARK  8 active torsions:
REMARK  status: ('A' for Active; 'I' for Inactive)
REMARK       I    between atoms: C2_5  and  N3_6 
REMARK       I    between atoms: C2_5  and  N4_20 
REMARK    1  A    between atoms: N3_6  and  C3_8 
REMARK    2  A    between atoms: C3_8  and  C4_9 
REMARK    3  A    between atoms: C4_9  and  C5_10 
REMARK    4  A    between atoms: C5_10  and  C6_11 
REMARK    5  A    between atoms: C6_11  and  C7_12 
REMARK    6  A    between atoms: C7_12  and  C8_13 
REMARK    7  A    between atoms: C8_13  and  C9_14 
REMARK    8  A    between atoms: N4_20  and  C15_22 
ROOT
HETATM    1  N1  UNL     1     -15.358  29.038 -50.956  1.00  0.00    -0.171 NA
HETATM    2  C1  UNL     1     -15.004  28.061 -50.450  1.00  0.00     0.196 C 
HETATM    3  N2  UNL     1     -14.562  26.887 -49.858  1.00  0.00    -0.126 N 
ATOM      4  H2  UNL     1     -13.565  26.673 -49.884  1.00  0.00     0.197 HD
HETATM    5  C2  UNL     1     -15.367  26.041 -49.267  1.00  0.00     0.683 C 
HETATM    6  N3  UNL     1     -14.771  24.892 -48.710  1.00  0.00    -0.226 N 
ATOM      7  H3  UNL     1     -14.442  24.935 -47.746  1.00  0.00     0.177 HD
HETATM    8  N4  UNL     1     -16.756  26.310 -49.214  1.00  0.00    -0.221 N 
ATOM      9  H4  UNL     1     -17.119  27.213 -49.520  1.00  0.00     0.178 HD
ENDROOT
BRANCH   6  10
HETATM   10  C3  UNL     1     -14.603  23.649 -49.444  1.00  0.00     0.138 C 
BRANCH  10  11
HETATM   11  C4  UNL     1     -15.245  22.547 -48.666  1.00  0.00     0.020 C 
BRANCH  11  12
HETATM   12  C5  UNL     1     -14.250  21.560 -48.108  1.00  0.00     0.002 C 
BRANCH  12  13
HETATM   13  C6  UNL     1     -14.027  20.383 -48.998  1.00  0.00     0.000 C 
BRANCH  13  14
HETATM   14  C7  UNL     1     -14.647  19.166 -48.367  1.00  0.00     0.000 C 
BRANCH  14  15
HETATM   15  C8  UNL     1     -14.944  19.346 -46.913  1.00  0.00     0.004 C 
BRANCH  15  16
HETATM   16  C9  UNL     1     -16.330  18.885 -46.536  1.00  0.00    -0.014 C 
HETATM   17  C10 UNL     1     -17.143  19.954 -45.883  1.00  0.00     0.004 C 
HETATM   18  C11 UNL     1     -17.709  20.941 -46.895  1.00  0.00     0.000 C 
HETATM   19  C12 UNL     1     -18.801  20.205 -47.664  1.00  0.00     0.000 C 
HETATM   20  C13 UNL     1     -18.516  18.740 -47.743  1.00  0.00     0.000 C 
HETATM   21  C14 UNL     1     -17.035  18.473 -47.815  1.00  0.00     0.004 C 
ENDBRANCH  15  16
ENDBRANCH  14  15
ENDBRANCH  13  14
ENDBRANCH  12  13
ENDBRANCH  11  12
ENDBRANCH  10  11
ENDBRANCH   6  10
BRANCH   8  22
HETATM   22  C15 UNL     1     -17.646  25.301 -48.728  1.00  0.00     0.099 C 
HETATM   23  C16 UNL     1     -18.236  24.474 -49.877  1.00  0.00     0.026 C 
HETATM   24  C17 UNL     1     -19.256  23.646 -49.124  1.00  0.00     0.002 C 
HETATM   25  C18 UNL     1     -19.808  24.589 -48.103  1.00  0.00     0.002 C 
HETATM   26  C19 UNL     1     -18.892  25.806 -48.075  1.00  0.00     0.026 C 
ENDBRANCH   8  22
TORSDOF 8
ENDMDL
MODEL 2
REMARK VINA RESULT: -7.202479011      4.525      7.023
REMARK  8 active torsions:
REMARK  status: ('A' for Active; 'I' for Inactive)
REMARK       I    between atoms: C2_5  and  N3_6 
REMARK       I    between atoms: C2_5  and  N4_20 
REMARK    1  A    between atoms: N3_6  and  C3_8 
REMARK    2  A    between atoms: C3_8  and  C4_9 
REMARK    3  A    between atoms: C4_9  and  C5_10 
REMARK    4  A    between atoms: C5_10  and  C6_11 
REMARK    5  A    between atoms: C6_11  and  C7_12 
REMARK    6  A    between atoms: C7_12  and  C8_13 
REMARK    7  A    between atoms: C8_13  and  C9_14 
REMARK    8  A    between atoms: N4_20  and  C15_22 
ROOT
HETATM    1  N1  UNL     1     -19.194  23.267 -48.940  1.00  0.00    -0.171 NA
HETATM    2  C1  UNL     1     -19.053  22.306 -48.311  1.00  0.00     0.196 C 
HETATM    3  N2  UNL     1     -18.902  21.160 -47.545  1.00  0.00    -0.126 N 
ATOM      4  H2  UNL     1     -19.723  20.775 -47.078  1.00  0.00     0.197 HD
HETATM    5  C2  UNL     1     -17.754  20.552 -47.393  1.00  0.00     0.683 C 
HETATM    6  N3  UNL     1     -17.757  19.398 -46.584  1.00  0.00    -0.226 N 
ATOM      7  H3  UNL     1     -17.942  18.497 -47.025  1.00  0.00     0.177 HD
HETATM    8  N4  UNL     1     -16.596  21.064 -48.028  1.00  0.00    -0.221 N 
ATOM      9  H4  UNL     1     -16.672  21.826 -48.702  1.00  0.00     0.178 HD
ENDROOT
BRANCH   6  10
HETATM   10  C3  UNL     1     -17.509  19.430 -45.153  1.00  0.00     0.138 C 
BRANCH  10  11
HETATM   11  C4  UNL     1     -16.843  18.152 -44.757  1.00  0.00     0.020 C 
BRANCH  11  12
HETATM   12  C5  UNL     1     -17.440  17.533 -43.518  1.00  0.00     0.002 C 
BRANCH  12  13
HETATM   13  C6  UNL     1     -18.279  18.484 -42.732  1.00  0.00     0.000 C 
BRANCH  13  14
HETATM   14  C7  UNL     1     -19.421  17.730 -42.108  1.00  0.00     0.000 C 
BRANCH  14  15
HETATM   15  C8  UNL     1     -20.527  17.437 -43.071  1.00  0.00     0.004 C 
BRANCH  15  16
HETATM   16  C9  UNL     1     -20.719  15.961 -43.311  1.00  0.00    -0.014 C 
HETATM   17  C10 UNL     1     -21.470  15.283 -42.211  1.00  0.00     0.004 C 
HETATM   18  C11 UNL     1     -22.969  15.530 -42.305  1.00  0.00     0.000 C 
HETATM   19  C12 UNL     1     -23.472  14.731 -43.503  1.00  0.00     0.000 C 
HETATM   20  C13 UNL     1     -22.410  14.592 -44.546  1.00  0.00     0.000 C 
HETATM   21  C14 UNL     1     -21.522  15.808 -44.590  1.00  0.00     0.004 C 
ENDBRANCH  15  16
ENDBRANCH  14  15
ENDBRANCH  13  14
ENDBRANCH  12  13
ENDBRANCH  11  12
ENDBRANCH  10  11
ENDBRANCH   6  10
BRANCH   8  22
HETATM   22  C15 UNL     1     -15.320  20.501 -47.714  1.00  0.00     0.099 C 
HETATM   23  C16 UNL     1     -14.184  21.492 -48.001  1.00  0.00     0.026 C 
HETATM   24  C17 UNL     1     -12.980  20.601 -47.782  1.00  0.00     0.002 C 
HETATM   25  C18 UNL     1     -13.399  19.278 -48.337  1.00  0.00     0.002 C 
HETATM   26  C19 UNL     1     -14.904  19.342 -48.563  1.00  0.00     0.026 C 
ENDBRANCH   8  22
TORSDOF 8
ENDMDL
MODEL 3
REMARK VINA RESULT: -7.116031839      1.379      3.302
REMARK  8 active torsions:
REMARK  status: ('A' for Active; 'I' for Inactive)
REMARK       I    between atoms: C2_5  and  N3_6 
REMARK       I    between atoms: C2_5  and  N4_20 
REMARK    1  A    between atoms: N3_6  and  C3_8 
REMARK    2  A    between atoms: C3_8  and  C4_9 
REMARK    3  A    between atoms: C4_9  and  C5_10 
REMARK    4  A    between atoms: C5_10  and  C6_11 
REMARK    5  A    between atoms: C6_11  and  C7_12 
REMARK    6  A    between atoms: C7_12  and  C8_13 
REMARK    7  A    between atoms: C8_13  and  C9_14 
REMARK    8  A    between atoms: N4_20  and  C15_22 
ROOT
HETATM    1  N1  UNL     1     -19.862  26.463 -47.251  1.00  0.00    -0.171 NA
HETATM    2  C1  UNL     1     -19.195  25.582 -47.593  1.00  0.00     0.196 C 
HETATM    3  N2  UNL     1     -18.402  24.513 -47.984  1.00  0.00    -0.126 N 
ATOM      4  H2  UNL     1     -18.675  23.573 -47.696  1.00  0.00     0.197 HD
HETATM    5  C2  UNL     1     -17.320  24.656 -48.705  1.00  0.00     0.683 C 
HETATM    6  N3  UNL     1     -16.618  23.477 -49.024  1.00  0.00    -0.226 N 
ATOM      7  H3  UNL     1     -16.871  22.977 -49.876  1.00  0.00     0.177 HD
HETATM    8  N4  UNL     1     -16.915  25.949 -49.119  1.00  0.00    -0.221 N 
ATOM      9  H4  UNL     1     -17.525  26.753 -48.969  1.00  0.00     0.178 HD
ENDROOT
BRANCH   6  10
HETATM   10  C3  UNL     1     -15.551  22.939 -48.198  1.00  0.00     0.138 C 
BRANCH  10  11
HETATM   11  C4  UNL     1     -14.612  22.174 -49.073  1.00  0.00     0.020 C 
BRANCH  11  12
HETATM   12  C5  UNL     1     -13.876  21.081 -48.338  1.00  0.00     0.002 C 
BRANCH  12  13
HETATM   13  C6  UNL     1     -13.938  19.761 -49.031  1.00  0.00     0.000 C 
BRANCH  13  14
HETATM   14  C7  UNL     1     -14.885  18.860 -48.286  1.00  0.00     0.000 C 
BRANCH  14  15
HETATM   15  C8  UNL     1     -15.135  19.305 -46.881  1.00  0.00     0.004 C 
BRANCH  15  16
HETATM   16  C9  UNL     1     -16.487  18.879 -46.363  1.00  0.00    -0.014 C 
HETATM   17  C10 UNL     1     -17.351  20.033 -45.969  1.00  0.00     0.004 C 
HETATM   18  C11 UNL     1     -17.987  20.710 -47.175  1.00  0.00     0.000 C 
HETATM   19  C12 UNL     1     -19.047  19.752 -47.709  1.00  0.00     0.000 C 
HETATM   20  C13 UNL     1     -18.679  18.329 -47.435  1.00  0.00     0.000 C 
HETATM   21  C14 UNL     1     -17.186  18.129 -47.482  1.00  0.00     0.004 C 
ENDBRANCH  15  16
ENDBRANCH  14  15
ENDBRANCH  13  14
ENDBRANCH  12  13
ENDBRANCH  11  12
ENDBRANCH  10  11
ENDBRANCH   6  10
BRANCH   8  22
HETATM   22  C15 UNL     1     -15.643  26.114 -49.751  1.00  0.00     0.099 C 
HETATM   23  C16 UNL     1     -15.196  27.581 -49.733  1.00  0.00     0.026 C 
HETATM   24  C17 UNL     1     -13.964  27.504 -50.611  1.00  0.00     0.002 C 
HETATM   25  C18 UNL     1     -14.336  26.520 -51.674  1.00  0.00     0.002 C 
HETATM   26  C19 UNL     1     -15.614  25.827 -51.218  1.00  0.00     0.026 C 
ENDBRANCH   8  22
TORSDOF 8
ENDMDL
MODEL 4
REMARK VINA RESULT: -7.112397842      3.356      7.771
REMARK  8 active torsions:
REMARK  status: ('A' for Active; 'I' for Inactive)
REMARK       I    between atoms: C2_5  and  N3_6 
REMARK       I    between atoms: C2_5  and  N4_20 
REMARK    1  A    between atoms: N3_6  and  C3_8 
REMARK    2  A    between atoms: C3_8  and  C4_9 
REMARK    3  A    between atoms: C4_9  and  C5_10 
REMARK    4  A    between atoms: C5_10  and  C6_11 
REMARK    5  A    between atoms: C6_11  and  C7_12 
REMARK    6  A    between atoms: C7_12  and  C8_13 
REMARK    7  A    between atoms: C8_13  and  C9_14 
REMARK    8  A    between atoms: N4_20  and  C15_22 
ROOT
HETATM    1  N1  UNL     1     -16.869  17.334 -43.578  1.00  0.00    -0.171 NA
HETATM    2  C1  UNL     1     -17.204  18.277 -44.158  1.00  0.00     0.196 C 
HETATM    3  N2  UNL     1     -17.628  19.402 -44.849  1.00  0.00    -0.126 N 
ATOM      4  H2  UNL     1     -18.534  19.807 -44.612  1.00  0.00     0.197 HD
HETATM    5  C2  UNL     1     -16.918  19.968 -45.791  1.00  0.00     0.683 C 
HETATM    6  N3  UNL     1     -17.481  21.106 -46.404  1.00  0.00    -0.226 N 
ATOM      7  H3  UNL     1     -17.290  22.021 -45.995  1.00  0.00     0.177 HD
HETATM    8  N4  UNL     1     -15.657  19.429 -46.143  1.00  0.00    -0.221 N 
ATOM      9  H4  UNL     1     -15.242  18.682 -45.585  1.00  0.00     0.178 HD
ENDROOT
BRANCH   6  10
HETATM   10  C3  UNL     1     -18.321  21.038 -47.587  1.00  0.00     0.138 C 
BRANCH  10  11
HETATM   11  C4  UNL     1     -18.230  22.343 -48.310  1.00  0.00     0.020 C 
BRANCH  11  12
HETATM   12  C5  UNL     1     -16.864  22.977 -48.215  1.00  0.00     0.002 C 
BRANCH  12  13
HETATM   13  C6  UNL     1     -16.056  22.821 -49.460  1.00  0.00     0.000 C 
BRANCH  13  14
HETATM   14  C7  UNL     1     -14.766  23.579 -49.305  1.00  0.00     0.000 C 
BRANCH  14  15
HETATM   15  C8  UNL     1     -14.969  25.041 -49.064  1.00  0.00     0.004 C 
BRANCH  15  16
HETATM   16  C9  UNL     1     -15.355  25.792 -50.314  1.00  0.00    -0.014 C 
HETATM   17  C10 UNL     1     -16.654  26.518 -50.181  1.00  0.00     0.004 C 
HETATM   18  C11 UNL     1     -16.506  27.818 -49.403  1.00  0.00     0.000 C 
HETATM   19  C12 UNL     1     -15.749  28.787 -50.305  1.00  0.00     0.000 C 
HETATM   20  C13 UNL     1     -14.826  28.060 -51.228  1.00  0.00     0.000 C 
HETATM   21  C14 UNL     1     -14.269  26.818 -50.581  1.00  0.00     0.004 C 
ENDBRANCH  15  16
ENDBRANCH  14  15
ENDBRANCH  13  14
ENDBRANCH  12  13
ENDBRANCH  11  12
ENDBRANCH  10  11
ENDBRANCH   6  10
BRANCH   8  22
HETATM   22  C15 UNL     1     -14.973  19.942 -47.289  1.00  0.00     0.099 C 
HETATM   23  C16 UNL     1     -15.107  18.998 -48.491  1.00  0.00     0.026 C 
HETATM   24  C17 UNL     1     -14.157  19.659 -49.467  1.00  0.00     0.002 C 
HETATM   25  C18 UNL     1     -13.026  20.132 -48.611  1.00  0.00     0.002 C 
HETATM   26  C19 UNL     1     -13.486  20.027 -47.162  1.00  0.00     0.026 C 
ENDBRANCH   8  22
TORSDOF 8
ENDMDL
MODEL 5
REMARK VINA RESULT: -7.107054183      0.957      2.169
REMARK  8 active torsions:
REMARK  status: ('A' for Active; 'I' for Inactive)
REMARK       I    between atoms: C2_5  and  N3_6 
REMARK       I    between atoms: C2_5  and  N4_20 
REMARK    1  A    between atoms: N3_6  and  C3_8 
REMARK    2  A    between atoms: C3_8  and  C4_9 
REMARK    3  A    between atoms: C4_9  and  C5_10 
REMARK    4  A    between atoms: C5_10  and  C6_11 
REMARK    5  A    between atoms: C6_11  and  C7_12 
REMARK    6  A    between atoms: C7_12  and  C8_13 
REMARK    7  A    between atoms: C8_13  and  C9_14 
REMARK    8  A    between atoms: N4_20  and  C15_22 
ROOT
HETATM    1  N1  UNL     1     -15.004  29.317 -50.913  1.00  0.00    -0.171 NA
HETATM    2  C1  UNL     1     -14.793  28.274 -50.460  1.00  0.00     0.196 C 
HETATM    3  N2  UNL     1     -14.522  27.021 -49.931  1.00  0.00    -0.126 N 
ATOM      4  H2  UNL     1     -13.565  26.671 -49.975  1.00  0.00     0.197 HD
HETATM    5  C2  UNL     1     -15.439  26.268 -49.379  1.00  0.00     0.683 C 
HETATM    6  N3  UNL     1     -15.012  25.019 -48.886  1.00  0.00    -0.226 N 
ATOM      7  H3  UNL     1     -14.681  24.965 -47.923  1.00  0.00     0.177 HD
HETATM    8  N4  UNL     1     -16.776  26.727 -49.305  1.00  0.00    -0.221 N 
ATOM      9  H4  UNL     1     -17.007  27.687 -49.562  1.00  0.00     0.178 HD
ENDROOT
BRANCH   6  10
HETATM   10  C3  UNL     1     -15.020  23.805 -49.683  1.00  0.00     0.138 C 
BRANCH  10  11
HETATM   11  C4  UNL     1     -14.646  22.656 -48.803  1.00  0.00     0.020 C 
BRANCH  11  12
HETATM   12  C5  UNL     1     -15.722  22.300 -47.807  1.00  0.00     0.002 C 
BRANCH  12  13
HETATM   13  C6  UNL     1     -17.100  22.405 -48.368  1.00  0.00     0.000 C 
BRANCH  13  14
HETATM   14  C7  UNL     1     -18.075  21.811 -47.388  1.00  0.00     0.000 C 
BRANCH  14  15
HETATM   15  C8  UNL     1     -18.748  20.579 -47.902  1.00  0.00     0.004 C 
BRANCH  15  16
HETATM   16  C9  UNL     1     -18.474  19.364 -47.052  1.00  0.00    -0.014 C 
HETATM   17  C10 UNL     1     -17.756  18.283 -47.792  1.00  0.00     0.004 C 
HETATM   18  C11 UNL     1     -16.267  18.571 -47.922  1.00  0.00     0.000 C 
HETATM   19  C12 UNL     1     -15.661  18.392 -46.534  1.00  0.00     0.000 C 
HETATM   20  C13 UNL     1     -16.656  18.710 -45.464  1.00  0.00     0.000 C 
HETATM   21  C14 UNL     1     -17.596  19.806 -45.896  1.00  0.00     0.004 C 
ENDBRANCH  15  16
ENDBRANCH  14  15
ENDBRANCH  13  14
ENDBRANCH  12  13
ENDBRANCH  11  12
ENDBRANCH  10  11
ENDBRANCH   6  10
BRANCH   8  22
HETATM   22  C15 UNL     1     -17.800  25.831 -48.865  1.00  0.00     0.099 C 
HETATM   23  C16 UNL     1     -18.718  25.418 -50.022  1.00  0.00     0.026 C 
HETATM   24  C17 UNL     1     -19.789  24.660 -49.267  1.00  0.00     0.002 C 
HETATM   25  C18 UNL     1     -19.961  25.437 -48.001  1.00  0.00     0.002 C 
HETATM   26  C19 UNL     1     -18.793  26.411 -47.910  1.00  0.00     0.026 C 
ENDBRANCH   8  22
TORSDOF 8
ENDMDL
