MODEL 1
REMARK VINA RESULT: -7.624385289      0.000      0.000
REMARK  10 active torsions:
REMARK  status: ('A' for Active; 'I' for Inactive)
REMARK    1  A    between atoms: C2_2  and  C3_3 
REMARK    2  A    between atoms: C3_3  and  C4_4 
REMARK    3  A    between atoms: C4_4  and  C5_5 
REMARK    4  A    between atoms: C5_5  and  C6_6 
REMARK    5  A    between atoms: C6_6  and  C7_7 
REMARK    6  A    between atoms: C7_7  and  N1_8 
REMARK    7  A    between atoms: C7_7  and  C15_21 
REMARK    8  A    between atoms: N1_8  and  N2_10 
REMARK    9  A    between atoms: C8_12  and  C9_13 
REMARK   10  A    between atoms: C12_16  and  O1_17 
ROOT
HETATM    1  C7  UNL     1     -16.043  18.946 -46.471  1.00  0.00     0.135 C 
ENDROOT
BRANCH   1   2
HETATM    2  C6  UNL     1     -15.071  18.869 -47.585  1.00  0.00     0.058 C 
BRANCH   2   3
HETATM    3  C5  UNL     1     -13.932  19.823 -47.553  1.00  0.00    -0.024 C 
BRANCH   3   4
HETATM    4  C4  UNL     1     -13.821  20.938 -48.210  1.00  0.00    -0.004 C 
BRANCH   4   5
HETATM    5  C3  UNL     1     -14.596  22.142 -48.296  1.00  0.00    -0.001 C 
BRANCH   5   6
HETATM    6  C2  UNL     1     -15.303  22.604 -49.464  1.00  0.00    -0.010 C 
HETATM    7  C1  UNL     1     -16.354  23.326 -49.703  1.00  0.00     0.011 C 
ENDBRANCH   5   6
ENDBRANCH   4   5
ENDBRANCH   3   4
ENDBRANCH   2   3
ENDBRANCH   1   2
BRANCH   1   8
HETATM    8  N1  UNL     1     -16.021  17.786 -45.590  1.00  0.00    -0.327 N 
ATOM      9  H1  UNL     1     -16.099  16.886 -46.064  1.00  0.00     0.181 HD
BRANCH   8  10
HETATM   10  N2  UNL     1     -15.914  17.713 -44.263  1.00  0.00    -0.315 N 
HETATM   11  C8  UNL     1     -16.565  17.576 -43.228  1.00  0.00     0.118 C 
ATOM     12  H2  UNL     1     -14.929  17.804 -44.014  1.00  0.00     0.185 HD
BRANCH  11  13
HETATM   13  C9  UNL     1     -18.009  17.415 -43.166  1.00  0.00    -0.019 A 
HETATM   14  C10 UNL     1     -18.557  16.221 -43.659  1.00  0.00     0.015 A 
HETATM   15  C11 UNL     1     -19.907  15.999 -43.624  1.00  0.00     0.037 A 
HETATM   16  C12 UNL     1     -20.758  16.939 -43.106  1.00  0.00     0.065 A 
HETATM   17  C13 UNL     1     -20.222  18.108 -42.624  1.00  0.00     0.037 A 
HETATM   18  C14 UNL     1     -18.844  18.372 -42.642  1.00  0.00     0.015 A 
BRANCH  16  19
HETATM   19  O1  UNL     1     -22.124  16.722 -43.068  1.00  0.00    -0.361 OA
ATOM     20  H1  UNL     1     -22.583  16.626 -42.241  1.00  0.00     0.217 HD
ENDBRANCH  16  19
ENDBRANCH  11  13
ENDBRANCH   8  10
ENDBRANCH   1   8
BRANCH   1  21
HETATM   21  C15 UNL     1     -17.429  19.168 -46.945  1.00  0.00    -0.034 A 
HETATM   22  C16 UNL     1     -17.751  20.404 -47.464  1.00  0.00     0.009 A 
HETATM   23  C17 UNL     1     -19.027  20.708 -47.911  1.00  0.00     0.001 A 
HETATM   24  C18 UNL     1     -19.969  19.711 -47.816  1.00  0.00     0.000 A 
HETATM   25  C19 UNL     1     -19.657  18.478 -47.302  1.00  0.00     0.001 A 
HETATM   26  C20 UNL     1     -18.399  18.184 -46.861  1.00  0.00     0.009 A 
ENDBRANCH   1  21
TORSDOF 10
ENDMDL
MODEL 2
REMARK VINA RESULT: -7.513977974      1.270      1.794
REMARK  10 active torsions:
REMARK  status: ('A' for Active; 'I' for Inactive)
REMARK    1  A    between atoms: C2_2  and  C3_3 
REMARK    2  A    between atoms: C3_3  and  C4_4 
REMARK    3  A    between atoms: C4_4  and  C5_5 
REMARK    4  A    between atoms: C5_5  and  C6_6 
REMARK    5  A    between atoms: C6_6  and  C7_7 
REMARK    6  A    between atoms: C7_7  and  N1_8 
REMARK    7  A    between atoms: C7_7  and  C15_21 
REMARK    8  A    between atoms: N1_8  and  N2_10 
REMARK    9  A    between atoms: C8_12  and  C9_13 
REMARK   10  A    between atoms: C12_16  and  O1_17 
ROOT
HETATM    1  C7  UNL     1     -16.637  19.488 -46.000  1.00  0.00     0.135 C 
ENDROOT
BRANCH   1   2
HETATM    2  C6  UNL     1     -16.247  18.255 -46.720  1.00  0.00     0.058 C 
BRANCH   2   3
HETATM    3  C5  UNL     1     -15.508  18.426 -47.998  1.00  0.00    -0.024 C 
BRANCH   3   4
HETATM    4  C4  UNL     1     -14.470  19.178 -48.213  1.00  0.00    -0.004 C 
BRANCH   4   5
HETATM    5  C3  UNL     1     -14.163  20.235 -49.133  1.00  0.00    -0.001 C 
BRANCH   5   6
HETATM    6  C2  UNL     1     -14.444  21.633 -48.929  1.00  0.00    -0.010 C 
HETATM    7  C1  UNL     1     -15.078  22.569 -49.568  1.00  0.00     0.011 C 
ENDBRANCH   5   6
ENDBRANCH   4   5
ENDBRANCH   3   4
ENDBRANCH   2   3
ENDBRANCH   1   2
BRANCH   1   8
HETATM    8  N1  UNL     1     -17.161  19.246 -44.662  1.00  0.00    -0.327 N 
ATOM      9  H1  UNL     1     -17.715  20.010 -44.275  1.00  0.00     0.181 HD
BRANCH   8  10
HETATM   10  N2  UNL     1     -17.033  18.186 -43.864  1.00  0.00    -0.315 N 
HETATM   11  C8  UNL     1     -17.635  17.209 -43.419  1.00  0.00     0.118 C 
ATOM     12  H2  UNL     1     -16.088  18.185 -43.480  1.00  0.00     0.185 HD
BRANCH  11  13
HETATM   13  C9  UNL     1     -19.012  16.863 -43.732  1.00  0.00    -0.019 A 
HETATM   14  C10 UNL     1     -19.704  16.044 -42.828  1.00  0.00     0.015 A 
HETATM   15  C11 UNL     1     -21.005  15.686 -43.055  1.00  0.00     0.037 A 
HETATM   16  C12 UNL     1     -21.665  16.119 -44.175  1.00  0.00     0.065 A 
HETATM   17  C13 UNL     1     -20.987  16.921 -45.061  1.00  0.00     0.037 A 
HETATM   18  C14 UNL     1     -19.654  17.309 -44.862  1.00  0.00     0.015 A 
BRANCH  16  19
HETATM   19  O1  UNL     1     -22.980  15.762 -44.413  1.00  0.00    -0.361 OA
ATOM     20  H1  UNL     1     -23.267  14.860 -44.326  1.00  0.00     0.217 HD
ENDBRANCH  16  19
ENDBRANCH  11  13
ENDBRANCH   8  10
ENDBRANCH   1   8
BRANCH   1  21
HETATM   21  C15 UNL     1     -17.610  20.303 -46.762  1.00  0.00    -0.034 A 
HETATM   22  C16 UNL     1     -17.408  21.665 -46.830  1.00  0.00     0.009 A 
HETATM   23  C17 UNL     1     -18.278  22.509 -47.502  1.00  0.00     0.001 A 
HETATM   24  C18 UNL     1     -19.364  21.922 -48.108  1.00  0.00     0.000 A 
HETATM   25  C19 UNL     1     -19.572  20.568 -48.046  1.00  0.00     0.001 A 
HETATM   26  C20 UNL     1     -18.713  19.740 -47.381  1.00  0.00     0.009 A 
ENDBRANCH   1  21
TORSDOF 10
ENDMDL
MODEL 3
REMARK VINA RESULT: -7.483175214      1.282      1.987
REMARK  10 active torsions:
REMARK  status: ('A' for Active; 'I' for Inactive)
REMARK    1  A    between atoms: C2_2  and  C3_3 
REMARK    2  A    between atoms: C3_3  and  C4_4 
REMARK    3  A    between atoms: C4_4  and  C5_5 
REMARK    4  A    between atoms: C5_5  and  C6_6 
REMARK    5  A    between atoms: C6_6  and  C7_7 
REMARK    6  A    between atoms: C7_7  and  N1_8 
REMARK    7  A    between atoms: C7_7  and  C15_21 
REMARK    8  A    between atoms: N1_8  and  N2_10 
REMARK    9  A    between atoms: C8_12  and  C9_13 
REMARK   10  A    between atoms: C12_16  and  O1_17 
ROOT
HETATM    1  C7  UNL     1     -16.586  19.552 -45.950  1.00  0.00     0.135 C 
ENDROOT
BRANCH   1   2
HETATM    2  C6  UNL     1     -16.132  18.378 -46.729  1.00  0.00     0.058 C 
BRANCH   2   3
HETATM    3  C5  UNL     1     -15.373  18.650 -47.977  1.00  0.00    -0.024 C 
BRANCH   3   4
HETATM    4  C4  UNL     1     -14.235  19.268 -48.087  1.00  0.00    -0.004 C 
BRANCH   4   5
HETATM    5  C3  UNL     1     -13.801  20.480 -48.720  1.00  0.00    -0.001 C 
BRANCH   5   6
HETATM    6  C2  UNL     1     -14.664  21.511 -49.239  1.00  0.00    -0.010 C 
HETATM    7  C1  UNL     1     -14.684  22.809 -49.240  1.00  0.00     0.011 C 
ENDBRANCH   5   6
ENDBRANCH   4   5
ENDBRANCH   3   4
ENDBRANCH   2   3
ENDBRANCH   1   2
BRANCH   1   8
HETATM    8  N1  UNL     1     -17.166  19.211 -44.658  1.00  0.00    -0.327 N 
ATOM      9  H1  UNL     1     -17.781  19.923 -44.263  1.00  0.00     0.181 HD
BRANCH   8  10
HETATM   10  N2  UNL     1     -17.022  18.117 -43.909  1.00  0.00    -0.315 N 
HETATM   11  C8  UNL     1     -17.618  17.125 -43.489  1.00  0.00     0.118 C 
ATOM     12  H2  UNL     1     -16.067  18.094 -43.553  1.00  0.00     0.185 HD
BRANCH  11  13
HETATM   13  C9  UNL     1     -19.005  16.800 -43.778  1.00  0.00    -0.019 A 
HETATM   14  C10 UNL     1     -19.660  15.901 -42.923  1.00  0.00     0.015 A 
HETATM   15  C11 UNL     1     -20.967  15.556 -43.130  1.00  0.00     0.037 A 
HETATM   16  C12 UNL     1     -21.672  16.083 -44.181  1.00  0.00     0.065 A 
HETATM   17  C13 UNL     1     -21.032  16.963 -45.018  1.00  0.00     0.037 A 
HETATM   18  C14 UNL     1     -19.693  17.340 -44.838  1.00  0.00     0.015 A 
BRANCH  16  19
HETATM   19  O1  UNL     1     -22.995  15.740 -44.397  1.00  0.00    -0.361 OA
ATOM     20  H1  UNL     1     -23.678  16.015 -43.798  1.00  0.00     0.217 HD
ENDBRANCH  16  19
ENDBRANCH  11  13
ENDBRANCH   8  10
ENDBRANCH   1   8
BRANCH   1  21
HETATM   21  C15 UNL     1     -17.543  20.395 -46.704  1.00  0.00    -0.034 A 
HETATM   22  C16 UNL     1     -18.634  19.783 -47.284  1.00  0.00     0.009 A 
HETATM   23  C17 UNL     1     -19.569  20.488 -48.025  1.00  0.00     0.001 A 
HETATM   24  C18 UNL     1     -19.361  21.841 -48.157  1.00  0.00     0.000 A 
HETATM   25  C19 UNL     1     -18.279  22.458 -47.582  1.00  0.00     0.001 A 
HETATM   26  C20 UNL     1     -17.359  21.758 -46.854  1.00  0.00     0.009 A 
ENDBRANCH   1  21
TORSDOF 10
ENDMDL
MODEL 4
REMARK VINA RESULT: -7.362419000      0.980      3.140
REMARK  10 active torsions:
REMARK  status: ('A' for Active; 'I' for Inactive)
REMARK    1  A    between atoms: C2_2  and  C3_3 
REMARK    2  A    between atoms: C3_3  and  C4_4 
REMARK    3  A    between atoms: C4_4  and  C5_5 
REMARK    4  A    between atoms: C5_5  and  C6_6 
REMARK    5  A    between atoms: C6_6  and  C7_7 
REMARK    6  A    between atoms: C7_7  and  N1_8 
REMARK    7  A    between atoms: C7_7  and  C15_21 
REMARK    8  A    between atoms: N1_8  and  N2_10 
REMARK    9  A    between atoms: C8_12  and  C9_13 
REMARK   10  A    between atoms: C12_16  and  O1_17 
ROOT
HETATM    1  C7  UNL     1     -16.394  18.273 -46.861  1.00  0.00     0.135 C 
ENDROOT
BRANCH   1   2
HETATM    2  C6  UNL     1     -17.624  18.324 -47.682  1.00  0.00     0.058 C 
BRANCH   2   3
HETATM    3  C5  UNL     1     -18.624  19.365 -47.334  1.00  0.00    -0.024 C 
BRANCH   3   4
HETATM    4  C4  UNL     1     -18.609  20.618 -47.678  1.00  0.00    -0.004 C 
BRANCH   4   5
HETATM    5  C3  UNL     1     -17.759  21.736 -47.384  1.00  0.00    -0.001 C 
BRANCH   5   6
HETATM    6  C2  UNL     1     -16.849  22.365 -48.307  1.00  0.00    -0.010 C 
HETATM    7  C1  UNL     1     -15.696  22.956 -48.237  1.00  0.00     0.011 C 
ENDBRANCH   5   6
ENDBRANCH   4   5
ENDBRANCH   3   4
ENDBRANCH   2   3
ENDBRANCH   1   2
BRANCH   1   8
HETATM    8  N1  UNL     1     -16.575  18.760 -45.500  1.00  0.00    -0.327 N 
ATOM      9  H1  UNL     1     -16.923  19.716 -45.430  1.00  0.00     0.181 HD
BRANCH   8  10
HETATM   10  N2  UNL     1     -16.360  18.155 -44.331  1.00  0.00    -0.315 N 
HETATM   11  C8  UNL     1     -16.925  17.584 -43.398  1.00  0.00     0.118 C 
ATOM     12  H2  UNL     1     -15.358  18.171 -44.140  1.00  0.00     0.185 HD
BRANCH  11  13
HETATM   13  C9  UNL     1     -18.358  17.360 -43.301  1.00  0.00    -0.019 A 
HETATM   14  C10 UNL     1     -18.937  16.427 -44.175  1.00  0.00     0.015 A 
HETATM   15  C11 UNL     1     -20.278  16.160 -44.133  1.00  0.00     0.037 A 
HETATM   16  C12 UNL     1     -21.092  16.801 -43.236  1.00  0.00     0.065 A 
HETATM   17  C13 UNL     1     -20.526  17.715 -42.381  1.00  0.00     0.037 A 
HETATM   18  C14 UNL     1     -19.155  18.014 -42.394  1.00  0.00     0.015 A 
BRANCH  16  19
HETATM   19  O1  UNL     1     -22.449  16.538 -43.187  1.00  0.00    -0.361 OA
ATOM     20  H1  UNL     1     -23.078  17.124 -43.592  1.00  0.00     0.217 HD
ENDBRANCH  16  19
ENDBRANCH  11  13
ENDBRANCH   8  10
ENDBRANCH   1   8
BRANCH   1  21
HETATM   21  C15 UNL     1     -15.265  18.998 -47.488  1.00  0.00    -0.034 A 
HETATM   22  C16 UNL     1     -15.219  19.068 -48.864  1.00  0.00     0.009 A 
HETATM   23  C17 UNL     1     -14.191  19.707 -49.538  1.00  0.00     0.001 A 
HETATM   24  C18 UNL     1     -13.206  20.277 -48.765  1.00  0.00     0.000 A 
HETATM   25  C19 UNL     1     -13.244  20.213 -47.396  1.00  0.00     0.001 A 
HETATM   26  C20 UNL     1     -14.259  19.581 -46.736  1.00  0.00     0.009 A 
ENDBRANCH   1  21
TORSDOF 10
ENDMDL
MODEL 5
REMARK VINA RESULT: -7.345289424      0.989      3.419
REMARK  10 active torsions:
REMARK  status: ('A' for Active; 'I' for Inactive)
REMARK    1  A    between atoms: C2_2  and  C3_3 
REMARK    2  A    between atoms: C3_3  and  C4_4 
REMARK    3  A    between atoms: C4_4  and  C5_5 
REMARK    4  A    between atoms: C5_5  and  C6_6 
REMARK    5  A    between atoms: C6_6  and  C7_7 
REMARK    6  A    between atoms: C7_7  and  N1_8 
REMARK    7  A    between atoms: C7_7  and  C15_21 
REMARK    8  A    between atoms: N1_8  and  N2_10 
REMARK    9  A    between atoms: C8_12  and  C9_13 
REMARK   10  A    between atoms: C12_16  and  O1_17 
ROOT
HETATM    1  C7  UNL     1     -16.302  18.344 -46.880  1.00  0.00     0.135 C 
ENDROOT
BRANCH   1   2
HETATM    2  C6  UNL     1     -17.503  17.979 -47.664  1.00  0.00     0.058 C 
BRANCH   2   3
HETATM    3  C5  UNL     1     -18.821  18.179 -47.008  1.00  0.00    -0.024 C 
BRANCH   3   4
HETATM    4  C4  UNL     1     -19.867  18.767 -47.508  1.00  0.00    -0.004 C 
BRANCH   4   5
HETATM    5  C3  UNL     1     -20.155  20.094 -47.971  1.00  0.00    -0.001 C 
BRANCH   5   6
HETATM    6  C2  UNL     1     -19.233  21.201 -47.971  1.00  0.00    -0.010 C 
HETATM    7  C1  UNL     1     -19.318  22.496 -47.979  1.00  0.00     0.011 C 
ENDBRANCH   5   6
ENDBRANCH   4   5
ENDBRANCH   3   4
ENDBRANCH   2   3
ENDBRANCH   1   2
BRANCH   1   8
HETATM    8  N1  UNL     1     -16.596  18.783 -45.522  1.00  0.00    -0.327 N 
ATOM      9  H1  UNL     1     -17.062  19.688 -45.457  1.00  0.00     0.181 HD
BRANCH   8  10
HETATM   10  N2  UNL     1     -16.354  18.191 -44.353  1.00  0.00    -0.315 N 
HETATM   11  C8  UNL     1     -16.896  17.624 -43.404  1.00  0.00     0.118 C 
ATOM     12  H2  UNL     1     -15.349  18.218 -44.180  1.00  0.00     0.185 HD
BRANCH  11  13
HETATM   13  C9  UNL     1     -18.326  17.390 -43.278  1.00  0.00    -0.019 A 
HETATM   14  C10 UNL     1     -18.878  16.313 -43.987  1.00  0.00     0.015 A 
HETATM   15  C11 UNL     1     -20.214  16.029 -43.908  1.00  0.00     0.037 A 
HETATM   16  C12 UNL     1     -21.048  16.792 -43.133  1.00  0.00     0.065 A 
HETATM   17  C13 UNL     1     -20.507  17.847 -42.439  1.00  0.00     0.037 A 
HETATM   18  C14 UNL     1     -19.143  18.168 -42.495  1.00  0.00     0.015 A 
BRANCH  16  19
HETATM   19  O1  UNL     1     -22.400  16.512 -43.048  1.00  0.00    -0.361 OA
ATOM     20  H1  UNL     1     -22.961  16.982 -42.443  1.00  0.00     0.217 HD
ENDBRANCH  16  19
ENDBRANCH  11  13
ENDBRANCH   8  10
ENDBRANCH   1   8
BRANCH   1  21
HETATM   21  C15 UNL     1     -15.478  19.374 -47.555  1.00  0.00    -0.034 A 
HETATM   22  C16 UNL     1     -15.818  20.699 -47.378  1.00  0.00     0.009 A 
HETATM   23  C17 UNL     1     -15.118  21.728 -47.987  1.00  0.00     0.001 A 
HETATM   24  C18 UNL     1     -14.057  21.368 -48.783  1.00  0.00     0.000 A 
HETATM   25  C19 UNL     1     -13.711  20.053 -48.963  1.00  0.00     0.001 A 
HETATM   26  C20 UNL     1     -14.404  19.042 -48.363  1.00  0.00     0.009 A 
ENDBRANCH   1  21
TORSDOF 10
ENDMDL
