MODEL 1
REMARK VINA RESULT: -7.443458177      0.000      0.000
REMARK  8 active torsions:
REMARK  status: ('A' for Active; 'I' for Inactive)
REMARK    1  A    between atoms: C2_2  and  S1_3 
REMARK    2  A    between atoms: S1_3  and  C3_4 
REMARK    3  A    between atoms: C3_4  and  C4_5 
REMARK    4  A    between atoms: C3_4  and  C13_18 
REMARK    5  A    between atoms: C4_5  and  C5_6 
REMARK    6  A    between atoms: N1_7  and  C6_9 
REMARK    7  A    between atoms: C6_9  and  O1_10 
REMARK    8  A    between atoms: C6_9  and  C7_12 
ROOT
HETATM    1  C5  UNL     1     -15.896  17.860 -44.429  1.00  0.00     0.059 C 
HETATM    2  N1  UNL     1     -16.767  17.396 -43.490  1.00  0.00    -0.373 N 
ATOM      3  H1  UNL     1     -16.640  16.418 -43.233  1.00  0.00     0.161 HD
ENDROOT
BRANCH   1   4
HETATM    4  C4  UNL     1     -16.313  18.196 -45.785  1.00  0.00     0.064 C 
BRANCH   4   5
HETATM    5  C3  UNL     1     -15.959  19.513 -46.402  1.00  0.00     0.084 C 
BRANCH   5   6
HETATM    6  S1  UNL     1     -14.621  19.415 -47.566  1.00  0.00    -0.160 SA
BRANCH   6   7
HETATM    7  C2  UNL     1     -13.764  20.860 -48.048  1.00  0.00     0.070 C 
HETATM    8  C1  UNL     1     -14.459  21.747 -49.052  1.00  0.00     0.016 C 
ENDBRANCH   6   7
ENDBRANCH   5   6
BRANCH   5   9
HETATM    9  C13 UNL     1     -17.226  20.109 -46.949  1.00  0.00    -0.044 A 
HETATM   10  C14 UNL     1     -17.418  21.455 -47.036  1.00  0.00     0.008 A 
HETATM   11  C15 UNL     1     -18.606  21.991 -47.561  1.00  0.00     0.001 A 
HETATM   12  C16 UNL     1     -19.579  21.124 -47.988  1.00  0.00     0.000 A 
HETATM   13  C17 UNL     1     -19.394  19.768 -47.904  1.00  0.00     0.001 A 
HETATM   14  C18 UNL     1     -18.212  19.270 -47.382  1.00  0.00     0.008 A 
ENDBRANCH   5   9
ENDBRANCH   4   5
ENDBRANCH   1   4
BRANCH   2  15
HETATM   15  C6  UNL     1     -17.799  18.045 -42.827  1.00  0.00     0.251 C 
BRANCH  15  16
HETATM   16  O1  UNL     1     -17.931  19.407 -43.118  1.00  0.00    -0.373 OA
ATOM     17  H1  UNL     1     -18.810  19.756 -43.028  1.00  0.00     0.212 HD
ENDBRANCH  15  16
BRANCH  15  18
HETATM   18  C7  UNL     1     -19.105  17.437 -43.326  1.00  0.00    -0.010 A 
HETATM   19  C8  UNL     1     -19.475  17.516 -44.649  1.00  0.00     0.011 A 
HETATM   20  C9  UNL     1     -20.655  16.954 -45.108  1.00  0.00     0.001 A 
HETATM   21  C10 UNL     1     -21.467  16.300 -44.194  1.00  0.00     0.000 A 
HETATM   22  C11 UNL     1     -21.131  16.199 -42.862  1.00  0.00     0.001 A 
HETATM   23  C12 UNL     1     -19.940  16.781 -42.468  1.00  0.00     0.011 A 
ENDBRANCH  15  18
ENDBRANCH   2  15
TORSDOF 8
ENDMDL
MODEL 2
REMARK VINA RESULT: -7.434229450      0.044      1.466
REMARK  8 active torsions:
REMARK  status: ('A' for Active; 'I' for Inactive)
REMARK    1  A    between atoms: C2_2  and  S1_3 
REMARK    2  A    between atoms: S1_3  and  C3_4 
REMARK    3  A    between atoms: C3_4  and  C4_5 
REMARK    4  A    between atoms: C3_4  and  C13_18 
REMARK    5  A    between atoms: C4_5  and  C5_6 
REMARK    6  A    between atoms: N1_7  and  C6_9 
REMARK    7  A    between atoms: C6_9  and  O1_10 
REMARK    8  A    between atoms: C6_9  and  C7_12 
ROOT
HETATM    1  C5  UNL     1     -15.893  17.869 -44.398  1.00  0.00     0.059 C 
HETATM    2  N1  UNL     1     -16.758  17.405 -43.454  1.00  0.00    -0.373 N 
ATOM      3  H1  UNL     1     -16.618  16.431 -43.185  1.00  0.00     0.161 HD
ENDROOT
BRANCH   1   4
HETATM    4  C4  UNL     1     -16.314  18.183 -45.759  1.00  0.00     0.064 C 
BRANCH   4   5
HETATM    5  C3  UNL     1     -15.984  19.500 -46.388  1.00  0.00     0.084 C 
BRANCH   5   6
HETATM    6  S1  UNL     1     -14.626  19.420 -47.531  1.00  0.00    -0.160 SA
BRANCH   6   7
HETATM    7  C2  UNL     1     -13.770  20.874 -47.987  1.00  0.00     0.070 C 
HETATM    8  C1  UNL     1     -14.449  21.759 -49.004  1.00  0.00     0.016 C 
ENDBRANCH   6   7
ENDBRANCH   5   6
BRANCH   5   9
HETATM    9  C13 UNL     1     -17.257  20.056 -46.963  1.00  0.00    -0.044 A 
HETATM   10  C14 UNL     1     -18.263  19.255 -47.412  1.00  0.00     0.008 A 
HETATM   11  C15 UNL     1     -19.449  19.795 -47.937  1.00  0.00     0.001 A 
HETATM   12  C16 UNL     1     -19.576  21.159 -47.988  1.00  0.00     0.000 A 
HETATM   13  C17 UNL     1     -18.569  21.974 -47.538  1.00  0.00     0.001 A 
HETATM   14  C18 UNL     1     -17.411  21.411 -47.027  1.00  0.00     0.008 A 
ENDBRANCH   5   9
ENDBRANCH   4   5
ENDBRANCH   1   4
BRANCH   2  15
HETATM   15  C6  UNL     1     -17.799  18.048 -42.799  1.00  0.00     0.251 C 
BRANCH  15  16
HETATM   16  O1  UNL     1     -17.949  19.404 -43.107  1.00  0.00    -0.373 OA
ATOM     17  H1  UNL     1     -17.285  19.977 -42.743  1.00  0.00     0.212 HD
ENDBRANCH  15  16
BRANCH  15  18
HETATM   18  C7  UNL     1     -19.096  17.416 -43.291  1.00  0.00    -0.010 A 
HETATM   19  C8  UNL     1     -19.943  16.752 -42.432  1.00  0.00     0.011 A 
HETATM   20  C9  UNL     1     -21.129  16.187 -42.874  1.00  0.00     0.001 A 
HETATM   21  C10 UNL     1     -21.450  16.308 -44.218  1.00  0.00     0.000 A 
HETATM   22  C11 UNL     1     -20.630  16.965 -45.108  1.00  0.00     0.001 A 
HETATM   23  C12 UNL     1     -19.460  17.507 -44.603  1.00  0.00     0.011 A 
ENDBRANCH  15  18
ENDBRANCH   2  15
TORSDOF 8
ENDMDL
MODEL 3
REMARK VINA RESULT: -7.429374653      0.043      1.033
REMARK  8 active torsions:
REMARK  status: ('A' for Active; 'I' for Inactive)
REMARK    1  A    between atoms: C2_2  and  S1_3 
REMARK    2  A    between atoms: S1_3  and  C3_4 
REMARK    3  A    between atoms: C3_4  and  C4_5 
REMARK    4  A    between atoms: C3_4  and  C13_18 
REMARK    5  A    between atoms: C4_5  and  C5_6 
REMARK    6  A    between atoms: N1_7  and  C6_9 
REMARK    7  A    between atoms: C6_9  and  O1_10 
REMARK    8  A    between atoms: C6_9  and  C7_12 
ROOT
HETATM    1  C5  UNL     1     -15.894  17.873 -44.413  1.00  0.00     0.059 C 
HETATM    2  N1  UNL     1     -16.760  17.411 -43.468  1.00  0.00    -0.373 N 
ATOM      3  H1  UNL     1     -16.624  16.436 -43.202  1.00  0.00     0.161 HD
ENDROOT
BRANCH   1   4
HETATM    4  C4  UNL     1     -16.316  18.192 -45.772  1.00  0.00     0.064 C 
BRANCH   4   5
HETATM    5  C3  UNL     1     -15.986  19.512 -46.397  1.00  0.00     0.084 C 
BRANCH   5   6
HETATM    6  S1  UNL     1     -14.628  19.436 -47.539  1.00  0.00    -0.160 SA
BRANCH   6   7
HETATM    7  C2  UNL     1     -13.779  20.894 -47.998  1.00  0.00     0.070 C 
HETATM    8  C1  UNL     1     -14.463  21.774 -49.015  1.00  0.00     0.016 C 
ENDBRANCH   6   7
ENDBRANCH   5   6
BRANCH   5   9
HETATM    9  C13 UNL     1     -17.259  20.070 -46.970  1.00  0.00    -0.044 A 
HETATM   10  C14 UNL     1     -18.265  19.270 -47.421  1.00  0.00     0.008 A 
HETATM   11  C15 UNL     1     -19.452  19.811 -47.944  1.00  0.00     0.001 A 
HETATM   12  C16 UNL     1     -19.578  21.176 -47.991  1.00  0.00     0.000 A 
HETATM   13  C17 UNL     1     -18.570  21.989 -47.540  1.00  0.00     0.001 A 
HETATM   14  C18 UNL     1     -17.413  21.424 -47.031  1.00  0.00     0.008 A 
ENDBRANCH   5   9
ENDBRANCH   4   5
ENDBRANCH   1   4
BRANCH   2  15
HETATM   15  C6  UNL     1     -17.796  18.057 -42.810  1.00  0.00     0.251 C 
BRANCH  15  16
HETATM   16  O1  UNL     1     -17.940  19.416 -43.113  1.00  0.00    -0.373 OA
ATOM     17  H1  UNL     1     -17.611  20.014 -42.453  1.00  0.00     0.212 HD
ENDBRANCH  15  16
BRANCH  15  18
HETATM   18  C7  UNL     1     -19.098  17.434 -43.301  1.00  0.00    -0.010 A 
HETATM   19  C8  UNL     1     -19.473  17.503 -44.624  1.00  0.00     0.011 A 
HETATM   20  C9  UNL     1     -20.649  16.927 -45.076  1.00  0.00     0.001 A 
HETATM   21  C10 UNL     1     -21.452  16.270 -44.156  1.00  0.00     0.000 A 
HETATM   22  C11 UNL     1     -21.111  16.179 -42.825  1.00  0.00     0.001 A 
HETATM   23  C12 UNL     1     -19.924  16.775 -42.437  1.00  0.00     0.011 A 
ENDBRANCH  15  18
ENDBRANCH   2  15
TORSDOF 8
ENDMDL
MODEL 4
REMARK VINA RESULT: -7.409911032      0.076      1.042
REMARK  8 active torsions:
REMARK  status: ('A' for Active; 'I' for Inactive)
REMARK    1  A    between atoms: C2_2  and  S1_3 
REMARK    2  A    between atoms: S1_3  and  C3_4 
REMARK    3  A    between atoms: C3_4  and  C4_5 
REMARK    4  A    between atoms: C3_4  and  C13_18 
REMARK    5  A    between atoms: C4_5  and  C5_6 
REMARK    6  A    between atoms: N1_7  and  C6_9 
REMARK    7  A    between atoms: C6_9  and  O1_10 
REMARK    8  A    between atoms: C6_9  and  C7_12 
ROOT
HETATM    1  C5  UNL     1     -15.899  17.843 -44.392  1.00  0.00     0.059 C 
HETATM    2  N1  UNL     1     -16.765  17.372 -43.452  1.00  0.00    -0.373 N 
ATOM      3  H1  UNL     1     -16.624  16.396 -43.190  1.00  0.00     0.161 HD
ENDROOT
BRANCH   1   4
HETATM    4  C4  UNL     1     -16.319  18.167 -45.751  1.00  0.00     0.064 C 
BRANCH   4   5
HETATM    5  C3  UNL     1     -15.964  19.478 -46.381  1.00  0.00     0.084 C 
BRANCH   5   6
HETATM    6  S1  UNL     1     -14.627  19.367 -47.544  1.00  0.00    -0.160 SA
BRANCH   6   7
HETATM    7  C2  UNL     1     -13.708  20.792 -47.970  1.00  0.00     0.070 C 
HETATM    8  C1  UNL     1     -14.389  21.777 -48.888  1.00  0.00     0.016 C 
ENDBRANCH   6   7
ENDBRANCH   5   6
BRANCH   5   9
HETATM    9  C13 UNL     1     -17.231  20.068 -46.934  1.00  0.00    -0.044 A 
HETATM   10  C14 UNL     1     -17.438  21.413 -47.000  1.00  0.00     0.008 A 
HETATM   11  C15 UNL     1     -18.626  21.945 -47.531  1.00  0.00     0.001 A 
HETATM   12  C16 UNL     1     -19.582  21.073 -47.986  1.00  0.00     0.000 A 
HETATM   13  C17 UNL     1     -19.382  19.719 -47.923  1.00  0.00     0.001 A 
HETATM   14  C18 UNL     1     -18.201  19.226 -47.394  1.00  0.00     0.008 A 
ENDBRANCH   5   9
ENDBRANCH   4   5
ENDBRANCH   1   4
BRANCH   2  15
HETATM   15  C6  UNL     1     -17.808  18.008 -42.794  1.00  0.00     0.251 C 
BRANCH  15  16
HETATM   16  O1  UNL     1     -17.955  19.368 -43.085  1.00  0.00    -0.373 OA
ATOM     17  H1  UNL     1     -18.321  19.895 -42.384  1.00  0.00     0.212 HD
ENDBRANCH  15  16
BRANCH  15  18
HETATM   18  C7  UNL     1     -19.104  17.385 -43.301  1.00  0.00    -0.010 A 
HETATM   19  C8  UNL     1     -19.927  16.660 -42.468  1.00  0.00     0.011 A 
HETATM   20  C9  UNL     1     -21.111  16.104 -42.923  1.00  0.00     0.001 A 
HETATM   21  C10 UNL     1     -21.456  16.294 -44.252  1.00  0.00     0.000 A 
HETATM   22  C11 UNL     1     -20.660  17.013 -45.116  1.00  0.00     0.001 A 
HETATM   23  C12 UNL     1     -19.490  17.543 -44.601  1.00  0.00     0.011 A 
ENDBRANCH  15  18
ENDBRANCH   2  15
TORSDOF 8
ENDMDL
MODEL 5
REMARK VINA RESULT: -7.324236898      0.946      1.534
REMARK  8 active torsions:
REMARK  status: ('A' for Active; 'I' for Inactive)
REMARK    1  A    between atoms: C2_2  and  S1_3 
REMARK    2  A    between atoms: S1_3  and  C3_4 
REMARK    3  A    between atoms: C3_4  and  C4_5 
REMARK    4  A    between atoms: C3_4  and  C13_18 
REMARK    5  A    between atoms: C4_5  and  C5_6 
REMARK    6  A    between atoms: N1_7  and  C6_9 
REMARK    7  A    between atoms: C6_9  and  O1_10 
REMARK    8  A    between atoms: C6_9  and  C7_12 
ROOT
HETATM    1  C5  UNL     1     -16.463  18.147 -44.687  1.00  0.00     0.059 C 
HETATM    2  N1  UNL     1     -17.176  17.356 -43.837  1.00  0.00    -0.373 N 
ATOM      3  H1  UNL     1     -17.005  16.356 -43.938  1.00  0.00     0.161 HD
ENDROOT
BRANCH   1   4
HETATM    4  C4  UNL     1     -17.086  18.881 -45.782  1.00  0.00     0.064 C 
BRANCH   4   5
HETATM    5  C3  UNL     1     -16.269  19.702 -46.730  1.00  0.00     0.084 C 
BRANCH   5   6
HETATM    6  S1  UNL     1     -15.428  18.738 -47.961  1.00  0.00    -0.160 SA
BRANCH   6   7
HETATM    7  C2  UNL     1     -13.863  19.240 -48.557  1.00  0.00     0.070 C 
HETATM    8  C1  UNL     1     -13.079  20.177 -47.672  1.00  0.00     0.016 C 
ENDBRANCH   6   7
ENDBRANCH   5   6
BRANCH   5   9
HETATM    9  C13 UNL     1     -17.164  20.779 -47.278  1.00  0.00    -0.044 A 
HETATM   10  C14 UNL     1     -16.699  22.021 -47.591  1.00  0.00     0.008 A 
HETATM   11  C15 UNL     1     -17.550  23.010 -48.112  1.00  0.00     0.001 A 
HETATM   12  C16 UNL     1     -18.872  22.697 -48.302  1.00  0.00     0.000 A 
HETATM   13  C17 UNL     1     -19.348  21.450 -47.990  1.00  0.00     0.001 A 
HETATM   14  C18 UNL     1     -18.484  20.497 -47.477  1.00  0.00     0.008 A 
ENDBRANCH   5   9
ENDBRANCH   4   5
ENDBRANCH   1   4
BRANCH   2  15
HETATM   15  C6  UNL     1     -18.097  17.696 -42.857  1.00  0.00     0.251 C 
BRANCH  15  16
HETATM   16  O1  UNL     1     -18.412  19.057 -42.782  1.00  0.00    -0.373 OA
ATOM     17  H1  UNL     1     -18.457  19.414 -41.902  1.00  0.00     0.212 HD
ENDBRANCH  15  16
BRANCH  15  18
HETATM   18  C7  UNL     1     -19.418  17.035 -43.233  1.00  0.00    -0.010 A 
HETATM   19  C8  UNL     1     -20.142  16.304 -42.320  1.00  0.00     0.011 A 
HETATM   20  C9  UNL     1     -21.349  15.712 -42.656  1.00  0.00     0.001 A 
HETATM   21  C10 UNL     1     -21.820  15.875 -43.950  1.00  0.00     0.000 A 
HETATM   22  C11 UNL     1     -21.125  16.600 -44.893  1.00  0.00     0.001 A 
HETATM   23  C12 UNL     1     -19.926  17.165 -44.494  1.00  0.00     0.011 A 
ENDBRANCH  15  18
ENDBRANCH   2  15
TORSDOF 8
ENDMDL
