MODEL 1
REMARK VINA RESULT: -7.823419008      0.000      0.000
REMARK  8 active torsions:
REMARK  status: ('A' for Active; 'I' for Inactive)
REMARK    1  A    between atoms: S1_2  and  C2_3 
REMARK    2  A    between atoms: C7_8  and  N1_9 
REMARK    3  A    between atoms: N1_9  and  C8_11 
REMARK    4  A    between atoms: C8_11  and  C9_12 
REMARK    5  A    between atoms: C12_15  and  C13_16 
REMARK    6  A    between atoms: C13_16  and  N2_17 
REMARK    7  A    between atoms: N2_17  and  C14_20 
REMARK    8  A    between atoms: C14_20  and  C15_21 
ROOT
HETATM    1  C9  UNL     1     -18.450  18.124 -45.720  1.00  0.00    -0.041 A 
HETATM    2  C10 UNL     1     -17.881  17.870 -44.490  1.00  0.00     0.009 A 
HETATM    3  C11 UNL     1     -18.574  17.199 -43.483  1.00  0.00     0.009 A 
HETATM    4  C12 UNL     1     -19.846  16.767 -43.683  1.00  0.00    -0.033 A 
HETATM    5  C18 UNL     1     -20.431  17.013 -44.909  1.00  0.00     0.009 A 
HETATM    6  C19 UNL     1     -19.755  17.675 -45.910  1.00  0.00     0.009 A 
ENDROOT
BRANCH   1   7
HETATM    7  C8  UNL     1     -17.771  18.829 -46.823  1.00  0.00     0.158 C 
BRANCH   7   8
HETATM    8  N1  UNL     1     -16.905  19.899 -46.395  1.00  0.00    -0.385 N 
ATOM      9  H1  UNL     1     -17.159  20.458 -45.581  1.00  0.00     0.160 HD
BRANCH   8  10
HETATM   10  C7  UNL     1     -15.719  20.180 -47.086  1.00  0.00     0.045 A 
HETATM   11  C2  UNL     1     -15.666  21.353 -47.849  1.00  0.00     0.026 A 
HETATM   12  C3  UNL     1     -14.546  21.705 -48.572  1.00  0.00     0.021 A 
HETATM   13  C4  UNL     1     -13.469  20.862 -48.524  1.00  0.00     0.002 A 
HETATM   14  C5  UNL     1     -13.480  19.693 -47.783  1.00  0.00     0.002 A 
HETATM   15  C6  UNL     1     -14.615  19.352 -47.059  1.00  0.00     0.030 A 
BRANCH  11  16
HETATM   16  S1  UNL     1     -17.095  22.424 -47.873  1.00  0.00    -0.132 SA
HETATM   17  C1  UNL     1     -16.616  23.985 -48.655  1.00  0.00     0.095 C 
ENDBRANCH  11  16
ENDBRANCH   8  10
ENDBRANCH   7   8
ENDBRANCH   1   7
BRANCH   4  18
HETATM   18  C13 UNL     1     -20.624  16.045 -42.624  1.00  0.00     0.270 C 
BRANCH  18  19
HETATM   19  N2  UNL     1     -21.238  14.902 -43.253  1.00  0.00    -0.071 N 
ATOM     20  H22 UNL     1     -20.820  14.728 -44.167  1.00  0.00     0.277 HD
ATOM     21  H21 UNL     1     -20.970  14.042 -42.775  1.00  0.00     0.277 HD
BRANCH  19  22
HETATM   22  C14 UNL     1     -22.661  14.995 -43.360  1.00  0.00     0.237 C 
BRANCH  22  23
HETATM   23  C15 UNL     1     -23.209  14.391 -44.637  1.00  0.00     0.011 A 
HETATM   24  C16 UNL     1     -24.210  15.186 -45.424  1.00  0.00     0.007 A 
HETATM   25  C17 UNL     1     -24.653  13.987 -44.604  1.00  0.00     0.007 A 
ENDBRANCH  22  23
ENDBRANCH  19  22
ENDBRANCH  18  19
ENDBRANCH   4  18
TORSDOF 8
ENDMDL
MODEL 2
REMARK VINA RESULT: -7.785216492      1.238      2.317
REMARK  8 active torsions:
REMARK  status: ('A' for Active; 'I' for Inactive)
REMARK    1  A    between atoms: S1_2  and  C2_3 
REMARK    2  A    between atoms: C7_8  and  N1_9 
REMARK    3  A    between atoms: N1_9  and  C8_11 
REMARK    4  A    between atoms: C8_11  and  C9_12 
REMARK    5  A    between atoms: C12_15  and  C13_16 
REMARK    6  A    between atoms: C13_16  and  N2_17 
REMARK    7  A    between atoms: N2_17  and  C14_20 
REMARK    8  A    between atoms: C14_20  and  C15_21 
ROOT
HETATM    1  C9  UNL     1     -17.838  18.174 -45.825  1.00  0.00    -0.041 A 
HETATM    2  C10 UNL     1     -17.437  18.016 -44.515  1.00  0.00     0.009 A 
HETATM    3  C11 UNL     1     -18.301  17.531 -43.534  1.00  0.00     0.009 A 
HETATM    4  C12 UNL     1     -19.580  17.193 -43.839  1.00  0.00    -0.033 A 
HETATM    5  C18 UNL     1     -19.998  17.344 -45.147  1.00  0.00     0.009 A 
HETATM    6  C19 UNL     1     -19.153  17.823 -46.122  1.00  0.00     0.009 A 
ENDROOT
BRANCH   1   7
HETATM    7  C8  UNL     1     -16.973  18.683 -46.906  1.00  0.00     0.158 C 
BRANCH   7   8
HETATM    8  N1  UNL     1     -16.247  19.880 -46.567  1.00  0.00    -0.385 N 
ATOM      9  H1  UNL     1     -15.543  19.852 -45.829  1.00  0.00     0.160 HD
BRANCH   8  10
HETATM   10  C7  UNL     1     -16.498  21.084 -47.239  1.00  0.00     0.045 A 
HETATM   11  C2  UNL     1     -15.435  21.687 -47.923  1.00  0.00     0.026 A 
HETATM   12  C3  UNL     1     -15.585  22.878 -48.602  1.00  0.00     0.021 A 
HETATM   13  C4  UNL     1     -16.820  23.466 -48.589  1.00  0.00     0.002 A 
HETATM   14  C5  UNL     1     -17.897  22.903 -47.925  1.00  0.00     0.002 A 
HETATM   15  C6  UNL     1     -17.732  21.703 -47.245  1.00  0.00     0.030 A 
BRANCH  11  16
HETATM   16  S1  UNL     1     -13.843  20.877 -47.917  1.00  0.00    -0.132 SA
HETATM   17  C1  UNL     1     -13.821  19.668 -49.263  1.00  0.00     0.095 C 
ENDBRANCH  11  16
ENDBRANCH   8  10
ENDBRANCH   7   8
ENDBRANCH   1   7
BRANCH   4  18
HETATM   18  C13 UNL     1     -20.539  16.670 -42.813  1.00  0.00     0.270 C 
BRANCH  18  19
HETATM   19  N2  UNL     1     -20.587  15.238 -42.965  1.00  0.00    -0.071 N 
ATOM     20  H22 UNL     1     -20.157  14.957 -43.846  1.00  0.00     0.277 HD
ATOM     21  H21 UNL     1     -19.948  14.786 -42.310  1.00  0.00     0.277 HD
BRANCH  19  22
HETATM   22  C14 UNL     1     -21.901  14.686 -42.847  1.00  0.00     0.237 C 
BRANCH  22  23
HETATM   23  C15 UNL     1     -22.880  15.243 -43.859  1.00  0.00     0.011 A 
HETATM   24  C16 UNL     1     -24.278  14.696 -43.867  1.00  0.00     0.007 A 
HETATM   25  C17 UNL     1     -23.292  14.306 -44.956  1.00  0.00     0.007 A 
ENDBRANCH  22  23
ENDBRANCH  19  22
ENDBRANCH  18  19
ENDBRANCH   4  18
TORSDOF 8
ENDMDL
MODEL 3
REMARK VINA RESULT: -7.720271935      0.803      1.290
REMARK  8 active torsions:
REMARK  status: ('A' for Active; 'I' for Inactive)
REMARK    1  A    between atoms: S1_2  and  C2_3 
REMARK    2  A    between atoms: C7_8  and  N1_9 
REMARK    3  A    between atoms: N1_9  and  C8_11 
REMARK    4  A    between atoms: C8_11  and  C9_12 
REMARK    5  A    between atoms: C12_15  and  C13_16 
REMARK    6  A    between atoms: C13_16  and  N2_17 
REMARK    7  A    between atoms: N2_17  and  C14_20 
REMARK    8  A    between atoms: C14_20  and  C15_21 
ROOT
HETATM    1  C9  UNL     1     -18.156  18.096 -44.592  1.00  0.00    -0.041 A 
HETATM    2  C10 UNL     1     -19.293  17.854 -45.334  1.00  0.00     0.009 A 
HETATM    3  C11 UNL     1     -20.219  16.879 -44.965  1.00  0.00     0.009 A 
HETATM    4  C12 UNL     1     -20.031  16.128 -43.849  1.00  0.00    -0.033 A 
HETATM    5  C18 UNL     1     -18.898  16.357 -43.094  1.00  0.00     0.009 A 
HETATM    6  C19 UNL     1     -17.977  17.317 -43.451  1.00  0.00     0.009 A 
ENDROOT
BRANCH   1   7
HETATM    7  C8  UNL     1     -17.140  19.109 -44.931  1.00  0.00     0.158 C 
BRANCH   7   8
HETATM    8  N1  UNL     1     -17.223  19.599 -46.284  1.00  0.00    -0.385 N 
ATOM      9  H1  UNL     1     -18.130  19.656 -46.745  1.00  0.00     0.160 HD
BRANCH   8  10
HETATM   10  C7  UNL     1     -16.069  19.996 -46.973  1.00  0.00     0.045 A 
HETATM   11  C2  UNL     1     -16.093  21.229 -47.637  1.00  0.00     0.026 A 
HETATM   12  C3  UNL     1     -15.010  21.696 -48.351  1.00  0.00     0.021 A 
HETATM   13  C4  UNL     1     -13.891  20.910 -48.394  1.00  0.00     0.002 A 
HETATM   14  C5  UNL     1     -13.825  19.686 -47.751  1.00  0.00     0.002 A 
HETATM   15  C6  UNL     1     -14.924  19.227 -47.036  1.00  0.00     0.030 A 
BRANCH  11  16
HETATM   16  S1  UNL     1     -17.576  22.222 -47.546  1.00  0.00    -0.132 SA
HETATM   17  C1  UNL     1     -17.299  23.735 -48.499  1.00  0.00     0.095 C 
ENDBRANCH  11  16
ENDBRANCH   8  10
ENDBRANCH   7   8
ENDBRANCH   1   7
BRANCH   4  18
HETATM   18  C13 UNL     1     -21.002  15.070 -43.421  1.00  0.00     0.270 C 
BRANCH  18  19
HETATM   19  N2  UNL     1     -22.222  15.739 -43.043  1.00  0.00    -0.071 N 
ATOM     20  H22 UNL     1     -22.241  15.907 -42.037  1.00  0.00     0.277 HD
ATOM     21  H21 UNL     1     -22.222  16.702 -43.378  1.00  0.00     0.277 HD
BRANCH  19  22
HETATM   22  C14 UNL     1     -23.409  15.061 -43.462  1.00  0.00     0.237 C 
BRANCH  22  23
HETATM   23  C15 UNL     1     -23.416  14.718 -44.938  1.00  0.00     0.011 A 
HETATM   24  C16 UNL     1     -24.644  15.048 -45.735  1.00  0.00     0.007 A 
HETATM   25  C17 UNL     1     -24.342  13.611 -45.348  1.00  0.00     0.007 A 
ENDBRANCH  22  23
ENDBRANCH  19  22
ENDBRANCH  18  19
ENDBRANCH   4  18
TORSDOF 8
ENDMDL
MODEL 4
REMARK VINA RESULT: -7.648481373      2.071      2.968
REMARK  8 active torsions:
REMARK  status: ('A' for Active; 'I' for Inactive)
REMARK    1  A    between atoms: S1_2  and  C2_3 
REMARK    2  A    between atoms: C7_8  and  N1_9 
REMARK    3  A    between atoms: N1_9  and  C8_11 
REMARK    4  A    between atoms: C8_11  and  C9_12 
REMARK    5  A    between atoms: C12_15  and  C13_16 
REMARK    6  A    between atoms: C13_16  and  N2_17 
REMARK    7  A    between atoms: N2_17  and  C14_20 
REMARK    8  A    between atoms: C14_20  and  C15_21 
ROOT
HETATM    1  C9  UNL     1     -18.316  18.046 -44.083  1.00  0.00    -0.041 A 
HETATM    2  C10 UNL     1     -18.724  18.385 -42.810  1.00  0.00     0.009 A 
HETATM    3  C11 UNL     1     -19.701  17.657 -42.132  1.00  0.00     0.009 A 
HETATM    4  C12 UNL     1     -20.290  16.577 -42.709  1.00  0.00    -0.033 A 
HETATM    5  C18 UNL     1     -19.893  16.224 -43.983  1.00  0.00     0.009 A 
HETATM    6  C19 UNL     1     -18.929  16.936 -44.661  1.00  0.00     0.009 A 
ENDROOT
BRANCH   1   7
HETATM    7  C8  UNL     1     -17.290  18.776 -44.851  1.00  0.00     0.158 C 
BRANCH   7   8
HETATM    8  N1  UNL     1     -17.554  18.852 -46.265  1.00  0.00    -0.385 N 
ATOM      9  H1  UNL     1     -17.536  18.002 -46.828  1.00  0.00     0.160 HD
BRANCH   8  10
HETATM   10  C7  UNL     1     -17.835  20.081 -46.876  1.00  0.00     0.045 A 
HETATM   11  C2  UNL     1     -19.058  20.218 -47.545  1.00  0.00     0.026 A 
HETATM   12  C3  UNL     1     -19.415  21.386 -48.186  1.00  0.00     0.021 A 
HETATM   13  C4  UNL     1     -18.528  22.426 -48.150  1.00  0.00     0.002 A 
HETATM   14  C5  UNL     1     -17.309  22.334 -47.500  1.00  0.00     0.002 A 
HETATM   15  C6  UNL     1     -16.962  21.151 -46.859  1.00  0.00     0.030 A 
BRANCH  11  16
HETATM   16  S1  UNL     1     -20.186  18.833 -47.557  1.00  0.00    -0.132 SA
HETATM   17  C1  UNL     1     -21.747  19.384 -48.292  1.00  0.00     0.095 C 
ENDBRANCH  11  16
ENDBRANCH   8  10
ENDBRANCH   7   8
ENDBRANCH   1   7
BRANCH   4  18
HETATM   18  C13 UNL     1     -21.345  15.772 -42.014  1.00  0.00     0.270 C 
BRANCH  18  19
HETATM   19  N2  UNL     1     -21.747  14.724 -42.920  1.00  0.00    -0.071 N 
ATOM     20  H22 UNL     1     -21.100  14.663 -43.705  1.00  0.00     0.277 HD
ATOM     21  H21 UNL     1     -21.594  13.808 -42.499  1.00  0.00     0.277 HD
BRANCH  19  22
HETATM   22  C14 UNL     1     -23.094  14.846 -43.385  1.00  0.00     0.237 C 
BRANCH  22  23
HETATM   23  C15 UNL     1     -23.248  14.552 -44.863  1.00  0.00     0.011 A 
HETATM   24  C16 UNL     1     -24.473  15.065 -45.563  1.00  0.00     0.007 A 
HETATM   25  C17 UNL     1     -24.339  13.589 -45.229  1.00  0.00     0.007 A 
ENDBRANCH  22  23
ENDBRANCH  19  22
ENDBRANCH  18  19
ENDBRANCH   4  18
TORSDOF 8
ENDMDL
MODEL 5
REMARK VINA RESULT: -7.622616766      1.050      1.722
REMARK  8 active torsions:
REMARK  status: ('A' for Active; 'I' for Inactive)
REMARK    1  A    between atoms: S1_2  and  C2_3 
REMARK    2  A    between atoms: C7_8  and  N1_9 
REMARK    3  A    between atoms: N1_9  and  C8_11 
REMARK    4  A    between atoms: C8_11  and  C9_12 
REMARK    5  A    between atoms: C12_15  and  C13_16 
REMARK    6  A    between atoms: C13_16  and  N2_17 
REMARK    7  A    between atoms: N2_17  and  C14_20 
REMARK    8  A    between atoms: C14_20  and  C15_21 
ROOT
HETATM    1  C9  UNL     1     -17.725  18.359 -45.330  1.00  0.00    -0.041 A 
HETATM    2  C10 UNL     1     -18.968  18.054 -45.843  1.00  0.00     0.009 A 
HETATM    3  C11 UNL     1     -19.869  17.241 -45.157  1.00  0.00     0.009 A 
HETATM    4  C12 UNL     1     -19.548  16.716 -43.946  1.00  0.00    -0.033 A 
HETATM    5  C18 UNL     1     -18.307  17.011 -43.417  1.00  0.00     0.009 A 
HETATM    6  C19 UNL     1     -17.411  17.813 -44.087  1.00  0.00     0.009 A 
ENDROOT
BRANCH   1   7
HETATM    7  C8  UNL     1     -16.729  19.210 -46.008  1.00  0.00     0.158 C 
BRANCH   7   8
HETATM    8  N1  UNL     1     -17.284  20.384 -46.632  1.00  0.00    -0.385 N 
ATOM      9  H1  UNL     1     -18.245  20.657 -46.429  1.00  0.00     0.160 HD
BRANCH   8  10
HETATM   10  C7  UNL     1     -16.516  21.155 -47.515  1.00  0.00     0.045 A 
HETATM   11  C2  UNL     1     -17.155  22.192 -48.207  1.00  0.00     0.026 A 
HETATM   12  C3  UNL     1     -16.484  22.995 -49.105  1.00  0.00     0.021 A 
HETATM   13  C4  UNL     1     -15.154  22.746 -49.308  1.00  0.00     0.002 A 
HETATM   14  C5  UNL     1     -14.485  21.731 -48.646  1.00  0.00     0.002 A 
HETATM   15  C6  UNL     1     -15.174  20.930 -47.743  1.00  0.00     0.030 A 
BRANCH  11  16
HETATM   16  S1  UNL     1     -18.892  22.482 -47.902  1.00  0.00    -0.132 SA
HETATM   17  C1  UNL     1     -19.175  24.270 -47.917  1.00  0.00     0.095 C 
ENDBRANCH  11  16
ENDBRANCH   8  10
ENDBRANCH   7   8
ENDBRANCH   1   7
BRANCH   4  18
HETATM   18  C13 UNL     1     -20.488  15.836 -43.179  1.00  0.00     0.270 C 
BRANCH  18  19
HETATM   19  N2  UNL     1     -21.260  15.094 -44.144  1.00  0.00    -0.071 N 
ATOM     20  H22 UNL     1     -21.098  15.454 -45.085  1.00  0.00     0.277 HD
ATOM     21  H21 UNL     1     -20.888  14.151 -44.254  1.00  0.00     0.277 HD
BRANCH  19  22
HETATM   22  C14 UNL     1     -22.661  15.052 -43.857  1.00  0.00     0.237 C 
BRANCH  22  23
HETATM   23  C15 UNL     1     -23.469  14.319 -44.908  1.00  0.00     0.011 A 
HETATM   24  C16 UNL     1     -24.536  15.081 -45.638  1.00  0.00     0.007 A 
HETATM   25  C17 UNL     1     -24.908  14.067 -44.570  1.00  0.00     0.007 A 
ENDBRANCH  22  23
ENDBRANCH  19  22
ENDBRANCH  18  19
ENDBRANCH   4  18
TORSDOF 8
ENDMDL
