MODEL 1
REMARK VINA RESULT: -7.903230563      0.000      0.000
REMARK  8 active torsions:
REMARK  status: ('A' for Active; 'I' for Inactive)
REMARK    1  A    between atoms: C5_7  and  N2_8 
REMARK    2  A    between atoms: N2_8  and  C6_10 
REMARK    3  A    between atoms: C6_10  and  C7_11 
REMARK    4  A    between atoms: C6_10  and  C14_21 
REMARK    5  A    between atoms: C7_11  and  N3_12 
REMARK    6  A    between atoms: N3_12  and  C8_15 
REMARK    7  A    between atoms: C8_15  and  C10_17 
REMARK    8  A    between atoms: C10_17  and  C11_18 
ROOT
HETATM    1  C6  UNL     1     -16.792  19.035 -46.268  1.00  0.00     0.142 C 
ENDROOT
BRANCH   1   2
HETATM    2  N2  UNL     1     -16.927  19.020 -44.851  1.00  0.00    -0.366 N 
ATOM      3  H2  UNL     1     -16.194  19.493 -44.324  1.00  0.00     0.161 HD
BRANCH   2   4
HETATM    4  C5  UNL     1     -17.960  18.426 -44.091  1.00  0.00     0.101 A 
HETATM    5  N1  UNL     1     -18.260  18.775 -42.843  1.00  0.00    -0.353 N 
HETATM    6  C4  UNL     1     -19.233  18.240 -42.099  1.00  0.00     0.090 A 
ATOM      7  H1  UNL     1     -17.699  19.513 -42.417  1.00  0.00     0.166 HD
HETATM    8  C3  UNL     1     -20.016  17.245 -42.621  1.00  0.00     0.024 A 
HETATM    9  C2  UNL     1     -19.769  16.832 -43.902  1.00  0.00    -0.057 A 
HETATM   10  C1  UNL     1     -20.606  15.752 -44.514  1.00  0.00     0.048 C 
HETATM   11  C20 UNL     1     -18.758  17.408 -44.636  1.00  0.00     0.054 A 
ENDBRANCH   2   4
ENDBRANCH   1   2
BRANCH   1  12
HETATM   12  C7  UNL     1     -15.448  19.335 -46.825  1.00  0.00     0.262 C 
BRANCH  12  13
HETATM   13  N3  UNL     1     -15.319  19.212 -48.250  1.00  0.00    -0.069 N 
ATOM     14  H32 UNL     1     -15.162  18.258 -48.573  1.00  0.00     0.277 HD
ATOM     15  H31 UNL     1     -16.188  19.363 -48.761  1.00  0.00     0.277 HD
BRANCH  13  16
HETATM   16  C8  UNL     1     -14.225  20.166 -48.610  1.00  0.00     0.182 C 
HETATM   17  C9  UNL     1     -13.085  19.849 -47.672  1.00  0.00     0.040 C 
BRANCH  16  18
HETATM   18  C10 UNL     1     -14.663  21.576 -48.304  1.00  0.00     0.037 C 
BRANCH  18  19
HETATM   19  C11 UNL     1     -14.698  22.491 -49.484  1.00  0.00    -0.013 A 
HETATM   20  C12 UNL     1     -15.984  23.199 -49.830  1.00  0.00     0.005 A 
HETATM   21  C13 UNL     1     -14.902  23.962 -49.141  1.00  0.00     0.005 A 
ENDBRANCH  18  19
ENDBRANCH  16  18
ENDBRANCH  13  16
ENDBRANCH  12  13
ENDBRANCH   1  12
BRANCH   1  22
HETATM   22  C14 UNL     1     -17.733  20.028 -46.861  1.00  0.00    -0.034 A 
HETATM   23  C15 UNL     1     -18.831  19.591 -47.563  1.00  0.00     0.009 A 
HETATM   24  C16 UNL     1     -19.654  20.554 -48.097  1.00  0.00     0.001 A 
HETATM   25  C17 UNL     1     -19.423  21.903 -47.958  1.00  0.00     0.000 A 
HETATM   26  C18 UNL     1     -18.321  22.322 -47.255  1.00  0.00     0.001 A 
HETATM   27  C19 UNL     1     -17.479  21.365 -46.708  1.00  0.00     0.009 A 
ENDBRANCH   1  22
TORSDOF 8
ENDMDL
MODEL 2
REMARK VINA RESULT: -7.587072005      2.123      6.822
REMARK  8 active torsions:
REMARK  status: ('A' for Active; 'I' for Inactive)
REMARK    1  A    between atoms: C5_7  and  N2_8 
REMARK    2  A    between atoms: N2_8  and  C6_10 
REMARK    3  A    between atoms: C6_10  and  C7_11 
REMARK    4  A    between atoms: C6_10  and  C14_21 
REMARK    5  A    between atoms: C7_11  and  N3_12 
REMARK    6  A    between atoms: N3_12  and  C8_15 
REMARK    7  A    between atoms: C8_15  and  C10_17 
REMARK    8  A    between atoms: C10_17  and  C11_18 
ROOT
HETATM    1  C6  UNL     1     -17.446  20.649 -47.273  1.00  0.00     0.142 C 
ENDROOT
BRANCH   1   2
HETATM    2  N2  UNL     1     -17.586  22.032 -46.966  1.00  0.00    -0.366 N 
ATOM      3  H2  UNL     1     -17.036  22.377 -46.180  1.00  0.00     0.161 HD
BRANCH   2   4
HETATM    4  C5  UNL     1     -18.400  22.982 -47.624  1.00  0.00     0.101 A 
HETATM    5  N1  UNL     1     -19.461  23.564 -47.070  1.00  0.00    -0.353 N 
HETATM    6  C4  UNL     1     -20.246  24.470 -47.661  1.00  0.00     0.090 A 
ATOM      7  H1  UNL     1     -19.695  23.294 -46.115  1.00  0.00     0.166 HD
HETATM    8  C3  UNL     1     -19.978  24.866 -48.944  1.00  0.00     0.024 A 
HETATM    9  C2  UNL     1     -18.901  24.313 -49.581  1.00  0.00    -0.057 A 
HETATM   10  C1  UNL     1     -18.568  24.724 -50.981  1.00  0.00     0.048 C 
HETATM   11  C20 UNL     1     -18.116  23.382 -48.939  1.00  0.00     0.054 A 
ENDBRANCH   2   4
ENDBRANCH   1   2
BRANCH   1  12
HETATM   12  C7  UNL     1     -17.761  19.674 -46.199  1.00  0.00     0.262 C 
BRANCH  12  13
HETATM   13  N3  UNL     1     -17.225  19.975 -44.901  1.00  0.00    -0.069 N 
ATOM     14  H32 UNL     1     -16.309  20.421 -44.923  1.00  0.00     0.277 HD
ATOM     15  H31 UNL     1     -17.708  20.732 -44.417  1.00  0.00     0.277 HD
BRANCH  13  16
HETATM   16  C8  UNL     1     -17.251  18.670 -44.172  1.00  0.00     0.182 C 
HETATM   17  C9  UNL     1     -16.104  17.868 -44.737  1.00  0.00     0.040 C 
BRANCH  16  18
HETATM   18  C10 UNL     1     -18.516  17.925 -44.515  1.00  0.00     0.037 C 
BRANCH  18  19
HETATM   19  C11 UNL     1     -18.906  16.868 -43.535  1.00  0.00    -0.013 A 
HETATM   20  C12 UNL     1     -20.216  16.993 -42.798  1.00  0.00     0.005 A 
HETATM   21  C13 UNL     1     -20.119  16.039 -43.942  1.00  0.00     0.005 A 
ENDBRANCH  18  19
ENDBRANCH  16  18
ENDBRANCH  13  16
ENDBRANCH  12  13
ENDBRANCH   1  12
BRANCH   1  22
HETATM   22  C14 UNL     1     -16.051  20.363 -47.717  1.00  0.00    -0.034 A 
HETATM   23  C15 UNL     1     -15.694  19.079 -48.054  1.00  0.00     0.009 A 
HETATM   24  C16 UNL     1     -14.391  18.877 -48.442  1.00  0.00     0.001 A 
HETATM   25  C17 UNL     1     -13.458  19.886 -48.503  1.00  0.00     0.000 A 
HETATM   26  C18 UNL     1     -13.832  21.161 -48.162  1.00  0.00     0.001 A 
HETATM   27  C19 UNL     1     -15.142  21.386 -47.768  1.00  0.00     0.009 A 
ENDBRANCH   1  22
TORSDOF 8
ENDMDL
MODEL 3
REMARK VINA RESULT: -7.536038140      2.863      7.911
REMARK  8 active torsions:
REMARK  status: ('A' for Active; 'I' for Inactive)
REMARK    1  A    between atoms: C5_7  and  N2_8 
REMARK    2  A    between atoms: N2_8  and  C6_10 
REMARK    3  A    between atoms: C6_10  and  C7_11 
REMARK    4  A    between atoms: C6_10  and  C14_21 
REMARK    5  A    between atoms: C7_11  and  N3_12 
REMARK    6  A    between atoms: N3_12  and  C8_15 
REMARK    7  A    between atoms: C8_15  and  C10_17 
REMARK    8  A    between atoms: C10_17  and  C11_18 
ROOT
HETATM    1  C6  UNL     1     -15.833  22.685 -48.562  1.00  0.00     0.142 C 
ENDROOT
BRANCH   1   2
HETATM    2  N2  UNL     1     -15.135  23.916 -48.410  1.00  0.00    -0.366 N 
ATOM      3  H2  UNL     1     -14.576  24.015 -47.562  1.00  0.00     0.161 HD
BRANCH   2   4
HETATM    4  C5  UNL     1     -15.127  25.017 -49.295  1.00  0.00     0.101 A 
HETATM    5  N1  UNL     1     -14.863  26.267 -48.925  1.00  0.00    -0.353 N 
HETATM    6  C4  UNL     1     -14.840  27.329 -49.737  1.00  0.00     0.090 A 
ATOM      7  H1  UNL     1     -14.661  26.429 -47.939  1.00  0.00     0.166 HD
HETATM    8  C3  UNL     1     -15.104  27.168 -51.071  1.00  0.00     0.024 A 
HETATM    9  C2  UNL     1     -15.385  25.910 -51.529  1.00  0.00    -0.057 A 
HETATM   10  C1  UNL     1     -15.672  25.689 -52.981  1.00  0.00     0.048 C 
HETATM   11  C20 UNL     1     -15.399  24.842 -50.661  1.00  0.00     0.054 A 
ENDBRANCH   2   4
ENDBRANCH   1   2
BRANCH   1  12
HETATM   12  C7  UNL     1     -16.914  22.385 -47.590  1.00  0.00     0.262 C 
BRANCH  12  13
HETATM   13  N3  UNL     1     -18.183  22.020 -48.157  1.00  0.00    -0.069 N 
ATOM     14  H32 UNL     1     -18.971  22.551 -47.789  1.00  0.00     0.277 HD
ATOM     15  H31 UNL     1     -18.300  22.301 -49.130  1.00  0.00     0.277 HD
BRANCH  13  16
HETATM   16  C8  UNL     1     -18.283  20.545 -47.932  1.00  0.00     0.182 C 
HETATM   17  C9  UNL     1     -19.762  20.242 -47.884  1.00  0.00     0.040 C 
BRANCH  16  18
HETATM   18  C10 UNL     1     -17.722  20.201 -46.576  1.00  0.00     0.037 C 
BRANCH  18  19
HETATM   19  C11 UNL     1     -17.412  18.754 -46.374  1.00  0.00    -0.013 A 
HETATM   20  C12 UNL     1     -16.469  18.063 -47.327  1.00  0.00     0.005 A 
HETATM   21  C13 UNL     1     -15.969  18.462 -45.979  1.00  0.00     0.005 A 
ENDBRANCH  18  19
ENDBRANCH  16  18
ENDBRANCH  13  16
ENDBRANCH  12  13
ENDBRANCH   1  12
BRANCH   1  22
HETATM   22  C14 UNL     1     -14.874  21.543 -48.503  1.00  0.00    -0.034 A 
HETATM   23  C15 UNL     1     -14.028  21.420 -47.427  1.00  0.00     0.009 A 
HETATM   24  C16 UNL     1     -13.160  20.354 -47.437  1.00  0.00     0.001 A 
HETATM   25  C17 UNL     1     -13.108  19.434 -48.458  1.00  0.00     0.000 A 
HETATM   26  C18 UNL     1     -13.960  19.573 -49.525  1.00  0.00     0.001 A 
HETATM   27  C19 UNL     1     -14.844  20.642 -49.533  1.00  0.00     0.009 A 
ENDBRANCH   1  22
TORSDOF 8
ENDMDL
MODEL 4
REMARK VINA RESULT: -7.509367421      1.334      5.873
REMARK  8 active torsions:
REMARK  status: ('A' for Active; 'I' for Inactive)
REMARK    1  A    between atoms: C5_7  and  N2_8 
REMARK    2  A    between atoms: N2_8  and  C6_10 
REMARK    3  A    between atoms: C6_10  and  C7_11 
REMARK    4  A    between atoms: C6_10  and  C14_21 
REMARK    5  A    between atoms: C7_11  and  N3_12 
REMARK    6  A    between atoms: N3_12  and  C8_15 
REMARK    7  A    between atoms: C8_15  and  C10_17 
REMARK    8  A    between atoms: C10_17  and  C11_18 
ROOT
HETATM    1  C6  UNL     1     -17.680  18.377 -46.261  1.00  0.00     0.142 C 
ENDROOT
BRANCH   1   2
HETATM    2  N2  UNL     1     -17.035  19.645 -46.220  1.00  0.00    -0.366 N 
ATOM      3  H2  UNL     1     -17.472  20.353 -45.630  1.00  0.00     0.161 HD
BRANCH   2   4
HETATM    4  C5  UNL     1     -15.860  20.037 -46.900  1.00  0.00     0.101 A 
HETATM    5  N1  UNL     1     -14.716  19.358 -46.860  1.00  0.00    -0.353 N 
HETATM    6  C4  UNL     1     -13.591  19.696 -47.497  1.00  0.00     0.090 A 
ATOM      7  H1  UNL     1     -14.697  18.509 -46.296  1.00  0.00     0.166 HD
HETATM    8  C3  UNL     1     -13.561  20.828 -48.267  1.00  0.00     0.024 A 
HETATM    9  C2  UNL     1     -14.701  21.579 -48.358  1.00  0.00    -0.057 A 
HETATM   10  C1  UNL     1     -14.714  22.820 -49.196  1.00  0.00     0.048 C 
HETATM   11  C20 UNL     1     -15.840  21.198 -47.688  1.00  0.00     0.054 A 
ENDBRANCH   2   4
ENDBRANCH   1   2
BRANCH   1  12
HETATM   12  C7  UNL     1     -18.676  18.149 -47.338  1.00  0.00     0.262 C 
BRANCH  12  13
HETATM   13  N3  UNL     1     -18.954  19.277 -48.183  1.00  0.00    -0.069 N 
ATOM     14  H32 UNL     1     -18.194  19.955 -48.236  1.00  0.00     0.277 HD
ATOM     15  H31 UNL     1     -18.978  19.056 -49.178  1.00  0.00     0.277 HD
BRANCH  13  16
HETATM   16  C8  UNL     1     -20.235  19.836 -47.652  1.00  0.00     0.182 C 
HETATM   17  C9  UNL     1     -21.332  19.098 -48.380  1.00  0.00     0.040 C 
BRANCH  16  18
HETATM   18  C10 UNL     1     -20.353  21.288 -48.040  1.00  0.00     0.037 C 
BRANCH  18  19
HETATM   19  C11 UNL     1     -19.090  22.075 -47.913  1.00  0.00    -0.013 A 
HETATM   20  C12 UNL     1     -18.776  23.135 -48.939  1.00  0.00     0.005 A 
HETATM   21  C13 UNL     1     -19.291  23.553 -47.602  1.00  0.00     0.005 A 
ENDBRANCH  18  19
ENDBRANCH  16  18
ENDBRANCH  13  16
ENDBRANCH  12  13
ENDBRANCH   1  12
BRANCH   1  22
HETATM   22  C14 UNL     1     -18.378  18.115 -44.969  1.00  0.00    -0.034 A 
HETATM   23  C15 UNL     1     -17.841  18.592 -43.797  1.00  0.00     0.009 A 
HETATM   24  C16 UNL     1     -18.524  18.307 -42.638  1.00  0.00     0.001 A 
HETATM   25  C17 UNL     1     -19.692  17.582 -42.611  1.00  0.00     0.000 A 
HETATM   26  C18 UNL     1     -20.214  17.113 -43.791  1.00  0.00     0.001 A 
HETATM   27  C19 UNL     1     -19.539  17.391 -44.971  1.00  0.00     0.009 A 
ENDBRANCH   1  22
TORSDOF 8
ENDMDL
MODEL 5
REMARK VINA RESULT: -7.509076240      3.059      5.877
REMARK  8 active torsions:
REMARK  status: ('A' for Active; 'I' for Inactive)
REMARK    1  A    between atoms: C5_7  and  N2_8 
REMARK    2  A    between atoms: N2_8  and  C6_10 
REMARK    3  A    between atoms: C6_10  and  C7_11 
REMARK    4  A    between atoms: C6_10  and  C14_21 
REMARK    5  A    between atoms: C7_11  and  N3_12 
REMARK    6  A    between atoms: N3_12  and  C8_15 
REMARK    7  A    between atoms: C8_15  and  C10_17 
REMARK    8  A    between atoms: C10_17  and  C11_18 
ROOT
HETATM    1  C6  UNL     1     -18.155  22.140 -47.666  1.00  0.00     0.142 C 
ENDROOT
BRANCH   1   2
HETATM    2  N2  UNL     1     -19.306  22.815 -48.160  1.00  0.00    -0.366 N 
ATOM      3  H2  UNL     1     -19.890  22.293 -48.813  1.00  0.00     0.161 HD
BRANCH   2   4
HETATM    4  C5  UNL     1     -19.735  24.126 -47.851  1.00  0.00     0.101 A 
HETATM    5  N1  UNL     1     -18.910  25.152 -47.658  1.00  0.00    -0.353 N 
HETATM    6  C4  UNL     1     -19.282  26.404 -47.373  1.00  0.00     0.090 A 
ATOM      7  H1  UNL     1     -17.910  24.968 -47.734  1.00  0.00     0.166 HD
HETATM    8  C3  UNL     1     -20.612  26.707 -47.258  1.00  0.00     0.024 A 
HETATM    9  C2  UNL     1     -21.523  25.703 -47.444  1.00  0.00    -0.057 A 
HETATM   10  C1  UNL     1     -22.988  25.993 -47.335  1.00  0.00     0.048 C 
HETATM   11  C20 UNL     1     -21.101  24.427 -47.737  1.00  0.00     0.054 A 
ENDBRANCH   2   4
ENDBRANCH   1   2
BRANCH   1  12
HETATM   12  C7  UNL     1     -16.896  22.276 -48.442  1.00  0.00     0.262 C 
BRANCH  12  13
HETATM   13  N3  UNL     1     -15.963  23.254 -47.955  1.00  0.00    -0.069 N 
ATOM     14  H32 UNL     1     -16.262  24.219 -48.092  1.00  0.00     0.277 HD
ATOM     15  H31 UNL     1     -15.899  23.298 -46.938  1.00  0.00     0.277 HD
BRANCH  13  16
HETATM   16  C8  UNL     1     -14.675  22.911 -48.631  1.00  0.00     0.182 C 
HETATM   17  C9  UNL     1     -14.605  23.807 -49.846  1.00  0.00     0.040 C 
BRANCH  16  18
HETATM   18  C10 UNL     1     -14.731  21.493 -49.138  1.00  0.00     0.037 C 
BRANCH  18  19
HETATM   19  C11 UNL     1     -13.565  20.643 -48.752  1.00  0.00    -0.013 A 
HETATM   20  C12 UNL     1     -13.582  19.925 -47.426  1.00  0.00     0.005 A 
HETATM   21  C13 UNL     1     -13.865  19.151 -48.670  1.00  0.00     0.005 A 
ENDBRANCH  18  19
ENDBRANCH  16  18
ENDBRANCH  13  16
ENDBRANCH  12  13
ENDBRANCH   1  12
BRANCH   1  22
HETATM   22  C14 UNL     1     -18.431  20.679 -47.548  1.00  0.00    -0.034 A 
HETATM   23  C15 UNL     1     -19.682  20.196 -47.849  1.00  0.00     0.009 A 
HETATM   24  C16 UNL     1     -19.877  18.842 -47.708  1.00  0.00     0.001 A 
HETATM   25  C17 UNL     1     -18.891  17.979 -47.288  1.00  0.00     0.000 A 
HETATM   26  C18 UNL     1     -17.648  18.479 -46.992  1.00  0.00     0.001 A 
HETATM   27  C19 UNL     1     -17.432  19.842 -47.128  1.00  0.00     0.009 A 
ENDBRANCH   1  22
TORSDOF 8
ENDMDL
