MODEL 1
REMARK VINA RESULT: -8.914552693      0.000      0.000
REMARK  11 active torsions:
REMARK  status: ('A' for Active; 'I' for Inactive)
REMARK    1  A    between atoms: C5_5  and  O1_6 
REMARK    2  A    between atoms: C11_13  and  N1_14 
REMARK    3  A    between atoms: N1_14  and  C12_17 
REMARK    4  A    between atoms: C12_17  and  C13_18 
REMARK    5  A    between atoms: C13_18  and  C14_19 
REMARK    6  A    between atoms: C14_19  and  C15_20 
REMARK    7  A    between atoms: C15_20  and  C16_21 
REMARK    8  A    between atoms: C16_21  and  C17_22 
REMARK    9  A    between atoms: C17_22  and  C18_23 
REMARK   10  A    between atoms: C18_23  and  C19_24 
REMARK   11  A    between atoms: C19_24  and  N2_25 
ROOT
HETATM    1  C12 UNL     1     -16.793  17.924 -11.055  1.00  0.00     0.232 C 
ENDROOT
BRANCH   1   2
HETATM    2  N1  UNL     1     -17.815  18.835 -10.664  1.00  0.00    -0.070 N 
ATOM      3  H12 UNL     1     -18.291  18.503  -9.825  1.00  0.00     0.277 HD
ATOM      4  H11 UNL     1     -18.593  18.808 -11.323  1.00  0.00     0.277 HD
BRANCH   2   5
HETATM    5  C11 UNL     1     -17.355  20.163 -10.487  1.00  0.00     0.194 C 
HETATM    6  C2  UNL     1     -18.337  20.940  -9.665  1.00  0.00     0.046 C 
HETATM    7  C1  UNL     1     -18.857  20.081  -8.517  1.00  0.00     0.017 C 
HETATM    8  C3  UNL     1     -17.708  22.145  -9.082  1.00  0.00    -0.043 A 
HETATM    9  C4  UNL     1     -18.498  22.992  -8.305  1.00  0.00     0.044 A 
HETATM   10  C8  UNL     1     -16.400  22.509  -9.238  1.00  0.00    -0.051 A 
HETATM   11  C5  UNL     1     -18.000  24.142  -7.717  1.00  0.00     0.066 A 
HETATM   12  C6  UNL     1     -16.677  24.487  -7.890  1.00  0.00     0.037 A 
HETATM   13  C7  UNL     1     -15.875  23.643  -8.668  1.00  0.00     0.010 A 
HETATM   14  C9  UNL     1     -15.462  21.648 -10.053  1.00  0.00     0.041 C 
HETATM   15  C10 UNL     1     -15.985  20.217  -9.828  1.00  0.00     0.038 C 
BRANCH  11  16
HETATM   16  O1  UNL     1     -18.787  24.978  -6.948  1.00  0.00    -0.361 OA
ATOM     17  H1  UNL     1     -18.551  25.223  -6.061  1.00  0.00     0.217 HD
ENDBRANCH  11  16
ENDBRANCH   2   5
ENDBRANCH   1   2
BRANCH   1  18
HETATM   18  C13 UNL     1     -16.760  17.869 -12.591  1.00  0.00     0.027 C 
BRANCH  18  19
HETATM   19  C14 UNL     1     -15.353  18.167 -12.984  1.00  0.00     0.002 C 
BRANCH  19  20
HETATM   20  C15 UNL     1     -14.312  17.670 -12.001  1.00  0.00     0.000 C 
BRANCH  20  21
HETATM   21  C16 UNL     1     -13.234  16.885 -12.664  1.00  0.00     0.000 C 
BRANCH  21  22
HETATM   22  C17 UNL     1     -13.102  17.279 -14.103  1.00  0.00     0.002 C 
BRANCH  22  23
HETATM   23  C18 UNL     1     -13.085  16.053 -14.982  1.00  0.00     0.030 C 
BRANCH  23  24
HETATM   24  C19 UNL     1     -12.463  14.931 -14.180  1.00  0.00     0.273 C 
BRANCH  24  25
HETATM   25  N2  UNL     1     -11.125  14.624 -14.582  1.00  0.00     0.093 N 
HETATM   26  C20 UNL     1     -10.860  14.767 -15.966  1.00  0.00     0.273 C 
HETATM   27  C21 UNL     1      -9.353  14.732 -16.044  1.00  0.00     0.037 C 
HETATM   28  C22 UNL     1      -8.914  15.230 -14.715  1.00  0.00     0.021 C 
HETATM   29  C23 UNL     1      -7.767  14.421 -14.133  1.00  0.00     0.007 C 
HETATM   30  C27 UNL     1     -10.104  15.249 -13.803  1.00  0.00     0.227 C 
HETATM   31  C24 UNL     1      -7.462  15.038 -12.777  1.00  0.00     0.001 C 
HETATM   32  C25 UNL     1      -8.601  14.744 -11.860  1.00  0.00     0.002 C 
HETATM   33  C26 UNL     1      -9.900  14.445 -12.544  1.00  0.00     0.036 C 
ENDBRANCH  24  25
ENDBRANCH  23  24
ENDBRANCH  22  23
ENDBRANCH  21  22
ENDBRANCH  20  21
ENDBRANCH  19  20
ENDBRANCH  18  19
ENDBRANCH   1  18
TORSDOF 11
ENDMDL
MODEL 2
REMARK VINA RESULT: -8.733284673      2.404      3.303
REMARK  11 active torsions:
REMARK  status: ('A' for Active; 'I' for Inactive)
REMARK    1  A    between atoms: C5_5  and  O1_6 
REMARK    2  A    between atoms: C11_13  and  N1_14 
REMARK    3  A    between atoms: N1_14  and  C12_17 
REMARK    4  A    between atoms: C12_17  and  C13_18 
REMARK    5  A    between atoms: C13_18  and  C14_19 
REMARK    6  A    between atoms: C14_19  and  C15_20 
REMARK    7  A    between atoms: C15_20  and  C16_21 
REMARK    8  A    between atoms: C16_21  and  C17_22 
REMARK    9  A    between atoms: C17_22  and  C18_23 
REMARK   10  A    between atoms: C18_23  and  C19_24 
REMARK   11  A    between atoms: C19_24  and  N2_25 
ROOT
HETATM    1  C12 UNL     1     -17.566  18.322 -11.276  1.00  0.00     0.232 C 
ENDROOT
BRANCH   1   2
HETATM    2  N1  UNL     1     -16.743  18.135 -10.130  1.00  0.00    -0.070 N 
ATOM      3  H12 UNL     1     -16.085  17.370 -10.280  1.00  0.00     0.277 HD
ATOM      4  H11 UNL     1     -17.283  17.747  -9.357  1.00  0.00     0.277 HD
BRANCH   2   5
HETATM    5  C11 UNL     1     -16.060  19.309  -9.724  1.00  0.00     0.194 C 
HETATM    6  C2  UNL     1     -14.590  19.037  -9.621  1.00  0.00     0.046 C 
HETATM    7  C1  UNL     1     -14.132  18.173 -10.791  1.00  0.00     0.017 C 
HETATM    8  C3  UNL     1     -13.813  20.294  -9.653  1.00  0.00    -0.043 A 
HETATM    9  C4  UNL     1     -12.424  20.215  -9.544  1.00  0.00     0.044 A 
HETATM   10  C8  UNL     1     -14.341  21.548  -9.784  1.00  0.00    -0.051 A 
HETATM   11  C5  UNL     1     -11.612  21.335  -9.564  1.00  0.00     0.066 A 
HETATM   12  C6  UNL     1     -12.169  22.589  -9.697  1.00  0.00     0.037 A 
HETATM   13  C7  UNL     1     -13.561  22.679  -9.808  1.00  0.00     0.010 A 
HETATM   14  C9  UNL     1     -15.834  21.734  -9.922  1.00  0.00     0.041 C 
HETATM   15  C10 UNL     1     -16.296  20.473 -10.673  1.00  0.00     0.038 C 
BRANCH  11  16
HETATM   16  O1  UNL     1     -10.236  21.252  -9.456  1.00  0.00    -0.361 OA
ATOM     17  H1  UNL     1      -9.676  21.099 -10.207  1.00  0.00     0.217 HD
ENDBRANCH  11  16
ENDBRANCH   2   5
ENDBRANCH   1   2
BRANCH   1  18
HETATM   18  C13 UNL     1     -17.277  17.183 -12.267  1.00  0.00     0.027 C 
BRANCH  18  19
HETATM   19  C14 UNL     1     -16.879  17.841 -13.544  1.00  0.00     0.002 C 
BRANCH  19  20
HETATM   20  C15 UNL     1     -15.712  17.180 -14.250  1.00  0.00     0.000 C 
BRANCH  20  21
HETATM   21  C16 UNL     1     -14.606  18.136 -14.536  1.00  0.00     0.000 C 
BRANCH  21  22
HETATM   22  C17 UNL     1     -13.403  17.413 -15.057  1.00  0.00     0.002 C 
BRANCH  22  23
HETATM   23  C18 UNL     1     -12.679  16.720 -13.929  1.00  0.00     0.030 C 
BRANCH  23  24
HETATM   24  C19 UNL     1     -12.622  15.247 -14.267  1.00  0.00     0.273 C 
BRANCH  24  25
HETATM   25  N2  UNL     1     -11.315  14.801 -14.637  1.00  0.00     0.093 N 
HETATM   26  C20 UNL     1     -11.017  14.877 -16.019  1.00  0.00     0.273 C 
HETATM   27  C21 UNL     1      -9.519  14.697 -16.070  1.00  0.00     0.037 C 
HETATM   28  C22 UNL     1      -9.054  15.189 -14.748  1.00  0.00     0.021 C 
HETATM   29  C23 UNL     1      -7.999  14.293 -14.122  1.00  0.00     0.007 C 
HETATM   30  C27 UNL     1     -10.250  15.349 -13.858  1.00  0.00     0.227 C 
HETATM   31  C24 UNL     1      -7.657  14.917 -12.780  1.00  0.00     0.001 C 
HETATM   32  C25 UNL     1      -8.832  14.761 -11.874  1.00  0.00     0.002 C 
HETATM   33  C26 UNL     1     -10.143  14.568 -12.573  1.00  0.00     0.036 C 
ENDBRANCH  24  25
ENDBRANCH  23  24
ENDBRANCH  22  23
ENDBRANCH  21  22
ENDBRANCH  20  21
ENDBRANCH  19  20
ENDBRANCH  18  19
ENDBRANCH   1  18
TORSDOF 11
ENDMDL
MODEL 3
REMARK VINA RESULT: -8.652233362      1.235      1.726
REMARK  11 active torsions:
REMARK  status: ('A' for Active; 'I' for Inactive)
REMARK    1  A    between atoms: C5_5  and  O1_6 
REMARK    2  A    between atoms: C11_13  and  N1_14 
REMARK    3  A    between atoms: N1_14  and  C12_17 
REMARK    4  A    between atoms: C12_17  and  C13_18 
REMARK    5  A    between atoms: C13_18  and  C14_19 
REMARK    6  A    between atoms: C14_19  and  C15_20 
REMARK    7  A    between atoms: C15_20  and  C16_21 
REMARK    8  A    between atoms: C16_21  and  C17_22 
REMARK    9  A    between atoms: C17_22  and  C18_23 
REMARK   10  A    between atoms: C18_23  and  C19_24 
REMARK   11  A    between atoms: C19_24  and  N2_25 
ROOT
HETATM    1  C12 UNL     1     -17.531  17.535 -11.981  1.00  0.00     0.232 C 
ENDROOT
BRANCH   1   2
HETATM    2  N1  UNL     1     -17.161  17.919 -10.661  1.00  0.00    -0.070 N 
ATOM      3  H12 UNL     1     -16.808  17.118 -10.138  1.00  0.00     0.277 HD
ATOM      4  H11 UNL     1     -17.988  18.135 -10.104  1.00  0.00     0.277 HD
BRANCH   2   5
HETATM    5  C11 UNL     1     -16.236  18.992 -10.620  1.00  0.00     0.194 C 
HETATM    6  C2  UNL     1     -16.950  20.273 -10.312  1.00  0.00     0.046 C 
HETATM    7  C1  UNL     1     -18.001  20.042  -9.232  1.00  0.00     0.017 C 
HETATM    8  C3  UNL     1     -16.009  21.301  -9.818  1.00  0.00    -0.043 A 
HETATM    9  C4  UNL     1     -16.514  22.564  -9.506  1.00  0.00     0.044 A 
HETATM   10  C8  UNL     1     -14.667  21.122  -9.634  1.00  0.00    -0.051 A 
HETATM   11  C5  UNL     1     -15.713  23.589  -9.036  1.00  0.00     0.066 A 
HETATM   12  C6  UNL     1     -14.361  23.384  -8.859  1.00  0.00     0.037 A 
HETATM   13  C7  UNL     1     -13.845  22.120  -9.169  1.00  0.00     0.010 A 
HETATM   14  C9  UNL     1     -14.029  19.784  -9.932  1.00  0.00     0.041 C 
HETATM   15  C10 UNL     1     -15.134  18.766  -9.598  1.00  0.00     0.038 C 
BRANCH  11  16
HETATM   16  O1  UNL     1     -16.218  24.839  -8.728  1.00  0.00    -0.361 OA
ATOM     17  H1  UNL     1     -16.775  24.990  -7.973  1.00  0.00     0.217 HD
ENDBRANCH  11  16
ENDBRANCH   2   5
ENDBRANCH   1   2
BRANCH   1  18
HETATM   18  C13 UNL     1     -16.405  17.959 -12.938  1.00  0.00     0.027 C 
BRANCH  18  19
HETATM   19  C14 UNL     1     -16.559  17.112 -14.154  1.00  0.00     0.002 C 
BRANCH  19  20
HETATM   20  C15 UNL     1     -15.451  17.277 -15.176  1.00  0.00     0.000 C 
BRANCH  20  21
HETATM   21  C16 UNL     1     -14.329  18.113 -14.667  1.00  0.00     0.000 C 
BRANCH  21  22
HETATM   22  C17 UNL     1     -13.014  17.441 -14.914  1.00  0.00     0.002 C 
BRANCH  22  23
HETATM   23  C18 UNL     1     -12.673  16.520 -13.769  1.00  0.00     0.030 C 
BRANCH  23  24
HETATM   24  C19 UNL     1     -12.600  15.116 -14.326  1.00  0.00     0.273 C 
BRANCH  24  25
HETATM   25  N2  UNL     1     -11.274  14.717 -14.684  1.00  0.00     0.093 N 
HETATM   26  C20 UNL     1     -10.959  14.828 -16.060  1.00  0.00     0.273 C 
HETATM   27  C21 UNL     1      -9.456  14.695 -16.092  1.00  0.00     0.037 C 
HETATM   28  C22 UNL     1      -9.024  15.177 -14.754  1.00  0.00     0.021 C 
HETATM   29  C23 UNL     1      -7.951  14.302 -14.130  1.00  0.00     0.007 C 
HETATM   30  C27 UNL     1     -10.238  15.283 -13.879  1.00  0.00     0.227 C 
HETATM   31  C24 UNL     1      -7.648  14.912 -12.771  1.00  0.00     0.001 C 
HETATM   32  C25 UNL     1      -8.830  14.702 -11.886  1.00  0.00     0.002 C 
HETATM   33  C26 UNL     1     -10.125  14.482 -12.608  1.00  0.00     0.036 C 
ENDBRANCH  24  25
ENDBRANCH  23  24
ENDBRANCH  22  23
ENDBRANCH  21  22
ENDBRANCH  20  21
ENDBRANCH  19  20
ENDBRANCH  18  19
ENDBRANCH   1  18
TORSDOF 11
ENDMDL
MODEL 4
REMARK VINA RESULT: -8.613323305      3.528      9.828
REMARK  11 active torsions:
REMARK  status: ('A' for Active; 'I' for Inactive)
REMARK    1  A    between atoms: C5_5  and  O1_6 
REMARK    2  A    between atoms: C11_13  and  N1_14 
REMARK    3  A    between atoms: N1_14  and  C12_17 
REMARK    4  A    between atoms: C12_17  and  C13_18 
REMARK    5  A    between atoms: C13_18  and  C14_19 
REMARK    6  A    between atoms: C14_19  and  C15_20 
REMARK    7  A    between atoms: C15_20  and  C16_21 
REMARK    8  A    between atoms: C16_21  and  C17_22 
REMARK    9  A    between atoms: C17_22  and  C18_23 
REMARK   10  A    between atoms: C18_23  and  C19_24 
REMARK   11  A    between atoms: C19_24  and  N2_25 
ROOT
HETATM    1  C12 UNL     1     -16.113  18.664 -12.639  1.00  0.00     0.232 C 
ENDROOT
BRANCH   1   2
HETATM    2  N1  UNL     1     -15.788  17.791 -13.716  1.00  0.00    -0.070 N 
ATOM      3  H12 UNL     1     -15.603  18.323 -14.567  1.00  0.00     0.277 HD
ATOM      4  H11 UNL     1     -16.610  17.269 -14.018  1.00  0.00     0.277 HD
BRANCH   2   5
HETATM    5  C11 UNL     1     -14.714  16.912 -13.431  1.00  0.00     0.194 C 
HETATM    6  C2  UNL     1     -14.063  16.467 -14.705  1.00  0.00     0.046 C 
HETATM    7  C1  UNL     1     -13.942  17.641 -15.671  1.00  0.00     0.017 C 
HETATM    8  C3  UNL     1     -12.704  15.943 -14.454  1.00  0.00    -0.043 A 
HETATM    9  C4  UNL     1     -11.969  15.464 -15.540  1.00  0.00     0.044 A 
HETATM   10  C8  UNL     1     -12.091  15.885 -13.234  1.00  0.00    -0.051 A 
HETATM   11  C5  UNL     1     -10.690  14.955 -15.405  1.00  0.00     0.066 A 
HETATM   12  C6  UNL     1     -10.093  14.907 -14.163  1.00  0.00     0.037 A 
HETATM   13  C7  UNL     1     -10.822  15.385 -13.068  1.00  0.00     0.010 A 
HETATM   14  C9  UNL     1     -12.802  16.392 -12.000  1.00  0.00     0.041 C 
HETATM   15  C10 UNL     1     -13.672  17.548 -12.524  1.00  0.00     0.038 C 
BRANCH  11  16
HETATM   16  O1  UNL     1      -9.966  14.482 -16.484  1.00  0.00    -0.361 OA
ATOM     17  H1  UNL     1      -9.219  14.950 -16.838  1.00  0.00     0.217 HD
ENDBRANCH  11  16
ENDBRANCH   2   5
ENDBRANCH   1   2
BRANCH   1  18
HETATM   18  C13 UNL     1     -17.250  18.023 -11.828  1.00  0.00     0.027 C 
BRANCH  18  19
HETATM   19  C14 UNL     1     -16.727  17.867 -10.441  1.00  0.00     0.002 C 
BRANCH  19  20
HETATM   20  C15 UNL     1     -17.678  18.337  -9.357  1.00  0.00     0.000 C 
BRANCH  20  21
HETATM   21  C16 UNL     1     -18.805  19.143  -9.902  1.00  0.00     0.000 C 
BRANCH  21  22
HETATM   22  C17 UNL     1     -19.589  19.774  -8.793  1.00  0.00     0.002 C 
BRANCH  22  23
HETATM   23  C18 UNL     1     -18.865  20.988  -8.266  1.00  0.00     0.030 C 
BRANCH  23  24
HETATM   24  C19 UNL     1     -18.823  22.009  -9.381  1.00  0.00     0.273 C 
BRANCH  24  25
HETATM   25  N2  UNL     1     -17.652  22.829  -9.354  1.00  0.00     0.093 N 
HETATM   26  C20 UNL     1     -17.789  24.057  -8.660  1.00  0.00     0.273 C 
HETATM   27  C21 UNL     1     -16.365  24.527  -8.487  1.00  0.00     0.037 C 
HETATM   28  C22 UNL     1     -15.570  23.272  -8.491  1.00  0.00     0.021 C 
HETATM   29  C23 UNL     1     -14.303  23.379  -9.323  1.00  0.00     0.007 C 
HETATM   30  C27 UNL     1     -16.454  22.157  -8.963  1.00  0.00     0.227 C 
HETATM   31  C24 UNL     1     -13.630  22.019  -9.244  1.00  0.00     0.001 C 
HETATM   32  C25 UNL     1     -14.463  21.037  -9.998  1.00  0.00     0.002 C 
HETATM   33  C26 UNL     1     -15.902  21.425 -10.159  1.00  0.00     0.036 C 
ENDBRANCH  24  25
ENDBRANCH  23  24
ENDBRANCH  22  23
ENDBRANCH  21  22
ENDBRANCH  20  21
ENDBRANCH  19  20
ENDBRANCH  18  19
ENDBRANCH   1  18
TORSDOF 11
ENDMDL
MODEL 5
REMARK VINA RESULT: -8.517992304      0.997      1.824
REMARK  11 active torsions:
REMARK  status: ('A' for Active; 'I' for Inactive)
REMARK    1  A    between atoms: C5_5  and  O1_6 
REMARK    2  A    between atoms: C11_13  and  N1_14 
REMARK    3  A    between atoms: N1_14  and  C12_17 
REMARK    4  A    between atoms: C12_17  and  C13_18 
REMARK    5  A    between atoms: C13_18  and  C14_19 
REMARK    6  A    between atoms: C14_19  and  C15_20 
REMARK    7  A    between atoms: C15_20  and  C16_21 
REMARK    8  A    between atoms: C16_21  and  C17_22 
REMARK    9  A    between atoms: C17_22  and  C18_23 
REMARK   10  A    between atoms: C18_23  and  C19_24 
REMARK   11  A    between atoms: C19_24  and  N2_25 
ROOT
HETATM    1  C12 UNL     1     -17.530  17.620 -11.193  1.00  0.00     0.232 C 
ENDROOT
BRANCH   1   2
HETATM    2  N1  UNL     1     -16.518  18.416 -10.585  1.00  0.00    -0.070 N 
ATOM      3  H12 UNL     1     -15.928  18.851 -11.295  1.00  0.00     0.277 HD
ATOM      4  H11 UNL     1     -15.824  17.828 -10.125  1.00  0.00     0.277 HD
BRANCH   2   5
HETATM    5  C11 UNL     1     -17.023  19.390  -9.688  1.00  0.00     0.194 C 
HETATM    6  C2  UNL     1     -16.157  20.613  -9.718  1.00  0.00     0.046 C 
HETATM    7  C1  UNL     1     -15.753  20.935 -11.153  1.00  0.00     0.017 C 
HETATM    8  C3  UNL     1     -16.873  21.785  -9.173  1.00  0.00    -0.043 A 
HETATM    9  C4  UNL     1     -16.195  23.003  -9.109  1.00  0.00     0.044 A 
HETATM   10  C8  UNL     1     -18.163  21.785  -8.720  1.00  0.00    -0.051 A 
HETATM   11  C5  UNL     1     -16.781  24.155  -8.617  1.00  0.00     0.066 A 
HETATM   12  C6  UNL     1     -18.083  24.129  -8.165  1.00  0.00     0.037 A 
HETATM   13  C7  UNL     1     -18.773  22.912  -8.225  1.00  0.00     0.010 A 
HETATM   14  C9  UNL     1     -18.984  20.517  -8.760  1.00  0.00     0.041 C 
HETATM   15  C10 UNL     1     -18.459  19.777 -10.004  1.00  0.00     0.038 C 
BRANCH  11  16
HETATM   16  O1  UNL     1     -16.105  25.360  -8.556  1.00  0.00    -0.361 OA
ATOM     17  H1  UNL     1     -15.156  25.409  -8.540  1.00  0.00     0.217 HD
ENDBRANCH  11  16
ENDBRANCH   2   5
ENDBRANCH   1   2
BRANCH   1  18
HETATM   18  C13 UNL     1     -17.256  17.565 -12.704  1.00  0.00     0.027 C 
BRANCH  18  19
HETATM   19  C14 UNL     1     -15.808  17.879 -12.871  1.00  0.00     0.002 C 
BRANCH  19  20
HETATM   20  C15 UNL     1     -15.467  18.586 -14.168  1.00  0.00     0.000 C 
BRANCH  20  21
HETATM   21  C16 UNL     1     -14.273  17.999 -14.837  1.00  0.00     0.000 C 
BRANCH  21  22
HETATM   22  C17 UNL     1     -14.035  16.599 -14.362  1.00  0.00     0.002 C 
BRANCH  22  23
HETATM   23  C18 UNL     1     -12.556  16.334 -14.231  1.00  0.00     0.030 C 
BRANCH  23  24
HETATM   24  C19 UNL     1     -12.311  14.910 -14.677  1.00  0.00     0.273 C 
BRANCH  24  25
HETATM   25  N2  UNL     1     -10.929  14.616 -14.899  1.00  0.00     0.093 N 
HETATM   26  C20 UNL     1     -10.478  14.794 -16.230  1.00  0.00     0.273 C 
HETATM   27  C21 UNL     1      -8.974  14.766 -16.101  1.00  0.00     0.037 C 
HETATM   28  C22 UNL     1      -8.724  15.233 -14.713  1.00  0.00     0.021 C 
HETATM   29  C23 UNL     1      -7.663  14.414 -13.998  1.00  0.00     0.007 C 
HETATM   30  C27 UNL     1     -10.028  15.226 -13.973  1.00  0.00     0.227 C 
HETATM   31  C24 UNL     1      -7.551  14.998 -12.600  1.00  0.00     0.001 C 
HETATM   32  C25 UNL     1      -8.803  14.678 -11.854  1.00  0.00     0.002 C 
HETATM   33  C26 UNL     1      -9.994  14.393 -12.717  1.00  0.00     0.036 C 
ENDBRANCH  24  25
ENDBRANCH  23  24
ENDBRANCH  22  23
ENDBRANCH  21  22
ENDBRANCH  20  21
ENDBRANCH  19  20
ENDBRANCH  18  19
ENDBRANCH   1  18
TORSDOF 11
ENDMDL
