MODEL 1
REMARK VINA RESULT: -7.700270235      0.000      0.000
REMARK  13 active torsions:
REMARK  status: ('A' for Active; 'I' for Inactive)
REMARK    1  A    between atoms: C2_2  and  C3_3 
REMARK    2  A    between atoms: C3_3  and  C4_4 
REMARK    3  A    between atoms: C7_7  and  C9_9 
REMARK    4  A    between atoms: C9_9  and  O1_10 
REMARK    5  A    between atoms: C9_9  and  N1_12 
REMARK    6  A    between atoms: N1_12  and  C10_14 
REMARK    7  A    between atoms: C10_14  and  C11_15 
REMARK    8  A    between atoms: C10_14  and  C12_19 
REMARK    9  A    between atoms: C11_15  and  N2_16 
REMARK   10  A    between atoms: C12_19  and  C13_20 
REMARK   11  A    between atoms: C13_20  and  C14_21 
REMARK   12  A    between atoms: C14_21  and  C15_22 
REMARK   13  A    between atoms: C16_23  and  C17_24 
ROOT
HETATM    1  C10 UNL     1     -18.221  22.727  -8.996  1.00  0.00     0.172 C 
ENDROOT
BRANCH   1   2
HETATM    2  N1  UNL     1     -18.471  23.622  -7.808  1.00  0.00    -0.358 N 
ATOM      3  H1  UNL     1     -18.718  23.166  -6.929  1.00  0.00     0.162 HD
BRANCH   2   4
HETATM    4  C9  UNL     1     -18.397  25.005  -7.800  1.00  0.00     0.121 C 
BRANCH   4   5
HETATM    5  C7  UNL     1     -18.251  25.923  -6.651  1.00  0.00     0.029 A 
HETATM    6  C3  UNL     1     -16.978  26.246  -5.984  1.00  0.00    -0.025 A 
HETATM    7  C6  UNL     1     -17.944  25.235  -5.362  1.00  0.00     0.029 A 
HETATM    8  C8  UNL     1     -19.134  27.155  -6.798  1.00  0.00     0.025 C 
BRANCH   6   9
HETATM    9  C2  UNL     1     -16.915  27.483  -5.093  1.00  0.00     0.006 C 
HETATM   10  C1  UNL     1     -15.839  27.477  -4.077  1.00  0.00     0.006 C 
ENDBRANCH   6   9
BRANCH   6  11
HETATM   11  C4  UNL     1     -15.657  25.834  -6.529  1.00  0.00     0.006 C 
HETATM   12  C5  UNL     1     -15.196  26.747  -7.643  1.00  0.00     0.006 C 
ENDBRANCH   6  11
ENDBRANCH   4   5
BRANCH   4  13
HETATM   13  O1  UNL     1     -18.449  25.612  -8.951  1.00  0.00    -0.349 OA
ATOM     14  H1  UNL     1     -18.002  25.147  -9.648  1.00  0.00     0.219 HD
ENDBRANCH   4  13
ENDBRANCH   2   4
ENDBRANCH   1   2
BRANCH   1  15
HETATM   15  C11 UNL     1     -16.829  22.701  -9.373  1.00  0.00    -0.052 C 
BRANCH  15  16
HETATM   16  N2  UNL     1     -15.678  22.731  -9.709  1.00  0.00    -0.368 N 
ATOM     17  H22 UNL     1     -16.249  23.338 -10.296  1.00  0.00     0.165 HD
ATOM     18  H21 UNL     1     -14.689  22.725  -9.960  1.00  0.00     0.165 HD
ENDBRANCH  15  16
ENDBRANCH   1  15
BRANCH   1  19
HETATM   19  C12 UNL     1     -18.719  21.412  -8.602  1.00  0.00     0.039 C 
BRANCH  19  20
HETATM   20  C13 UNL     1     -19.727  20.572  -9.255  1.00  0.00     0.007 C 
BRANCH  20  21
HETATM   21  C14 UNL     1     -19.132  19.437 -10.082  1.00  0.00     0.027 C 
BRANCH  21  22
HETATM   22  C15 UNL     1     -17.754  19.056  -9.779  1.00  0.00    -0.029 C 
HETATM   23  C16 UNL     1     -16.861  18.149 -10.407  1.00  0.00    -0.016 C 
BRANCH  23  24
HETATM   24  C17 UNL     1     -16.252  18.289 -11.735  1.00  0.00     0.012 C 
HETATM   25  C18 UNL     1     -15.719  19.697 -11.969  1.00  0.00     0.026 C 
HETATM   26  C19 UNL     1     -14.869  17.490 -11.555  1.00  0.00     0.024 C 
HETATM   27  C20 UNL     1     -13.983  17.704 -12.726  1.00  0.00    -0.009 C 
HETATM   28  C21 UNL     1     -12.740  16.844 -12.464  1.00  0.00     0.011 C 
HETATM   29  C22 UNL     1     -14.576  17.327 -14.060  1.00  0.00    -0.040 C 
HETATM   30  C23 UNL     1     -14.395  15.840 -14.338  1.00  0.00     0.015 C 
HETATM   31  C24 UNL     1     -13.751  18.081 -15.119  1.00  0.00     0.015 C 
HETATM   32  C25 UNL     1     -15.985  17.734 -14.184  1.00  0.00     0.062 C 
HETATM   33  C26 UNL     1     -16.807  17.655 -12.914  1.00  0.00    -0.007 C 
HETATM   34  N3  UNL     1     -17.887  17.001 -13.035  1.00  0.00    -0.405 N 
ATOM     35  H32 UNL     1     -18.440  16.947 -12.180  1.00  0.00     0.155 HD
ATOM     36  H31 UNL     1     -18.277  16.555 -13.864  1.00  0.00     0.155 HD
ENDBRANCH  23  24
ENDBRANCH  21  22
ENDBRANCH  20  21
ENDBRANCH  19  20
ENDBRANCH   1  19
TORSDOF 13
ENDMDL
MODEL 2
REMARK VINA RESULT: -7.528368520      1.376      2.227
REMARK  13 active torsions:
REMARK  status: ('A' for Active; 'I' for Inactive)
REMARK    1  A    between atoms: C2_2  and  C3_3 
REMARK    2  A    between atoms: C3_3  and  C4_4 
REMARK    3  A    between atoms: C7_7  and  C9_9 
REMARK    4  A    between atoms: C9_9  and  O1_10 
REMARK    5  A    between atoms: C9_9  and  N1_12 
REMARK    6  A    between atoms: N1_12  and  C10_14 
REMARK    7  A    between atoms: C10_14  and  C11_15 
REMARK    8  A    between atoms: C10_14  and  C12_19 
REMARK    9  A    between atoms: C11_15  and  N2_16 
REMARK   10  A    between atoms: C12_19  and  C13_20 
REMARK   11  A    between atoms: C13_20  and  C14_21 
REMARK   12  A    between atoms: C14_21  and  C15_22 
REMARK   13  A    between atoms: C16_23  and  C17_24 
ROOT
HETATM    1  C10 UNL     1     -15.390  23.147  -9.339  1.00  0.00     0.172 C 
ENDROOT
BRANCH   1   2
HETATM    2  N1  UNL     1     -15.674  23.687  -7.959  1.00  0.00    -0.358 N 
ATOM      3  H1  UNL     1     -15.859  23.006  -7.224  1.00  0.00     0.162 HD
BRANCH   2   4
HETATM    4  C9  UNL     1     -15.706  25.024  -7.600  1.00  0.00     0.121 C 
BRANCH   4   5
HETATM    5  C7  UNL     1     -16.743  26.039  -7.881  1.00  0.00     0.029 A 
HETATM    6  C3  UNL     1     -17.896  26.333  -7.012  1.00  0.00    -0.025 A 
HETATM    7  C6  UNL     1     -18.067  25.463  -8.259  1.00  0.00     0.029 A 
HETATM    8  C8  UNL     1     -16.143  27.313  -8.462  1.00  0.00     0.025 C 
BRANCH   6   9
HETATM    9  C2  UNL     1     -18.648  27.644  -7.215  1.00  0.00     0.006 C 
HETATM   10  C1  UNL     1     -19.901  27.781  -6.439  1.00  0.00     0.006 C 
ENDBRANCH   6   9
BRANCH   6  11
HETATM   11  C4  UNL     1     -18.032  25.771  -5.641  1.00  0.00     0.006 C 
HETATM   12  C5  UNL     1     -17.163  26.501  -4.642  1.00  0.00     0.006 C 
ENDBRANCH   6  11
ENDBRANCH   4   5
BRANCH   4  13
HETATM   13  O1  UNL     1     -14.701  25.481  -6.909  1.00  0.00    -0.349 OA
ATOM     14  H1  UNL     1     -14.054  24.820  -6.693  1.00  0.00     0.219 HD
ENDBRANCH   4  13
ENDBRANCH   2   4
ENDBRANCH   1   2
BRANCH   1  15
HETATM   15  C11 UNL     1     -13.986  22.891  -9.543  1.00  0.00    -0.052 C 
BRANCH  15  16
HETATM   16  N2  UNL     1     -12.807  22.735  -9.709  1.00  0.00    -0.368 N 
ATOM     17  H22 UNL     1     -13.000  23.625  -9.251  1.00  0.00     0.165 HD
ATOM     18  H21 UNL     1     -11.815  22.559  -9.871  1.00  0.00     0.165 HD
ENDBRANCH  15  16
ENDBRANCH   1  15
BRANCH   1  19
HETATM   19  C12 UNL     1     -16.201  21.938  -9.455  1.00  0.00     0.039 C 
BRANCH  19  20
HETATM   20  C13 UNL     1     -17.655  21.787  -9.344  1.00  0.00     0.007 C 
BRANCH  20  21
HETATM   21  C14 UNL     1     -18.169  20.442  -9.847  1.00  0.00     0.027 C 
BRANCH  21  22
HETATM   22  C15 UNL     1     -17.251  19.309  -9.745  1.00  0.00    -0.029 C 
HETATM   23  C16 UNL     1     -16.971  18.234 -10.628  1.00  0.00    -0.016 C 
BRANCH  23  24
HETATM   24  C17 UNL     1     -16.306  18.317 -11.935  1.00  0.00     0.012 C 
HETATM   25  C18 UNL     1     -15.769  19.716 -12.211  1.00  0.00     0.026 C 
HETATM   26  C19 UNL     1     -14.929  17.535 -11.660  1.00  0.00     0.024 C 
HETATM   27  C20 UNL     1     -13.996  17.700 -12.802  1.00  0.00    -0.009 C 
HETATM   28  C21 UNL     1     -12.761  16.860 -12.449  1.00  0.00     0.011 C 
HETATM   29  C22 UNL     1     -14.530  17.260 -14.141  1.00  0.00    -0.040 C 
HETATM   30  C23 UNL     1     -14.332  15.762 -14.343  1.00  0.00     0.015 C 
HETATM   31  C24 UNL     1     -13.664  17.969 -15.198  1.00  0.00     0.015 C 
HETATM   32  C25 UNL     1     -15.934  17.652 -14.343  1.00  0.00     0.062 C 
HETATM   33  C26 UNL     1     -16.809  17.627 -13.106  1.00  0.00    -0.007 C 
HETATM   34  N3  UNL     1     -17.880  16.961 -13.241  1.00  0.00    -0.405 N 
ATOM     35  H32 UNL     1     -18.469  16.944 -12.409  1.00  0.00     0.155 HD
ATOM     36  H31 UNL     1     -18.233  16.475 -14.065  1.00  0.00     0.155 HD
ENDBRANCH  23  24
ENDBRANCH  21  22
ENDBRANCH  20  21
ENDBRANCH  19  20
ENDBRANCH   1  19
TORSDOF 13
ENDMDL
MODEL 3
REMARK VINA RESULT: -7.516810760      2.422      9.923
REMARK  13 active torsions:
REMARK  status: ('A' for Active; 'I' for Inactive)
REMARK    1  A    between atoms: C2_2  and  C3_3 
REMARK    2  A    between atoms: C3_3  and  C4_4 
REMARK    3  A    between atoms: C7_7  and  C9_9 
REMARK    4  A    between atoms: C9_9  and  O1_10 
REMARK    5  A    between atoms: C9_9  and  N1_12 
REMARK    6  A    between atoms: N1_12  and  C10_14 
REMARK    7  A    between atoms: C10_14  and  C11_15 
REMARK    8  A    between atoms: C10_14  and  C12_19 
REMARK    9  A    between atoms: C11_15  and  N2_16 
REMARK   10  A    between atoms: C12_19  and  C13_20 
REMARK   11  A    between atoms: C13_20  and  C14_21 
REMARK   12  A    between atoms: C14_21  and  C15_22 
REMARK   13  A    between atoms: C16_23  and  C17_24 
ROOT
HETATM    1  C10 UNL     1     -16.474  19.627 -11.571  1.00  0.00     0.172 C 
ENDROOT
BRANCH   1   2
HETATM    2  N1  UNL     1     -16.221  18.424 -12.445  1.00  0.00    -0.358 N 
ATOM      3  H1  UNL     1     -16.611  17.535 -12.133  1.00  0.00     0.162 HD
BRANCH   2   4
HETATM    4  C9  UNL     1     -15.507  18.416 -13.632  1.00  0.00     0.121 C 
BRANCH   4   5
HETATM    5  C7  UNL     1     -14.818  17.289 -14.296  1.00  0.00     0.029 A 
HETATM    6  C3  UNL     1     -13.464  16.811 -13.963  1.00  0.00    -0.025 A 
HETATM    7  C6  UNL     1     -13.693  17.706 -15.184  1.00  0.00     0.029 A 
HETATM    8  C8  UNL     1     -15.768  16.129 -14.569  1.00  0.00     0.025 C 
BRANCH   6   9
HETATM    9  C2  UNL     1     -13.043  15.424 -14.436  1.00  0.00     0.006 C 
HETATM   10  C1  UNL     1     -11.659  15.030 -14.088  1.00  0.00     0.006 C 
ENDBRANCH   6   9
BRANCH   6  11
HETATM   11  C4  UNL     1     -12.714  17.291 -12.771  1.00  0.00     0.006 C 
HETATM   12  C5  UNL     1     -13.391  16.891 -11.479  1.00  0.00     0.006 C 
ENDBRANCH   6  11
ENDBRANCH   4   5
BRANCH   4  13
HETATM   13  O1  UNL     1     -15.420  19.539 -14.285  1.00  0.00    -0.349 OA
ATOM     14  H1  UNL     1     -16.081  20.175 -14.039  1.00  0.00     0.219 HD
ENDBRANCH   4  13
ENDBRANCH   2   4
ENDBRANCH   1   2
BRANCH   1  15
HETATM   15  C11 UNL     1     -17.624  19.448 -10.720  1.00  0.00    -0.052 C 
BRANCH  15  16
HETATM   16  N2  UNL     1     -18.606  19.343 -10.038  1.00  0.00    -0.368 N 
ATOM     17  H22 UNL     1     -18.413  20.320 -10.258  1.00  0.00     0.165 HD
ATOM     18  H21 UNL     1     -19.434  19.206  -9.458  1.00  0.00     0.165 HD
ENDBRANCH  15  16
ENDBRANCH   1  15
BRANCH   1  19
HETATM   19  C12 UNL     1     -15.242  19.821 -10.813  1.00  0.00     0.039 C 
BRANCH  19  20
HETATM   20  C13 UNL     1     -15.007  20.652  -9.628  1.00  0.00     0.007 C 
BRANCH  20  21
HETATM   21  C14 UNL     1     -13.605  21.250  -9.571  1.00  0.00     0.027 C 
BRANCH  21  22
HETATM   22  C15 UNL     1     -13.508  22.706  -9.661  1.00  0.00    -0.029 C 
HETATM   23  C16 UNL     1     -14.492  23.727  -9.596  1.00  0.00    -0.016 C 
BRANCH  23  24
HETATM   24  C17 UNL     1     -15.282  24.116  -8.421  1.00  0.00     0.012 C 
HETATM   25  C18 UNL     1     -14.464  24.040  -7.137  1.00  0.00     0.026 C 
HETATM   26  C19 UNL     1     -15.380  25.711  -8.598  1.00  0.00     0.024 C 
HETATM   27  C20 UNL     1     -15.952  26.338  -7.381  1.00  0.00    -0.009 C 
HETATM   28  C21 UNL     1     -16.056  27.835  -7.700  1.00  0.00     0.011 C 
HETATM   29  C22 UNL     1     -17.307  25.824  -6.966  1.00  0.00    -0.040 C 
HETATM   30  C23 UNL     1     -18.419  26.542  -7.720  1.00  0.00     0.015 C 
HETATM   31  C24 UNL     1     -17.465  26.197  -5.480  1.00  0.00     0.015 C 
HETATM   32  C25 UNL     1     -17.418  24.363  -7.098  1.00  0.00     0.062 C 
HETATM   33  C26 UNL     1     -16.675  23.749  -8.267  1.00  0.00    -0.007 C 
HETATM   34  N3  UNL     1     -17.389  23.001  -9.001  1.00  0.00    -0.405 N 
ATOM     35  H32 UNL     1     -16.889  22.588  -9.789  1.00  0.00     0.155 HD
ATOM     36  H31 UNL     1     -18.369  22.744  -8.893  1.00  0.00     0.155 HD
ENDBRANCH  23  24
ENDBRANCH  21  22
ENDBRANCH  20  21
ENDBRANCH  19  20
ENDBRANCH   1  19
TORSDOF 13
ENDMDL
MODEL 4
REMARK VINA RESULT: -7.329717796      2.309     10.146
REMARK  13 active torsions:
REMARK  status: ('A' for Active; 'I' for Inactive)
REMARK    1  A    between atoms: C2_2  and  C3_3 
REMARK    2  A    between atoms: C3_3  and  C4_4 
REMARK    3  A    between atoms: C7_7  and  C9_9 
REMARK    4  A    between atoms: C9_9  and  O1_10 
REMARK    5  A    between atoms: C9_9  and  N1_12 
REMARK    6  A    between atoms: N1_12  and  C10_14 
REMARK    7  A    between atoms: C10_14  and  C11_15 
REMARK    8  A    between atoms: C10_14  and  C12_19 
REMARK    9  A    between atoms: C11_15  and  N2_16 
REMARK   10  A    between atoms: C12_19  and  C13_20 
REMARK   11  A    between atoms: C13_20  and  C14_21 
REMARK   12  A    between atoms: C14_21  and  C15_22 
REMARK   13  A    between atoms: C16_23  and  C17_24 
ROOT
HETATM    1  C10 UNL     1     -17.058  19.569 -10.961  1.00  0.00     0.172 C 
ENDROOT
BRANCH   1   2
HETATM    2  N1  UNL     1     -16.777  18.497 -11.984  1.00  0.00    -0.358 N 
ATOM      3  H1  UNL     1     -17.245  17.600 -11.855  1.00  0.00     0.162 HD
BRANCH   2   4
HETATM    4  C9  UNL     1     -15.944  18.619 -13.083  1.00  0.00     0.121 C 
BRANCH   4   5
HETATM    5  C7  UNL     1     -15.323  17.557 -13.903  1.00  0.00     0.029 A 
HETATM    6  C3  UNL     1     -13.954  17.042 -13.724  1.00  0.00    -0.025 A 
HETATM    7  C6  UNL     1     -14.264  18.051 -14.833  1.00  0.00     0.029 A 
HETATM    8  C8  UNL     1     -16.307  16.435 -14.211  1.00  0.00     0.025 C 
BRANCH   6   9
HETATM    9  C2  UNL     1     -13.590  15.704 -14.359  1.00  0.00     0.006 C 
HETATM   10  C1  UNL     1     -12.230  15.206 -14.049  1.00  0.00     0.006 C 
ENDBRANCH   6   9
BRANCH   6  11
HETATM   11  C4  UNL     1     -13.108  17.400 -12.555  1.00  0.00     0.006 C 
HETATM   12  C5  UNL     1     -13.754  17.000 -11.246  1.00  0.00     0.006 C 
ENDBRANCH   6  11
ENDBRANCH   4   5
BRANCH   4  13
HETATM   13  O1  UNL     1     -15.655  19.824 -13.483  1.00  0.00    -0.349 OA
ATOM     14  H1  UNL     1     -15.515  19.892 -14.419  1.00  0.00     0.219 HD
ENDBRANCH   4  13
ENDBRANCH   2   4
ENDBRANCH   1   2
BRANCH   1  15
HETATM   15  C11 UNL     1     -18.262  19.304 -10.213  1.00  0.00    -0.052 C 
BRANCH  15  16
HETATM   16  N2  UNL     1     -19.286  19.134  -9.610  1.00  0.00    -0.368 N 
ATOM     17  H22 UNL     1     -19.129  20.124  -9.797  1.00  0.00     0.165 HD
ATOM     18  H21 UNL     1     -20.147  18.941  -9.097  1.00  0.00     0.165 HD
ENDBRANCH  15  16
ENDBRANCH   1  15
BRANCH   1  19
HETATM   19  C12 UNL     1     -15.871  19.614 -10.112  1.00  0.00     0.039 C 
BRANCH  19  20
HETATM   20  C13 UNL     1     -14.809  20.623 -10.061  1.00  0.00     0.007 C 
BRANCH  20  21
HETATM   21  C14 UNL     1     -15.330  22.051  -9.930  1.00  0.00     0.027 C 
BRANCH  21  22
HETATM   22  C15 UNL     1     -14.957  22.777  -8.718  1.00  0.00    -0.029 C 
HETATM   23  C16 UNL     1     -14.959  24.161  -8.404  1.00  0.00    -0.016 C 
BRANCH  23  24
HETATM   24  C17 UNL     1     -16.134  25.026  -8.244  1.00  0.00     0.012 C 
HETATM   25  C18 UNL     1     -17.421  24.315  -8.644  1.00  0.00     0.026 C 
HETATM   26  C19 UNL     1     -16.313  25.056  -6.647  1.00  0.00     0.024 C 
HETATM   27  C20 UNL     1     -17.598  25.700  -6.275  1.00  0.00    -0.009 C 
HETATM   28  C21 UNL     1     -17.616  25.727  -4.741  1.00  0.00     0.011 C 
HETATM   29  C22 UNL     1     -17.793  27.100  -6.799  1.00  0.00    -0.040 C 
HETATM   30  C23 UNL     1     -17.144  28.124  -5.876  1.00  0.00     0.015 C 
HETATM   31  C24 UNL     1     -19.310  27.361  -6.756  1.00  0.00     0.015 C 
HETATM   32  C25 UNL     1     -17.329  27.250  -8.187  1.00  0.00     0.062 C 
HETATM   33  C26 UNL     1     -16.106  26.440  -8.564  1.00  0.00    -0.007 C 
HETATM   34  N3  UNL     1     -15.175  27.119  -9.094  1.00  0.00    -0.405 N 
ATOM     35  H32 UNL     1     -14.352  26.574  -9.348  1.00  0.00     0.155 HD
ATOM     36  H31 UNL     1     -15.155  28.113  -9.319  1.00  0.00     0.155 HD
ENDBRANCH  23  24
ENDBRANCH  21  22
ENDBRANCH  20  21
ENDBRANCH  19  20
ENDBRANCH   1  19
TORSDOF 13
ENDMDL
MODEL 5
REMARK VINA RESULT: -7.327683432      2.397      9.744
REMARK  13 active torsions:
REMARK  status: ('A' for Active; 'I' for Inactive)
REMARK    1  A    between atoms: C2_2  and  C3_3 
REMARK    2  A    between atoms: C3_3  and  C4_4 
REMARK    3  A    between atoms: C7_7  and  C9_9 
REMARK    4  A    between atoms: C9_9  and  O1_10 
REMARK    5  A    between atoms: C9_9  and  N1_12 
REMARK    6  A    between atoms: N1_12  and  C10_14 
REMARK    7  A    between atoms: C10_14  and  C11_15 
REMARK    8  A    between atoms: C10_14  and  C12_19 
REMARK    9  A    between atoms: C11_15  and  N2_16 
REMARK   10  A    between atoms: C12_19  and  C13_20 
REMARK   11  A    between atoms: C13_20  and  C14_21 
REMARK   12  A    between atoms: C14_21  and  C15_22 
REMARK   13  A    between atoms: C16_23  and  C17_24 
ROOT
HETATM    1  C10 UNL     1     -15.120  21.787  -9.359  1.00  0.00     0.172 C 
ENDROOT
BRANCH   1   2
HETATM    2  N1  UNL     1     -14.500  20.658 -10.144  1.00  0.00    -0.358 N 
ATOM      3  H1  UNL     1     -13.670  20.878 -10.694  1.00  0.00     0.162 HD
BRANCH   2   4
HETATM    4  C9  UNL     1     -14.953  19.350 -10.185  1.00  0.00     0.121 C 
BRANCH   4   5
HETATM    5  C7  UNL     1     -15.926  18.731 -11.111  1.00  0.00     0.029 A 
HETATM    6  C3  UNL     1     -15.599  18.189 -12.441  1.00  0.00    -0.025 A 
HETATM    7  C6  UNL     1     -16.244  19.570 -12.304  1.00  0.00     0.029 A 
HETATM    8  C8  UNL     1     -16.920  17.843 -10.374  1.00  0.00     0.025 C 
BRANCH   6   9
HETATM    9  C2  UNL     1     -16.593  17.242 -13.107  1.00  0.00     0.006 C 
HETATM   10  C1  UNL     1     -16.393  17.035 -14.559  1.00  0.00     0.006 C 
ENDBRANCH   6   9
BRANCH   6  11
HETATM   11  C4  UNL     1     -14.201  18.022 -12.919  1.00  0.00     0.006 C 
HETATM   12  C5  UNL     1     -13.553  16.779 -12.350  1.00  0.00     0.006 C 
ENDBRANCH   6  11
ENDBRANCH   4   5
BRANCH   4  13
HETATM   13  O1  UNL     1     -14.468  18.521  -9.306  1.00  0.00    -0.349 OA
ATOM     14  H1  UNL     1     -14.965  18.490  -8.497  1.00  0.00     0.219 HD
ENDBRANCH   4  13
ENDBRANCH   2   4
ENDBRANCH   1   2
BRANCH   1  15
HETATM   15  C11 UNL     1     -14.493  23.054  -9.642  1.00  0.00    -0.052 C 
BRANCH  15  16
HETATM   16  N2  UNL     1     -14.020  24.135  -9.867  1.00  0.00    -0.368 N 
ATOM     17  H22 UNL     1     -14.994  24.212  -9.574  1.00  0.00     0.165 HD
ATOM     18  H21 UNL     1     -13.577  25.031 -10.068  1.00  0.00     0.165 HD
ENDBRANCH  15  16
ENDBRANCH   1  15
BRANCH   1  19
HETATM   19  C12 UNL     1     -16.536  21.773  -9.714  1.00  0.00     0.039 C 
BRANCH  19  20
HETATM   20  C13 UNL     1     -17.698  21.493  -8.865  1.00  0.00     0.007 C 
BRANCH  20  21
HETATM   21  C14 UNL     1     -18.214  22.716  -8.114  1.00  0.00     0.027 C 
BRANCH  21  22
HETATM   22  C15 UNL     1     -17.930  24.020  -8.710  1.00  0.00    -0.029 C 
HETATM   23  C16 UNL     1     -18.302  25.336  -8.332  1.00  0.00    -0.016 C 
BRANCH  23  24
HETATM   24  C17 UNL     1     -17.850  26.073  -7.145  1.00  0.00     0.012 C 
HETATM   25  C18 UNL     1     -18.407  25.475  -5.859  1.00  0.00     0.026 C 
HETATM   26  C19 UNL     1     -16.314  25.611  -7.030  1.00  0.00     0.024 C 
HETATM   27  C20 UNL     1     -15.725  26.068  -5.746  1.00  0.00    -0.009 C 
HETATM   28  C21 UNL     1     -14.256  25.627  -5.789  1.00  0.00     0.011 C 
HETATM   29  C22 UNL     1     -15.790  27.553  -5.500  1.00  0.00    -0.040 C 
HETATM   30  C23 UNL     1     -14.620  28.270  -6.162  1.00  0.00     0.015 C 
HETATM   31  C24 UNL     1     -15.623  27.739  -3.981  1.00  0.00     0.015 C 
HETATM   32  C25 UNL     1     -17.081  28.134  -5.905  1.00  0.00     0.062 C 
HETATM   33  C26 UNL     1     -17.725  27.517  -7.130  1.00  0.00    -0.007 C 
HETATM   34  N3  UNL     1     -18.050  28.355  -8.024  1.00  0.00    -0.405 N 
ATOM     35  H32 UNL     1     -18.484  27.940  -8.848  1.00  0.00     0.155 HD
ATOM     36  H31 UNL     1     -17.962  29.371  -8.013  1.00  0.00     0.155 HD
ENDBRANCH  23  24
ENDBRANCH  21  22
ENDBRANCH  20  21
ENDBRANCH  19  20
ENDBRANCH   1  19
TORSDOF 13
ENDMDL
