MODEL 1
REMARK VINA RESULT: -7.140938408      0.000      0.000
REMARK  14 active torsions:
REMARK  status: ('A' for Active; 'I' for Inactive)
REMARK    1  A    between atoms: C2_2  and  O1_5 
REMARK    2  A    between atoms: O1_5  and  C5_6 
REMARK       I    between atoms: C5_6  and  N1_8 
REMARK    3  A    between atoms: N1_8  and  C6_9 
REMARK    4  A    between atoms: C6_9  and  N2_11 
REMARK    5  A    between atoms: C7_13  and  C8_14 
REMARK    6  A    between atoms: C7_13  and  C15_27 
REMARK    7  A    between atoms: C8_14  and  C9_15 
REMARK    8  A    between atoms: C10_16  and  C11_17 
REMARK    9  A    between atoms: C10_16  and  C12_20 
REMARK   10  A    between atoms: C11_17  and  O3_18 
REMARK   11  A    between atoms: C12_20  and  C13_21 
REMARK   12  A    between atoms: C13_21  and  C14_23 
REMARK   13  A    between atoms: C15_27  and  C16_28 
REMARK   14  A    between atoms: C16_28  and  C17_29 
ROOT
HETATM    1  N2  UNL     1       2.409 -11.628  13.237  1.00  0.00    -0.329 N 
ATOM      2  H2  UNL     1       3.063 -12.361  12.962  1.00  0.00     0.169 HD
HETATM    3  C7  UNL     1       1.596 -11.061  12.393  1.00  0.00    -0.007 C 
ENDROOT
BRANCH   3   4
HETATM    4  C8  UNL     1       0.666 -10.006  12.840  1.00  0.00     0.079 C 
BRANCH   4   5
HETATM    5  C9  UNL     1       0.330  -9.067  11.773  1.00  0.00    -0.016 C 
HETATM    6  C10 UNL     1       0.927  -7.912  11.518  1.00  0.00    -0.053 C 
BRANCH   6   7
HETATM    7  C11 UNL     1       2.050  -7.464  12.370  1.00  0.00     0.198 C 
BRANCH   7   8
HETATM    8  O3  UNL     1       3.286  -7.956  11.974  1.00  0.00    -0.397 OA
ATOM      9  H3  UNL     1       4.005  -7.680  12.529  1.00  0.00     0.209 HD
ENDBRANCH   7   8
ENDBRANCH   6   7
BRANCH   6  10
HETATM   10  C12 UNL     1       0.528  -7.211  10.278  1.00  0.00     0.124 C 
BRANCH  10  11
HETATM   11  C13 UNL     1       1.186  -7.517   9.035  1.00  0.00     0.236 C 
HETATM   12  O4  UNL     1       2.050  -6.683   8.637  1.00  0.00    -0.288 OA
BRANCH  11  13
HETATM   13  C14 UNL     1       0.971  -8.669   8.181  1.00  0.00     0.451 C 
HETATM   14  F1  UNL     1      -0.031  -9.515   8.661  1.00  0.00    -0.163 F 
HETATM   15  F2  UNL     1       0.682  -8.343   6.875  1.00  0.00    -0.163 F 
HETATM   16  F3  UNL     1       2.167  -9.423   8.113  1.00  0.00    -0.163 F 
ENDBRANCH  11  13
ENDBRANCH  10  11
ENDBRANCH   6  10
ENDBRANCH   4   5
ENDBRANCH   3   4
BRANCH   3  17
HETATM   17  C15 UNL     1       1.636 -11.395  10.939  1.00  0.00     0.053 C 
BRANCH  17  18
HETATM   18  C16 UNL     1       2.160 -12.786  10.662  1.00  0.00     0.011 C 
BRANCH  18  19
HETATM   19  C17 UNL     1       1.004 -13.633  10.172  1.00  0.00     0.000 C 
HETATM   20  C18 UNL     1       0.067 -13.935  11.311  1.00  0.00     0.079 C 
HETATM   21  S2  UNL     1      -1.518 -14.229  10.409  1.00  0.00    -0.163 SA
HETATM   22  C19 UNL     1      -0.830 -14.051   8.720  1.00  0.00     0.051 C 
HETATM   23  C20 UNL     1      -1.785 -13.462   7.775  1.00  0.00     0.015 C 
HETATM   24  C24 UNL     1       0.234 -13.005   9.081  1.00  0.00     0.004 C 
HETATM   25  C21 UNL     1      -1.275 -12.189   7.177  1.00  0.00     0.001 C 
HETATM   26  C22 UNL     1       0.172 -12.214   6.755  1.00  0.00     0.000 C 
HETATM   27  C23 UNL     1       1.040 -12.896   7.785  1.00  0.00     0.006 C 
ENDBRANCH  18  19
ENDBRANCH  17  18
ENDBRANCH   3  17
BRANCH   1  28
HETATM   28  C6  UNL     1       2.308 -11.110  14.664  1.00  0.00     0.255 C 
HETATM   29  S1  UNL     1       1.401 -12.224  15.610  1.00  0.00    -0.025 SA
BRANCH  28  30
HETATM   30  N1  UNL     1       2.770 -10.132  15.064  1.00  0.00    -0.316 NA
HETATM   31  C5  UNL     1       3.390  -8.814  15.603  1.00  0.00     0.443 C 
HETATM   32  O2  UNL     1       3.057  -8.385  16.666  1.00  0.00    -0.221 OA
BRANCH  31  33
HETATM   33  O1  UNL     1       4.299  -8.227  14.791  1.00  0.00    -0.282 OA
BRANCH  33  34
HETATM   34  C2  UNL     1       5.663  -8.085  15.115  1.00  0.00     0.062 C 
HETATM   35  C1  UNL     1       5.962  -6.996  16.111  1.00  0.00     0.046 C 
HETATM   36  C3  UNL     1       6.395  -7.698  13.850  1.00  0.00     0.046 C 
HETATM   37  C4  UNL     1       6.261  -9.376  15.626  1.00  0.00     0.046 C 
ENDBRANCH  33  34
ENDBRANCH  31  33
ENDBRANCH  28  30
ENDBRANCH   1  28
TORSDOF 14
ENDMDL
MODEL 2
REMARK VINA RESULT: -7.072392331      3.489      6.244
REMARK  14 active torsions:
REMARK  status: ('A' for Active; 'I' for Inactive)
REMARK    1  A    between atoms: C2_2  and  O1_5 
REMARK    2  A    between atoms: O1_5  and  C5_6 
REMARK       I    between atoms: C5_6  and  N1_8 
REMARK    3  A    between atoms: N1_8  and  C6_9 
REMARK    4  A    between atoms: C6_9  and  N2_11 
REMARK    5  A    between atoms: C7_13  and  C8_14 
REMARK    6  A    between atoms: C7_13  and  C15_27 
REMARK    7  A    between atoms: C8_14  and  C9_15 
REMARK    8  A    between atoms: C10_16  and  C11_17 
REMARK    9  A    between atoms: C10_16  and  C12_20 
REMARK   10  A    between atoms: C11_17  and  O3_18 
REMARK   11  A    between atoms: C12_20  and  C13_21 
REMARK   12  A    between atoms: C13_21  and  C14_23 
REMARK   13  A    between atoms: C15_27  and  C16_28 
REMARK   14  A    between atoms: C16_28  and  C17_29 
ROOT
HETATM    1  N2  UNL     1       1.845 -11.891  12.197  1.00  0.00    -0.329 N 
ATOM      2  H2  UNL     1       1.988 -12.339  11.292  1.00  0.00     0.169 HD
HETATM    3  C7  UNL     1       2.515 -12.226  13.261  1.00  0.00    -0.007 C 
ENDROOT
BRANCH   3   4
HETATM    4  C8  UNL     1       2.274 -11.544  14.548  1.00  0.00     0.079 C 
BRANCH   4   5
HETATM    5  C9  UNL     1       3.499 -11.008  15.135  1.00  0.00    -0.016 C 
HETATM    6  C10 UNL     1       3.606  -9.925  15.891  1.00  0.00    -0.053 C 
BRANCH   6   7
HETATM    7  C11 UNL     1       2.400  -9.129  16.205  1.00  0.00     0.198 C 
BRANCH   7   8
HETATM    8  O3  UNL     1       2.619  -7.759  16.218  1.00  0.00    -0.397 OA
ATOM      9  H3  UNL     1       2.822  -7.411  17.078  1.00  0.00     0.209 HD
ENDBRANCH   7   8
ENDBRANCH   6   7
BRANCH   6  10
HETATM   10  C12 UNL     1       4.922  -9.673  16.517  1.00  0.00     0.124 C 
BRANCH  10  11
HETATM   11  C13 UNL     1       5.989  -9.097  15.742  1.00  0.00     0.236 C 
HETATM   12  O4  UNL     1       7.093  -9.715  15.758  1.00  0.00    -0.288 OA
BRANCH  11  13
HETATM   13  C14 UNL     1       5.948  -7.884  14.948  1.00  0.00     0.451 C 
HETATM   14  F1  UNL     1       4.882  -7.866  14.047  1.00  0.00    -0.163 F 
HETATM   15  F2  UNL     1       5.908  -6.731  15.700  1.00  0.00    -0.163 F 
HETATM   16  F3  UNL     1       7.143  -7.786  14.195  1.00  0.00    -0.163 F 
ENDBRANCH  11  13
ENDBRANCH  10  11
ENDBRANCH   6  10
ENDBRANCH   4   5
ENDBRANCH   3   4
BRANCH   3  17
HETATM   17  C15 UNL     1       3.483 -13.362  13.236  1.00  0.00     0.053 C 
BRANCH  17  18
HETATM   18  C16 UNL     1       3.033 -14.510  12.361  1.00  0.00     0.011 C 
BRANCH  18  19
HETATM   19  C17 UNL     1       2.669 -15.672  13.262  1.00  0.00     0.000 C 
HETATM   20  C18 UNL     1       3.790 -15.941  14.232  1.00  0.00     0.079 C 
HETATM   21  S2  UNL     1       2.880 -16.752  15.620  1.00  0.00    -0.163 SA
HETATM   22  C19 UNL     1       1.236 -16.764  14.810  1.00  0.00     0.051 C 
HETATM   23  C20 UNL     1       0.131 -16.601  15.761  1.00  0.00     0.015 C 
HETATM   24  C24 UNL     1       1.425 -15.458  14.026  1.00  0.00     0.004 C 
HETATM   25  C21 UNL     1      -0.696 -15.392  15.462  1.00  0.00     0.001 C 
HETATM   26  C22 UNL     1      -1.016 -15.178  14.004  1.00  0.00     0.000 C 
HETATM   27  C23 UNL     1       0.186 -15.433  13.128  1.00  0.00     0.006 C 
ENDBRANCH  18  19
ENDBRANCH  17  18
ENDBRANCH   3  17
BRANCH   1  28
HETATM   28  C6  UNL     1       0.830 -10.777  12.410  1.00  0.00     0.255 C 
HETATM   29  S1  UNL     1      -0.701 -11.467  12.784  1.00  0.00    -0.025 SA
BRANCH  28  30
HETATM   30  N1  UNL     1       1.042  -9.646  12.343  1.00  0.00    -0.316 NA
HETATM   31  C5  UNL     1       1.327  -8.122  12.255  1.00  0.00     0.443 C 
HETATM   32  O2  UNL     1       1.841  -7.553  13.170  1.00  0.00    -0.221 OA
BRANCH  31  33
HETATM   33  O1  UNL     1       0.955  -7.528  11.098  1.00  0.00    -0.282 OA
BRANCH  33  34
HETATM   34  C2  UNL     1       1.789  -7.423   9.967  1.00  0.00     0.062 C 
HETATM   35  C1  UNL     1       2.876  -8.462   9.890  1.00  0.00     0.046 C 
HETATM   36  C3  UNL     1       2.498  -6.090  10.045  1.00  0.00     0.046 C 
HETATM   37  C4  UNL     1       1.001  -7.460   8.677  1.00  0.00     0.046 C 
ENDBRANCH  33  34
ENDBRANCH  31  33
ENDBRANCH  28  30
ENDBRANCH   1  28
TORSDOF 14
ENDMDL
MODEL 3
REMARK VINA RESULT: -7.055541046      4.385      6.718
REMARK  14 active torsions:
REMARK  status: ('A' for Active; 'I' for Inactive)
REMARK    1  A    between atoms: C2_2  and  O1_5 
REMARK    2  A    between atoms: O1_5  and  C5_6 
REMARK       I    between atoms: C5_6  and  N1_8 
REMARK    3  A    between atoms: N1_8  and  C6_9 
REMARK    4  A    between atoms: C6_9  and  N2_11 
REMARK    5  A    between atoms: C7_13  and  C8_14 
REMARK    6  A    between atoms: C7_13  and  C15_27 
REMARK    7  A    between atoms: C8_14  and  C9_15 
REMARK    8  A    between atoms: C10_16  and  C11_17 
REMARK    9  A    between atoms: C10_16  and  C12_20 
REMARK   10  A    between atoms: C11_17  and  O3_18 
REMARK   11  A    between atoms: C12_20  and  C13_21 
REMARK   12  A    between atoms: C13_21  and  C14_23 
REMARK   13  A    between atoms: C15_27  and  C16_28 
REMARK   14  A    between atoms: C16_28  and  C17_29 
ROOT
HETATM    1  N2  UNL     1       1.745 -14.824  12.174  1.00  0.00    -0.329 N 
ATOM      2  H2  UNL     1       1.299 -15.070  11.291  1.00  0.00     0.169 HD
HETATM    3  C7  UNL     1       2.378 -13.701  12.352  1.00  0.00    -0.007 C 
ENDROOT
BRANCH   3   4
HETATM    4  C8  UNL     1       3.004 -13.389  13.652  1.00  0.00     0.079 C 
BRANCH   4   5
HETATM    5  C9  UNL     1       3.052 -11.953  13.919  1.00  0.00    -0.016 C 
HETATM    6  C10 UNL     1       2.241 -11.267  14.710  1.00  0.00    -0.053 C 
BRANCH   6   7
HETATM    7  C11 UNL     1       1.148 -11.966  15.420  1.00  0.00     0.198 C 
BRANCH   7   8
HETATM    8  O3  UNL     1      -0.039 -12.025  14.704  1.00  0.00    -0.397 OA
ATOM      9  H3  UNL     1      -0.108 -12.784  14.137  1.00  0.00     0.209 HD
ENDBRANCH   7   8
ENDBRANCH   6   7
BRANCH   6  10
HETATM   10  C12 UNL     1       2.589  -9.852  14.962  1.00  0.00     0.124 C 
BRANCH  10  11
HETATM   11  C13 UNL     1       3.649  -9.524  15.878  1.00  0.00     0.236 C 
HETATM   12  O4  UNL     1       3.393  -9.664  17.109  1.00  0.00    -0.288 OA
BRANCH  11  13
HETATM   13  C14 UNL     1       4.979  -9.044  15.555  1.00  0.00     0.451 C 
HETATM   14  F1  UNL     1       5.078  -8.571  14.245  1.00  0.00    -0.163 F 
HETATM   15  F2  UNL     1       5.438  -8.068  16.410  1.00  0.00    -0.163 F 
HETATM   16  F3  UNL     1       5.900 -10.111  15.692  1.00  0.00    -0.163 F 
ENDBRANCH  11  13
ENDBRANCH  10  11
ENDBRANCH   6  10
ENDBRANCH   4   5
ENDBRANCH   3   4
BRANCH   3  17
HETATM   17  C15 UNL     1       2.564 -12.734  11.230  1.00  0.00     0.053 C 
BRANCH  17  18
HETATM   18  C16 UNL     1       1.274 -12.081  10.786  1.00  0.00     0.011 C 
BRANCH  18  19
HETATM   19  C17 UNL     1       1.605 -11.083   9.696  1.00  0.00     0.000 C 
HETATM   20  C18 UNL     1       0.863 -11.435   8.433  1.00  0.00     0.079 C 
HETATM   21  S2  UNL     1       0.771  -9.791   7.596  1.00  0.00    -0.163 SA
HETATM   22  C19 UNL     1       1.747  -8.870   8.844  1.00  0.00     0.051 C 
HETATM   23  C20 UNL     1       1.303  -7.480   9.002  1.00  0.00     0.015 C 
HETATM   24  C24 UNL     1       1.285  -9.688  10.057  1.00  0.00     0.004 C 
HETATM   25  C21 UNL     1       0.863  -7.184  10.400  1.00  0.00     0.001 C 
HETATM   26  C22 UNL     1       1.751  -7.742  11.484  1.00  0.00     0.000 C 
HETATM   27  C23 UNL     1       2.185  -9.154  11.174  1.00  0.00     0.006 C 
ENDBRANCH  18  19
ENDBRANCH  17  18
ENDBRANCH   3  17
BRANCH   1  28
HETATM   28  C6  UNL     1       1.724 -15.741  13.388  1.00  0.00     0.255 C 
HETATM   29  S1  UNL     1       3.013 -16.873  13.269  1.00  0.00    -0.025 SA
BRANCH  28  30
HETATM   30  N1  UNL     1       0.973 -15.690  14.262  1.00  0.00    -0.316 NA
HETATM   31  C5  UNL     1      -0.039 -15.621  15.438  1.00  0.00     0.443 C 
HETATM   32  O2  UNL     1      -0.934 -14.831  15.415  1.00  0.00    -0.221 OA
BRANCH  31  33
HETATM   33  O1  UNL     1       0.182 -16.496  16.445  1.00  0.00    -0.282 OA
BRANCH  33  34
HETATM   34  C2  UNL     1       1.164 -16.317  17.440  1.00  0.00     0.062 C 
HETATM   35  C1  UNL     1       1.781 -14.944  17.472  1.00  0.00     0.046 C 
HETATM   36  C3  UNL     1       2.298 -17.271  17.138  1.00  0.00     0.046 C 
HETATM   37  C4  UNL     1       0.637 -16.636  18.820  1.00  0.00     0.046 C 
ENDBRANCH  33  34
ENDBRANCH  31  33
ENDBRANCH  28  30
ENDBRANCH   1  28
TORSDOF 14
ENDMDL
MODEL 4
REMARK VINA RESULT: -7.031943047      1.642      2.913
REMARK  14 active torsions:
REMARK  status: ('A' for Active; 'I' for Inactive)
REMARK    1  A    between atoms: C2_2  and  O1_5 
REMARK    2  A    between atoms: O1_5  and  C5_6 
REMARK       I    between atoms: C5_6  and  N1_8 
REMARK    3  A    between atoms: N1_8  and  C6_9 
REMARK    4  A    between atoms: C6_9  and  N2_11 
REMARK    5  A    between atoms: C7_13  and  C8_14 
REMARK    6  A    between atoms: C7_13  and  C15_27 
REMARK    7  A    between atoms: C8_14  and  C9_15 
REMARK    8  A    between atoms: C10_16  and  C11_17 
REMARK    9  A    between atoms: C10_16  and  C12_20 
REMARK   10  A    between atoms: C11_17  and  O3_18 
REMARK   11  A    between atoms: C12_20  and  C13_21 
REMARK   12  A    between atoms: C13_21  and  C14_23 
REMARK   13  A    between atoms: C15_27  and  C16_28 
REMARK   14  A    between atoms: C16_28  and  C17_29 
ROOT
HETATM    1  N2  UNL     1       2.574 -11.509  13.352  1.00  0.00    -0.329 N 
ATOM      2  H2  UNL     1       3.307 -12.177  13.116  1.00  0.00     0.169 HD
HETATM    3  C7  UNL     1       1.694 -11.097  12.486  1.00  0.00    -0.007 C 
ENDROOT
BRANCH   3   4
HETATM    4  C8  UNL     1       0.649 -10.131  12.878  1.00  0.00     0.079 C 
BRANCH   4   5
HETATM    5  C9  UNL     1       0.308  -9.208  11.798  1.00  0.00    -0.016 C 
HETATM    6  C10 UNL     1       0.843  -8.017  11.576  1.00  0.00    -0.053 C 
BRANCH   6   7
HETATM    7  C11 UNL     1       1.896  -7.507  12.482  1.00  0.00     0.198 C 
BRANCH   7   8
HETATM    8  O3  UNL     1       3.182  -7.863  12.104  1.00  0.00    -0.397 OA
ATOM      9  H3  UNL     1       3.517  -7.367  11.367  1.00  0.00     0.209 HD
ENDBRANCH   7   8
ENDBRANCH   6   7
BRANCH   6  10
HETATM   10  C12 UNL     1       0.462  -7.335  10.320  1.00  0.00     0.124 C 
BRANCH  10  11
HETATM   11  C13 UNL     1       1.201  -7.584   9.112  1.00  0.00     0.236 C 
HETATM   12  O4  UNL     1       2.019  -6.686   8.757  1.00  0.00    -0.288 OA
BRANCH  11  13
HETATM   13  C14 UNL     1       1.115  -8.746   8.248  1.00  0.00     0.451 C 
HETATM   14  F1  UNL     1       2.350  -9.370   8.059  1.00  0.00    -0.163 F 
HETATM   15  F2  UNL     1       0.208  -9.689   8.678  1.00  0.00    -0.163 F 
HETATM   16  F3  UNL     1       0.645  -8.341   6.975  1.00  0.00    -0.163 F 
ENDBRANCH  11  13
ENDBRANCH  10  11
ENDBRANCH   6  10
ENDBRANCH   4   5
ENDBRANCH   3   4
BRANCH   3  17
HETATM   17  C15 UNL     1       1.764 -11.517  11.055  1.00  0.00     0.053 C 
BRANCH  17  18
HETATM   18  C16 UNL     1       2.440 -12.856  10.861  1.00  0.00     0.011 C 
BRANCH  18  19
HETATM   19  C17 UNL     1       1.505 -13.932  11.372  1.00  0.00     0.000 C 
HETATM   20  C18 UNL     1       0.492 -14.280  10.313  1.00  0.00     0.079 C 
HETATM   21  S2  UNL     1       0.043 -16.007  10.794  1.00  0.00    -0.163 SA
HETATM   22  C19 UNL     1       1.075 -16.074  12.307  1.00  0.00     0.051 C 
HETATM   23  C20 UNL     1       1.616 -17.412  12.568  1.00  0.00     0.015 C 
HETATM   24  C24 UNL     1       2.198 -15.168  11.785  1.00  0.00     0.004 C 
HETATM   25  C21 UNL     1       3.111 -17.420  12.598  1.00  0.00     0.001 C 
HETATM   26  C22 UNL     1       3.744 -16.273  13.344  1.00  0.00     0.000 C 
HETATM   27  C23 UNL     1       3.060 -14.963  13.033  1.00  0.00     0.006 C 
ENDBRANCH  18  19
ENDBRANCH  17  18
ENDBRANCH   3  17
BRANCH   1  28
HETATM   28  C6  UNL     1       2.421 -10.916  14.745  1.00  0.00     0.255 C 
HETATM   29  S1  UNL     1       1.492 -11.985  15.720  1.00  0.00    -0.025 SA
BRANCH  28  30
HETATM   30  N1  UNL     1       2.861  -9.913  15.106  1.00  0.00    -0.316 NA
HETATM   31  C5  UNL     1       3.453  -8.562  15.592  1.00  0.00     0.443 C 
HETATM   32  O2  UNL     1       3.076  -8.075  16.615  1.00  0.00    -0.221 OA
BRANCH  31  33
HETATM   33  O1  UNL     1       4.389  -8.014  14.784  1.00  0.00    -0.282 OA
BRANCH  33  34
HETATM   34  C2  UNL     1       5.763  -7.966  15.096  1.00  0.00     0.062 C 
HETATM   35  C1  UNL     1       6.149  -6.873  16.058  1.00  0.00     0.046 C 
HETATM   36  C3  UNL     1       6.512  -7.672  13.816  1.00  0.00     0.046 C 
HETATM   37  C4  UNL     1       6.266  -9.281  15.643  1.00  0.00     0.046 C 
ENDBRANCH  33  34
ENDBRANCH  31  33
ENDBRANCH  28  30
ENDBRANCH   1  28
TORSDOF 14
ENDMDL
MODEL 5
REMARK VINA RESULT: -6.968664757      4.010      6.927
REMARK  14 active torsions:
REMARK  status: ('A' for Active; 'I' for Inactive)
REMARK    1  A    between atoms: C2_2  and  O1_5 
REMARK    2  A    between atoms: O1_5  and  C5_6 
REMARK       I    between atoms: C5_6  and  N1_8 
REMARK    3  A    between atoms: N1_8  and  C6_9 
REMARK    4  A    between atoms: C6_9  and  N2_11 
REMARK    5  A    between atoms: C7_13  and  C8_14 
REMARK    6  A    between atoms: C7_13  and  C15_27 
REMARK    7  A    between atoms: C8_14  and  C9_15 
REMARK    8  A    between atoms: C10_16  and  C11_17 
REMARK    9  A    between atoms: C10_16  and  C12_20 
REMARK   10  A    between atoms: C11_17  and  O3_18 
REMARK   11  A    between atoms: C12_20  and  C13_21 
REMARK   12  A    between atoms: C13_21  and  C14_23 
REMARK   13  A    between atoms: C15_27  and  C16_28 
REMARK   14  A    between atoms: C16_28  and  C17_29 
ROOT
HETATM    1  N2  UNL     1       0.072 -11.916  13.573  1.00  0.00    -0.329 N 
ATOM      2  H2  UNL     1      -0.840 -12.133  13.974  1.00  0.00     0.169 HD
HETATM    3  C7  UNL     1       1.188 -12.126  14.209  1.00  0.00    -0.007 C 
ENDROOT
BRANCH   3   4
HETATM    4  C8  UNL     1       2.484 -11.798  13.583  1.00  0.00     0.079 C 
BRANCH   4   5
HETATM    5  C9  UNL     1       3.461 -11.300  14.548  1.00  0.00    -0.016 C 
HETATM    6  C10 UNL     1       3.704 -10.033  14.846  1.00  0.00    -0.053 C 
BRANCH   6   7
HETATM    7  C11 UNL     1       2.948  -8.962  14.162  1.00  0.00     0.198 C 
BRANCH   7   8
HETATM    8  O3  UNL     1       3.579  -8.463  13.031  1.00  0.00    -0.397 OA
ATOM      9  H3  UNL     1       3.241  -8.814  12.216  1.00  0.00     0.209 HD
ENDBRANCH   7   8
ENDBRANCH   6   7
BRANCH   6  10
HETATM   10  C12 UNL     1       4.617  -9.775  15.981  1.00  0.00     0.124 C 
BRANCH  10  11
HETATM   11  C13 UNL     1       5.902  -9.170  15.749  1.00  0.00     0.236 C 
HETATM   12  O4  UNL     1       6.913  -9.906  15.942  1.00  0.00    -0.288 OA
BRANCH  11  13
HETATM   13  C14 UNL     1       6.174  -7.811  15.323  1.00  0.00     0.451 C 
HETATM   14  F1  UNL     1       5.046  -6.990  15.384  1.00  0.00    -0.163 F 
HETATM   15  F2  UNL     1       7.195  -7.206  16.023  1.00  0.00    -0.163 F 
HETATM   16  F3  UNL     1       6.615  -7.828  13.978  1.00  0.00    -0.163 F 
ENDBRANCH  11  13
ENDBRANCH  10  11
ENDBRANCH   6  10
ENDBRANCH   4   5
ENDBRANCH   3   4
BRANCH   3  17
HETATM   17  C15 UNL     1       1.191 -12.622  15.617  1.00  0.00     0.053 C 
BRANCH  17  18
HETATM   18  C16 UNL     1       0.761 -14.066  15.741  1.00  0.00     0.011 C 
BRANCH  18  19
HETATM   19  C17 UNL     1       1.913 -14.850  16.334  1.00  0.00     0.000 C 
HETATM   20  C18 UNL     1       1.503 -15.447  17.655  1.00  0.00     0.079 C 
HETATM   21  S2  UNL     1       2.652 -16.889  17.772  1.00  0.00    -0.163 SA
HETATM   22  C19 UNL     1       3.581 -16.539  16.233  1.00  0.00     0.051 C 
HETATM   23  C20 UNL     1       4.032 -17.756  15.550  1.00  0.00     0.015 C 
HETATM   24  C24 UNL     1       2.402 -15.933  15.459  1.00  0.00     0.004 C 
HETATM   25  C21 UNL     1       3.483 -17.862  14.163  1.00  0.00     0.001 C 
HETATM   26  C22 UNL     1       3.510 -16.583  13.363  1.00  0.00     0.000 C 
HETATM   27  C23 UNL     1       3.081 -15.399  14.195  1.00  0.00     0.006 C 
ENDBRANCH  18  19
ENDBRANCH  17  18
ENDBRANCH   3  17
BRANCH   1  28
HETATM   28  C6  UNL     1       0.236 -11.320  12.182  1.00  0.00     0.255 C 
HETATM   29  S1  UNL     1       0.275 -12.588  11.021  1.00  0.00    -0.025 SA
BRANCH  28  30
HETATM   30  N1  UNL     1       0.314 -10.197  11.931  1.00  0.00    -0.316 NA
HETATM   31  C5  UNL     1       0.418  -8.685  11.593  1.00  0.00     0.443 C 
HETATM   32  O2  UNL     1      -0.481  -7.946  11.863  1.00  0.00    -0.221 OA
BRANCH  31  33
HETATM   33  O1  UNL     1       1.567  -8.303  10.992  1.00  0.00    -0.282 OA
BRANCH  33  34
HETATM   34  C2  UNL     1       1.719  -8.177   9.596  1.00  0.00     0.062 C 
HETATM   35  C1  UNL     1       3.067  -8.595   9.071  1.00  0.00     0.046 C 
HETATM   36  C3  UNL     1       1.579  -6.712   9.251  1.00  0.00     0.046 C 
HETATM   37  C4  UNL     1       0.656  -8.941   8.841  1.00  0.00     0.046 C 
ENDBRANCH  33  34
ENDBRANCH  31  33
ENDBRANCH  28  30
ENDBRANCH   1  28
TORSDOF 14
ENDMDL
