MODEL 1
REMARK VINA RESULT: -8.754346267      0.000      0.000
REMARK  9 active torsions:
REMARK  status: ('A' for Active; 'I' for Inactive)
REMARK    1  A    between atoms: C5_9  and  C6_10 
REMARK    2  A    between atoms: C6_10  and  C7_11 
REMARK    3  A    between atoms: C8_16  and  N4_17 
REMARK    4  A    between atoms: N4_17  and  C9_19 
REMARK    5  A    between atoms: C15_25  and  N5_26 
REMARK    6  A    between atoms: N5_26  and  C16_28 
REMARK    7  A    between atoms: C16_28  and  C17_29 
REMARK    8  A    between atoms: C20_35  and  O1_36 
REMARK    9  A    between atoms: O1_36  and  C21_37 
ROOT
HETATM    1  C7  UNL     1       1.465 -10.076   9.698  1.00  0.00     0.056 A 
HETATM    2  N2  UNL     1       0.989 -10.967   8.816  1.00  0.00    -0.301 N 
ATOM      3  H2  UNL     1       1.060 -11.956   9.053  1.00  0.00     0.186 HD
HETATM    4  N3  UNL     1       0.443 -10.651   7.680  1.00  0.00    -0.285 N 
ATOM      5  H3  UNL     1       0.097 -11.373   7.049  1.00  0.00     0.188 HD
HETATM    6  C8  UNL     1       0.340  -9.331   7.349  1.00  0.00     0.118 A 
HETATM    7  C14 UNL     1       0.804  -8.359   8.198  1.00  0.00     0.080 A 
HETATM    8  C15 UNL     1       1.385  -8.732   9.410  1.00  0.00     0.056 A 
ENDROOT
BRANCH   8   9
HETATM    9  N5  UNL     1       1.874  -7.748  10.310  1.00  0.00    -0.384 N 
ATOM     10  H5  UNL     1       1.267  -7.428  11.064  1.00  0.00     0.160 HD
BRANCH   9  11
HETATM   11  C16 UNL     1       3.201  -7.182  10.199  1.00  0.00     0.160 C 
BRANCH  11  12
HETATM   12  C17 UNL     1       3.942  -7.406  11.468  1.00  0.00    -0.022 A 
HETATM   13  C18 UNL     1       5.272  -7.032  11.559  1.00  0.00     0.098 A 
HETATM   14  N6  UNL     1       5.968  -7.218  12.687  1.00  0.00    -0.354 N 
HETATM   15  C19 UNL     1       5.391  -7.782  13.786  1.00  0.00     0.137 A 
ATOM     16  H6  UNL     1       6.946  -6.933  12.724  1.00  0.00     0.166 HD
HETATM   17 CL3  UNL     1       6.398  -7.981  15.219  1.00  0.00    -0.061 Cl
HETATM   18  C20 UNL     1       4.070  -8.174  13.758  1.00  0.00     0.108 A 
HETATM   19  C26 UNL     1       3.370  -7.975  12.589  1.00  0.00     0.050 A 
BRANCH  18  20
HETATM   20  O1  UNL     1       3.531  -8.735  14.882  1.00  0.00    -0.343 OA
BRANCH  20  21
HETATM   21  C21 UNL     1       2.560  -9.718  14.986  1.00  0.00     0.129 C 
HETATM   22  C22 UNL     1       2.135  -9.981  16.424  1.00  0.00     0.032 C 
HETATM   23  C23 UNL     1       1.319 -11.248  16.255  1.00  0.00     0.002 C 
HETATM   24  C24 UNL     1       2.291 -12.084  15.416  1.00  0.00     0.002 C 
HETATM   25  C25 UNL     1       3.025 -11.083  14.551  1.00  0.00     0.032 C 
ENDBRANCH  20  21
ENDBRANCH  18  20
ENDBRANCH  11  12
ENDBRANCH   9  11
ENDBRANCH   8   9
BRANCH   1  26
HETATM   26  C6  UNL     1       2.079 -10.498  10.984  1.00  0.00     0.103 C 
BRANCH  26  27
HETATM   27  C5  UNL     1       1.093 -11.316  11.741  1.00  0.00    -0.006 A 
HETATM   28  C1  UNL     1      -0.007 -10.760  12.359  1.00  0.00     0.057 A 
HETATM   29 CL1  UNL     1      -0.248  -9.033  12.243  1.00  0.00    -0.082 Cl
HETATM   30  C2  UNL     1      -0.903 -11.532  13.051  1.00  0.00     0.112 A 
HETATM   31  N1  UNL     1      -0.734 -12.880  13.152  1.00  0.00    -0.372 N 
HETATM   32  C3  UNL     1       0.334 -13.463  12.561  1.00  0.00     0.112 A 
ATOM     33  H1  UNL     1      -1.407 -13.446  13.669  1.00  0.00     0.164 HD
HETATM   34  C4  UNL     1       1.237 -12.690  11.863  1.00  0.00     0.057 A 
HETATM   35 CL2  UNL     1       2.648 -13.402  11.072  1.00  0.00    -0.082 Cl
ENDBRANCH  26  27
ENDBRANCH   1  26
BRANCH   6  36
HETATM   36  N4  UNL     1      -0.200  -9.051   6.229  1.00  0.00    -0.371 N 
ATOM     37  H4  UNL     1       0.213  -8.313   5.659  1.00  0.00     0.161 HD
BRANCH  36  38
HETATM   38  C9  UNL     1      -1.355  -9.722   5.740  1.00  0.00     0.083 C 
HETATM   39  C10 UNL     1      -1.329  -9.864   4.220  1.00  0.00     0.025 C 
HETATM   40  C11 UNL     1      -2.753 -10.255   3.919  1.00  0.00     0.002 C 
HETATM   41  C12 UNL     1      -3.583  -9.473   4.909  1.00  0.00     0.002 C 
HETATM   42  C13 UNL     1      -2.615  -8.907   5.926  1.00  0.00     0.025 C 
ENDBRANCH  36  38
ENDBRANCH   6  36
TORSDOF 9
ENDMDL
MODEL 2
REMARK VINA RESULT: -8.733686699      0.141      1.495
REMARK  9 active torsions:
REMARK  status: ('A' for Active; 'I' for Inactive)
REMARK    1  A    between atoms: C5_9  and  C6_10 
REMARK    2  A    between atoms: C6_10  and  C7_11 
REMARK    3  A    between atoms: C8_16  and  N4_17 
REMARK    4  A    between atoms: N4_17  and  C9_19 
REMARK    5  A    between atoms: C15_25  and  N5_26 
REMARK    6  A    between atoms: N5_26  and  C16_28 
REMARK    7  A    between atoms: C16_28  and  C17_29 
REMARK    8  A    between atoms: C20_35  and  O1_36 
REMARK    9  A    between atoms: O1_36  and  C21_37 
ROOT
HETATM    1  C7  UNL     1       1.432 -10.024   9.645  1.00  0.00     0.056 A 
HETATM    2  N2  UNL     1       0.957 -10.915   8.762  1.00  0.00    -0.301 N 
ATOM      3  H2  UNL     1       1.014 -11.903   9.005  1.00  0.00     0.186 HD
HETATM    4  N3  UNL     1       0.429 -10.599   7.617  1.00  0.00    -0.285 N 
ATOM      5  H3  UNL     1       0.084 -11.321   6.986  1.00  0.00     0.188 HD
HETATM    6  C8  UNL     1       0.346  -9.280   7.278  1.00  0.00     0.118 A 
HETATM    7  C14 UNL     1       0.811  -8.308   8.127  1.00  0.00     0.080 A 
HETATM    8  C15 UNL     1       1.371  -8.681   9.348  1.00  0.00     0.056 A 
ENDROOT
BRANCH   8   9
HETATM    9  N5  UNL     1       1.860  -7.697  10.250  1.00  0.00    -0.384 N 
ATOM     10  H5  UNL     1       1.241  -7.355  10.984  1.00  0.00     0.160 HD
BRANCH   9  11
HETATM   11  C16 UNL     1       3.202  -7.163  10.166  1.00  0.00     0.160 C 
BRANCH  11  12
HETATM   12  C17 UNL     1       3.915  -7.417  11.444  1.00  0.00    -0.022 A 
HETATM   13  C18 UNL     1       5.237  -7.027  11.581  1.00  0.00     0.098 A 
HETATM   14  N6  UNL     1       5.909  -7.239  12.718  1.00  0.00    -0.354 N 
HETATM   15  C19 UNL     1       5.315  -7.847  13.784  1.00  0.00     0.137 A 
ATOM     16  H6  UNL     1       6.881  -6.941  12.788  1.00  0.00     0.166 HD
HETATM   17 CL3  UNL     1       6.290  -8.078  15.234  1.00  0.00    -0.061 Cl
HETATM   18  C20 UNL     1       4.001  -8.258  13.711  1.00  0.00     0.108 A 
HETATM   19  C26 UNL     1       3.326  -8.032  12.532  1.00  0.00     0.050 A 
BRANCH  18  20
HETATM   20  O1  UNL     1       3.444  -8.863  14.803  1.00  0.00    -0.343 OA
BRANCH  20  21
HETATM   21  C21 UNL     1       2.527  -9.900  14.851  1.00  0.00     0.129 C 
HETATM   22  C22 UNL     1       2.040 -10.195  16.263  1.00  0.00     0.032 C 
HETATM   23  C23 UNL     1       1.308 -11.506  16.048  1.00  0.00     0.002 C 
HETATM   24  C24 UNL     1       2.370 -12.280  15.261  1.00  0.00     0.002 C 
HETATM   25  C25 UNL     1       3.092 -11.235  14.439  1.00  0.00     0.032 C 
ENDBRANCH  20  21
ENDBRANCH  18  20
ENDBRANCH  11  12
ENDBRANCH   9  11
ENDBRANCH   8   9
BRANCH   1  26
HETATM   26  C6  UNL     1       2.025 -10.446  10.941  1.00  0.00     0.103 C 
BRANCH  26  27
HETATM   27  C5  UNL     1       1.038 -11.291  11.668  1.00  0.00    -0.006 A 
HETATM   28  C1  UNL     1       1.161 -12.662  11.753  1.00  0.00     0.057 A 
HETATM   29 CL1  UNL     1       2.528 -13.428  10.980  1.00  0.00    -0.082 Cl
HETATM   30  C2  UNL     1       0.241 -13.421  12.427  1.00  0.00     0.112 A 
HETATM   31  N1  UNL     1      -0.831 -12.842  13.038  1.00  0.00    -0.372 N 
HETATM   32  C3  UNL     1      -0.988 -11.500  12.975  1.00  0.00     0.112 A 
ATOM     33  H1  UNL     1      -1.510 -13.417  13.538  1.00  0.00     0.164 HD
HETATM   34  C4  UNL     1      -0.064 -10.733  12.299  1.00  0.00     0.057 A 
HETATM   35 CL2  UNL     1      -0.223  -8.976  12.189  1.00  0.00    -0.082 Cl
ENDBRANCH  26  27
ENDBRANCH   1  26
BRANCH   6  36
HETATM   36  N4  UNL     1      -0.176  -9.000   6.149  1.00  0.00    -0.371 N 
ATOM     37  H4  UNL     1       0.258  -8.277   5.576  1.00  0.00     0.161 HD
BRANCH  36  38
HETATM   38  C9  UNL     1      -1.339  -9.652   5.655  1.00  0.00     0.083 C 
HETATM   39  C10 UNL     1      -1.321  -9.772   4.133  1.00  0.00     0.025 C 
HETATM   40  C11 UNL     1      -2.749 -10.143   3.831  1.00  0.00     0.002 C 
HETATM   41  C12 UNL     1      -3.568  -9.367   4.835  1.00  0.00     0.002 C 
HETATM   42  C13 UNL     1      -2.590  -8.827   5.857  1.00  0.00     0.025 C 
ENDBRANCH  36  38
ENDBRANCH   6  36
TORSDOF 9
ENDMDL
MODEL 3
REMARK VINA RESULT: -8.658806940      1.307      1.708
REMARK  9 active torsions:
REMARK  status: ('A' for Active; 'I' for Inactive)
REMARK    1  A    between atoms: C5_9  and  C6_10 
REMARK    2  A    between atoms: C6_10  and  C7_11 
REMARK    3  A    between atoms: C8_16  and  N4_17 
REMARK    4  A    between atoms: N4_17  and  C9_19 
REMARK    5  A    between atoms: C15_25  and  N5_26 
REMARK    6  A    between atoms: N5_26  and  C16_28 
REMARK    7  A    between atoms: C16_28  and  C17_29 
REMARK    8  A    between atoms: C20_35  and  O1_36 
REMARK    9  A    between atoms: O1_36  and  C21_37 
ROOT
HETATM    1  C7  UNL     1       1.616 -11.282  10.740  1.00  0.00     0.056 A 
HETATM    2  N2  UNL     1       1.479 -12.269   9.843  1.00  0.00    -0.301 N 
ATOM      3  H2  UNL     1       1.688 -13.221  10.145  1.00  0.00     0.186 HD
HETATM    4  N3  UNL     1       1.097 -12.092   8.613  1.00  0.00    -0.285 N 
ATOM      5  H3  UNL     1       1.011 -12.882   7.975  1.00  0.00     0.188 HD
HETATM    6  C8  UNL     1       0.814 -10.825   8.194  1.00  0.00     0.118 A 
HETATM    7  C14 UNL     1       0.930  -9.761   9.052  1.00  0.00     0.080 A 
HETATM    8  C15 UNL     1       1.343  -9.986  10.365  1.00  0.00     0.056 A 
ENDROOT
BRANCH   8   9
HETATM    9  N5  UNL     1       1.472  -8.905  11.278  1.00  0.00    -0.384 N 
ATOM     10  H5  UNL     1       0.812  -8.836  12.052  1.00  0.00     0.160 HD
BRANCH   9  11
HETATM   11  C16 UNL     1       2.504  -7.899  11.151  1.00  0.00     0.160 C 
BRANCH  11  12
HETATM   12  C17 UNL     1       3.404  -7.964  12.331  1.00  0.00    -0.022 A 
HETATM   13  C18 UNL     1       4.712  -7.524  12.219  1.00  0.00     0.098 A 
HETATM   14  N6  UNL     1       5.550  -7.567  13.261  1.00  0.00    -0.354 N 
HETATM   15  C19 UNL     1       5.144  -8.047  14.472  1.00  0.00     0.137 A 
ATOM     16  H6  UNL     1       6.508  -7.236  13.149  1.00  0.00     0.166 HD
HETATM   17 CL3  UNL     1       6.328  -8.059  15.778  1.00  0.00    -0.061 Cl
HETATM   18  C20 UNL     1       3.854  -8.499  14.647  1.00  0.00     0.108 A 
HETATM   19  C26 UNL     1       3.007  -8.447  13.563  1.00  0.00     0.050 A 
BRANCH  18  20
HETATM   20  O1  UNL     1       3.489  -8.971  15.876  1.00  0.00    -0.343 OA
BRANCH  20  21
HETATM   21  C21 UNL     1       3.144 -10.261  16.248  1.00  0.00     0.129 C 
HETATM   22  C22 UNL     1       1.789 -10.692  15.705  1.00  0.00     0.032 C 
HETATM   23  C23 UNL     1       1.561 -11.974  16.483  1.00  0.00     0.002 C 
HETATM   24  C24 UNL     1       1.869 -11.484  17.902  1.00  0.00     0.002 C 
HETATM   25  C25 UNL     1       2.947 -10.436  17.731  1.00  0.00     0.032 C 
ENDBRANCH  20  21
ENDBRANCH  18  20
ENDBRANCH  11  12
ENDBRANCH   9  11
ENDBRANCH   8   9
BRANCH   1  26
HETATM   26  C6  UNL     1       2.057 -11.548  12.134  1.00  0.00     0.103 C 
BRANCH  26  27
HETATM   27  C5  UNL     1       1.319 -12.732  12.654  1.00  0.00    -0.006 A 
HETATM   28  C1  UNL     1      -0.002 -12.666  13.042  1.00  0.00     0.057 A 
HETATM   29 CL1  UNL     1      -0.836 -11.135  12.916  1.00  0.00    -0.082 Cl
HETATM   30  C2  UNL     1      -0.663 -13.768  13.517  1.00  0.00     0.112 A 
HETATM   31  N1  UNL     1      -0.031 -14.971  13.622  1.00  0.00    -0.372 N 
HETATM   32  C3  UNL     1       1.266 -15.076  13.253  1.00  0.00     0.112 A 
ATOM     33  H1  UNL     1      -0.532 -15.786  13.977  1.00  0.00     0.164 HD
HETATM   34  C4  UNL     1       1.933 -13.969  12.774  1.00  0.00     0.057 A 
HETATM   35 CL2  UNL     1       3.627 -14.053  12.277  1.00  0.00    -0.082 Cl
ENDBRANCH  26  27
ENDBRANCH   1  26
BRANCH   6  36
HETATM   36  N4  UNL     1       0.441 -10.681   6.983  1.00  0.00    -0.371 N 
ATOM     37  H4  UNL     1       1.087 -10.945   6.239  1.00  0.00     0.161 HD
BRANCH  36  38
HETATM   38  C9  UNL     1      -0.836 -10.168   6.625  1.00  0.00     0.083 C 
HETATM   39  C10 UNL     1      -1.824 -11.284   6.295  1.00  0.00     0.025 C 
HETATM   40  C11 UNL     1      -2.939 -10.526   5.621  1.00  0.00     0.002 C 
HETATM   41  C12 UNL     1      -2.243  -9.443   4.832  1.00  0.00     0.002 C 
HETATM   42  C13 UNL     1      -0.806  -9.421   5.310  1.00  0.00     0.025 C 
ENDBRANCH  36  38
ENDBRANCH   6  36
TORSDOF 9
ENDMDL
MODEL 4
REMARK VINA RESULT: -8.613316641      1.291      2.205
REMARK  9 active torsions:
REMARK  status: ('A' for Active; 'I' for Inactive)
REMARK    1  A    between atoms: C5_9  and  C6_10 
REMARK    2  A    between atoms: C6_10  and  C7_11 
REMARK    3  A    between atoms: C8_16  and  N4_17 
REMARK    4  A    between atoms: N4_17  and  C9_19 
REMARK    5  A    between atoms: C15_25  and  N5_26 
REMARK    6  A    between atoms: N5_26  and  C16_28 
REMARK    7  A    between atoms: C16_28  and  C17_29 
REMARK    8  A    between atoms: C20_35  and  O1_36 
REMARK    9  A    between atoms: O1_36  and  C21_37 
ROOT
HETATM    1  C7  UNL     1       1.575 -11.192  10.755  1.00  0.00     0.056 A 
HETATM    2  N2  UNL     1       1.442 -12.183   9.862  1.00  0.00    -0.301 N 
ATOM      3  H2  UNL     1       1.641 -13.134  10.171  1.00  0.00     0.186 HD
HETATM    4  N3  UNL     1       1.075 -12.009   8.627  1.00  0.00    -0.285 N 
ATOM      5  H3  UNL     1       0.990 -12.803   7.992  1.00  0.00     0.188 HD
HETATM    6  C8  UNL     1       0.804 -10.743   8.198  1.00  0.00     0.118 A 
HETATM    7  C14 UNL     1       0.917  -9.676   9.052  1.00  0.00     0.080 A 
HETATM    8  C15 UNL     1       1.314  -9.896  10.371  1.00  0.00     0.056 A 
ENDROOT
BRANCH   8   9
HETATM    9  N5  UNL     1       1.439  -8.811  11.279  1.00  0.00    -0.384 N 
ATOM     10  H5  UNL     1       0.766  -8.729  12.040  1.00  0.00     0.160 HD
BRANCH   9  11
HETATM   11  C16 UNL     1       2.486  -7.819  11.166  1.00  0.00     0.160 C 
BRANCH  11  12
HETATM   12  C17 UNL     1       3.390  -7.919  12.341  1.00  0.00    -0.022 A 
HETATM   13  C18 UNL     1       4.708  -7.508  12.229  1.00  0.00     0.098 A 
HETATM   14  N6  UNL     1       5.548  -7.583  13.267  1.00  0.00    -0.354 N 
HETATM   15  C19 UNL     1       5.136  -8.066  14.474  1.00  0.00     0.137 A 
ATOM     16  H6  UNL     1       6.513  -7.274  13.154  1.00  0.00     0.166 HD
HETATM   17 CL3  UNL     1       6.324  -8.121  15.775  1.00  0.00    -0.061 Cl
HETATM   18  C20 UNL     1       3.836  -8.490  14.650  1.00  0.00     0.108 A 
HETATM   19  C26 UNL     1       2.986  -8.406  13.569  1.00  0.00     0.050 A 
BRANCH  18  20
HETATM   20  O1  UNL     1       3.464  -8.967  15.875  1.00  0.00    -0.343 OA
BRANCH  20  21
HETATM   21  C21 UNL     1       3.124 -10.259  16.242  1.00  0.00     0.129 C 
HETATM   22  C22 UNL     1       1.762 -10.685  15.713  1.00  0.00     0.032 C 
HETATM   23  C23 UNL     1       1.544 -11.973  16.485  1.00  0.00     0.002 C 
HETATM   24  C24 UNL     1       1.872 -11.495  17.903  1.00  0.00     0.002 C 
HETATM   25  C25 UNL     1       2.947 -10.445  17.726  1.00  0.00     0.032 C 
ENDBRANCH  20  21
ENDBRANCH  18  20
ENDBRANCH  11  12
ENDBRANCH   9  11
ENDBRANCH   8   9
BRANCH   1  26
HETATM   26  C6  UNL     1       1.998 -11.453  12.156  1.00  0.00     0.103 C 
BRANCH  26  27
HETATM   27  C5  UNL     1       1.321 -12.687  12.641  1.00  0.00    -0.006 A 
HETATM   28  C1  UNL     1       1.969 -13.901  12.722  1.00  0.00     0.057 A 
HETATM   29 CL1  UNL     1       3.647 -13.987  12.239  1.00  0.00    -0.082 Cl
HETATM   30  C2  UNL     1       1.327 -15.025  13.171  1.00  0.00     0.112 A 
HETATM   31  N1  UNL     1       0.020 -14.978  13.553  1.00  0.00    -0.372 N 
HETATM   32  C3  UNL     1      -0.651 -13.805  13.486  1.00  0.00     0.112 A 
ATOM     33  H1  UNL     1      -0.449 -15.820  13.887  1.00  0.00     0.164 HD
HETATM   34  C4  UNL     1      -0.008 -12.672  13.036  1.00  0.00     0.057 A 
HETATM   35 CL2  UNL     1      -0.839 -11.116  12.931  1.00  0.00    -0.082 Cl
ENDBRANCH  26  27
ENDBRANCH   1  26
BRANCH   6  36
HETATM   36  N4  UNL     1       0.445 -10.603   6.983  1.00  0.00    -0.371 N 
ATOM     37  H4  UNL     1       1.105 -10.858   6.247  1.00  0.00     0.161 HD
BRANCH  36  38
HETATM   38  C9  UNL     1      -0.834 -10.107   6.608  1.00  0.00     0.083 C 
HETATM   39  C10 UNL     1      -1.824 -11.237   6.336  1.00  0.00     0.025 C 
HETATM   40  C11 UNL     1      -2.942 -10.510   5.633  1.00  0.00     0.002 C 
HETATM   41  C12 UNL     1      -2.250  -9.466   4.791  1.00  0.00     0.002 C 
HETATM   42  C13 UNL     1      -0.811  -9.422   5.260  1.00  0.00     0.025 C 
ENDBRANCH  36  38
ENDBRANCH   6  36
TORSDOF 9
ENDMDL
MODEL 5
REMARK VINA RESULT: -8.324761867      2.758      5.319
REMARK  9 active torsions:
REMARK  status: ('A' for Active; 'I' for Inactive)
REMARK    1  A    between atoms: C5_9  and  C6_10 
REMARK    2  A    between atoms: C6_10  and  C7_11 
REMARK    3  A    between atoms: C8_16  and  N4_17 
REMARK    4  A    between atoms: N4_17  and  C9_19 
REMARK    5  A    between atoms: C15_25  and  N5_26 
REMARK    6  A    between atoms: N5_26  and  C16_28 
REMARK    7  A    between atoms: C16_28  and  C17_29 
REMARK    8  A    between atoms: C20_35  and  O1_36 
REMARK    9  A    between atoms: O1_36  and  C21_37 
ROOT
HETATM    1  C7  UNL     1       0.505 -14.395  11.076  1.00  0.00     0.056 A 
HETATM    2  N2  UNL     1       0.848 -14.540   9.788  1.00  0.00    -0.301 N 
ATOM      3  H2  UNL     1       0.958 -15.488   9.428  1.00  0.00     0.186 HD
HETATM    4  N3  UNL     1       1.048 -13.551   8.969  1.00  0.00    -0.285 N 
ATOM      5  H3  UNL     1       1.307 -13.723   7.998  1.00  0.00     0.188 HD
HETATM    6  C8  UNL     1       0.905 -12.277   9.435  1.00  0.00     0.118 A 
HETATM    7  C14 UNL     1       0.556 -12.046  10.742  1.00  0.00     0.080 A 
HETATM    8  C15 UNL     1       0.349 -13.129  11.594  1.00  0.00     0.056 A 
ENDROOT
BRANCH   8   9
HETATM    9  N5  UNL     1      -0.014 -12.921  12.953  1.00  0.00    -0.384 N 
ATOM     10  H5  UNL     1      -0.068 -13.727  13.574  1.00  0.00     0.160 HD
BRANCH   9  11
HETATM   11  C16 UNL     1      -0.308 -11.609  13.487  1.00  0.00     0.160 C 
BRANCH  11  12
HETATM   12  C17 UNL     1       0.862 -11.117  14.260  1.00  0.00    -0.022 A 
HETATM   13  C18 UNL     1       1.167 -11.694  15.481  1.00  0.00     0.098 A 
HETATM   14  N6  UNL     1       2.214 -11.276  16.203  1.00  0.00    -0.354 N 
HETATM   15  C19 UNL     1       3.017 -10.267  15.760  1.00  0.00     0.137 A 
ATOM     16  H6  UNL     1       2.414 -11.720  17.099  1.00  0.00     0.166 HD
HETATM   17 CL3  UNL     1       4.369  -9.795  16.788  1.00  0.00    -0.061 Cl
HETATM   18  C20 UNL     1       2.766  -9.653  14.552  1.00  0.00     0.108 A 
HETATM   19  C26 UNL     1       1.683 -10.096  13.823  1.00  0.00     0.050 A 
BRANCH  18  20
HETATM   20  O1  UNL     1       3.595  -8.646  14.145  1.00  0.00    -0.343 OA
BRANCH  20  21
HETATM   21  C21 UNL     1       3.897  -8.232  12.858  1.00  0.00     0.129 C 
HETATM   22  C22 UNL     1       5.227  -7.496  12.769  1.00  0.00     0.032 C 
HETATM   23  C23 UNL     1       5.151  -6.933  11.363  1.00  0.00     0.002 C 
HETATM   24  C24 UNL     1       3.754  -6.305  11.400  1.00  0.00     0.002 C 
HETATM   25  C25 UNL     1       2.943  -7.203  12.309  1.00  0.00     0.032 C 
ENDBRANCH  20  21
ENDBRANCH  18  20
ENDBRANCH  11  12
ENDBRANCH   9  11
ENDBRANCH   8   9
BRANCH   1  26
HETATM   26  C6  UNL     1       0.289 -15.566  11.966  1.00  0.00     0.103 C 
BRANCH  26  27
HETATM   27  C5  UNL     1       1.470 -16.467  11.869  1.00  0.00    -0.006 A 
HETATM   28  C1  UNL     1       2.632 -16.239  12.575  1.00  0.00     0.057 A 
HETATM   29 CL1  UNL     1       2.715 -14.842  13.621  1.00  0.00    -0.082 Cl
HETATM   30  C2  UNL     1       3.708 -17.081  12.471  1.00  0.00     0.112 A 
HETATM   31  N1  UNL     1       3.663 -18.177  11.661  1.00  0.00    -0.372 N 
HETATM   32  C3  UNL     1       2.541 -18.434  10.951  1.00  0.00     0.112 A 
ATOM     33  H1  UNL     1       4.469 -18.798  11.592  1.00  0.00     0.164 HD
HETATM   34  C4  UNL     1       1.456 -17.589  11.054  1.00  0.00     0.057 A 
HETATM   35 CL2  UNL     1      -0.033 -17.881  10.149  1.00  0.00    -0.082 Cl
ENDBRANCH  26  27
ENDBRANCH   1  26
BRANCH   6  36
HETATM   36  N4  UNL     1       1.107 -11.328   8.609  1.00  0.00    -0.371 N 
ATOM     37  H4  UNL     1       1.252 -11.558   7.626  1.00  0.00     0.161 HD
BRANCH  36  38
HETATM   38  C9  UNL     1       1.138  -9.960   8.999  1.00  0.00     0.083 C 
HETATM   39  C10 UNL     1       0.396  -9.069   8.006  1.00  0.00     0.025 C 
HETATM   40  C11 UNL     1       0.859  -7.694   8.413  1.00  0.00     0.002 C 
HETATM   41  C12 UNL     1       2.303  -7.879   8.816  1.00  0.00     0.002 C 
HETATM   42  C13 UNL     1       2.530  -9.373   8.919  1.00  0.00     0.025 C 
ENDBRANCH  36  38
ENDBRANCH   6  36
TORSDOF 9
ENDMDL
