MODEL 1
REMARK VINA RESULT: -8.850399345      0.000      0.000
REMARK  8 active torsions:
REMARK  status: ('A' for Active; 'I' for Inactive)
REMARK    1  A    between atoms: C2_2  and  C3_3 
REMARK    2  A    between atoms: C6_10  and  C7_11 
REMARK    3  A    between atoms: C8_12  and  O1_13 
REMARK    4  A    between atoms: N4_26  and  C17_27 
REMARK    5  A    between atoms: C17_27  and  N5_28 
REMARK    6  A    between atoms: C23_35  and  O2_36 
REMARK    7  A    between atoms: O2_36  and  C24_37 
REMARK    8  A    between atoms: C24_37  and  C25_38 
ROOT
HETATM    1  C3  UNL     1       1.045  -8.362   9.054  1.00  0.00     0.051 A 
HETATM    2  N1  UNL     1       1.351  -9.098  10.115  1.00  0.00    -0.351 N 
ATOM      3  H1  UNL     1       1.625  -8.614  10.970  1.00  0.00     0.166 HD
HETATM    4  C4  UNL     1       1.322 -10.481  10.135  1.00  0.00     0.119 A 
HETATM    5  C5  UNL     1       1.727 -11.068  11.392  1.00  0.00     0.140 A 
HETATM    6  N2  UNL     1       2.113 -10.174  12.410  1.00  0.00    -0.338 N 
ATOM      7  H2  UNL     1       2.120  -9.159  12.306  1.00  0.00     0.167 HD
HETATM    8  C6  UNL     1       2.455 -10.787  13.483  1.00  0.00     0.072 A 
HETATM    9  C15 UNL     1       2.318 -12.112  13.248  1.00  0.00     0.039 A 
HETATM   10  C16 UNL     1       2.587 -13.228  14.181  1.00  0.00     0.071 C 
HETATM   11  N4  UNL     1       1.862 -12.242  11.940  1.00  0.00    -0.316 N 
HETATM   12  C22 UNL     1       0.959 -11.057   8.992  1.00  0.00     0.183 A 
HETATM   13  F1  UNL     1       0.908 -12.375   8.798  1.00  0.00    -0.200 F 
HETATM   14  C23 UNL     1       0.615 -10.324   7.807  1.00  0.00     0.150 A 
HETATM   15  C28 UNL     1       0.669  -8.961   7.873  1.00  0.00     0.175 A 
HETATM   16  F2  UNL     1       0.371  -8.152   6.828  1.00  0.00    -0.201 F 
ENDROOT
BRANCH  11  17
HETATM   17  C17 UNL     1       1.522 -13.537  11.408  1.00  0.00     0.251 C 
BRANCH  17  18
HETATM   18  N5  UNL     1       0.265 -14.027  11.832  1.00  0.00    -0.397 N 
HETATM   19  C18 UNL     1      -0.911 -13.693  11.166  1.00  0.00     0.118 C 
HETATM   20  C19 UNL     1      -1.943 -14.770  11.507  1.00  0.00     0.021 C 
HETATM   21  C20 UNL     1      -1.112 -15.988  11.870  1.00  0.00     0.021 C 
HETATM   22  C21 UNL     1       0.220 -15.397  12.197  1.00  0.00     0.118 C 
ENDBRANCH  17  18
ENDBRANCH  11  17
BRANCH   8  23
HETATM   23  C7  UNL     1       2.907 -10.111  14.709  1.00  0.00     0.056 A 
HETATM   24  C8  UNL     1       2.415 -10.264  15.975  1.00  0.00     0.154 A 
HETATM   25  N3  UNL     1       3.118  -9.467  16.766  1.00  0.00    -0.336 N 
HETATM   26  C9  UNL     1       4.057  -8.793  16.075  1.00  0.00     0.047 A 
ATOM     27  H3  UNL     1       2.968  -9.376  17.771  1.00  0.00     0.168 HD
HETATM   28  C10 UNL     1       5.024  -7.861  16.424  1.00  0.00     0.054 A 
HETATM   29  C14 UNL     1       3.936  -9.191  14.764  1.00  0.00     0.007 A 
HETATM   30  C11 UNL     1       5.845  -7.358  15.441  1.00  0.00     0.036 A 
HETATM   31 CL1  UNL     1       7.071  -6.182  15.861  1.00  0.00    -0.084 Cl
HETATM   32  C12 UNL     1       5.719  -7.760  14.131  1.00  0.00     0.025 A 
HETATM   33  C13 UNL     1       4.773  -8.672  13.780  1.00  0.00     0.016 A 
BRANCH  24  34
HETATM   34  O1  UNL     1       1.356 -11.121  16.328  1.00  0.00    -0.345 OA
ATOM     35  H1  UNL     1       0.860 -11.649  15.714  1.00  0.00     0.219 HD
ENDBRANCH  24  34
ENDBRANCH   8  23
BRANCH   1  36
HETATM   36  C2  UNL     1       1.092  -6.884   9.123  1.00  0.00     0.056 C 
HETATM   37  C1  UNL     1       2.245  -6.342   9.905  1.00  0.00     0.011 C 
ENDBRANCH   1  36
BRANCH  14  38
HETATM   38  O2  UNL     1       0.248 -10.958   6.659  1.00  0.00    -0.345 OA
BRANCH  38  39
HETATM   39  C24 UNL     1      -1.026 -11.448   6.350  1.00  0.00     0.180 C 
BRANCH  39  40
HETATM   40  C25 UNL     1      -1.702 -10.454   5.436  1.00  0.00     0.010 A 
HETATM   41  C26 UNL     1      -2.551  -9.391   5.982  1.00  0.00     0.007 A 
HETATM   42  C27 UNL     1      -3.218 -10.581   5.335  1.00  0.00     0.007 A 
ENDBRANCH  39  40
ENDBRANCH  38  39
ENDBRANCH  14  38
TORSDOF 8
ENDMDL
MODEL 2
REMARK VINA RESULT: -8.687691891      3.409      6.902
REMARK  8 active torsions:
REMARK  status: ('A' for Active; 'I' for Inactive)
REMARK    1  A    between atoms: C2_2  and  C3_3 
REMARK    2  A    between atoms: C6_10  and  C7_11 
REMARK    3  A    between atoms: C8_12  and  O1_13 
REMARK    4  A    between atoms: N4_26  and  C17_27 
REMARK    5  A    between atoms: C17_27  and  N5_28 
REMARK    6  A    between atoms: C23_35  and  O2_36 
REMARK    7  A    between atoms: O2_36  and  C24_37 
REMARK    8  A    between atoms: C24_37  and  C25_38 
ROOT
HETATM    1  C3  UNL     1       1.225 -10.377   9.719  1.00  0.00     0.051 A 
HETATM    2  N1  UNL     1       1.268 -10.989  10.897  1.00  0.00    -0.351 N 
ATOM      3  H1  UNL     1       1.168 -12.004  10.912  1.00  0.00     0.166 HD
HETATM    4  C4  UNL     1       1.440 -10.336  12.104  1.00  0.00     0.119 A 
HETATM    5  C5  UNL     1       1.421 -11.205  13.259  1.00  0.00     0.140 A 
HETATM    6  N2  UNL     1       1.213 -12.576  13.013  1.00  0.00    -0.338 N 
ATOM      7  H2  UNL     1       1.079 -12.976  12.084  1.00  0.00     0.167 HD
HETATM    8  C6  UNL     1       1.211 -13.262  14.096  1.00  0.00     0.072 A 
HETATM    9  C15 UNL     1       1.419 -12.401  15.117  1.00  0.00     0.039 A 
HETATM   10  C16 UNL     1       1.504 -12.713  16.561  1.00  0.00     0.071 C 
HETATM   11  N4  UNL     1       1.545 -11.135  14.553  1.00  0.00    -0.316 N 
HETATM   12  C22 UNL     1       1.563  -9.014  12.022  1.00  0.00     0.183 A 
HETATM   13  F1  UNL     1       1.697  -8.204  13.073  1.00  0.00    -0.200 F 
HETATM   14  C23 UNL     1       1.527  -8.288  10.785  1.00  0.00     0.150 A 
HETATM   15  C28 UNL     1       1.354  -9.009   9.638  1.00  0.00     0.175 A 
HETATM   16  F2  UNL     1       1.300  -8.448   8.405  1.00  0.00    -0.201 F 
ENDROOT
BRANCH  11  17
HETATM   17  C17 UNL     1       1.871  -9.997  15.375  1.00  0.00     0.251 C 
BRANCH  17  18
HETATM   18  N5  UNL     1       3.178  -9.493  15.178  1.00  0.00    -0.397 N 
HETATM   19  C18 UNL     1       3.565  -8.251  15.676  1.00  0.00     0.118 C 
HETATM   20  C19 UNL     1       5.092  -8.263  15.776  1.00  0.00     0.021 C 
HETATM   21  C20 UNL     1       5.451  -9.733  15.896  1.00  0.00     0.021 C 
HETATM   22  C21 UNL     1       4.237 -10.419  15.359  1.00  0.00     0.118 C 
ENDBRANCH  17  18
ENDBRANCH  11  17
BRANCH   8  23
HETATM   23  C7  UNL     1       1.013 -14.720  14.147  1.00  0.00     0.056 A 
HETATM   24  C8  UNL     1      -0.063 -15.398  14.648  1.00  0.00     0.154 A 
HETATM   25  N3  UNL     1       0.181 -16.690  14.486  1.00  0.00    -0.336 N 
HETATM   26  C9  UNL     1       1.375 -16.895  13.898  1.00  0.00     0.047 A 
ATOM     27  H3  UNL     1      -0.456 -17.435  14.771  1.00  0.00     0.168 HD
HETATM   28  C10 UNL     1       2.077 -18.030  13.519  1.00  0.00     0.054 A 
HETATM   29  C14 UNL     1       1.918 -15.652  13.676  1.00  0.00     0.007 A 
HETATM   30  C11 UNL     1       3.308 -17.879  12.924  1.00  0.00     0.036 A 
HETATM   31 CL1  UNL     1       4.210 -19.298  12.438  1.00  0.00    -0.084 Cl
HETATM   32  C12 UNL     1       3.846 -16.632  12.704  1.00  0.00     0.025 A 
HETATM   33  C13 UNL     1       3.165 -15.514  13.073  1.00  0.00     0.016 A 
BRANCH  24  34
HETATM   34  O1  UNL     1      -1.198 -14.794  15.219  1.00  0.00    -0.345 OA
ATOM     35  H1  UNL     1      -1.217 -14.373  16.071  1.00  0.00     0.219 HD
ENDBRANCH  24  34
ENDBRANCH   8  23
BRANCH   1  36
HETATM   36  C2  UNL     1       1.048 -11.154   8.472  1.00  0.00     0.056 C 
HETATM   37  C1  UNL     1       0.857 -12.621   8.685  1.00  0.00     0.011 C 
ENDBRANCH   1  36
BRANCH  14  38
HETATM   38  O2  UNL     1       1.658  -6.933  10.750  1.00  0.00    -0.345 OA
BRANCH  38  39
HETATM   39  C24 UNL     1       2.859  -6.214  10.739  1.00  0.00     0.180 C 
BRANCH  39  40
HETATM   40  C25 UNL     1       3.995  -7.195  10.904  1.00  0.00     0.010 A 
HETATM   41  C26 UNL     1       4.696  -7.322  12.185  1.00  0.00     0.007 A 
HETATM   42  C27 UNL     1       5.380  -6.575  11.065  1.00  0.00     0.007 A 
ENDBRANCH  39  40
ENDBRANCH  38  39
ENDBRANCH  14  38
TORSDOF 8
ENDMDL
MODEL 3
REMARK VINA RESULT: -8.681986036      3.642      8.330
REMARK  8 active torsions:
REMARK  status: ('A' for Active; 'I' for Inactive)
REMARK    1  A    between atoms: C2_2  and  C3_3 
REMARK    2  A    between atoms: C6_10  and  C7_11 
REMARK    3  A    between atoms: C8_12  and  O1_13 
REMARK    4  A    between atoms: N4_26  and  C17_27 
REMARK    5  A    between atoms: C17_27  and  N5_28 
REMARK    6  A    between atoms: C23_35  and  O2_36 
REMARK    7  A    between atoms: O2_36  and  C24_37 
REMARK    8  A    between atoms: C24_37  and  C25_38 
ROOT
HETATM    1  C3  UNL     1       2.616  -8.458  10.860  1.00  0.00     0.051 A 
HETATM    2  N1  UNL     1       2.101  -9.559  10.327  1.00  0.00    -0.351 N 
ATOM      3  H1  UNL     1       1.944  -9.575   9.320  1.00  0.00     0.166 HD
HETATM    4  C4  UNL     1       1.764 -10.687  11.053  1.00  0.00     0.119 A 
HETATM    5  C5  UNL     1       1.188 -11.753  10.265  1.00  0.00     0.140 A 
HETATM    6  N2  UNL     1       1.027 -11.502   8.888  1.00  0.00    -0.338 N 
ATOM      7  H2  UNL     1       1.292 -10.629   8.432  1.00  0.00     0.167 HD
HETATM    8  C6  UNL     1       0.510 -12.503   8.276  1.00  0.00     0.072 A 
HETATM    9  C15 UNL     1       0.298 -13.471   9.196  1.00  0.00     0.039 A 
HETATM   10  C16 UNL     1      -0.278 -14.815   8.979  1.00  0.00     0.071 C 
HETATM   11  N4  UNL     1       0.735 -12.964  10.417  1.00  0.00    -0.316 N 
HETATM   12  C22 UNL     1       1.989 -10.608  12.362  1.00  0.00     0.183 A 
HETATM   13  F1  UNL     1       1.695 -11.572  13.235  1.00  0.00    -0.200 F 
HETATM   14  C23 UNL     1       2.542  -9.451  13.004  1.00  0.00     0.150 A 
HETATM   15  C28 UNL     1       2.849  -8.379  12.214  1.00  0.00     0.175 A 
HETATM   16  F2  UNL     1       3.376  -7.226  12.693  1.00  0.00    -0.201 F 
ENDROOT
BRANCH  11  17
HETATM   17  C17 UNL     1       0.733 -13.793  11.596  1.00  0.00     0.251 C 
BRANCH  17  18
HETATM   18  N5  UNL     1       1.833 -14.677  11.686  1.00  0.00    -0.397 N 
HETATM   19  C18 UNL     1       3.069 -14.259  12.170  1.00  0.00     0.118 C 
HETATM   20  C19 UNL     1       3.815 -15.510  12.639  1.00  0.00     0.021 C 
HETATM   21  C20 UNL     1       2.716 -16.511  12.950  1.00  0.00     0.021 C 
HETATM   22  C21 UNL     1       1.550 -15.974  12.186  1.00  0.00     0.118 C 
ENDBRANCH  17  18
ENDBRANCH  11  17
BRANCH   8  23
HETATM   23  C7  UNL     1       0.223 -12.527   6.832  1.00  0.00     0.056 A 
HETATM   24  C8  UNL     1       0.747 -13.369   5.892  1.00  0.00     0.154 A 
HETATM   25  N3  UNL     1       0.209 -13.037   4.728  1.00  0.00    -0.336 N 
HETATM   26  C9  UNL     1      -0.650 -12.008   4.859  1.00  0.00     0.047 A 
ATOM     27  H3  UNL     1       0.419 -13.501   3.844  1.00  0.00     0.168 HD
HETATM   28  C10 UNL     1      -1.449 -11.303   3.971  1.00  0.00     0.054 A 
HETATM   29  C14 UNL     1      -0.653 -11.671   6.192  1.00  0.00     0.007 A 
HETATM   30  C11 UNL     1      -2.231 -10.279   4.451  1.00  0.00     0.036 A 
HETATM   31 CL1  UNL     1      -3.246  -9.378   3.347  1.00  0.00    -0.084 Cl
HETATM   32  C12 UNL     1      -2.229  -9.947   5.787  1.00  0.00     0.025 A 
HETATM   33  C13 UNL     1      -1.448 -10.631   6.665  1.00  0.00     0.016 A 
BRANCH  24  34
HETATM   34  O1  UNL     1       1.681 -14.388   6.157  1.00  0.00    -0.345 OA
ATOM     35  H1  UNL     1       2.617 -14.253   6.252  1.00  0.00     0.219 HD
ENDBRANCH  24  34
ENDBRANCH   8  23
BRANCH   1  36
HETATM   36  C2  UNL     1       2.959  -7.297  10.007  1.00  0.00     0.056 C 
HETATM   37  C1  UNL     1       1.790  -6.678   9.313  1.00  0.00     0.011 C 
ENDBRANCH   1  36
BRANCH  14  38
HETATM   38  O2  UNL     1       2.756  -9.416  14.349  1.00  0.00    -0.345 OA
BRANCH  38  39
HETATM   39  C24 UNL     1       3.731 -10.131  15.055  1.00  0.00     0.180 C 
BRANCH  39  40
HETATM   40  C25 UNL     1       4.629  -9.136  15.752  1.00  0.00     0.010 A 
HETATM   41  C26 UNL     1       5.669  -8.417  15.011  1.00  0.00     0.007 A 
HETATM   42  C27 UNL     1       6.086  -9.561  15.905  1.00  0.00     0.007 A 
ENDBRANCH  39  40
ENDBRANCH  38  39
ENDBRANCH  14  38
TORSDOF 8
ENDMDL
MODEL 4
REMARK VINA RESULT: -8.480498961      3.704      8.225
REMARK  8 active torsions:
REMARK  status: ('A' for Active; 'I' for Inactive)
REMARK    1  A    between atoms: C2_2  and  C3_3 
REMARK    2  A    between atoms: C6_10  and  C7_11 
REMARK    3  A    between atoms: C8_12  and  O1_13 
REMARK    4  A    between atoms: N4_26  and  C17_27 
REMARK    5  A    between atoms: C17_27  and  N5_28 
REMARK    6  A    between atoms: C23_35  and  O2_36 
REMARK    7  A    between atoms: O2_36  and  C24_37 
REMARK    8  A    between atoms: C24_37  and  C25_38 
ROOT
HETATM    1  C3  UNL     1       2.667  -8.503  11.050  1.00  0.00     0.051 A 
HETATM    2  N1  UNL     1       2.066  -9.561  10.520  1.00  0.00    -0.351 N 
ATOM      3  H1  UNL     1       2.017  -9.624   9.503  1.00  0.00     0.166 HD
HETATM    4  C4  UNL     1       1.502 -10.585  11.261  1.00  0.00     0.119 A 
HETATM    5  C5  UNL     1       0.874 -11.617  10.468  1.00  0.00     0.140 A 
HETATM    6  N2  UNL     1       0.897 -11.442   9.071  1.00  0.00    -0.338 N 
ATOM      7  H2  UNL     1       1.325 -10.642   8.603  1.00  0.00     0.167 HD
HETATM    8  C6  UNL     1       0.316 -12.405   8.457  1.00  0.00     0.072 A 
HETATM    9  C15 UNL     1      -0.122 -13.273   9.396  1.00  0.00     0.039 A 
HETATM   10  C16 UNL     1      -0.850 -14.543   9.185  1.00  0.00     0.071 C 
HETATM   11  N4  UNL     1       0.246 -12.747  10.630  1.00  0.00    -0.316 N 
HETATM   12  C22 UNL     1       1.595 -10.447  12.581  1.00  0.00     0.183 A 
HETATM   13  F1  UNL     1       1.080 -11.304  13.464  1.00  0.00    -0.200 F 
HETATM   14  C23 UNL     1       2.229  -9.331  13.221  1.00  0.00     0.150 A 
HETATM   15  C28 UNL     1       2.762  -8.364  12.416  1.00  0.00     0.175 A 
HETATM   16  F2  UNL     1       3.387  -7.259  12.891  1.00  0.00    -0.201 F 
ENDROOT
BRANCH  11  17
HETATM   17  C17 UNL     1       0.006 -13.487  11.844  1.00  0.00     0.251 C 
BRANCH  17  18
HETATM   18  N5  UNL     1       1.096 -14.284  12.264  1.00  0.00    -0.397 N 
HETATM   19  C18 UNL     1       2.376 -14.099  11.750  1.00  0.00     0.118 C 
HETATM   20  C19 UNL     1       3.357 -14.695  12.762  1.00  0.00     0.021 C 
HETATM   21  C20 UNL     1       2.610 -14.651  14.083  1.00  0.00     0.021 C 
HETATM   22  C21 UNL     1       1.184 -14.536  13.657  1.00  0.00     0.118 C 
ENDBRANCH  17  18
ENDBRANCH  11  17
BRANCH   8  23
HETATM   23  C7  UNL     1       0.185 -12.489   6.993  1.00  0.00     0.056 A 
HETATM   24  C8  UNL     1       0.768 -13.397   6.154  1.00  0.00     0.154 A 
HETATM   25  N3  UNL     1       0.373 -13.101   4.924  1.00  0.00    -0.336 N 
HETATM   26  C9  UNL     1      -0.448 -12.034   4.915  1.00  0.00     0.047 A 
ATOM     27  H3  UNL     1       0.656 -13.617   4.091  1.00  0.00     0.168 HD
HETATM   28  C10 UNL     1      -1.115 -11.343   3.914  1.00  0.00     0.054 A 
HETATM   29  C14 UNL     1      -0.579 -11.632   6.224  1.00  0.00     0.007 A 
HETATM   30  C11 UNL     1      -1.897 -10.265   4.261  1.00  0.00     0.036 A 
HETATM   31 CL1  UNL     1      -2.747  -9.381   3.013  1.00  0.00    -0.084 Cl
HETATM   32  C12 UNL     1      -2.024  -9.868   5.572  1.00  0.00     0.025 A 
HETATM   33  C13 UNL     1      -1.373 -10.539   6.560  1.00  0.00     0.016 A 
BRANCH  24  34
HETATM   34  O1  UNL     1       1.622 -14.437   6.564  1.00  0.00    -0.345 OA
ATOM     35  H1  UNL     1       2.568 -14.426   6.479  1.00  0.00     0.219 HD
ENDBRANCH  24  34
ENDBRANCH   8  23
BRANCH   1  36
HETATM   36  C2  UNL     1       3.254  -7.457  10.183  1.00  0.00     0.056 C 
HETATM   37  C1  UNL     1       2.264  -6.470   9.654  1.00  0.00     0.011 C 
ENDBRANCH   1  36
BRANCH  14  38
HETATM   38  O2  UNL     1       2.301  -9.234  14.577  1.00  0.00    -0.345 OA
BRANCH  38  39
HETATM   39  C24 UNL     1       2.860 -10.175  15.450  1.00  0.00     0.180 C 
BRANCH  39  40
HETATM   40  C25 UNL     1       1.846 -10.476  16.528  1.00  0.00     0.010 A 
HETATM   41  C26 UNL     1       2.257 -11.098  17.791  1.00  0.00     0.007 A 
HETATM   42  C27 UNL     1       1.557 -11.955  16.763  1.00  0.00     0.007 A 
ENDBRANCH  39  40
ENDBRANCH  38  39
ENDBRANCH  14  38
TORSDOF 8
ENDMDL
MODEL 5
REMARK VINA RESULT: -8.318990534      3.571      9.276
REMARK  8 active torsions:
REMARK  status: ('A' for Active; 'I' for Inactive)
REMARK    1  A    between atoms: C2_2  and  C3_3 
REMARK    2  A    between atoms: C6_10  and  C7_11 
REMARK    3  A    between atoms: C8_12  and  O1_13 
REMARK    4  A    between atoms: N4_26  and  C17_27 
REMARK    5  A    between atoms: C17_27  and  N5_28 
REMARK    6  A    between atoms: C23_35  and  O2_36 
REMARK    7  A    between atoms: O2_36  and  C24_37 
REMARK    8  A    between atoms: C24_37  and  C25_38 
ROOT
HETATM    1  C3  UNL     1       0.778 -12.735  13.664  1.00  0.00     0.051 A 
HETATM    2  N1  UNL     1       0.774 -12.020  12.546  1.00  0.00    -0.351 N 
ATOM      3  H1  UNL     1       0.482 -12.480  11.684  1.00  0.00     0.166 HD
HETATM    4  C4  UNL     1       1.142 -10.688  12.476  1.00  0.00     0.119 A 
HETATM    5  C5  UNL     1       1.092 -10.125  11.146  1.00  0.00     0.140 A 
HETATM    6  N2  UNL     1       0.702 -10.994  10.108  1.00  0.00    -0.338 N 
ATOM      7  H2  UNL     1       0.459 -11.975  10.245  1.00  0.00     0.167 HD
HETATM    8  C6  UNL     1       0.688 -10.404   8.969  1.00  0.00     0.072 A 
HETATM    9  C15 UNL     1       1.062  -9.121   9.178  1.00  0.00     0.039 A 
HETATM   10  C16 UNL     1       1.195  -8.044   8.173  1.00  0.00     0.071 C 
HETATM   11  N4  UNL     1       1.301  -8.991  10.542  1.00  0.00    -0.316 N 
HETATM   12  C22 UNL     1       1.516 -10.142  13.630  1.00  0.00     0.183 A 
HETATM   13  F1  UNL     1       1.943  -8.886  13.764  1.00  0.00    -0.200 F 
HETATM   14  C23 UNL     1       1.543 -10.855  14.875  1.00  0.00     0.150 A 
HETATM   15  C28 UNL     1       1.163 -12.167  14.856  1.00  0.00     0.175 A 
HETATM   16  F2  UNL     1       1.144 -12.954  15.960  1.00  0.00    -0.201 F 
ENDROOT
BRANCH  11  17
HETATM   17  C17 UNL     1       1.628  -7.706  11.108  1.00  0.00     0.251 C 
BRANCH  17  18
HETATM   18  N5  UNL     1       2.982  -7.328  10.949  1.00  0.00    -0.397 N 
HETATM   19  C18 UNL     1       3.356  -5.994  10.813  1.00  0.00     0.118 C 
HETATM   20  C19 UNL     1       4.831  -5.898  11.209  1.00  0.00     0.021 C 
HETATM   21  C20 UNL     1       5.053  -7.087  12.128  1.00  0.00     0.021 C 
HETATM   22  C21 UNL     1       3.917  -7.993  11.783  1.00  0.00     0.118 C 
ENDBRANCH  17  18
ENDBRANCH  11  17
BRANCH   8  23
HETATM   23  C7  UNL     1       0.324 -11.063   7.705  1.00  0.00     0.056 A 
HETATM   24  C8  UNL     1       0.768 -12.268   7.234  1.00  0.00     0.154 A 
HETATM   25  N3  UNL     1       0.180 -12.469   6.064  1.00  0.00    -0.336 N 
HETATM   26  C9  UNL     1      -0.635 -11.447   5.741  1.00  0.00     0.047 A 
ATOM     27  H3  UNL     1       0.327 -13.294   5.482  1.00  0.00     0.168 HD
HETATM   28  C10 UNL     1      -1.456 -11.179   4.655  1.00  0.00     0.054 A 
HETATM   29  C14 UNL     1      -0.555 -10.544   6.774  1.00  0.00     0.007 A 
HETATM   30  C11 UNL     1      -2.176 -10.006   4.642  1.00  0.00     0.036 A 
HETATM   31 CL1  UNL     1      -3.217  -9.649   3.283  1.00  0.00    -0.084 Cl
HETATM   32  C12 UNL     1      -2.091  -9.106   5.680  1.00  0.00     0.025 A 
HETATM   33  C13 UNL     1      -1.288  -9.361   6.748  1.00  0.00     0.016 A 
BRANCH  24  34
HETATM   34  O1  UNL     1       1.680 -13.105   7.903  1.00  0.00    -0.345 OA
ATOM     35  H1  UNL     1       2.109 -12.893   8.723  1.00  0.00     0.219 HD
ENDBRANCH  24  34
ENDBRANCH   8  23
BRANCH   1  36
HETATM   36  C2  UNL     1       0.357 -14.155  13.651  1.00  0.00     0.056 C 
HETATM   37  C1  UNL     1      -1.120 -14.357  13.562  1.00  0.00     0.011 C 
ENDBRANCH   1  36
BRANCH  14  38
HETATM   38  O2  UNL     1       1.932 -10.252  16.032  1.00  0.00    -0.345 OA
BRANCH  38  39
HETATM   39  C24 UNL     1       3.132 -10.468  16.721  1.00  0.00     0.180 C 
BRANCH  39  40
HETATM   40  C25 UNL     1       4.086  -9.354  16.361  1.00  0.00     0.010 A 
HETATM   41  C26 UNL     1       4.852  -9.398  15.112  1.00  0.00     0.007 A 
HETATM   42  C27 UNL     1       5.566  -9.718  16.403  1.00  0.00     0.007 A 
ENDBRANCH  39  40
ENDBRANCH  38  39
ENDBRANCH  14  38
TORSDOF 8
ENDMDL
