MODEL 1
REMARK VINA RESULT: -7.897931588      0.000      0.000
REMARK  11 active torsions:
REMARK  status: ('A' for Active; 'I' for Inactive)
REMARK    1  A    between atoms: C2_2  and  C3_3 
REMARK    2  A    between atoms: C3_3  and  C4_4 
REMARK    3  A    between atoms: C4_4  and  C5_5 
REMARK    4  A    between atoms: C6_6  and  C7_7 
REMARK    5  A    between atoms: C7_7  and  O2_9 
REMARK    6  A    between atoms: O2_9  and  C8_10 
REMARK    7  A    between atoms: C13_15  and  C14_16 
REMARK    8  A    between atoms: C15_21  and  C16_22 
REMARK    9  A    between atoms: C16_22  and  O5_25 
REMARK   10  A    between atoms: N2_27  and  C19_28 
REMARK   11  A    between atoms: C19_28  and  C20_29 
ROOT
HETATM    1  C5  UNL     1       0.577 -11.039  12.192  1.00  0.00     0.050 A 
HETATM    2  C6  UNL     1       0.320 -12.091  11.371  1.00  0.00     0.133 A 
HETATM    3  N1  UNL     1       0.587 -11.628  10.116  1.00  0.00    -0.336 N 
ATOM      4  H1  UNL     1       0.501 -12.169   9.255  1.00  0.00     0.167 HD
HETATM    5  C15 UNL     1       0.981 -10.349  10.193  1.00  0.00     0.123 A 
HETATM    6  N2  UNL     1       0.989  -9.942  11.472  1.00  0.00    -0.310 N 
ENDROOT
BRANCH   2   7
HETATM    7  C7  UNL     1      -0.227 -13.406  11.633  1.00  0.00     0.312 C 
HETATM    8  O1  UNL     1      -1.376 -13.722  11.937  1.00  0.00    -0.258 OA
BRANCH   7   9
HETATM    9  O2  UNL     1       0.639 -14.532  11.543  1.00  0.00    -0.310 OA
BRANCH   9  10
HETATM   10  C8  UNL     1       1.571 -14.863  12.522  1.00  0.00     0.146 C 
HETATM   11  C9  UNL     1       0.954 -15.589  13.702  1.00  0.00     0.033 C 
HETATM   12  C10 UNL     1       1.996 -15.758  14.788  1.00  0.00     0.002 C 
HETATM   13  C11 UNL     1       3.373 -15.348  14.312  1.00  0.00     0.001 C 
HETATM   14  C12 UNL     1       3.739 -15.882  12.971  1.00  0.00     0.018 C 
HETATM   15  C13 UNL     1       2.672 -15.687  11.924  1.00  0.00     0.116 C 
BRANCH  15  16
HETATM   16  C14 UNL     1       2.220 -16.998  11.439  1.00  0.00     0.179 C 
HETATM   17  O3  UNL     1       2.446 -18.018  12.132  1.00  0.00    -0.648 OA
HETATM   18  O4  UNL     1       1.544 -17.185  10.241  1.00  0.00    -0.648 OA
ENDBRANCH  15  16
ENDBRANCH   9  10
ENDBRANCH   7   9
ENDBRANCH   2   7
BRANCH   1  19
HETATM   19  C4  UNL     1       0.525 -11.038  13.666  1.00  0.00     0.060 C 
BRANCH  19  20
HETATM   20  C3  UNL     1       1.562 -11.831  14.380  1.00  0.00     0.006 C 
BRANCH  20  21
HETATM   21  C2  UNL     1       1.224 -12.264  15.772  1.00  0.00    -0.004 C 
HETATM   22  C1  UNL     1       1.589 -11.175  16.779  1.00  0.00     0.005 C 
ENDBRANCH  20  21
ENDBRANCH  19  20
ENDBRANCH   1  19
BRANCH   6  23
HETATM   23  C19 UNL     1       1.372  -8.713  11.993  1.00  0.00     0.111 C 
BRANCH  23  24
HETATM   24  C20 UNL     1       2.686  -8.362  12.432  1.00  0.00     0.003 A 
HETATM   25  C21 UNL     1       3.096  -8.991  13.640  1.00  0.00     0.040 A 
HETATM   26  C22 UNL     1       4.317  -8.754  14.207  1.00  0.00     0.056 A 
HETATM   27 CL1  UNL     1       4.811  -9.530  15.692  1.00  0.00    -0.083 Cl
HETATM   28  C23 UNL     1       5.188  -7.875  13.588  1.00  0.00     0.057 A 
HETATM   29 CL2  UNL     1       6.784  -7.515  14.250  1.00  0.00    -0.082 Cl
HETATM   30  C24 UNL     1       4.829  -7.246  12.416  1.00  0.00     0.050 A 
HETATM   31  C25 UNL     1       3.557  -7.514  11.857  1.00  0.00     0.047 A 
HETATM   32 CL3  UNL     1       3.161  -6.707  10.396  1.00  0.00    -0.083 Cl
ENDBRANCH  23  24
ENDBRANCH   6  23
BRANCH   5  33
HETATM   33  C16 UNL     1       1.343  -9.592   8.968  1.00  0.00     0.109 C 
HETATM   34  C17 UNL     1       0.759 -10.326   7.779  1.00  0.00     0.054 C 
HETATM   35  C18 UNL     1       2.848  -9.532   8.750  1.00  0.00     0.054 C 
BRANCH  33  36
HETATM   36  O5  UNL     1       0.881  -8.308   8.940  1.00  0.00    -0.383 OA
ATOM     37  H5  UNL     1       0.922  -7.894   8.086  1.00  0.00     0.211 HD
ENDBRANCH  33  36
ENDBRANCH   5  33
TORSDOF 11
ENDMDL
MODEL 2
REMARK VINA RESULT: -7.874640805      3.097      7.129
REMARK  11 active torsions:
REMARK  status: ('A' for Active; 'I' for Inactive)
REMARK    1  A    between atoms: C2_2  and  C3_3 
REMARK    2  A    between atoms: C3_3  and  C4_4 
REMARK    3  A    between atoms: C4_4  and  C5_5 
REMARK    4  A    between atoms: C6_6  and  C7_7 
REMARK    5  A    between atoms: C7_7  and  O2_9 
REMARK    6  A    between atoms: O2_9  and  C8_10 
REMARK    7  A    between atoms: C13_15  and  C14_16 
REMARK    8  A    between atoms: C15_21  and  C16_22 
REMARK    9  A    between atoms: C16_22  and  O5_25 
REMARK   10  A    between atoms: N2_27  and  C19_28 
REMARK   11  A    between atoms: C19_28  and  C20_29 
ROOT
HETATM    1  C5  UNL     1       1.139 -11.597  14.051  1.00  0.00     0.050 A 
HETATM    2  C6  UNL     1       1.646 -10.540  13.365  1.00  0.00     0.133 A 
HETATM    3  N1  UNL     1       1.796 -10.993  12.086  1.00  0.00    -0.336 N 
ATOM      4  H1  UNL     1       2.155 -10.445  11.303  1.00  0.00     0.167 HD
HETATM    5  C15 UNL     1       1.397 -12.271  12.022  1.00  0.00     0.123 A 
HETATM    6  N2  UNL     1       0.978 -12.687  13.228  1.00  0.00    -0.310 N 
ENDROOT
BRANCH   2   7
HETATM    7  C7  UNL     1       2.081  -9.229  13.799  1.00  0.00     0.312 C 
HETATM    8  O1  UNL     1       2.756  -8.921  14.781  1.00  0.00    -0.258 OA
BRANCH   7   9
HETATM    9  O2  UNL     1       1.707  -8.097  13.022  1.00  0.00    -0.310 OA
BRANCH   9  10
HETATM   10  C8  UNL     1       2.615  -7.329  12.300  1.00  0.00     0.146 C 
HETATM   11  C9  UNL     1       3.986  -7.970  12.206  1.00  0.00     0.033 C 
HETATM   12  C10 UNL     1       4.950  -6.999  11.557  1.00  0.00     0.002 C 
HETATM   13  C11 UNL     1       4.238  -5.779  11.014  1.00  0.00     0.001 C 
HETATM   14  C12 UNL     1       3.005  -6.088  10.238  1.00  0.00     0.018 C 
HETATM   15  C13 UNL     1       2.076  -7.054  10.927  1.00  0.00     0.116 C 
BRANCH  15  16
HETATM   16  C14 UNL     1       1.935  -8.264  10.105  1.00  0.00     0.179 C 
HETATM   17  O3  UNL     1       0.888  -8.947  10.196  1.00  0.00    -0.648 OA
HETATM   18  O4  UNL     1       2.905  -8.709   9.216  1.00  0.00    -0.648 OA
ENDBRANCH  15  16
ENDBRANCH   9  10
ENDBRANCH   7   9
ENDBRANCH   2   7
BRANCH   1  19
HETATM   19  C4  UNL     1       0.715 -11.610  15.463  1.00  0.00     0.060 C 
BRANCH  19  20
HETATM   20  C3  UNL     1       1.783 -11.771  16.488  1.00  0.00     0.006 C 
BRANCH  20  21
HETATM   21  C2  UNL     1       1.818 -10.744  17.575  1.00  0.00    -0.004 C 
HETATM   22  C1  UNL     1       2.235 -11.375  18.902  1.00  0.00     0.005 C 
ENDBRANCH  20  21
ENDBRANCH  19  20
ENDBRANCH   1  19
BRANCH   6  23
HETATM   23  C19 UNL     1       0.447 -13.919  13.588  1.00  0.00     0.111 C 
BRANCH  23  24
HETATM   24  C20 UNL     1       0.960 -14.789  14.599  1.00  0.00     0.003 A 
HETATM   25  C21 UNL     1      -0.021 -15.310  15.487  1.00  0.00     0.040 A 
HETATM   26  C22 UNL     1       0.301 -16.145  16.520  1.00  0.00     0.056 A 
HETATM   27 CL1  UNL     1      -0.911 -16.778  17.608  1.00  0.00    -0.083 Cl
HETATM   28  C23 UNL     1       1.624 -16.499  16.713  1.00  0.00     0.057 A 
HETATM   29 CL2  UNL     1       2.127 -17.574  18.019  1.00  0.00    -0.082 Cl
HETATM   30  C24 UNL     1       2.605 -16.017  15.874  1.00  0.00     0.050 A 
HETATM   31  C25 UNL     1       2.236 -15.155  14.814  1.00  0.00     0.047 A 
HETATM   32 CL3  UNL     1       3.494 -14.585  13.797  1.00  0.00    -0.083 Cl
ENDBRANCH  23  24
ENDBRANCH   6  23
BRANCH   5  33
HETATM   33  C16 UNL     1       1.447 -13.017  10.739  1.00  0.00     0.109 C 
HETATM   34  C17 UNL     1       2.309 -12.229   9.776  1.00  0.00     0.054 C 
HETATM   35  C18 UNL     1       0.075 -13.148  10.094  1.00  0.00     0.054 C 
BRANCH  33  36
HETATM   36  O5  UNL     1       1.966 -14.275  10.838  1.00  0.00    -0.383 OA
ATOM     37  H5  UNL     1       2.761 -14.333  11.356  1.00  0.00     0.211 HD
ENDBRANCH  33  36
ENDBRANCH   5  33
TORSDOF 11
ENDMDL
MODEL 3
REMARK VINA RESULT: -7.847155074      2.837      5.921
REMARK  11 active torsions:
REMARK  status: ('A' for Active; 'I' for Inactive)
REMARK    1  A    between atoms: C2_2  and  C3_3 
REMARK    2  A    between atoms: C3_3  and  C4_4 
REMARK    3  A    between atoms: C4_4  and  C5_5 
REMARK    4  A    between atoms: C6_6  and  C7_7 
REMARK    5  A    between atoms: C7_7  and  O2_9 
REMARK    6  A    between atoms: O2_9  and  C8_10 
REMARK    7  A    between atoms: C13_15  and  C14_16 
REMARK    8  A    between atoms: C15_21  and  C16_22 
REMARK    9  A    between atoms: C16_22  and  O5_25 
REMARK   10  A    between atoms: N2_27  and  C19_28 
REMARK   11  A    between atoms: C19_28  and  C20_29 
ROOT
HETATM    1  C5  UNL     1       0.808 -10.950  10.597  1.00  0.00     0.050 A 
HETATM    2  C6  UNL     1       1.040 -10.919   9.258  1.00  0.00     0.133 A 
HETATM    3  N1  UNL     1       1.503  -9.660   9.012  1.00  0.00    -0.336 N 
ATOM      4  H1  UNL     1       1.779  -9.299   8.099  1.00  0.00     0.167 HD
HETATM    5  C15 UNL     1       1.537  -8.971  10.162  1.00  0.00     0.123 A 
HETATM    6  N2  UNL     1       1.112  -9.740  11.176  1.00  0.00    -0.310 N 
ENDROOT
BRANCH   2   7
HETATM    7  C7  UNL     1       0.783 -11.888   8.214  1.00  0.00     0.312 C 
HETATM    8  O1  UNL     1       0.792 -13.117   8.275  1.00  0.00    -0.258 OA
BRANCH   7   9
HETATM    9  O2  UNL     1       0.472 -11.414   6.908  1.00  0.00    -0.310 OA
BRANCH   9  10
HETATM   10  C8  UNL     1      -0.785 -10.943   6.543  1.00  0.00     0.146 C 
HETATM   11  C9  UNL     1      -0.797  -9.454   6.259  1.00  0.00     0.033 C 
HETATM   12  C10 UNL     1      -2.225  -8.997   6.038  1.00  0.00     0.002 C 
HETATM   13  C11 UNL     1      -3.182 -10.166   5.961  1.00  0.00     0.001 C 
HETATM   14  C12 UNL     1      -2.714 -11.282   5.091  1.00  0.00     0.018 C 
HETATM   15  C13 UNL     1      -1.291 -11.702   5.352  1.00  0.00     0.116 C 
BRANCH  15  16
HETATM   16  C14 UNL     1      -0.489 -11.484   4.140  1.00  0.00     0.179 C 
HETATM   17  O3  UNL     1      -1.013 -10.917   3.153  1.00  0.00    -0.648 OA
HETATM   18  O4  UNL     1       0.839 -11.871   4.015  1.00  0.00    -0.648 OA
ENDBRANCH  15  16
ENDBRANCH   9  10
ENDBRANCH   7   9
ENDBRANCH   2   7
BRANCH   1  19
HETATM   19  C4  UNL     1       0.374 -12.115  11.390  1.00  0.00     0.060 C 
BRANCH  19  20
HETATM   20  C3  UNL     1       1.345 -13.235  11.532  1.00  0.00     0.006 C 
BRANCH  20  21
HETATM   21  C2  UNL     1       2.774 -12.850  11.751  1.00  0.00    -0.004 C 
HETATM   22  C1  UNL     1       3.378 -13.649  12.904  1.00  0.00     0.005 C 
ENDBRANCH  20  21
ENDBRANCH  19  20
ENDBRANCH   1  19
BRANCH   6  23
HETATM   23  C19 UNL     1       1.032  -9.433  12.529  1.00  0.00     0.111 C 
BRANCH  23  24
HETATM   24  C20 UNL     1       2.075  -9.608  13.490  1.00  0.00     0.003 A 
HETATM   25  C21 UNL     1       3.194  -8.748  13.315  1.00  0.00     0.040 A 
HETATM   26  C22 UNL     1       4.285  -8.794  14.137  1.00  0.00     0.056 A 
HETATM   27 CL1  UNL     1       5.656  -7.735  13.912  1.00  0.00    -0.083 Cl
HETATM   28  C23 UNL     1       4.307  -9.706  15.177  1.00  0.00     0.057 A 
HETATM   29 CL2  UNL     1       5.673  -9.831  16.286  1.00  0.00    -0.082 Cl
HETATM   30  C24 UNL     1       3.242 -10.557  15.382  1.00  0.00     0.050 A 
HETATM   31  C25 UNL     1       2.129 -10.481  14.511  1.00  0.00     0.047 A 
HETATM   32 CL3  UNL     1       0.829 -11.560  14.811  1.00  0.00    -0.083 Cl
ENDBRANCH  23  24
ENDBRANCH   6  23
BRANCH   5  33
HETATM   33  C16 UNL     1       2.009  -7.563  10.189  1.00  0.00     0.109 C 
HETATM   34  C17 UNL     1       1.546  -6.894   8.912  1.00  0.00     0.054 C 
HETATM   35  C18 UNL     1       3.528  -7.464  10.211  1.00  0.00     0.054 C 
BRANCH  33  36
HETATM   36  O5  UNL     1       1.543  -6.831  11.242  1.00  0.00    -0.383 OA
ATOM     37  H5  UNL     1       1.395  -5.913  11.047  1.00  0.00     0.211 HD
ENDBRANCH  33  36
ENDBRANCH   5  33
TORSDOF 11
ENDMDL
MODEL 4
REMARK VINA RESULT: -7.751555480      3.577      7.178
REMARK  11 active torsions:
REMARK  status: ('A' for Active; 'I' for Inactive)
REMARK    1  A    between atoms: C2_2  and  C3_3 
REMARK    2  A    between atoms: C3_3  and  C4_4 
REMARK    3  A    between atoms: C4_4  and  C5_5 
REMARK    4  A    between atoms: C6_6  and  C7_7 
REMARK    5  A    between atoms: C7_7  and  O2_9 
REMARK    6  A    between atoms: O2_9  and  C8_10 
REMARK    7  A    between atoms: C13_15  and  C14_16 
REMARK    8  A    between atoms: C15_21  and  C16_22 
REMARK    9  A    between atoms: C16_22  and  O5_25 
REMARK   10  A    between atoms: N2_27  and  C19_28 
REMARK   11  A    between atoms: C19_28  and  C20_29 
ROOT
HETATM    1  C5  UNL     1       2.071  -9.136  10.968  1.00  0.00     0.050 A 
HETATM    2  C6  UNL     1       1.995  -9.324  12.312  1.00  0.00     0.133 A 
HETATM    3  N1  UNL     1       1.772 -10.661  12.465  1.00  0.00    -0.336 N 
ATOM      4  H1  UNL     1       1.667 -11.144  13.358  1.00  0.00     0.167 HD
HETATM    5  C15 UNL     1       1.712 -11.239  11.257  1.00  0.00     0.123 A 
HETATM    6  N2  UNL     1       1.895 -10.322  10.295  1.00  0.00    -0.310 N 
ENDROOT
BRANCH   2   7
HETATM    7  C7  UNL     1       2.011  -8.389  13.417  1.00  0.00     0.312 C 
HETATM    8  O1  UNL     1       1.650  -7.213  13.445  1.00  0.00    -0.258 OA
BRANCH   7   9
HETATM    9  O2  UNL     1       2.506  -8.834  14.676  1.00  0.00    -0.310 OA
BRANCH   9  10
HETATM   10  C8  UNL     1       3.853  -8.805  15.023  1.00  0.00     0.146 C 
HETATM   11  C9  UNL     1       4.230  -7.574  15.823  1.00  0.00     0.033 C 
HETATM   12  C10 UNL     1       5.733  -7.538  16.010  1.00  0.00     0.002 C 
HETATM   13  C11 UNL     1       6.388  -8.816  15.536  1.00  0.00     0.001 C 
HETATM   14  C12 UNL     1       5.705 -10.058  15.994  1.00  0.00     0.018 C 
HETATM   15  C13 UNL     1       4.213 -10.047  15.783  1.00  0.00     0.116 C 
BRANCH  15  16
HETATM   16  C14 UNL     1       3.536 -10.150  17.083  1.00  0.00     0.179 C 
HETATM   17  O3  UNL     1       4.195  -9.962  18.132  1.00  0.00    -0.648 OA
HETATM   18  O4  UNL     1       2.188 -10.446  17.229  1.00  0.00    -0.648 OA
ENDBRANCH  15  16
ENDBRANCH   9  10
ENDBRANCH   7   9
ENDBRANCH   2   7
BRANCH   1  19
HETATM   19  C4  UNL     1       2.385  -7.875  10.270  1.00  0.00     0.060 C 
BRANCH  19  20
HETATM   20  C3  UNL     1       3.819  -7.484  10.193  1.00  0.00     0.006 C 
BRANCH  20  21
HETATM   21  C2  UNL     1       4.306  -6.539  11.246  1.00  0.00    -0.004 C 
HETATM   22  C1  UNL     1       5.329  -7.220  12.152  1.00  0.00     0.005 C 
ENDBRANCH  20  21
ENDBRANCH  19  20
ENDBRANCH   1  19
BRANCH   6  23
HETATM   23  C19 UNL     1       1.951 -10.503   8.918  1.00  0.00     0.111 C 
BRANCH  23  24
HETATM   24  C20 UNL     1       0.835 -10.496   8.026  1.00  0.00     0.003 A 
HETATM   25  C21 UNL     1       0.371 -11.786   7.647  1.00  0.00     0.040 A 
HETATM   26  C22 UNL     1      -0.679 -11.960   6.788  1.00  0.00     0.056 A 
HETATM   27 CL1  UNL     1      -1.240 -13.549   6.327  1.00  0.00    -0.083 Cl
HETATM   28  C23 UNL     1      -1.314 -10.848   6.268  1.00  0.00     0.057 A 
HETATM   29 CL2  UNL     1      -2.677 -10.981   5.156  1.00  0.00    -0.082 Cl
HETATM   30  C24 UNL     1      -0.896  -9.580   6.611  1.00  0.00     0.050 A 
HETATM   31  C25 UNL     1       0.194  -9.437   7.502  1.00  0.00     0.047 A 
HETATM   32 CL3  UNL     1       0.673  -7.838   7.898  1.00  0.00    -0.083 Cl
ENDBRANCH  23  24
ENDBRANCH   6  23
BRANCH   5  33
HETATM   33  C16 UNL     1       1.481 -12.700  11.127  1.00  0.00     0.109 C 
HETATM   34  C17 UNL     1      -0.013 -12.929  11.035  1.00  0.00     0.054 C 
HETATM   35  C18 UNL     1       1.969 -13.472  12.345  1.00  0.00     0.054 C 
BRANCH  33  36
HETATM   36  O5  UNL     1       2.064 -13.269  10.032  1.00  0.00    -0.383 OA
ATOM     37  H5  UNL     1       1.812 -12.876   9.204  1.00  0.00     0.211 HD
ENDBRANCH  33  36
ENDBRANCH   5  33
TORSDOF 11
ENDMDL
MODEL 5
REMARK VINA RESULT: -7.737578216      2.600      5.791
REMARK  11 active torsions:
REMARK  status: ('A' for Active; 'I' for Inactive)
REMARK    1  A    between atoms: C2_2  and  C3_3 
REMARK    2  A    between atoms: C3_3  and  C4_4 
REMARK    3  A    between atoms: C4_4  and  C5_5 
REMARK    4  A    between atoms: C6_6  and  C7_7 
REMARK    5  A    between atoms: C7_7  and  O2_9 
REMARK    6  A    between atoms: O2_9  and  C8_10 
REMARK    7  A    between atoms: C13_15  and  C14_16 
REMARK    8  A    between atoms: C15_21  and  C16_22 
REMARK    9  A    between atoms: C16_22  and  O5_25 
REMARK   10  A    between atoms: N2_27  and  C19_28 
REMARK   11  A    between atoms: C19_28  and  C20_29 
ROOT
HETATM    1  C5  UNL     1       0.856 -10.923  10.801  1.00  0.00     0.050 A 
HETATM    2  C6  UNL     1       1.020 -10.937   9.451  1.00  0.00     0.133 A 
HETATM    3  N1  UNL     1       1.452  -9.681   9.139  1.00  0.00    -0.336 N 
ATOM      4  H1  UNL     1       1.677  -9.350   8.200  1.00  0.00     0.167 HD
HETATM    5  C15 UNL     1       1.535  -8.951  10.261  1.00  0.00     0.123 A 
HETATM    6  N2  UNL     1       1.171  -9.689  11.321  1.00  0.00    -0.310 N 
ENDROOT
BRANCH   2   7
HETATM    7  C7  UNL     1       0.725 -11.946   8.456  1.00  0.00     0.312 C 
HETATM    8  O1  UNL     1       1.395 -12.921   8.116  1.00  0.00    -0.258 OA
BRANCH   7   9
HETATM    9  O2  UNL     1      -0.497 -11.850   7.733  1.00  0.00    -0.310 OA
BRANCH   9  10
HETATM   10  C8  UNL     1      -0.595 -12.068   6.362  1.00  0.00     0.146 C 
HETATM   11  C9  UNL     1      -2.025 -12.263   5.896  1.00  0.00     0.033 C 
HETATM   12  C10 UNL     1      -2.026 -12.661   4.435  1.00  0.00     0.002 C 
HETATM   13  C11 UNL     1      -0.648 -12.550   3.821  1.00  0.00     0.001 C 
HETATM   14  C12 UNL     1       0.066 -11.284   4.150  1.00  0.00     0.018 C 
HETATM   15  C13 UNL     1       0.044 -10.934   5.616  1.00  0.00     0.116 C 
BRANCH  15  16
HETATM   16  C14 UNL     1      -0.652  -9.653   5.800  1.00  0.00     0.179 C 
HETATM   17  O3  UNL     1      -0.492  -9.018   6.868  1.00  0.00    -0.648 OA
HETATM   18  O4  UNL     1      -1.490  -9.088   4.848  1.00  0.00    -0.648 OA
ENDBRANCH  15  16
ENDBRANCH   9  10
ENDBRANCH   7   9
ENDBRANCH   2   7
BRANCH   1  19
HETATM   19  C4  UNL     1       0.480 -12.064  11.655  1.00  0.00     0.060 C 
BRANCH  19  20
HETATM   20  C3  UNL     1       1.400 -13.235  11.663  1.00  0.00     0.006 C 
BRANCH  20  21
HETATM   21  C2  UNL     1       2.840 -12.944  11.945  1.00  0.00    -0.004 C 
HETATM   22  C1  UNL     1       3.316 -13.715  13.174  1.00  0.00     0.005 C 
ENDBRANCH  20  21
ENDBRANCH  19  20
ENDBRANCH   1  19
BRANCH   6  23
HETATM   23  C19 UNL     1       1.156  -9.335  12.665  1.00  0.00     0.111 C 
BRANCH  23  24
HETATM   24  C20 UNL     1       2.228  -9.516  13.591  1.00  0.00     0.003 A 
HETATM   25  C21 UNL     1       3.348  -8.666  13.375  1.00  0.00     0.040 A 
HETATM   26  C22 UNL     1       4.466  -8.718  14.160  1.00  0.00     0.056 A 
HETATM   27 CL1  UNL     1       5.837  -7.672  13.885  1.00  0.00    -0.083 Cl
HETATM   28  C23 UNL     1       4.515  -9.627  15.202  1.00  0.00     0.057 A 
HETATM   29 CL2  UNL     1       5.916  -9.759  16.266  1.00  0.00    -0.082 Cl
HETATM   30  C24 UNL     1       3.450 -10.467  15.446  1.00  0.00     0.050 A 
HETATM   31  C25 UNL     1       2.309 -10.386  14.613  1.00  0.00     0.047 A 
HETATM   32 CL3  UNL     1       1.011 -11.452  14.960  1.00  0.00    -0.083 Cl
ENDBRANCH  23  24
ENDBRANCH   6  23
BRANCH   5  33
HETATM   33  C16 UNL     1       1.986  -7.538  10.214  1.00  0.00     0.109 C 
HETATM   34  C17 UNL     1       1.491  -6.934   8.916  1.00  0.00     0.054 C 
HETATM   35  C18 UNL     1       3.504  -7.417  10.203  1.00  0.00     0.054 C 
BRANCH  33  36
HETATM   36  O5  UNL     1       1.529  -6.764  11.241  1.00  0.00    -0.383 OA
ATOM     37  H5  UNL     1       1.763  -7.081  12.105  1.00  0.00     0.211 HD
ENDBRANCH  33  36
ENDBRANCH   5  33
TORSDOF 11
ENDMDL
