MODEL 1
REMARK VINA RESULT: -8.382769978      0.000      0.000
REMARK  12 active torsions:
REMARK  status: ('A' for Active; 'I' for Inactive)
REMARK    1  A    between atoms: C2_2  and  C3_3 
REMARK    2  A    between atoms: C3_3  and  C4_4 
REMARK    3  A    between atoms: C4_4  and  O1_5 
REMARK    4  A    between atoms: O1_5  and  C5_6 
REMARK    5  A    between atoms: C5_6  and  C6_8 
REMARK    6  A    between atoms: C12_20  and  C13_21 
REMARK    7  A    between atoms: C14_22  and  C15_23 
REMARK    8  A    between atoms: C16_24  and  C17_25 
REMARK    9  A    between atoms: C18_26  and  C19_27 
REMARK   10  A    between atoms: C19_27  and  N3_28 
REMARK   11  A    between atoms: C21_33  and  C22_34 
REMARK   12  A    between atoms: C23_38  and  C24_39 
ROOT
HETATM    1  C13 UNL     1       0.828 -11.244  10.306  1.00  0.00    -0.015 C 
HETATM    2  C14 UNL     1       1.125 -12.531  10.261  1.00  0.00    -0.004 C 
ENDROOT
BRANCH   1   3
HETATM    3  C12 UNL     1       1.602 -10.210   9.552  1.00  0.00     0.071 C 
HETATM    4  C6  UNL     1       1.861  -8.946  10.187  1.00  0.00     0.143 C 
HETATM    5  C7  UNL     1       1.785  -7.758   9.324  1.00  0.00    -0.001 C 
HETATM    6  C8  UNL     1       2.213  -6.430   9.917  1.00  0.00     0.064 C 
HETATM    7  N1  UNL     1       1.393  -7.748   8.136  1.00  0.00    -0.348 N 
HETATM    8  C9  UNL     1       0.962  -8.950   7.446  1.00  0.00     0.122 A 
ATOM      9  H1  UNL     1       1.376  -6.861   7.634  1.00  0.00     0.167 HD
HETATM   10  N2  UNL     1       0.470  -9.015   6.224  1.00  0.00    -0.303 N 
HETATM   11  C11 UNL     1       1.020 -10.100   8.168  1.00  0.00     0.041 A 
HETATM   12  C10 UNL     1       0.059 -10.189   5.770  1.00  0.00     0.290 A 
ATOM     13  H2  UNL     1       0.407  -8.180   5.642  1.00  0.00     0.171 HD
HETATM   14  O3  UNL     1      -0.445 -10.451   4.613  1.00  0.00    -0.260 OA
HETATM   15  S1  UNL     1       0.361 -11.245   7.071  1.00  0.00    -0.029 SA
BRANCH   4  16
HETATM   16  C5  UNL     1       1.109  -8.683  11.467  1.00  0.00     0.269 C 
HETATM   17  O2  UNL     1      -0.103  -8.411  11.441  1.00  0.00    -0.264 OA
BRANCH  16  18
HETATM   18  O1  UNL     1       1.762  -8.738  12.668  1.00  0.00    -0.321 OA
BRANCH  18  19
HETATM   19  C4  UNL     1       2.695  -7.822  13.148  1.00  0.00     0.178 C 
BRANCH  19  20
HETATM   20  C3  UNL     1       4.015  -8.445  13.500  1.00  0.00     0.026 C 
BRANCH  20  21
HETATM   21  C2  UNL     1       5.158  -7.518  13.181  1.00  0.00    -0.002 C 
HETATM   22  C1  UNL     1       5.188  -7.063  11.742  1.00  0.00     0.005 C 
ENDBRANCH  20  21
ENDBRANCH  19  20
ENDBRANCH  18  19
ENDBRANCH  16  18
ENDBRANCH   4  16
ENDBRANCH   1   3
BRANCH   2  23
HETATM   23  C15 UNL     1       0.397 -13.548  10.976  1.00  0.00    -0.004 C 
HETATM   24  C16 UNL     1       0.729 -14.134  12.083  1.00  0.00    -0.021 C 
BRANCH  24  25
HETATM   25  C17 UNL     1       1.934 -13.914  12.907  1.00  0.00     0.019 A 
HETATM   26  C18 UNL     1       2.971 -14.981  12.793  1.00  0.00     0.019 A 
HETATM   27  C20 UNL     1       3.333 -15.399  14.170  1.00  0.00     0.021 A 
HETATM   28  C21 UNL     1       2.489 -14.649  15.169  1.00  0.00     0.099 A 
HETATM   29  C23 UNL     1       1.650 -13.705  14.373  1.00  0.00     0.014 A 
BRANCH  26  30
HETATM   30  C19 UNL     1       2.528 -16.158  11.957  1.00  0.00     0.234 C 
BRANCH  30  31
HETATM   31  N3  UNL     1       3.511 -17.224  11.952  1.00  0.00    -0.079 N 
ATOM     32  H33 UNL     1       3.363 -17.860  11.169  1.00  0.00     0.274 HD
ATOM     33  H32 UNL     1       4.436 -16.873  11.702  1.00  0.00     0.274 HD
ATOM     34  H31 UNL     1       3.535 -17.728  12.838  1.00  0.00     0.274 HD
ENDBRANCH  30  31
ENDBRANCH  26  30
BRANCH  28  35
HETATM   35  C22 UNL     1       1.672 -15.693  15.930  1.00  0.00     0.391 C 
HETATM   36  F1  UNL     1       1.908 -15.622  17.286  1.00  0.00    -0.171 F 
HETATM   37  F2  UNL     1       0.301 -15.391  15.805  1.00  0.00    -0.171 F 
HETATM   38  F3  UNL     1       1.799 -16.961  15.416  1.00  0.00    -0.171 F 
ENDBRANCH  28  35
BRANCH  29  39
HETATM   39  C24 UNL     1       1.653 -12.289  14.827  1.00  0.00    -0.046 C 
HETATM   40  C25 UNL     1       1.554 -12.135  16.329  1.00  0.00     0.015 C 
HETATM   41  C26 UNL     1       0.487 -11.479  14.291  1.00  0.00     0.015 C 
HETATM   42  C27 UNL     1       2.898 -11.583  14.355  1.00  0.00     0.015 C 
ENDBRANCH  29  39
ENDBRANCH  24  25
ENDBRANCH   2  23
TORSDOF 12
ENDMDL
MODEL 2
REMARK VINA RESULT: -8.034123962      2.022      3.359
REMARK  12 active torsions:
REMARK  status: ('A' for Active; 'I' for Inactive)
REMARK    1  A    between atoms: C2_2  and  C3_3 
REMARK    2  A    between atoms: C3_3  and  C4_4 
REMARK    3  A    between atoms: C4_4  and  O1_5 
REMARK    4  A    between atoms: O1_5  and  C5_6 
REMARK    5  A    between atoms: C5_6  and  C6_8 
REMARK    6  A    between atoms: C12_20  and  C13_21 
REMARK    7  A    between atoms: C14_22  and  C15_23 
REMARK    8  A    between atoms: C16_24  and  C17_25 
REMARK    9  A    between atoms: C18_26  and  C19_27 
REMARK   10  A    between atoms: C19_27  and  N3_28 
REMARK   11  A    between atoms: C21_33  and  C22_34 
REMARK   12  A    between atoms: C23_38  and  C24_39 
ROOT
HETATM    1  C13 UNL     1       1.117  -9.936  12.335  1.00  0.00    -0.015 C 
HETATM    2  C14 UNL     1       0.873 -11.207  12.607  1.00  0.00    -0.004 C 
ENDROOT
BRANCH   1   3
HETATM    3  C12 UNL     1       2.274  -9.499  11.494  1.00  0.00     0.071 C 
HETATM    4  C6  UNL     1       3.209  -8.556  12.047  1.00  0.00     0.143 C 
HETATM    5  C7  UNL     1       3.725  -7.535  11.124  1.00  0.00    -0.001 C 
HETATM    6  C8  UNL     1       4.833  -6.630  11.625  1.00  0.00     0.064 C 
HETATM    7  N1  UNL     1       3.324  -7.346   9.955  1.00  0.00    -0.348 N 
HETATM    8  C9  UNL     1       2.275  -8.145   9.349  1.00  0.00     0.122 A 
ATOM      9  H1  UNL     1       3.752  -6.601   9.405  1.00  0.00     0.167 HD
HETATM   10  N2  UNL     1       1.747  -7.966   8.154  1.00  0.00    -0.303 N 
HETATM   11  C11 UNL     1       1.754  -9.129  10.131  1.00  0.00     0.041 A 
HETATM   12  C10 UNL     1       0.744  -8.748   7.782  1.00  0.00     0.290 A 
ATOM     13  H2  UNL     1       2.103  -7.243   7.529  1.00  0.00     0.171 HD
HETATM   14  O3  UNL     1       0.106  -8.726   6.663  1.00  0.00    -0.260 OA
HETATM   15  S1  UNL     1       0.517  -9.768   9.127  1.00  0.00    -0.029 SA
BRANCH   4  16
HETATM   16  C5  UNL     1       2.797  -7.899  13.340  1.00  0.00     0.269 C 
HETATM   17  O2  UNL     1       1.865  -7.076  13.360  1.00  0.00    -0.264 OA
BRANCH  16  18
HETATM   18  O1  UNL     1       3.453  -8.203  14.502  1.00  0.00    -0.321 OA
BRANCH  18  19
HETATM   19  C4  UNL     1       2.869  -8.514  15.728  1.00  0.00     0.178 C 
BRANCH  19  20
HETATM   20  C3  UNL     1       3.126  -9.926  16.168  1.00  0.00     0.026 C 
BRANCH  20  21
HETATM   21  C2  UNL     1       1.840 -10.635  16.503  1.00  0.00    -0.002 C 
HETATM   22  C1  UNL     1       1.813 -11.216  17.896  1.00  0.00     0.005 C 
ENDBRANCH  20  21
ENDBRANCH  19  20
ENDBRANCH  18  19
ENDBRANCH  16  18
ENDBRANCH   4  16
ENDBRANCH   1   3
BRANCH   2  23
HETATM   23  C15 UNL     1      -0.233 -11.657  13.413  1.00  0.00    -0.004 C 
HETATM   24  C16 UNL     1      -0.531 -12.873  13.745  1.00  0.00    -0.021 C 
BRANCH  24  25
HETATM   25  C17 UNL     1       0.181 -14.118  13.394  1.00  0.00     0.019 A 
HETATM   26  C18 UNL     1      -0.616 -15.365  13.576  1.00  0.00     0.019 A 
HETATM   27  C20 UNL     1       0.209 -16.308  14.372  1.00  0.00     0.021 A 
HETATM   28  C21 UNL     1       1.510 -15.649  14.755  1.00  0.00     0.099 A 
HETATM   29  C23 UNL     1       1.494 -14.302  14.111  1.00  0.00     0.014 A 
BRANCH  26  30
HETATM   30  C19 UNL     1      -1.960 -15.127  14.222  1.00  0.00     0.234 C 
BRANCH  30  31
HETATM   31  N3  UNL     1      -1.994 -15.584  15.597  1.00  0.00    -0.079 N 
ATOM     32  H33 UNL     1      -1.321 -15.077  16.171  1.00  0.00     0.274 HD
ATOM     33  H32 UNL     1      -2.854 -15.294  16.063  1.00  0.00     0.274 HD
ATOM     34  H31 UNL     1      -1.856 -16.592  15.670  1.00  0.00     0.274 HD
ENDBRANCH  30  31
ENDBRANCH  26  30
BRANCH  28  35
HETATM   35  C22 UNL     1       1.544 -15.590  16.282  1.00  0.00     0.391 C 
HETATM   36  F1  UNL     1       0.734 -16.556  16.838  1.00  0.00    -0.171 F 
HETATM   37  F2  UNL     1       2.837 -15.928  16.731  1.00  0.00    -0.171 F 
HETATM   38  F3  UNL     1       1.319 -14.331  16.782  1.00  0.00    -0.171 F 
ENDBRANCH  28  35
BRANCH  29  39
HETATM   39  C24 UNL     1       2.705 -13.940  13.328  1.00  0.00    -0.046 C 
HETATM   40  C25 UNL     1       2.453 -13.836  11.839  1.00  0.00     0.015 C 
HETATM   41  C26 UNL     1       3.828 -14.954  13.445  1.00  0.00     0.015 C 
HETATM   42  C27 UNL     1       3.277 -12.632  13.808  1.00  0.00     0.015 C 
ENDBRANCH  29  39
ENDBRANCH  24  25
ENDBRANCH   2  23
TORSDOF 12
ENDMDL
MODEL 3
REMARK VINA RESULT: -7.906921838      3.089      5.171
REMARK  12 active torsions:
REMARK  status: ('A' for Active; 'I' for Inactive)
REMARK    1  A    between atoms: C2_2  and  C3_3 
REMARK    2  A    between atoms: C3_3  and  C4_4 
REMARK    3  A    between atoms: C4_4  and  O1_5 
REMARK    4  A    between atoms: O1_5  and  C5_6 
REMARK    5  A    between atoms: C5_6  and  C6_8 
REMARK    6  A    between atoms: C12_20  and  C13_21 
REMARK    7  A    between atoms: C14_22  and  C15_23 
REMARK    8  A    between atoms: C16_24  and  C17_25 
REMARK    9  A    between atoms: C18_26  and  C19_27 
REMARK   10  A    between atoms: C19_27  and  N3_28 
REMARK   11  A    between atoms: C21_33  and  C22_34 
REMARK   12  A    between atoms: C23_38  and  C24_39 
ROOT
HETATM    1  C13 UNL     1       1.896  -9.807  13.853  1.00  0.00    -0.015 C 
HETATM    2  C14 UNL     1       1.301 -10.924  13.474  1.00  0.00    -0.004 C 
ENDROOT
BRANCH   1   3
HETATM    3  C12 UNL     1       3.292  -9.458  13.444  1.00  0.00     0.071 C 
HETATM    4  C6  UNL     1       4.270  -9.217  14.471  1.00  0.00     0.143 C 
HETATM    5  C7  UNL     1       5.227  -8.131  14.215  1.00  0.00    -0.001 C 
HETATM    6  C8  UNL     1       6.371  -7.956  15.195  1.00  0.00     0.064 C 
HETATM    7  N1  UNL     1       5.177  -7.331  13.254  1.00  0.00    -0.348 N 
HETATM    8  C9  UNL     1       4.139  -7.391  12.242  1.00  0.00     0.122 A 
ATOM      9  H1  UNL     1       5.894  -6.610  13.180  1.00  0.00     0.167 HD
HETATM   10  N2  UNL     1       3.974  -6.547  11.241  1.00  0.00    -0.303 N 
HETATM   11  C11 UNL     1       3.221  -8.383  12.393  1.00  0.00     0.041 A 
HETATM   12  C10 UNL     1       2.929  -6.709  10.444  1.00  0.00     0.290 A 
ATOM     13  H2  UNL     1       4.636  -5.788  11.085  1.00  0.00     0.171 HD
HETATM   14  O3  UNL     1       2.602  -5.994   9.423  1.00  0.00    -0.260 OA
HETATM   15  S1  UNL     1       2.142  -8.073  11.094  1.00  0.00    -0.029 SA
BRANCH   4  16
HETATM   16  C5  UNL     1       3.736  -9.091  15.876  1.00  0.00     0.269 C 
HETATM   17  O2  UNL     1       3.235  -8.023  16.267  1.00  0.00    -0.264 OA
BRANCH  16  18
HETATM   18  O1  UNL     1       3.804 -10.156  16.731  1.00  0.00    -0.321 OA
BRANCH  18  19
HETATM   19  C4  UNL     1       3.463 -10.159  18.082  1.00  0.00     0.178 C 
BRANCH  19  20
HETATM   20  C3  UNL     1       2.340 -11.099  18.411  1.00  0.00     0.026 C 
BRANCH  20  21
HETATM   21  C2  UNL     1       1.495 -11.385  17.197  1.00  0.00    -0.002 C 
HETATM   22  C1  UNL     1       1.600 -12.808  16.706  1.00  0.00     0.005 C 
ENDBRANCH  20  21
ENDBRANCH  19  20
ENDBRANCH  18  19
ENDBRANCH  16  18
ENDBRANCH   4  16
ENDBRANCH   1   3
BRANCH   2  23
HETATM   23  C15 UNL     1      -0.042 -11.286  13.852  1.00  0.00    -0.004 C 
HETATM   24  C16 UNL     1      -0.719 -12.326  13.480  1.00  0.00    -0.021 C 
BRANCH  24  25
HETATM   25  C17 UNL     1      -0.298 -13.416  12.577  1.00  0.00     0.019 A 
HETATM   26  C18 UNL     1      -0.335 -14.778  13.184  1.00  0.00     0.019 A 
HETATM   27  C20 UNL     1       0.980 -15.416  12.927  1.00  0.00     0.021 A 
HETATM   28  C21 UNL     1       1.885 -14.446  12.210  1.00  0.00     0.099 A 
HETATM   29  C23 UNL     1       1.067 -13.221  11.968  1.00  0.00     0.014 A 
BRANCH  26  30
HETATM   30  C19 UNL     1      -0.666 -14.768  14.657  1.00  0.00     0.234 C 
BRANCH  30  31
HETATM   31  N3  UNL     1      -2.037 -15.163  14.911  1.00  0.00    -0.079 N 
ATOM     32  H33 UNL     1      -2.348 -15.869  14.244  1.00  0.00     0.274 HD
ATOM     33  H32 UNL     1      -2.112 -15.710  15.769  1.00  0.00     0.274 HD
ATOM     34  H31 UNL     1      -2.671 -14.364  14.926  1.00  0.00     0.274 HD
ENDBRANCH  30  31
ENDBRANCH  26  30
BRANCH  28  35
HETATM   35  C22 UNL     1       3.086 -14.203  13.125  1.00  0.00     0.391 C 
HETATM   36  F1  UNL     1       2.872 -14.727  14.381  1.00  0.00    -0.171 F 
HETATM   37  F2  UNL     1       4.194 -14.925  12.637  1.00  0.00    -0.171 F 
HETATM   38  F3  UNL     1       3.501 -12.894  13.139  1.00  0.00    -0.171 F 
ENDBRANCH  28  35
BRANCH  29  39
HETATM   39  C24 UNL     1       1.076 -12.697  10.577  1.00  0.00    -0.046 C 
HETATM   40  C25 UNL     1       2.457 -12.338  10.074  1.00  0.00     0.015 C 
HETATM   41  C26 UNL     1       0.274 -11.419  10.406  1.00  0.00     0.015 C 
HETATM   42  C27 UNL     1       0.467 -13.697   9.629  1.00  0.00     0.015 C 
ENDBRANCH  29  39
ENDBRANCH  24  25
ENDBRANCH   2  23
TORSDOF 12
ENDMDL
MODEL 4
REMARK VINA RESULT: -7.825317903      1.963      2.781
REMARK  12 active torsions:
REMARK  status: ('A' for Active; 'I' for Inactive)
REMARK    1  A    between atoms: C2_2  and  C3_3 
REMARK    2  A    between atoms: C3_3  and  C4_4 
REMARK    3  A    between atoms: C4_4  and  O1_5 
REMARK    4  A    between atoms: O1_5  and  C5_6 
REMARK    5  A    between atoms: C5_6  and  C6_8 
REMARK    6  A    between atoms: C12_20  and  C13_21 
REMARK    7  A    between atoms: C14_22  and  C15_23 
REMARK    8  A    between atoms: C16_24  and  C17_25 
REMARK    9  A    between atoms: C18_26  and  C19_27 
REMARK   10  A    between atoms: C19_27  and  N3_28 
REMARK   11  A    between atoms: C21_33  and  C22_34 
REMARK   12  A    between atoms: C23_38  and  C24_39 
ROOT
HETATM    1  C13 UNL     1       0.865  -9.985  12.032  1.00  0.00    -0.015 C 
HETATM    2  C14 UNL     1       0.572 -11.267  12.164  1.00  0.00    -0.004 C 
ENDROOT
BRANCH   1   3
HETATM    3  C12 UNL     1       2.012  -9.501  11.203  1.00  0.00     0.071 C 
HETATM    4  C6  UNL     1       2.885  -8.499  11.754  1.00  0.00     0.143 C 
HETATM    5  C7  UNL     1       3.362  -7.468  10.821  1.00  0.00    -0.001 C 
HETATM    6  C8  UNL     1       4.411  -6.496  11.324  1.00  0.00     0.064 C 
HETATM    7  N1  UNL     1       2.972  -7.321   9.642  1.00  0.00    -0.348 N 
HETATM    8  C9  UNL     1       1.977  -8.185   9.034  1.00  0.00     0.122 A 
ATOM      9  H1  UNL     1       3.369  -6.563   9.086  1.00  0.00     0.167 HD
HETATM   10  N2  UNL     1       1.462  -8.055   7.827  1.00  0.00    -0.303 N 
HETATM   11  C11 UNL     1       1.497  -9.182   9.825  1.00  0.00     0.041 A 
HETATM   12  C10 UNL     1       0.509  -8.896   7.453  1.00  0.00     0.290 A 
ATOM     13  H2  UNL     1       1.790  -7.325   7.196  1.00  0.00     0.171 HD
HETATM   14  O3  UNL     1      -0.111  -8.928   6.324  1.00  0.00    -0.260 OA
HETATM   15  S1  UNL     1       0.313  -9.903   8.812  1.00  0.00    -0.029 SA
BRANCH   4  16
HETATM   16  C5  UNL     1       2.416  -7.843  13.028  1.00  0.00     0.269 C 
HETATM   17  O2  UNL     1       1.518  -6.985  13.001  1.00  0.00    -0.264 OA
BRANCH  16  18
HETATM   18  O1  UNL     1       2.984  -8.187  14.224  1.00  0.00    -0.321 OA
BRANCH  18  19
HETATM   19  C4  UNL     1       4.168  -8.899  14.407  1.00  0.00     0.178 C 
BRANCH  19  20
HETATM   20  C3  UNL     1       4.794  -8.676  15.753  1.00  0.00     0.026 C 
BRANCH  20  21
HETATM   21  C2  UNL     1       6.113  -7.961  15.629  1.00  0.00    -0.002 C 
HETATM   22  C1  UNL     1       6.424  -7.499  14.226  1.00  0.00     0.005 C 
ENDBRANCH  20  21
ENDBRANCH  19  20
ENDBRANCH  18  19
ENDBRANCH  16  18
ENDBRANCH   4  16
ENDBRANCH   1   3
BRANCH   2  23
HETATM   23  C15 UNL     1      -0.525 -11.762  12.955  1.00  0.00    -0.004 C 
HETATM   24  C16 UNL     1      -0.712 -12.969  13.387  1.00  0.00    -0.021 C 
BRANCH  24  25
HETATM   25  C17 UNL     1       0.146 -14.154  13.190  1.00  0.00     0.019 A 
HETATM   26  C18 UNL     1      -0.546 -15.463  13.377  1.00  0.00     0.019 A 
HETATM   27  C20 UNL     1       0.277 -16.271  14.310  1.00  0.00     0.021 A 
HETATM   28  C21 UNL     1       1.464 -15.465  14.773  1.00  0.00     0.099 A 
HETATM   29  C23 UNL     1       1.389 -14.166  14.042  1.00  0.00     0.014 A 
BRANCH  26  30
HETATM   30  C19 UNL     1      -1.966 -15.324  13.871  1.00  0.00     0.234 C 
BRANCH  30  31
HETATM   31  N3  UNL     1      -2.043 -15.332  15.318  1.00  0.00    -0.079 N 
ATOM     32  H33 UNL     1      -1.169 -15.655  15.733  1.00  0.00     0.274 HD
ATOM     33  H32 UNL     1      -2.059 -14.384  15.694  1.00  0.00     0.274 HD
ATOM     34  H31 UNL     1      -2.836 -15.878  15.657  1.00  0.00     0.274 HD
ENDBRANCH  30  31
ENDBRANCH  26  30
BRANCH  28  35
HETATM   35  C22 UNL     1       1.334 -15.317  16.289  1.00  0.00     0.391 C 
HETATM   36  F1  UNL     1       0.438 -16.227  16.806  1.00  0.00    -0.171 F 
HETATM   37  F2  UNL     1       2.560 -15.661  16.895  1.00  0.00    -0.171 F 
HETATM   38  F3  UNL     1       1.097 -14.025  16.689  1.00  0.00    -0.171 F 
ENDBRANCH  28  35
BRANCH  29  39
HETATM   39  C24 UNL     1       2.635 -13.730  13.358  1.00  0.00    -0.046 C 
HETATM   40  C25 UNL     1       2.496 -13.628  11.855  1.00  0.00     0.015 C 
HETATM   41  C26 UNL     1       3.802 -14.679  13.561  1.00  0.00     0.015 C 
HETATM   42  C27 UNL     1       3.092 -12.395  13.887  1.00  0.00     0.015 C 
ENDBRANCH  29  39
ENDBRANCH  24  25
ENDBRANCH   2  23
TORSDOF 12
ENDMDL
MODEL 5
REMARK VINA RESULT: -7.810611771      1.718      2.286
REMARK  12 active torsions:
REMARK  status: ('A' for Active; 'I' for Inactive)
REMARK    1  A    between atoms: C2_2  and  C3_3 
REMARK    2  A    between atoms: C3_3  and  C4_4 
REMARK    3  A    between atoms: C4_4  and  O1_5 
REMARK    4  A    between atoms: O1_5  and  C5_6 
REMARK    5  A    between atoms: C5_6  and  C6_8 
REMARK    6  A    between atoms: C12_20  and  C13_21 
REMARK    7  A    between atoms: C14_22  and  C15_23 
REMARK    8  A    between atoms: C16_24  and  C17_25 
REMARK    9  A    between atoms: C18_26  and  C19_27 
REMARK   10  A    between atoms: C19_27  and  N3_28 
REMARK   11  A    between atoms: C21_33  and  C22_34 
REMARK   12  A    between atoms: C23_38  and  C24_39 
ROOT
HETATM    1  C13 UNL     1       0.510 -10.406  11.504  1.00  0.00    -0.015 C 
HETATM    2  C14 UNL     1       0.778 -10.964  12.672  1.00  0.00    -0.004 C 
ENDROOT
BRANCH   1   3
HETATM    3  C12 UNL     1       1.573  -9.834  10.621  1.00  0.00     0.071 C 
HETATM    4  C6  UNL     1       2.087  -8.525  10.924  1.00  0.00     0.143 C 
HETATM    5  C7  UNL     1       2.375  -7.658   9.772  1.00  0.00    -0.001 C 
HETATM    6  C8  UNL     1       3.072  -6.338  10.042  1.00  0.00     0.064 C 
HETATM    7  N1  UNL     1       2.092  -7.915   8.581  1.00  0.00    -0.348 N 
HETATM    8  C9  UNL     1       1.431  -9.144   8.184  1.00  0.00     0.122 A 
ATOM      9  H1  UNL     1       2.334  -7.234   7.862  1.00  0.00     0.167 HD
HETATM   10  N2  UNL     1       1.034  -9.460   6.966  1.00  0.00    -0.303 N 
HETATM   11  C11 UNL     1       1.146 -10.015   9.189  1.00  0.00     0.041 A 
HETATM   12  C10 UNL     1       0.382 -10.599   6.789  1.00  0.00     0.290 A 
ATOM     13  H2  UNL     1       1.226  -8.841   6.178  1.00  0.00     0.171 HD
HETATM   14  O3  UNL     1      -0.080 -11.075   5.685  1.00  0.00    -0.260 OA
HETATM   15  S1  UNL     1       0.311 -11.262   8.356  1.00  0.00    -0.029 SA
BRANCH   4  16
HETATM   16  C5  UNL     1       1.327  -7.740  11.962  1.00  0.00     0.269 C 
HETATM   17  O2  UNL     1       0.132  -7.450  11.783  1.00  0.00    -0.264 OA
BRANCH  16  18
HETATM   18  O1  UNL     1       1.953  -7.339  13.111  1.00  0.00    -0.321 OA
BRANCH  18  19
HETATM   19  C4  UNL     1       2.426  -8.163  14.130  1.00  0.00     0.178 C 
BRANCH  19  20
HETATM   20  C3  UNL     1       3.709  -8.860  13.784  1.00  0.00     0.026 C 
BRANCH  20  21
HETATM   21  C2  UNL     1       4.890  -7.940  13.946  1.00  0.00    -0.002 C 
HETATM   22  C1  UNL     1       5.435  -7.415  12.640  1.00  0.00     0.005 C 
ENDBRANCH  20  21
ENDBRANCH  19  20
ENDBRANCH  18  19
ENDBRANCH  16  18
ENDBRANCH   4  16
ENDBRANCH   1   3
BRANCH   2  23
HETATM   23  C15 UNL     1      -0.224 -11.524  13.543  1.00  0.00    -0.004 C 
HETATM   24  C16 UNL     1      -0.452 -12.775  13.791  1.00  0.00    -0.021 C 
BRANCH  24  25
HETATM   25  C17 UNL     1       0.253 -13.956  13.255  1.00  0.00     0.019 A 
HETATM   26  C18 UNL     1      -0.575 -15.196  13.182  1.00  0.00     0.019 A 
HETATM   27  C20 UNL     1       0.196 -16.284  13.833  1.00  0.00     0.021 A 
HETATM   28  C21 UNL     1       1.490 -15.737  14.379  1.00  0.00     0.099 A 
HETATM   29  C23 UNL     1       1.529 -14.298  13.982  1.00  0.00     0.014 A 
BRANCH  26  30
HETATM   30  C19 UNL     1      -1.942 -15.040  13.803  1.00  0.00     0.234 C 
BRANCH  30  31
HETATM   31  N3  UNL     1      -1.951 -15.414  15.204  1.00  0.00    -0.079 N 
ATOM     32  H33 UNL     1      -1.156 -15.011  15.699  1.00  0.00     0.274 HD
ATOM     33  H32 UNL     1      -2.707 -14.949  15.707  1.00  0.00     0.274 HD
ATOM     34  H31 UNL     1      -1.990 -16.426  15.330  1.00  0.00     0.274 HD
ENDBRANCH  30  31
ENDBRANCH  26  30
BRANCH  28  35
HETATM   35  C22 UNL     1       1.457 -15.948  15.892  1.00  0.00     0.391 C 
HETATM   36  F1  UNL     1       2.727 -16.074  16.409  1.00  0.00    -0.171 F 
HETATM   37  F2  UNL     1       0.948 -14.788  16.511  1.00  0.00    -0.171 F 
HETATM   38  F3  UNL     1       0.604 -16.953  16.281  1.00  0.00    -0.171 F 
ENDBRANCH  28  35
BRANCH  29  39
HETATM   39  C24 UNL     1       2.779 -13.836  13.324  1.00  0.00    -0.046 C 
HETATM   40  C25 UNL     1       3.302 -12.525  13.870  1.00  0.00     0.015 C 
HETATM   41  C26 UNL     1       2.624 -13.585  11.836  1.00  0.00     0.015 C 
HETATM   42  C27 UNL     1       3.863 -14.875  13.457  1.00  0.00     0.015 C 
ENDBRANCH  29  39
ENDBRANCH  24  25
ENDBRANCH   2  23
TORSDOF 12
ENDMDL
