MODEL 1
REMARK VINA RESULT: -7.327504804      0.000      0.000
REMARK  3 active torsions:
REMARK  status: ('A' for Active; 'I' for Inactive)
REMARK    1  A    between atoms: C2_2  and  C3_3 
REMARK       I    between atoms: C3_3  and  N1_5 
REMARK    2  A    between atoms: C8_10  and  N2_11 
REMARK       I    between atoms: N2_11  and  C9_13 
REMARK    3  A    between atoms: C9_13  and  C10_15 
ROOT
HETATM    1  C3  UNL     1      -9.168  47.889  -2.593  1.00  0.00     0.234 C 
HETATM    2  O1  UNL     1     -10.418  47.749  -2.279  1.00  0.00    -0.272 OA
HETATM    3  N1  UNL     1      -8.899  48.987  -3.402  1.00  0.00    -0.287 N 
HETATM    4  C4  UNL     1     -10.040  49.838  -3.802  1.00  0.00     0.135 C 
HETATM    5  C5  UNL     1      -9.590  51.154  -4.336  1.00  0.00     0.032 C 
HETATM    6  C6  UNL     1      -8.625  51.066  -5.492  1.00  0.00    -0.010 C 
HETATM    7  C7  UNL     1      -8.014  52.446  -5.662  1.00  0.00     0.018 C 
HETATM    8  C8  UNL     1      -9.252  50.574  -6.762  1.00  0.00     0.093 C 
HETATM    9  C13 UNL     1      -8.127  49.784  -7.447  1.00  0.00     0.027 C 
HETATM   10  C14 UNL     1      -7.534  49.043  -6.300  1.00  0.00     0.017 C 
HETATM   11  C15 UNL     1      -7.493  50.105  -5.212  1.00  0.00     0.088 C 
HETATM   12  C16 UNL     1      -7.655  49.413  -3.912  1.00  0.00     0.231 C 
HETATM   13  O3  UNL     1      -6.627  49.205  -3.245  1.00  0.00    -0.273 OA
ENDROOT
BRANCH   1  14
HETATM   14  C2  UNL     1      -8.294  46.868  -2.033  1.00  0.00     0.038 C 
HETATM   15  C1  UNL     1      -7.844  45.994  -3.221  1.00  0.00     0.025 C 
HETATM   16  C17 UNL     1      -7.111  47.320  -1.265  1.00  0.00     0.020 C 
HETATM   17  C18 UNL     1      -7.058  46.573   0.077  1.00  0.00     0.021 C 
HETATM   18  C19 UNL     1      -8.242  46.912   0.928  1.00  0.00     0.082 C 
HETATM   19 CL1  UNL     1      -8.061  46.086   2.479  1.00  0.00    -0.125 Cl
HETATM   20  C20 UNL     1      -9.471  46.449   0.180  1.00  0.00     0.021 C 
HETATM   21  C21 UNL     1      -9.130  45.929  -1.165  1.00  0.00     0.020 C 
ENDBRANCH   1  14
BRANCH   8  22
HETATM   22  N2  UNL     1      -9.591  51.631  -7.688  1.00  0.00    -0.355 N 
HETATM   23  C9  UNL     1     -10.949  52.038  -7.766  1.00  0.00     0.222 C 
HETATM   24  O2  UNL     1     -11.835  51.498  -7.052  1.00  0.00    -0.273 OA
ATOM     25  H2  UNL     1      -8.876  52.072  -8.268  1.00  0.00     0.162 HD
BRANCH  23  26
HETATM   26  C10 UNL     1     -11.409  53.116  -8.685  1.00  0.00     0.078 A 
HETATM   27  C11 UNL     1     -12.764  53.032  -9.301  1.00  0.00     0.015 A 
HETATM   28  C12 UNL     1     -11.607  52.707 -10.159  1.00  0.00     0.015 A 
ENDBRANCH  23  26
ENDBRANCH   8  22
TORSDOF 3
ENDMDL
MODEL 2
REMARK VINA RESULT: -7.298963123      1.830      2.900
REMARK  3 active torsions:
REMARK  status: ('A' for Active; 'I' for Inactive)
REMARK    1  A    between atoms: C2_2  and  C3_3 
REMARK       I    between atoms: C3_3  and  N1_5 
REMARK    2  A    between atoms: C8_10  and  N2_11 
REMARK       I    between atoms: N2_11  and  C9_13 
REMARK    3  A    between atoms: C9_13  and  C10_15 
ROOT
HETATM    1  C3  UNL     1      -7.955  49.454  -3.669  1.00  0.00     0.234 C 
HETATM    2  O1  UNL     1      -7.687  48.345  -4.285  1.00  0.00    -0.272 OA
HETATM    3  N1  UNL     1      -8.917  50.240  -4.293  1.00  0.00    -0.287 N 
HETATM    4  C4  UNL     1      -9.500  49.734  -5.554  1.00  0.00     0.135 C 
HETATM    5  C5  UNL     1     -10.750  50.457  -5.917  1.00  0.00     0.032 C 
HETATM    6  C6  UNL     1     -10.602  51.955  -6.020  1.00  0.00    -0.010 C 
HETATM    7  C7  UNL     1     -12.004  52.537  -6.037  1.00  0.00     0.018 C 
HETATM    8  C8  UNL     1      -9.801  52.399  -7.207  1.00  0.00     0.093 C 
HETATM    9  C13 UNL     1      -9.079  53.662  -6.713  1.00  0.00     0.027 C 
HETATM   10  C14 UNL     1      -8.654  53.254  -5.346  1.00  0.00     0.017 C 
HETATM   11  C15 UNL     1      -9.889  52.537  -4.822  1.00  0.00     0.088 C 
HETATM   12  C16 UNL     1      -9.426  51.489  -3.883  1.00  0.00     0.231 C 
HETATM   13  O3  UNL     1      -9.499  51.740  -2.667  1.00  0.00    -0.273 OA
ENDROOT
BRANCH   1  14
HETATM   14  C2  UNL     1      -7.195  49.654  -2.444  1.00  0.00     0.038 C 
HETATM   15  C1  UNL     1      -6.141  50.733  -2.766  1.00  0.00     0.025 C 
HETATM   16  C17 UNL     1      -7.944  50.032  -1.223  1.00  0.00     0.020 C 
HETATM   17  C18 UNL     1      -7.523  49.118  -0.062  1.00  0.00     0.021 C 
HETATM   18  C19 UNL     1      -7.895  47.694  -0.336  1.00  0.00     0.082 C 
HETATM   19 CL1  UNL     1      -7.459  46.728   1.077  1.00  0.00    -0.125 Cl
HETATM   20  C20 UNL     1      -7.134  47.268  -1.570  1.00  0.00     0.021 C 
HETATM   21  C21 UNL     1      -6.376  48.395  -2.163  1.00  0.00     0.020 C 
ENDBRANCH   1  14
BRANCH   8  22
HETATM   22  N2  UNL     1     -10.610  52.837  -8.322  1.00  0.00    -0.355 N 
HETATM   23  C9  UNL     1     -10.582  52.061  -9.511  1.00  0.00     0.222 C 
HETATM   24  O2  UNL     1      -9.874  51.022  -9.596  1.00  0.00    -0.273 OA
ATOM     25  H2  UNL     1     -11.185  53.678  -8.257  1.00  0.00     0.162 HD
BRANCH  23  26
HETATM   26  C10 UNL     1     -11.375  52.420 -10.719  1.00  0.00     0.078 A 
HETATM   27  C11 UNL     1     -12.814  52.780 -10.577  1.00  0.00     0.015 A 
HETATM   28  C12 UNL     1     -12.499  51.437 -11.105  1.00  0.00     0.015 A 
ENDBRANCH  23  26
ENDBRANCH   8  22
TORSDOF 3
ENDMDL
MODEL 3
REMARK VINA RESULT: -7.237653695      3.413      8.230
REMARK  3 active torsions:
REMARK  status: ('A' for Active; 'I' for Inactive)
REMARK    1  A    between atoms: C2_2  and  C3_3 
REMARK       I    between atoms: C3_3  and  N1_5 
REMARK    2  A    between atoms: C8_10  and  N2_11 
REMARK       I    between atoms: N2_11  and  C9_13 
REMARK    3  A    between atoms: C9_13  and  C10_15 
ROOT
HETATM    1  C3  UNL     1     -10.437  51.386  -6.440  1.00  0.00     0.234 C 
HETATM    2  O1  UNL     1     -11.527  51.605  -5.772  1.00  0.00    -0.272 OA
HETATM    3  N1  UNL     1      -9.710  50.283  -6.005  1.00  0.00    -0.287 N 
HETATM    4  C4  UNL     1     -10.250  49.517  -4.862  1.00  0.00     0.135 C 
HETATM    5  C5  UNL     1      -9.603  48.181  -4.736  1.00  0.00     0.032 C 
HETATM    6  C6  UNL     1      -8.098  48.219  -4.625  1.00  0.00    -0.010 C 
HETATM    7  C7  UNL     1      -7.602  46.804  -4.864  1.00  0.00     0.018 C 
HETATM    8  C8  UNL     1      -7.605  48.769  -3.320  1.00  0.00     0.093 C 
HETATM    9  C13 UNL     1      -6.302  49.491  -3.693  1.00  0.00     0.027 C 
HETATM   10  C14 UNL     1      -6.685  50.175  -4.958  1.00  0.00     0.017 C 
HETATM   11  C15 UNL     1      -7.476  49.098  -5.684  1.00  0.00     0.088 C 
HETATM   12  C16 UNL     1      -8.494  49.782  -6.514  1.00  0.00     0.231 C 
HETATM   13  O3  UNL     1      -8.249  49.912  -7.726  1.00  0.00    -0.273 OA
ENDROOT
BRANCH   1  14
HETATM   14  C2  UNL     1     -10.192  52.339  -7.513  1.00  0.00     0.038 C 
HETATM   15  C1  UNL     1      -9.041  53.242  -7.027  1.00  0.00     0.025 C 
HETATM   16  C17 UNL     1      -9.875  51.798  -8.854  1.00  0.00     0.020 C 
HETATM   17  C18 UNL     1     -10.764  52.481  -9.905  1.00  0.00     0.021 C 
HETATM   18  C19 UNL     1     -12.210  52.162  -9.675  1.00  0.00     0.082 C 
HETATM   19 CL1  UNL     1     -13.152  52.909 -10.968  1.00  0.00    -0.125 Cl
HETATM   20  C20 UNL     1     -12.574  52.715  -8.316  1.00  0.00     0.021 C 
HETATM   21  C21 UNL     1     -11.393  53.277  -7.619  1.00  0.00     0.020 C 
ENDBRANCH   1  14
BRANCH   8  22
HETATM   22  N2  UNL     1      -7.217  47.749  -2.371  1.00  0.00    -0.355 N 
HETATM   23  C9  UNL     1      -8.145  47.394  -1.357  1.00  0.00     0.222 C 
HETATM   24  O2  UNL     1      -9.275  47.947  -1.283  1.00  0.00    -0.273 OA
ATOM     25  H2  UNL     1      -6.303  47.299  -2.429  1.00  0.00     0.162 HD
BRANCH  23  26
HETATM   26  C10 UNL     1      -7.849  46.358  -0.330  1.00  0.00     0.078 A 
HETATM   27  C11 UNL     1      -8.749  46.209   0.849  1.00  0.00     0.015 A 
HETATM   28  C12 UNL     1      -7.454  46.885   1.065  1.00  0.00     0.015 A 
ENDBRANCH  23  26
ENDBRANCH   8  22
TORSDOF 3
ENDMDL
MODEL 4
REMARK VINA RESULT: -7.221029231      4.717      6.616
REMARK  3 active torsions:
REMARK  status: ('A' for Active; 'I' for Inactive)
REMARK    1  A    between atoms: C2_2  and  C3_3 
REMARK       I    between atoms: C3_3  and  N1_5 
REMARK    2  A    between atoms: C8_10  and  N2_11 
REMARK       I    between atoms: N2_11  and  C9_13 
REMARK    3  A    between atoms: C9_13  and  C10_15 
ROOT
HETATM    1  C3  UNL     1      -4.973  53.962  -5.149  1.00  0.00     0.234 C 
HETATM    2  O1  UNL     1      -4.447  54.532  -6.188  1.00  0.00    -0.272 OA
HETATM    3  N1  UNL     1      -5.948  53.016  -5.446  1.00  0.00    -0.287 N 
HETATM    4  C4  UNL     1      -6.264  52.784  -6.872  1.00  0.00     0.135 C 
HETATM    5  C5  UNL     1      -7.026  51.520  -7.072  1.00  0.00     0.032 C 
HETATM    6  C6  UNL     1      -8.303  51.422  -6.273  1.00  0.00    -0.010 C 
HETATM    7  C7  UNL     1      -8.743  49.970  -6.321  1.00  0.00     0.018 C 
HETATM    8  C8  UNL     1      -9.382  52.348  -6.749  1.00  0.00     0.093 C 
HETATM    9  C13 UNL     1     -10.133  52.730  -5.464  1.00  0.00     0.027 C 
HETATM   10  C14 UNL     1      -9.011  52.948  -4.510  1.00  0.00     0.017 C 
HETATM   11  C15 UNL     1      -8.088  51.779  -4.820  1.00  0.00     0.088 C 
HETATM   12  C16 UNL     1      -6.702  52.228  -4.552  1.00  0.00     0.231 C 
HETATM   13  O3  UNL     1      -6.188  51.879  -3.475  1.00  0.00    -0.273 OA
ENDROOT
BRANCH   1  14
HETATM   14  C2  UNL     1      -4.437  54.425  -3.877  1.00  0.00     0.038 C 
HETATM   15  C1  UNL     1      -3.696  53.221  -3.262  1.00  0.00     0.025 C 
HETATM   16  C17 UNL     1      -3.544  55.607  -3.897  1.00  0.00     0.020 C 
HETATM   17  C18 UNL     1      -4.014  56.619  -2.840  1.00  0.00     0.021 C 
HETATM   18  C19 UNL     1      -5.379  57.142  -3.166  1.00  0.00     0.082 C 
HETATM   19 CL1  UNL     1      -5.806  58.358  -1.958  1.00  0.00    -0.125 Cl
HETATM   20  C20 UNL     1      -6.322  55.961  -3.139  1.00  0.00     0.021 C 
HETATM   21  C21 UNL     1      -5.599  54.687  -2.921  1.00  0.00     0.020 C 
ENDBRANCH   1  14
BRANCH   8  22
HETATM   22  N2  UNL     1     -10.369  51.705  -7.587  1.00  0.00    -0.355 N 
HETATM   23  C9  UNL     1     -10.936  52.460  -8.647  1.00  0.00     0.222 C 
HETATM   24  O2  UNL     1     -10.594  53.655  -8.854  1.00  0.00    -0.273 OA
ATOM     25  H2  UNL     1     -10.648  50.737  -7.423  1.00  0.00     0.162 HD
BRANCH  23  26
HETATM   26  C10 UNL     1     -11.960  51.899  -9.570  1.00  0.00     0.078 A 
HETATM   27  C11 UNL     1     -12.852  52.819 -10.332  1.00  0.00     0.015 A 
HETATM   28  C12 UNL     1     -13.431  52.123  -9.165  1.00  0.00     0.015 A 
ENDBRANCH  23  26
ENDBRANCH   8  22
TORSDOF 3
ENDMDL
MODEL 5
REMARK VINA RESULT: -7.165990495      3.677      4.704
REMARK  3 active torsions:
REMARK  status: ('A' for Active; 'I' for Inactive)
REMARK    1  A    between atoms: C2_2  and  C3_3 
REMARK       I    between atoms: C3_3  and  N1_5 
REMARK    2  A    between atoms: C8_10  and  N2_11 
REMARK       I    between atoms: N2_11  and  C9_13 
REMARK    3  A    between atoms: C9_13  and  C10_15 
ROOT
HETATM    1  C3  UNL     1      -7.109  53.864  -3.527  1.00  0.00     0.234 C 
HETATM    2  O1  UNL     1      -7.397  55.128  -3.511  1.00  0.00    -0.272 OA
HETATM    3  N1  UNL     1      -7.547  53.190  -4.661  1.00  0.00    -0.287 N 
HETATM    4  C4  UNL     1      -8.275  53.973  -5.683  1.00  0.00     0.135 C 
HETATM    5  C5  UNL     1      -8.357  53.248  -6.982  1.00  0.00     0.032 C 
HETATM    6  C6  UNL     1      -8.975  51.873  -6.897  1.00  0.00    -0.010 C 
HETATM    7  C7  UNL     1      -8.655  51.164  -8.200  1.00  0.00     0.018 C 
HETATM    8  C8  UNL     1     -10.448  51.893  -6.620  1.00  0.00     0.093 C 
HETATM    9  C13 UNL     1     -10.681  50.633  -5.772  1.00  0.00     0.027 C 
HETATM   10  C14 UNL     1      -9.514  50.668  -4.849  1.00  0.00     0.017 C 
HETATM   11  C15 UNL     1      -8.374  51.052  -5.779  1.00  0.00     0.088 C 
HETATM   12  C16 UNL     1      -7.394  51.825  -4.982  1.00  0.00     0.231 C 
HETATM   13  O3  UNL     1      -6.383  51.222  -4.580  1.00  0.00    -0.273 OA
ENDROOT
BRANCH   1  14
HETATM   14  C2  UNL     1      -6.382  53.402  -2.353  1.00  0.00     0.038 C 
HETATM   15  C1  UNL     1      -4.984  52.988  -2.853  1.00  0.00     0.025 C 
HETATM   16  C17 UNL     1      -6.251  54.338  -1.213  1.00  0.00     0.020 C 
HETATM   17  C18 UNL     1      -6.656  53.621   0.085  1.00  0.00     0.021 C 
HETATM   18  C19 UNL     1      -8.100  53.226   0.054  1.00  0.00     0.082 C 
HETATM   19 CL1  UNL     1      -8.505  52.492   1.608  1.00  0.00    -0.125 Cl
HETATM   20  C20 UNL     1      -8.268  52.256  -1.093  1.00  0.00     0.021 C 
HETATM   21  C21 UNL     1      -7.014  52.099  -1.866  1.00  0.00     0.020 C 
ENDBRANCH   1  14
BRANCH   8  22
HETATM   22  N2  UNL     1     -11.262  51.711  -7.801  1.00  0.00    -0.355 N 
HETATM   23  C9  UNL     1     -12.545  52.318  -7.826  1.00  0.00     0.222 C 
HETATM   24  O2  UNL     1     -12.966  52.996  -6.851  1.00  0.00    -0.273 OA
ATOM     25  H2  UNL     1     -10.924  51.163  -8.593  1.00  0.00     0.162 HD
BRANCH  23  26
HETATM   26  C10 UNL     1     -13.465  52.195  -8.990  1.00  0.00     0.078 A 
HETATM   27  C11 UNL     1     -12.994  51.527 -10.236  1.00  0.00     0.015 A 
HETATM   28  C12 UNL     1     -13.077  53.001 -10.246  1.00  0.00     0.015 A 
ENDBRANCH  23  26
ENDBRANCH   8  22
TORSDOF 3
ENDMDL
