MODEL 1
REMARK VINA RESULT: -6.374118468      0.000      0.000
REMARK  3 active torsions:
REMARK  status: ('A' for Active; 'I' for Inactive)
REMARK    1  A    between atoms: C2_2  and  C3_3 
REMARK    2  A    between atoms: C3_3  and  C6_6 
REMARK    3  A    between atoms: C11_12  and  C13_14 
REMARK       I    between atoms: C13_14  and  N1_16 
ROOT
HETATM    1  C6  UNL     1      -9.786  52.519  -6.724  1.00  0.00    -0.017 C 
HETATM    2  C7  UNL     1      -9.490  53.503  -7.838  1.00  0.00     0.018 C 
HETATM    3  C8  UNL     1      -9.713  53.451  -5.467  1.00  0.00     0.012 C 
HETATM    4  C9  UNL     1      -8.271  53.588  -5.136  1.00  0.00     0.018 C 
HETATM    5  C10 UNL     1      -7.591  52.593  -5.982  1.00  0.00     0.076 C 
HETATM    6 BR1  UNL     1      -6.123  51.686  -5.152  1.00  0.00    -0.090 Br
HETATM    7  C11 UNL     1      -8.693  51.593  -6.426  1.00  0.00     0.059 C 
HETATM    8  C12 UNL     1      -7.971  50.952  -7.593  1.00  0.00     0.027 C 
ENDROOT
BRANCH   7   9
HETATM    9  C13 UNL     1      -8.852  50.693  -5.290  1.00  0.00     0.231 C 
HETATM   10  O1  UNL     1      -9.352  51.229  -4.235  1.00  0.00    -0.272 OA
HETATM   11  N1  UNL     1      -8.549  49.319  -5.140  1.00  0.00    -0.332 N 
HETATM   12  C14 UNL     1      -7.957  48.514  -6.224  1.00  0.00     0.147 C 
HETATM   13  C17 UNL     1      -8.772  48.548  -3.938  1.00  0.00     0.109 C 
HETATM   14  C15 UNL     1      -7.901  47.048  -5.970  1.00  0.00     0.142 C 
HETATM   15  N2  UNL     1      -9.012  46.494  -5.269  1.00  0.00    -0.357 N 
HETATM   16  C16 UNL     1      -9.561  47.293  -4.233  1.00  0.00     0.245 C 
ATOM     17  H2  UNL     1      -9.391  45.576  -5.500  1.00  0.00     0.162 HD
HETATM   18  O2  UNL     1     -10.596  46.958  -3.649  1.00  0.00    -0.271 OA
HETATM   19  C18 UNL     1      -7.383  48.176  -3.411  1.00  0.00     0.049 C 
HETATM   20  C19 UNL     1      -9.487  49.181  -2.813  1.00  0.00     0.049 C 
ENDBRANCH   7   9
BRANCH   1  21
HETATM   21  C3  UNL     1     -11.182  52.094  -6.915  1.00  0.00    -0.022 C 
HETATM   22  C4  UNL     1     -12.005  52.783  -5.804  1.00  0.00     0.020 C 
HETATM   23  C5  UNL     1     -11.530  50.656  -6.788  1.00  0.00     0.020 C 
BRANCH  21  24
HETATM   24  C2  UNL     1     -11.765  52.563  -8.193  1.00  0.00    -0.027 C 
HETATM   25  C1  UNL     1     -13.070  52.553  -8.485  1.00  0.00     0.007 C 
ENDBRANCH  21  24
ENDBRANCH   1  21
TORSDOF 3
ENDMDL
MODEL 2
REMARK VINA RESULT: -6.282001834      2.377      3.893
REMARK  3 active torsions:
REMARK  status: ('A' for Active; 'I' for Inactive)
REMARK    1  A    between atoms: C2_2  and  C3_3 
REMARK    2  A    between atoms: C3_3  and  C6_6 
REMARK    3  A    between atoms: C11_12  and  C13_14 
REMARK       I    between atoms: C13_14  and  N1_16 
ROOT
HETATM    1  C6  UNL     1      -8.530  51.354  -6.812  1.00  0.00    -0.017 C 
HETATM    2  C7  UNL     1      -9.024  50.769  -8.120  1.00  0.00     0.018 C 
HETATM    3  C8  UNL     1      -7.045  51.697  -7.173  1.00  0.00     0.012 C 
HETATM    4  C9  UNL     1      -6.283  50.428  -7.041  1.00  0.00     0.018 C 
HETATM    5  C10 UNL     1      -7.217  49.490  -6.394  1.00  0.00     0.076 C 
HETATM    6 BR1  UNL     1      -6.426  48.312  -5.108  1.00  0.00    -0.090 Br
HETATM    7  C11 UNL     1      -8.320  50.372  -5.749  1.00  0.00     0.059 C 
HETATM    8  C12 UNL     1      -9.380  49.308  -5.548  1.00  0.00     0.027 C 
ENDROOT
BRANCH   7   9
HETATM    9  C13 UNL     1      -7.733  50.836  -4.498  1.00  0.00     0.231 C 
HETATM   10  O1  UNL     1      -6.603  51.435  -4.613  1.00  0.00    -0.272 OA
HETATM   11  N1  UNL     1      -8.192  50.744  -3.162  1.00  0.00    -0.332 N 
HETATM   12  C14 UNL     1      -9.461  50.085  -2.804  1.00  0.00     0.147 C 
HETATM   13  C17 UNL     1      -7.495  51.265  -2.008  1.00  0.00     0.109 C 
HETATM   14  C15 UNL     1      -9.893  50.262  -1.389  1.00  0.00     0.142 C 
HETATM   15  N2  UNL     1      -9.627  51.538  -0.812  1.00  0.00    -0.357 N 
HETATM   16  C16 UNL     1      -8.399  52.148  -1.178  1.00  0.00     0.245 C 
ATOM     17  H2  UNL     1     -10.282  51.988  -0.173  1.00  0.00     0.162 HD
HETATM   18  O2  UNL     1      -8.130  53.301  -0.830  1.00  0.00    -0.271 OA
HETATM   19  C18 UNL     1      -7.064  50.046  -1.188  1.00  0.00     0.049 C 
HETATM   20  C19 UNL     1      -6.280  52.073  -2.221  1.00  0.00     0.049 C 
ENDBRANCH   7   9
BRANCH   1  21
HETATM   21  C3  UNL     1      -9.271  52.611  -6.623  1.00  0.00    -0.022 C 
HETATM   22  C4  UNL     1      -9.834  53.000  -8.008  1.00  0.00     0.020 C 
HETATM   23  C5  UNL     1      -8.544  53.824  -6.171  1.00  0.00     0.020 C 
BRANCH  21  24
HETATM   24  C2  UNL     1     -10.450  52.466  -5.739  1.00  0.00    -0.027 C 
HETATM   25  C1  UNL     1     -11.710  52.331  -6.165  1.00  0.00     0.007 C 
ENDBRANCH  21  24
ENDBRANCH   1  21
TORSDOF 3
ENDMDL
MODEL 3
REMARK VINA RESULT: -6.075366811      2.741      3.703
REMARK  3 active torsions:
REMARK  status: ('A' for Active; 'I' for Inactive)
REMARK    1  A    between atoms: C2_2  and  C3_3 
REMARK    2  A    between atoms: C3_3  and  C6_6 
REMARK    3  A    between atoms: C11_12  and  C13_14 
REMARK       I    between atoms: C13_14  and  N1_16 
ROOT
HETATM    1  C6  UNL     1      -8.600  52.017  -6.151  1.00  0.00    -0.017 C 
HETATM    2  C7  UNL     1      -8.657  53.423  -5.588  1.00  0.00     0.018 C 
HETATM    3  C8  UNL     1      -9.207  51.190  -4.967  1.00  0.00     0.012 C 
HETATM    4  C9  UNL     1      -8.101  50.983  -3.997  1.00  0.00     0.018 C 
HETATM    5  C10 UNL     1      -6.888  51.431  -4.702  1.00  0.00     0.076 C 
HETATM    6 BR1  UNL     1      -5.322  50.379  -4.375  1.00  0.00    -0.090 Br
HETATM    7  C11 UNL     1      -7.257  51.440  -6.210  1.00  0.00     0.059 C 
HETATM    8  C12 UNL     1      -6.132  52.317  -6.720  1.00  0.00     0.027 C 
ENDROOT
BRANCH   7   9
HETATM    9  C13 UNL     1      -7.130  50.049  -6.627  1.00  0.00     0.231 C 
HETATM   10  O1  UNL     1      -7.790  49.204  -5.920  1.00  0.00    -0.272 OA
HETATM   11  N1  UNL     1      -6.400  49.456  -7.685  1.00  0.00    -0.332 N 
HETATM   12  C14 UNL     1      -5.565  50.243  -8.611  1.00  0.00     0.147 C 
HETATM   13  C17 UNL     1      -6.375  48.042  -7.985  1.00  0.00     0.109 C 
HETATM   14  C15 UNL     1      -5.040  49.495  -9.786  1.00  0.00     0.142 C 
HETATM   15  N2  UNL     1      -5.920  48.527 -10.353  1.00  0.00    -0.357 N 
HETATM   16  C16 UNL     1      -6.711  47.788  -9.436  1.00  0.00     0.245 C 
ATOM     17  H2  UNL     1      -5.977  48.375 -11.360  1.00  0.00     0.162 HD
HETATM   18  O2  UNL     1      -7.589  47.014  -9.831  1.00  0.00    -0.271 OA
HETATM   19  C18 UNL     1      -4.948  47.573  -7.692  1.00  0.00     0.049 C 
HETATM   20  C19 UNL     1      -7.271  47.144  -7.233  1.00  0.00     0.049 C 
ENDBRANCH   7   9
BRANCH   1  21
HETATM   21  C3  UNL     1      -9.546  51.990  -7.278  1.00  0.00    -0.022 C 
HETATM   22  C4  UNL     1     -10.866  51.405  -6.727  1.00  0.00     0.020 C 
HETATM   23  C5  UNL     1      -9.243  51.152  -8.464  1.00  0.00     0.020 C 
BRANCH  21  24
HETATM   24  C2  UNL     1      -9.889  53.339  -7.784  1.00  0.00    -0.027 C 
HETATM   25  C1  UNL     1     -10.656  53.581  -8.852  1.00  0.00     0.007 C 
ENDBRANCH  21  24
ENDBRANCH   1  21
TORSDOF 3
ENDMDL
MODEL 4
REMARK VINA RESULT: -5.999783585      0.923      1.014
REMARK  3 active torsions:
REMARK  status: ('A' for Active; 'I' for Inactive)
REMARK    1  A    between atoms: C2_2  and  C3_3 
REMARK    2  A    between atoms: C3_3  and  C6_6 
REMARK    3  A    between atoms: C11_12  and  C13_14 
REMARK       I    between atoms: C13_14  and  N1_16 
ROOT
HETATM    1  C6  UNL     1      -8.797  52.470  -6.047  1.00  0.00    -0.017 C 
HETATM    2  C7  UNL     1      -8.250  53.527  -6.986  1.00  0.00     0.018 C 
HETATM    3  C8  UNL     1      -8.941  53.288  -4.719  1.00  0.00     0.012 C 
HETATM    4  C9  UNL     1      -7.589  53.317  -4.103  1.00  0.00     0.018 C 
HETATM    5  C10 UNL     1      -6.792  52.361  -4.889  1.00  0.00     0.076 C 
HETATM    6 BR1  UNL     1      -5.553  51.308  -3.877  1.00  0.00    -0.090 Br
HETATM    7  C11 UNL     1      -7.821  51.464  -5.630  1.00  0.00     0.059 C 
HETATM    8  C12 UNL     1      -6.906  50.885  -6.688  1.00  0.00     0.027 C 
ENDROOT
BRANCH   7   9
HETATM    9  C13 UNL     1      -8.236  50.483  -4.635  1.00  0.00     0.231 C 
HETATM   10  O1  UNL     1      -8.709  50.975  -3.546  1.00  0.00    -0.272 OA
HETATM   11  N1  UNL     1      -8.210  49.068  -4.654  1.00  0.00    -0.332 N 
HETATM   12  C14 UNL     1      -7.695  48.300  -5.802  1.00  0.00     0.147 C 
HETATM   13  C17 UNL     1      -8.668  48.216  -3.580  1.00  0.00     0.109 C 
HETATM   14  C15 UNL     1      -7.936  46.831  -5.744  1.00  0.00     0.142 C 
HETATM   15  N2  UNL     1      -9.184  46.426  -5.186  1.00  0.00    -0.357 N 
HETATM   16  C16 UNL     1      -9.653  47.186  -4.084  1.00  0.00     0.245 C 
ATOM     17  H2  UNL     1      -9.709  45.635  -5.558  1.00  0.00     0.162 HD
HETATM   18  O2  UNL     1     -10.776  46.993  -3.607  1.00  0.00    -0.271 OA
HETATM   19  C18 UNL     1      -7.420  47.517  -3.033  1.00  0.00     0.049 C 
HETATM   20  C19 UNL     1      -9.339  48.836  -2.422  1.00  0.00     0.049 C 
ENDBRANCH   7   9
BRANCH   1  21
HETATM   21  C3  UNL     1     -10.143  52.140  -6.545  1.00  0.00    -0.022 C 
HETATM   22  C4  UNL     1     -11.143  52.714  -5.516  1.00  0.00     0.020 C 
HETATM   23  C5  UNL     1     -10.539  50.717  -6.684  1.00  0.00     0.020 C 
BRANCH  21  24
HETATM   24  C2  UNL     1     -10.468  52.802  -7.829  1.00  0.00    -0.027 C 
HETATM   25  C1  UNL     1     -11.705  52.965  -8.310  1.00  0.00     0.007 C 
ENDBRANCH  21  24
ENDBRANCH   1  21
TORSDOF 3
ENDMDL
MODEL 5
REMARK VINA RESULT: -5.967012481      1.674      1.968
REMARK  3 active torsions:
REMARK  status: ('A' for Active; 'I' for Inactive)
REMARK    1  A    between atoms: C2_2  and  C3_3 
REMARK    2  A    between atoms: C3_3  and  C6_6 
REMARK    3  A    between atoms: C11_12  and  C13_14 
REMARK       I    between atoms: C13_14  and  N1_16 
ROOT
HETATM    1  C6  UNL     1      -8.822  51.872  -6.634  1.00  0.00    -0.017 C 
HETATM    2  C7  UNL     1      -9.126  52.875  -7.730  1.00  0.00     0.018 C 
HETATM    3  C8  UNL     1      -8.051  52.768  -5.606  1.00  0.00     0.012 C 
HETATM    4  C9  UNL     1      -6.651  52.848  -6.096  1.00  0.00     0.018 C 
HETATM    5  C10 UNL     1      -6.569  51.854  -7.179  1.00  0.00     0.076 C 
HETATM    6 BR1  UNL     1      -4.923  50.879  -7.265  1.00  0.00    -0.090 Br
HETATM    7  C11 UNL     1      -7.779  50.903  -6.971  1.00  0.00     0.059 C 
HETATM    8  C12 UNL     1      -7.817  50.270  -8.346  1.00  0.00     0.027 C 
ENDROOT
BRANCH   7   9
HETATM    9  C13 UNL     1      -7.344  49.980  -5.929  1.00  0.00     0.231 C 
HETATM   10  O1  UNL     1      -7.189  50.502  -4.766  1.00  0.00    -0.272 OA
HETATM   11  N1  UNL     1      -7.059  48.594  -5.972  1.00  0.00    -0.332 N 
HETATM   12  C14 UNL     1      -7.162  47.801  -7.210  1.00  0.00     0.147 C 
HETATM   13  C17 UNL     1      -6.638  47.799  -4.840  1.00  0.00     0.109 C 
HETATM   14  C15 UNL     1      -7.034  46.328  -7.035  1.00  0.00     0.142 C 
HETATM   15  N2  UNL     1      -7.624  45.787  -5.855  1.00  0.00    -0.357 N 
HETATM   16  C16 UNL     1      -7.510  46.575  -4.681  1.00  0.00     0.245 C 
ATOM     17  H2  UNL     1      -8.101  44.886  -5.856  1.00  0.00     0.162 HD
HETATM   18  O2  UNL     1      -8.090  46.254  -3.638  1.00  0.00    -0.271 OA
HETATM   19  C18 UNL     1      -5.197  47.376  -5.133  1.00  0.00     0.049 C 
HETATM   20  C19 UNL     1      -6.625  48.423  -3.504  1.00  0.00     0.049 C 
ENDBRANCH   7   9
BRANCH   1  21
HETATM   21  C3  UNL     1     -10.121  51.498  -6.052  1.00  0.00    -0.022 C 
HETATM   22  C4  UNL     1     -10.252  52.288  -4.731  1.00  0.00     0.020 C 
HETATM   23  C5  UNL     1     -10.364  50.088  -5.659  1.00  0.00     0.020 C 
BRANCH  21  24
HETATM   24  C2  UNL     1     -11.274  51.915  -6.883  1.00  0.00    -0.027 C 
HETATM   25  C1  UNL     1     -12.478  52.246  -6.404  1.00  0.00     0.007 C 
ENDBRANCH  21  24
ENDBRANCH   1  21
TORSDOF 3
ENDMDL
