MODEL 1
REMARK VINA RESULT: -7.260028958      0.000      0.000
REMARK  3 active torsions:
REMARK  status: ('A' for Active; 'I' for Inactive)
REMARK       I    between atoms: C1_2  and  N1_3 
REMARK    1  A    between atoms: C1_2  and  C6_9 
REMARK    2  A    between atoms: N1_3  and  C2_5 
REMARK    3  A    between atoms: N2_13  and  C9_14 
ROOT
HETATM    1  C6  UNL     1      -9.504  49.390  -5.335  1.00  0.00     0.102 C 
HETATM    2  C7  UNL     1     -10.172  49.626  -3.979  1.00  0.00     0.100 C 
HETATM    3  C8  UNL     1      -9.397  50.822  -3.588  1.00  0.00     0.226 C 
HETATM    4  O2  UNL     1      -9.738  51.520  -2.598  1.00  0.00    -0.273 OA
HETATM    5  N2  UNL     1      -8.224  51.267  -4.296  1.00  0.00    -0.346 N 
HETATM    6  C12 UNL     1      -7.396  50.324  -5.105  1.00  0.00     0.137 C 
HETATM    7  C13 UNL     1      -8.126  49.069  -4.942  1.00  0.00    -0.004 C 
HETATM    8  C14 UNL     1      -7.912  47.839  -5.738  1.00  0.00     0.039 C 
HETATM    9  C15 UNL     1      -8.995  46.870  -5.318  1.00  0.00    -0.029 C 
HETATM   10  C16 UNL     1     -10.030  47.130  -4.359  1.00  0.00    -0.025 C 
HETATM   11  C17 UNL     1      -9.953  48.307  -3.362  1.00  0.00     0.026 C 
HETATM   12  C18 UNL     1      -8.697  48.045  -2.671  1.00  0.00    -0.001 C 
HETATM   13  C19 UNL     1      -8.485  48.430  -1.257  1.00  0.00     0.007 C 
HETATM   14  C20 UNL     1      -6.960  48.449  -1.098  1.00  0.00     0.020 C 
HETATM   15  C21 UNL     1      -6.230  47.552  -2.017  1.00  0.00     0.082 C 
HETATM   16 CL1  UNL     1      -4.482  47.846  -1.755  1.00  0.00    -0.125 Cl
HETATM   17  C22 UNL     1      -6.502  47.761  -3.515  1.00  0.00     0.026 C 
HETATM   18  C23 UNL     1      -7.706  48.692  -3.557  1.00  0.00     0.003 C 
ENDROOT
BRANCH   1  19
HETATM   19  C1  UNL     1      -9.766  50.476  -6.287  1.00  0.00     0.223 C 
HETATM   20  O1  UNL     1      -8.968  50.790  -7.182  1.00  0.00    -0.273 OA
HETATM   21  N1  UNL     1     -10.971  51.225  -6.227  1.00  0.00    -0.356 N 
ATOM     22  H1  UNL     1     -11.657  51.000  -5.507  1.00  0.00     0.162 HD
BRANCH  21  23
HETATM   23  C2  UNL     1     -11.258  52.316  -7.173  1.00  0.00     0.084 C 
HETATM   24  C3  UNL     1     -11.574  51.871  -8.563  1.00  0.00     0.025 C 
HETATM   25  C4  UNL     1     -13.035  52.203  -8.327  1.00  0.00     0.004 C 
HETATM   26  C5  UNL     1     -12.683  52.788  -6.983  1.00  0.00     0.025 C 
ENDBRANCH  21  23
ENDBRANCH   1  19
BRANCH   5  27
HETATM   27  C9  UNL     1      -7.740  52.630  -4.286  1.00  0.00     0.087 A 
HETATM   28  C10 UNL     1      -8.474  53.629  -5.132  1.00  0.00     0.027 A 
HETATM   29  C11 UNL     1      -7.066  53.248  -5.425  1.00  0.00     0.027 A 
ENDBRANCH   5  27
TORSDOF 3
ENDMDL
MODEL 2
REMARK VINA RESULT: -7.219267149      1.230      1.357
REMARK  3 active torsions:
REMARK  status: ('A' for Active; 'I' for Inactive)
REMARK       I    between atoms: C1_2  and  N1_3 
REMARK    1  A    between atoms: C1_2  and  C6_9 
REMARK    2  A    between atoms: N1_3  and  C2_5 
REMARK    3  A    between atoms: N2_13  and  C9_14 
ROOT
HETATM    1  C6  UNL     1      -8.979  49.126  -5.482  1.00  0.00     0.102 C 
HETATM    2  C7  UNL     1      -9.996  49.701  -4.494  1.00  0.00     0.100 C 
HETATM    3  C8  UNL     1      -9.159  50.800  -3.972  1.00  0.00     0.226 C 
HETATM    4  O2  UNL     1      -9.653  51.706  -3.252  1.00  0.00    -0.273 OA
HETATM    5  N2  UNL     1      -7.749  50.914  -4.245  1.00  0.00    -0.346 N 
HETATM    6  C12 UNL     1      -6.923  49.720  -4.595  1.00  0.00     0.137 C 
HETATM    7  C13 UNL     1      -7.919  48.653  -4.583  1.00  0.00    -0.004 C 
HETATM    8  C14 UNL     1      -7.723  47.285  -5.115  1.00  0.00     0.039 C 
HETATM    9  C15 UNL     1      -9.067  46.598  -5.023  1.00  0.00    -0.029 C 
HETATM   10  C16 UNL     1     -10.281  47.188  -4.540  1.00  0.00    -0.025 C 
HETATM   11  C17 UNL     1     -10.291  48.490  -3.709  1.00  0.00     0.026 C 
HETATM   12  C18 UNL     1      -9.430  48.146  -2.584  1.00  0.00    -0.001 C 
HETATM   13  C19 UNL     1      -9.629  48.729  -1.238  1.00  0.00     0.007 C 
HETATM   14  C20 UNL     1      -8.281  48.521  -0.536  1.00  0.00     0.020 C 
HETATM   15  C21 UNL     1      -7.498  47.369  -1.029  1.00  0.00     0.082 C 
HETATM   16 CL1  UNL     1      -5.921  47.408  -0.179  1.00  0.00    -0.125 Cl
HETATM   17  C22 UNL     1      -7.197  47.359  -2.536  1.00  0.00     0.026 C 
HETATM   18  C23 UNL     1      -8.083  48.456  -3.109  1.00  0.00     0.003 C 
ENDROOT
BRANCH   1  19
HETATM   19  C1  UNL     1      -8.661  50.059  -6.569  1.00  0.00     0.223 C 
HETATM   20  O1  UNL     1      -7.567  50.064  -7.151  1.00  0.00    -0.273 OA
HETATM   21  N1  UNL     1      -9.615  51.012  -7.015  1.00  0.00    -0.356 N 
ATOM     22  H1  UNL     1     -10.530  51.044  -6.565  1.00  0.00     0.162 HD
BRANCH  21  23
HETATM   23  C2  UNL     1      -9.322  51.956  -8.106  1.00  0.00     0.084 C 
HETATM   24  C3  UNL     1     -10.320  51.956  -9.217  1.00  0.00     0.025 C 
HETATM   25  C4  UNL     1     -10.856  53.285  -8.723  1.00  0.00     0.004 C 
HETATM   26  C5  UNL     1      -9.751  53.349  -7.700  1.00  0.00     0.025 C 
ENDBRANCH  21  23
ENDBRANCH   1  19
BRANCH   5  27
HETATM   27  C9  UNL     1      -7.012  52.158  -4.198  1.00  0.00     0.087 A 
HETATM   28  C10 UNL     1      -7.132  53.076  -5.380  1.00  0.00     0.027 A 
HETATM   29  C11 UNL     1      -5.840  52.426  -5.028  1.00  0.00     0.027 A 
ENDBRANCH   5  27
TORSDOF 3
ENDMDL
MODEL 3
REMARK VINA RESULT: -7.063094251      1.418      1.832
REMARK  3 active torsions:
REMARK  status: ('A' for Active; 'I' for Inactive)
REMARK       I    between atoms: C1_2  and  N1_3 
REMARK    1  A    between atoms: C1_2  and  C6_9 
REMARK    2  A    between atoms: N1_3  and  C2_5 
REMARK    3  A    between atoms: N2_13  and  C9_14 
ROOT
HETATM    1  C6  UNL     1      -9.762  50.026  -4.122  1.00  0.00     0.102 C 
HETATM    2  C7  UNL     1      -9.001  50.322  -2.828  1.00  0.00     0.100 C 
HETATM    3  C8  UNL     1      -7.811  50.945  -3.441  1.00  0.00     0.226 C 
HETATM    4  O2  UNL     1      -6.963  51.553  -2.739  1.00  0.00    -0.273 OA
HETATM    5  N2  UNL     1      -7.543  50.906  -4.857  1.00  0.00    -0.346 N 
HETATM    6  C12 UNL     1      -8.103  49.831  -5.728  1.00  0.00     0.137 C 
HETATM    7  C13 UNL     1      -8.882  49.047  -4.773  1.00  0.00    -0.004 C 
HETATM    8  C14 UNL     1      -9.871  48.002  -5.121  1.00  0.00     0.039 C 
HETATM    9  C15 UNL     1     -10.525  47.589  -3.821  1.00  0.00    -0.029 C 
HETATM   10  C16 UNL     1     -10.243  48.139  -2.527  1.00  0.00    -0.025 C 
HETATM   11  C17 UNL     1      -8.973  48.971  -2.243  1.00  0.00     0.026 C 
HETATM   12  C18 UNL     1      -7.909  48.052  -2.629  1.00  0.00    -0.001 C 
HETATM   13  C19 UNL     1      -6.585  48.063  -1.967  1.00  0.00     0.007 C 
HETATM   14  C20 UNL     1      -5.661  47.351  -2.963  1.00  0.00     0.020 C 
HETATM   15  C21 UNL     1      -6.336  46.379  -3.847  1.00  0.00     0.082 C 
HETATM   16 CL1  UNL     1      -5.106  45.787  -5.007  1.00  0.00    -0.125 Cl
HETATM   17  C22 UNL     1      -7.509  46.927  -4.675  1.00  0.00     0.026 C 
HETATM   18  C23 UNL     1      -7.785  48.302  -4.080  1.00  0.00     0.003 C 
ENDROOT
BRANCH   1  19
HETATM   19  C1  UNL     1     -10.160  51.246  -4.833  1.00  0.00     0.223 C 
HETATM   20  O1  UNL     1     -10.143  52.367  -4.304  1.00  0.00    -0.273 OA
HETATM   21  N1  UNL     1     -10.585  51.196  -6.187  1.00  0.00    -0.356 N 
ATOM     22  H1  UNL     1     -10.614  50.294  -6.664  1.00  0.00     0.162 HD
BRANCH  21  23
HETATM   23  C2  UNL     1     -10.985  52.406  -6.924  1.00  0.00     0.084 C 
HETATM   24  C3  UNL     1     -10.983  52.263  -8.410  1.00  0.00     0.025 C 
HETATM   25  C4  UNL     1     -12.498  52.230  -8.400  1.00  0.00     0.004 C 
HETATM   26  C5  UNL     1     -12.493  52.525  -6.922  1.00  0.00     0.025 C 
ENDBRANCH  21  23
ENDBRANCH   1  19
BRANCH   5  27
HETATM   27  C9  UNL     1      -6.718  51.871  -5.551  1.00  0.00     0.087 A 
HETATM   28  C10 UNL     1      -7.340  53.196  -5.886  1.00  0.00     0.027 A 
HETATM   29  C11 UNL     1      -6.926  52.240  -6.950  1.00  0.00     0.027 A 
ENDBRANCH   5  27
TORSDOF 3
ENDMDL
MODEL 4
REMARK VINA RESULT: -6.817009587      2.718      6.463
REMARK  3 active torsions:
REMARK  status: ('A' for Active; 'I' for Inactive)
REMARK       I    between atoms: C1_2  and  N1_3 
REMARK    1  A    between atoms: C1_2  and  C6_9 
REMARK    2  A    between atoms: N1_3  and  C2_5 
REMARK    3  A    between atoms: N2_13  and  C9_14 
ROOT
HETATM    1  C6  UNL     1      -7.808  51.325  -4.860  1.00  0.00     0.102 C 
HETATM    2  C7  UNL     1      -9.187  51.289  -4.198  1.00  0.00     0.100 C 
HETATM    3  C8  UNL     1      -9.603  49.960  -4.691  1.00  0.00     0.226 C 
HETATM    4  O2  UNL     1     -10.624  49.388  -4.230  1.00  0.00    -0.273 OA
HETATM    5  N2  UNL     1      -8.884  49.238  -5.710  1.00  0.00    -0.346 N 
HETATM    6  C12 UNL     1      -8.024  49.942  -6.706  1.00  0.00     0.137 C 
HETATM    7  C13 UNL     1      -8.157  51.335  -6.286  1.00  0.00    -0.004 C 
HETATM    8  C14 UNL     1      -7.314  52.459  -6.750  1.00  0.00     0.039 C 
HETATM    9  C15 UNL     1      -7.722  53.662  -5.930  1.00  0.00    -0.029 C 
HETATM   10  C16 UNL     1      -8.713  53.674  -4.893  1.00  0.00    -0.025 C 
HETATM   11  C17 UNL     1      -9.750  52.541  -4.730  1.00  0.00     0.026 C 
HETATM   12  C18 UNL     1     -10.403  52.530  -6.033  1.00  0.00    -0.001 C 
HETATM   13  C19 UNL     1     -11.824  52.149  -6.195  1.00  0.00     0.007 C 
HETATM   14  C20 UNL     1     -11.949  51.786  -7.679  1.00  0.00     0.020 C 
HETATM   15  C21 UNL     1     -10.982  52.465  -8.566  1.00  0.00     0.082 C 
HETATM   16 CL1  UNL     1     -11.215  51.787 -10.208  1.00  0.00    -0.125 Cl
HETATM   17  C22 UNL     1      -9.499  52.279  -8.208  1.00  0.00     0.026 C 
HETATM   18  C23 UNL     1      -9.518  51.647  -6.823  1.00  0.00     0.003 C 
ENDROOT
BRANCH   1  19
HETATM   19  C1  UNL     1      -6.902  50.300  -4.330  1.00  0.00     0.223 C 
HETATM   20  O1  UNL     1      -5.944  49.852  -4.976  1.00  0.00    -0.273 OA
HETATM   21  N1  UNL     1      -7.083  49.771  -3.024  1.00  0.00    -0.356 N 
ATOM     22  H1  UNL     1      -7.858  50.112  -2.456  1.00  0.00     0.162 HD
BRANCH  21  23
HETATM   23  C2  UNL     1      -6.186  48.745  -2.468  1.00  0.00     0.084 C 
HETATM   24  C3  UNL     1      -5.256  49.236  -1.408  1.00  0.00     0.025 C 
HETATM   25  C4  UNL     1      -6.092  48.529  -0.360  1.00  0.00     0.004 C 
HETATM   26  C5  UNL     1      -6.935  47.916  -1.448  1.00  0.00     0.025 C 
ENDBRANCH  21  23
ENDBRANCH   1  19
BRANCH   5  27
HETATM   27  C9  UNL     1      -8.933  47.801  -5.871  1.00  0.00     0.087 A 
HETATM   28  C10 UNL     1      -8.451  46.961  -4.724  1.00  0.00     0.027 A 
HETATM   29  C11 UNL     1      -7.740  46.973  -6.031  1.00  0.00     0.027 A 
ENDBRANCH   5  27
TORSDOF 3
ENDMDL
MODEL 5
REMARK VINA RESULT: -6.740029175      3.304      6.552
REMARK  3 active torsions:
REMARK  status: ('A' for Active; 'I' for Inactive)
REMARK       I    between atoms: C1_2  and  N1_3 
REMARK    1  A    between atoms: C1_2  and  C6_9 
REMARK    2  A    between atoms: N1_3  and  C2_5 
REMARK    3  A    between atoms: N2_13  and  C9_14 
ROOT
HETATM    1  C6  UNL     1      -7.729  51.500  -5.200  1.00  0.00     0.102 C 
HETATM    2  C7  UNL     1      -9.052  51.014  -4.605  1.00  0.00     0.100 C 
HETATM    3  C8  UNL     1      -9.206  49.804  -5.438  1.00  0.00     0.226 C 
HETATM    4  O2  UNL     1     -10.077  48.937  -5.168  1.00  0.00    -0.273 OA
HETATM    5  N2  UNL     1      -8.386  49.533  -6.592  1.00  0.00    -0.346 N 
HETATM    6  C12 UNL     1      -7.715  50.632  -7.348  1.00  0.00     0.137 C 
HETATM    7  C13 UNL     1      -8.115  51.810  -6.582  1.00  0.00    -0.004 C 
HETATM    8  C14 UNL     1      -7.529  53.163  -6.716  1.00  0.00     0.039 C 
HETATM    9  C15 UNL     1      -8.148  54.002  -5.621  1.00  0.00    -0.029 C 
HETATM   10  C16 UNL     1      -9.091  53.543  -4.641  1.00  0.00    -0.025 C 
HETATM   11  C17 UNL     1      -9.872  52.221  -4.805  1.00  0.00     0.026 C 
HETATM   12  C18 UNL     1     -10.547  52.417  -6.083  1.00  0.00    -0.001 C 
HETATM   13  C19 UNL     1     -11.866  51.812  -6.374  1.00  0.00     0.007 C 
HETATM   14  C20 UNL     1     -11.958  51.831  -7.904  1.00  0.00     0.020 C 
HETATM   15  C21 UNL     1     -11.175  52.899  -8.559  1.00  0.00     0.082 C 
HETATM   16 CL1  UNL     1     -11.314  52.639 -10.326  1.00  0.00    -0.125 Cl
HETATM   17  C22 UNL     1      -9.675  52.930  -8.225  1.00  0.00     0.026 C 
HETATM   18  C23 UNL     1      -9.526  51.969  -7.053  1.00  0.00     0.003 C 
ENDROOT
BRANCH   1  19
HETATM   19  C1  UNL     1      -6.619  50.578  -4.933  1.00  0.00     0.223 C 
HETATM   20  O1  UNL     1      -6.644  49.747  -4.014  1.00  0.00    -0.273 OA
HETATM   21  N1  UNL     1      -5.448  50.595  -5.735  1.00  0.00    -0.356 N 
ATOM     22  H1  UNL     1      -5.384  51.263  -6.504  1.00  0.00     0.162 HD
BRANCH  21  23
HETATM   23  C2  UNL     1      -4.322  49.677  -5.491  1.00  0.00     0.084 C 
HETATM   24  C3  UNL     1      -3.583  49.255  -6.717  1.00  0.00     0.025 C 
HETATM   25  C4  UNL     1      -2.433  50.161  -6.324  1.00  0.00     0.004 C 
HETATM   26  C5  UNL     1      -3.121  50.465  -5.017  1.00  0.00     0.025 C 
ENDBRANCH  21  23
ENDBRANCH   1  19
BRANCH   5  27
HETATM   27  C9  UNL     1      -8.148  48.209  -7.123  1.00  0.00     0.087 A 
HETATM   28  C10 UNL     1      -7.155  47.344  -6.403  1.00  0.00     0.027 A 
HETATM   29  C11 UNL     1      -6.905  47.825  -7.789  1.00  0.00     0.027 A 
ENDBRANCH   5  27
TORSDOF 3
ENDMDL
