MODEL 1
REMARK VINA RESULT: -5.955876909      0.000      0.000
REMARK  6 active torsions:
REMARK  status: ('A' for Active; 'I' for Inactive)
REMARK    1  A    between atoms: C2_2  and  N1_4 
REMARK    2  A    between atoms: C4_8  and  C5_9 
REMARK       I    between atoms: C5_9  and  N4_11 
REMARK    3  A    between atoms: N4_11  and  N5_13 
REMARK    4  A    between atoms: N5_13  and  C6_15 
REMARK    5  A    between atoms: C6_15  and  N6_17 
REMARK    6  A    between atoms: N6_17  and  C7_19 
ROOT
HETATM    1  C5  UNL     1      12.721  15.682  67.805  1.00  0.00     0.291 C 
HETATM    2  O1  UNL     1      12.075  15.382  68.867  1.00  0.00    -0.264 OA
HETATM    3  N4  UNL     1      13.276  16.971  67.621  1.00  0.00    -0.262 N 
ATOM      4  H4  UNL     1      13.789  17.204  66.771  1.00  0.00     0.190 HD
ENDROOT
BRANCH   3   5
HETATM    5  N5  UNL     1      13.104  17.900  68.618  1.00  0.00    -0.274 N 
ATOM      6  H5  UNL     1      12.542  17.664  69.436  1.00  0.00     0.189 HD
BRANCH   5   7
HETATM    7  C6  UNL     1      13.699  19.181  68.524  1.00  0.00     0.186 C 
HETATM    8  S1  UNL     1      15.139  19.405  69.279  1.00  0.00    -0.040 SA
BRANCH   7   9
HETATM    9  N6  UNL     1      13.053  20.229  67.817  1.00  0.00    -0.361 N 
ATOM     10  H6  UNL     1      12.715  20.053  66.871  1.00  0.00     0.162 HD
BRANCH   9  11
HETATM   11  C7  UNL     1      12.860  21.526  68.391  1.00  0.00     0.083 C 
HETATM   12  C8  UNL     1      11.449  22.011  68.006  1.00  0.00     0.025 C 
HETATM   13  C9  UNL     1      11.485  23.519  68.004  1.00  0.00     0.002 C 
HETATM   14  C10 UNL     1      12.161  23.939  66.694  1.00  0.00     0.000 C 
HETATM   15  C11 UNL     1      13.451  23.146  66.551  1.00  0.00     0.002 C 
HETATM   16  C12 UNL     1      13.843  22.571  67.903  1.00  0.00     0.025 C 
ENDBRANCH   9  11
ENDBRANCH   7   9
ENDBRANCH   5   7
ENDBRANCH   3   5
BRANCH   1  17
HETATM   17  C4  UNL     1      12.877  14.666  66.775  1.00  0.00     0.158 A 
HETATM   18  N3  UNL     1      12.032  13.698  66.402  1.00  0.00    -0.276 N 
HETATM   19  N2  UNL     1      12.570  12.975  65.408  1.00  0.00    -0.018 NA
ATOM     20  H3  UNL     1      11.114  13.534  66.813  1.00  0.00     0.184 HD
HETATM   21  N1  UNL     1      13.783  13.466  65.117  1.00  0.00    -0.257 N 
HETATM   22  C13 UNL     1      13.981  14.502  65.949  1.00  0.00     0.165 A 
HETATM   23  N7  UNL     1      15.137  15.321  65.993  1.00  0.00    -0.079 NA
BRANCH  21  24
HETATM   24  C2  UNL     1      14.713  12.973  64.095  1.00  0.00     0.099 C 
HETATM   25  C1  UNL     1      15.171  14.169  63.273  1.00  0.00     0.033 C 
HETATM   26  C3  UNL     1      15.946  12.374  64.749  1.00  0.00     0.033 C 
ENDBRANCH  21  24
ENDBRANCH   1  17
TORSDOF 6
ENDMDL
MODEL 2
REMARK VINA RESULT: -5.928978849      0.837      1.209
REMARK  6 active torsions:
REMARK  status: ('A' for Active; 'I' for Inactive)
REMARK    1  A    between atoms: C2_2  and  N1_4 
REMARK    2  A    between atoms: C4_8  and  C5_9 
REMARK       I    between atoms: C5_9  and  N4_11 
REMARK    3  A    between atoms: N4_11  and  N5_13 
REMARK    4  A    between atoms: N5_13  and  C6_15 
REMARK    5  A    between atoms: C6_15  and  N6_17 
REMARK    6  A    between atoms: N6_17  and  C7_19 
ROOT
HETATM    1  C5  UNL     1      12.632  15.486  67.915  1.00  0.00     0.291 C 
HETATM    2  O1  UNL     1      11.870  15.160  68.889  1.00  0.00    -0.264 OA
HETATM    3  N4  UNL     1      13.284  16.740  67.879  1.00  0.00    -0.262 N 
ATOM      4  H4  UNL     1      13.890  16.994  67.099  1.00  0.00     0.190 HD
ENDROOT
BRANCH   3   5
HETATM    5  N5  UNL     1      13.078  17.609  68.924  1.00  0.00    -0.274 N 
ATOM      6  H5  UNL     1      12.408  17.370  69.655  1.00  0.00     0.189 HD
BRANCH   5   7
HETATM    7  C6  UNL     1      13.785  18.833  68.997  1.00  0.00     0.186 C 
HETATM    8  S1  UNL     1      15.175  18.854  69.872  1.00  0.00    -0.040 SA
BRANCH   7   9
HETATM    9  N6  UNL     1      13.290  19.996  68.350  1.00  0.00    -0.361 N 
ATOM     10  H6  UNL     1      13.024  19.940  67.367  1.00  0.00     0.162 HD
BRANCH   9  11
HETATM   11  C7  UNL     1      13.152  21.245  69.035  1.00  0.00     0.083 C 
HETATM   12  C8  UNL     1      12.024  21.096  70.072  1.00  0.00     0.025 C 
HETATM   13  C9  UNL     1      11.441  22.470  70.293  1.00  0.00     0.002 C 
HETATM   14  C10 UNL     1      10.523  22.753  69.099  1.00  0.00     0.000 C 
HETATM   15  C11 UNL     1      11.296  22.448  67.824  1.00  0.00     0.002 C 
HETATM   16  C12 UNL     1      12.784  22.407  68.134  1.00  0.00     0.025 C 
ENDBRANCH   9  11
ENDBRANCH   7   9
ENDBRANCH   5   7
ENDBRANCH   3   5
BRANCH   1  17
HETATM   17  C4  UNL     1      12.820  14.534  66.831  1.00  0.00     0.158 A 
HETATM   18  N3  UNL     1      12.003  13.566  66.399  1.00  0.00    -0.276 N 
HETATM   19  N2  UNL     1      12.564  12.915  65.369  1.00  0.00    -0.018 NA
ATOM     20  H3  UNL     1      11.087  13.354  66.794  1.00  0.00     0.184 HD
HETATM   21  N1  UNL     1      13.765  13.454  65.113  1.00  0.00    -0.257 N 
HETATM   22  C13 UNL     1      13.931  14.446  66.003  1.00  0.00     0.165 A 
HETATM   23  N7  UNL     1      15.065  15.292  66.100  1.00  0.00    -0.079 NA
BRANCH  21  24
HETATM   24  C2  UNL     1      14.712  13.044  64.070  1.00  0.00     0.099 C 
HETATM   25  C1  UNL     1      15.055  14.279  63.249  1.00  0.00     0.033 C 
HETATM   26  C3  UNL     1      16.002  12.543  64.697  1.00  0.00     0.033 C 
ENDBRANCH  21  24
ENDBRANCH   1  17
TORSDOF 6
ENDMDL
MODEL 3
REMARK VINA RESULT: -5.888159925      2.711      7.453
REMARK  6 active torsions:
REMARK  status: ('A' for Active; 'I' for Inactive)
REMARK    1  A    between atoms: C2_2  and  N1_4 
REMARK    2  A    between atoms: C4_8  and  C5_9 
REMARK       I    between atoms: C5_9  and  N4_11 
REMARK    3  A    between atoms: N4_11  and  N5_13 
REMARK    4  A    between atoms: N5_13  and  C6_15 
REMARK    5  A    between atoms: C6_15  and  N6_17 
REMARK    6  A    between atoms: N6_17  and  C7_19 
ROOT
HETATM    1  C5  UNL     1      12.140  14.873  68.745  1.00  0.00     0.291 C 
HETATM    2  O1  UNL     1      11.939  13.990  69.648  1.00  0.00    -0.264 OA
HETATM    3  N4  UNL     1      12.027  14.558  67.371  1.00  0.00    -0.262 N 
ATOM      4  H4  UNL     1      12.190  15.266  66.655  1.00  0.00     0.190 HD
ENDROOT
BRANCH   3   5
HETATM    5  N5  UNL     1      11.692  13.270  67.026  1.00  0.00    -0.274 N 
ATOM      6  H5  UNL     1      10.709  13.003  66.969  1.00  0.00     0.189 HD
BRANCH   5   7
HETATM    7  C6  UNL     1      12.695  12.312  66.747  1.00  0.00     0.186 C 
HETATM    8  S1  UNL     1      12.770  10.989  67.718  1.00  0.00    -0.040 SA
BRANCH   7   9
HETATM    9  N6  UNL     1      13.610  12.509  65.679  1.00  0.00    -0.361 N 
ATOM     10  H6  UNL     1      13.246  12.726  64.751  1.00  0.00     0.162 HD
BRANCH   9  11
HETATM   11  C7  UNL     1      15.025  12.413  65.864  1.00  0.00     0.083 C 
HETATM   12  C8  UNL     1      15.464  13.567  66.784  1.00  0.00     0.025 C 
HETATM   13  C9  UNL     1      16.904  13.874  66.454  1.00  0.00     0.002 C 
HETATM   14  C10 UNL     1      16.890  14.698  65.161  1.00  0.00     0.000 C 
HETATM   15  C11 UNL     1      16.012  13.976  64.149  1.00  0.00     0.002 C 
HETATM   16  C12 UNL     1      15.826  12.530  64.582  1.00  0.00     0.025 C 
ENDBRANCH   9  11
ENDBRANCH   7   9
ENDBRANCH   5   7
ENDBRANCH   3   5
BRANCH   1  17
HETATM   17  C4  UNL     1      12.493  16.223  69.158  1.00  0.00     0.158 A 
HETATM   18  N3  UNL     1      12.145  16.891  70.264  1.00  0.00    -0.276 N 
HETATM   19  N2  UNL     1      12.691  18.116  70.253  1.00  0.00    -0.018 NA
ATOM     20  H3  UNL     1      11.552  16.523  71.007  1.00  0.00     0.184 HD
HETATM   21  N1  UNL     1      13.409  18.265  69.130  1.00  0.00    -0.257 N 
HETATM   22  C13 UNL     1      13.294  17.111  68.453  1.00  0.00     0.165 A 
HETATM   23  N7  UNL     1      13.894  16.820  67.202  1.00  0.00    -0.079 NA
BRANCH  21  24
HETATM   24  C2  UNL     1      14.169  19.450  68.720  1.00  0.00     0.099 C 
HETATM   25  C1  UNL     1      13.224  20.356  67.942  1.00  0.00     0.033 C 
HETATM   26  C3  UNL     1      14.638  20.224  69.939  1.00  0.00     0.033 C 
ENDBRANCH  21  24
ENDBRANCH   1  17
TORSDOF 6
ENDMDL
MODEL 4
REMARK VINA RESULT: -5.861121177      5.359      7.452
REMARK  6 active torsions:
REMARK  status: ('A' for Active; 'I' for Inactive)
REMARK    1  A    between atoms: C2_2  and  N1_4 
REMARK    2  A    between atoms: C4_8  and  C5_9 
REMARK       I    between atoms: C5_9  and  N4_11 
REMARK    3  A    between atoms: N4_11  and  N5_13 
REMARK    4  A    between atoms: N5_13  and  C6_15 
REMARK    5  A    between atoms: C6_15  and  N6_17 
REMARK    6  A    between atoms: N6_17  and  C7_19 
ROOT
HETATM    1  C5  UNL     1      12.444  11.762  67.680  1.00  0.00     0.291 C 
HETATM    2  O1  UNL     1      12.557  12.557  68.675  1.00  0.00    -0.264 OA
HETATM    3  N4  UNL     1      12.220  12.250  66.371  1.00  0.00    -0.262 N 
ATOM      4  H4  UNL     1      12.131  11.610  65.582  1.00  0.00     0.190 HD
ENDROOT
BRANCH   3   5
HETATM    5  N5  UNL     1      12.127  13.609  66.192  1.00  0.00    -0.274 N 
ATOM      6  H5  UNL     1      11.248  14.086  66.395  1.00  0.00     0.189 HD
BRANCH   5   7
HETATM    7  C6  UNL     1      13.237  14.355  65.729  1.00  0.00     0.186 C 
HETATM    8  S1  UNL     1      14.049  15.267  66.827  1.00  0.00    -0.040 SA
BRANCH   7   9
HETATM    9  N6  UNL     1      13.610  14.325  64.359  1.00  0.00    -0.361 N 
ATOM     10  H6  UNL     1      13.069  14.870  63.687  1.00  0.00     0.162 HD
BRANCH   9  11
HETATM   11  C7  UNL     1      14.720  13.554  63.891  1.00  0.00     0.083 C 
HETATM   12  C8  UNL     1      15.139  12.591  65.017  1.00  0.00     0.025 C 
HETATM   13  C9  UNL     1      16.605  12.295  64.825  1.00  0.00     0.002 C 
HETATM   14  C10 UNL     1      17.372  13.509  65.361  1.00  0.00     0.000 C 
HETATM   15  C11 UNL     1      16.759  14.762  64.751  1.00  0.00     0.002 C 
HETATM   16  C12 UNL     1      15.939  14.380  63.529  1.00  0.00     0.025 C 
ENDBRANCH   9  11
ENDBRANCH   7   9
ENDBRANCH   5   7
ENDBRANCH   3   5
BRANCH   1  17
HETATM   17  C4  UNL     1      12.550  10.331  67.918  1.00  0.00     0.158 A 
HETATM   18  N3  UNL     1      11.601   9.389  67.873  1.00  0.00    -0.276 N 
HETATM   19  N2  UNL     1      12.127   8.189  68.158  1.00  0.00    -0.018 NA
ATOM     20  H3  UNL     1      10.619   9.559  67.654  1.00  0.00     0.184 HD
HETATM   21  N1  UNL     1      13.439   8.333  68.395  1.00  0.00    -0.257 N 
HETATM   22  C13 UNL     1      13.708   9.641  68.251  1.00  0.00     0.165 A 
HETATM   23  N7  UNL     1      14.980  10.248  68.408  1.00  0.00    -0.079 NA
BRANCH  21  24
HETATM   24  C2  UNL     1      14.394   7.275  68.743  1.00  0.00     0.099 C 
HETATM   25  C1  UNL     1      13.657   6.254  69.598  1.00  0.00     0.033 C 
HETATM   26  C3  UNL     1      14.867   6.559  67.490  1.00  0.00     0.033 C 
ENDBRANCH  21  24
ENDBRANCH   1  17
TORSDOF 6
ENDMDL
MODEL 5
REMARK VINA RESULT: -5.786261772      5.499      8.165
REMARK  6 active torsions:
REMARK  status: ('A' for Active; 'I' for Inactive)
REMARK    1  A    between atoms: C2_2  and  N1_4 
REMARK    2  A    between atoms: C4_8  and  C5_9 
REMARK       I    between atoms: C5_9  and  N4_11 
REMARK    3  A    between atoms: N4_11  and  N5_13 
REMARK    4  A    between atoms: N5_13  and  C6_15 
REMARK    5  A    between atoms: C6_15  and  N6_17 
REMARK    6  A    between atoms: N6_17  and  C7_19 
ROOT
HETATM    1  C5  UNL     1      12.861  13.676  65.997  1.00  0.00     0.291 C 
HETATM    2  O1  UNL     1      12.447  12.583  65.477  1.00  0.00    -0.264 OA
HETATM    3  N4  UNL     1      13.701  14.559  65.280  1.00  0.00    -0.262 N 
ATOM      4  H4  UNL     1      14.028  15.429  65.701  1.00  0.00     0.190 HD
ENDROOT
BRANCH   3   5
HETATM    5  N5  UNL     1      14.066  14.213  64.001  1.00  0.00    -0.274 N 
ATOM      6  H5  UNL     1      13.356  13.886  63.345  1.00  0.00     0.189 HD
BRANCH   5   7
HETATM    7  C6  UNL     1      15.415  14.307  63.583  1.00  0.00     0.186 C 
HETATM    8  S1  UNL     1      15.716  15.057  62.154  1.00  0.00    -0.040 SA
BRANCH   7   9
HETATM    9  N6  UNL     1      16.457  13.749  64.370  1.00  0.00    -0.361 N 
ATOM     10  H6  UNL     1      17.138  14.374  64.802  1.00  0.00     0.162 HD
BRANCH   9  11
HETATM   11  C7  UNL     1      16.583  12.339  64.575  1.00  0.00     0.083 C 
HETATM   12  C8  UNL     1      16.307  12.049  66.062  1.00  0.00     0.025 C 
HETATM   13  C9  UNL     1      17.054  10.786  66.414  1.00  0.00     0.002 C 
HETATM   14  C10 UNL     1      18.523  11.183  66.598  1.00  0.00     0.000 C 
HETATM   15  C11 UNL     1      18.946  12.009  65.393  1.00  0.00     0.002 C 
HETATM   16  C12 UNL     1      17.959  11.787  64.257  1.00  0.00     0.025 C 
ENDBRANCH   9  11
ENDBRANCH   7   9
ENDBRANCH   5   7
ENDBRANCH   3   5
BRANCH   1  17
HETATM   17  C4  UNL     1      12.449  14.000  67.355  1.00  0.00     0.158 A 
HETATM   18  N3  UNL     1      11.503  14.847  67.777  1.00  0.00    -0.276 N 
HETATM   19  N2  UNL     1      11.448  14.845  69.117  1.00  0.00    -0.018 NA
ATOM     20  H3  UNL     1      10.911  15.411  67.168  1.00  0.00     0.184 HD
HETATM   21  N1  UNL     1      12.364  13.989  69.591  1.00  0.00    -0.257 N 
HETATM   22  C13 UNL     1      12.983  13.467  68.520  1.00  0.00     0.165 A 
HETATM   23  N7  UNL     1      14.029  12.509  68.552  1.00  0.00    -0.079 NA
BRANCH  21  24
HETATM   24  C2  UNL     1      12.640  13.683  70.999  1.00  0.00     0.099 C 
HETATM   25  C1  UNL     1      13.679  14.679  71.492  1.00  0.00     0.033 C 
HETATM   26  C3  UNL     1      11.388  13.883  71.837  1.00  0.00     0.033 C 
ENDBRANCH  21  24
ENDBRANCH   1  17
TORSDOF 6
ENDMDL
