MODEL 1
REMARK VINA RESULT: -8.663410183      0.000      0.000
REMARK  8 active torsions:
REMARK  status: ('A' for Active; 'I' for Inactive)
REMARK    1  A    between atoms: N1_1  and  N2_4 
REMARK    2  A    between atoms: N2_4  and  C1_5 
REMARK    3  A    between atoms: C1_5  and  C2_6 
REMARK    4  A    between atoms: C2_6  and  N3_7 
REMARK    5  A    between atoms: N3_7  and  C3_10 
REMARK    6  A    between atoms: C3_10  and  C4_11 
REMARK    7  A    between atoms: C4_11  and  C5_12 
REMARK    8  A    between atoms: C5_12  and  N4_13 
ROOT
HETATM    1  N4  UNL     1      48.069   7.418  54.545  1.00  0.00    -0.351 N 
ATOM      2  H4  UNL     1      47.257   7.226  55.131  1.00  0.00     0.166 HD
HETATM    3  C6  UNL     1      49.136   6.929  54.961  1.00  0.00     0.175 C 
HETATM    4  N5  UNL     1      49.077   6.201  56.139  1.00  0.00    -0.336 N 
ATOM      5  H5  UNL     1      48.396   6.527  56.825  1.00  0.00     0.168 HD
HETATM    6  C7  UNL     1      49.804   5.115  56.506  1.00  0.00     0.067 C 
HETATM    7  C8  UNL     1      49.159   4.118  57.330  1.00  0.00    -0.008 A 
HETATM    8  C9  UNL     1      47.983   4.350  58.046  1.00  0.00     0.014 A 
HETATM    9  C10 UNL     1      47.344   3.356  58.778  1.00  0.00     0.001 A 
HETATM   10  C11 UNL     1      47.849   2.085  58.830  1.00  0.00     0.000 A 
HETATM   11  C12 UNL     1      49.005   1.824  58.136  1.00  0.00     0.001 A 
HETATM   12  C13 UNL     1      49.646   2.832  57.398  1.00  0.00     0.014 A 
HETATM   13  C14 UNL     1      51.129   4.946  56.158  1.00  0.00     0.106 C 
HETATM   14 BR1  UNL     1      52.267   4.272  57.493  1.00  0.00    -0.043 Br
HETATM   15  C15 UNL     1      51.713   5.244  54.936  1.00  0.00     0.268 C 
HETATM   16  O1  UNL     1      52.717   4.574  54.600  1.00  0.00    -0.267 OA
HETATM   17  N6  UNL     1      51.289   6.199  54.074  1.00  0.00    -0.286 N 
ATOM     18  H6  UNL     1      51.773   6.226  53.176  1.00  0.00     0.172 HD
HETATM   19  C16 UNL     1      50.306   7.132  54.240  1.00  0.00     0.292 C 
HETATM   20  O2  UNL     1      50.518   8.224  53.688  1.00  0.00    -0.264 OA
ENDROOT
BRANCH   1  21
HETATM   21  C5  UNL     1      47.799   8.188  53.408  1.00  0.00     0.064 C 
BRANCH  21  22
HETATM   22  C4  UNL     1      46.953   9.409  53.732  1.00  0.00     0.072 C 
BRANCH  22  23
HETATM   23  C3  UNL     1      45.547   9.259  53.201  1.00  0.00     0.237 C 
BRANCH  23  24
HETATM   24  N3  UNL     1      45.465   8.854  51.838  1.00  0.00    -0.069 N 
ATOM     25  H32 UNL     1      46.330   8.402  51.545  1.00  0.00     0.277 HD
ATOM     26  H31 UNL     1      45.479   9.667  51.221  1.00  0.00     0.277 HD
BRANCH  24  27
HETATM   27  C2  UNL     1      44.338   8.021  51.550  1.00  0.00     0.293 C 
BRANCH  27  28
HETATM   28  C1  UNL     1      44.650   7.086  50.417  1.00  0.00     0.208 C 
BRANCH  28  29
HETATM   29  N2  UNL     1      45.824   6.833  50.068  1.00  0.00    -0.348 NA
BRANCH  29  30
HETATM   30  N1  UNL     1      46.969   6.677  49.615  1.00  0.00    -0.281 N 
ATOM     31  H12 UNL     1      46.735   5.686  49.673  1.00  0.00     0.191 HD
ATOM     32  H11 UNL     1      47.920   6.667  49.244  1.00  0.00     0.191 HD
ENDBRANCH  29  30
ENDBRANCH  28  29
ENDBRANCH  27  28
ENDBRANCH  24  27
ENDBRANCH  23  24
ENDBRANCH  22  23
ENDBRANCH  21  22
ENDBRANCH   1  21
TORSDOF 8
ENDMDL
MODEL 2
REMARK VINA RESULT: -8.500440766      0.968      1.239
REMARK  8 active torsions:
REMARK  status: ('A' for Active; 'I' for Inactive)
REMARK    1  A    between atoms: N1_1  and  N2_4 
REMARK    2  A    between atoms: N2_4  and  C1_5 
REMARK    3  A    between atoms: C1_5  and  C2_6 
REMARK    4  A    between atoms: C2_6  and  N3_7 
REMARK    5  A    between atoms: N3_7  and  C3_10 
REMARK    6  A    between atoms: C3_10  and  C4_11 
REMARK    7  A    between atoms: C4_11  and  C5_12 
REMARK    8  A    between atoms: C5_12  and  N4_13 
ROOT
HETATM    1  N4  UNL     1      48.221   7.362  54.627  1.00  0.00    -0.351 N 
ATOM      2  H4  UNL     1      47.383   7.186  55.181  1.00  0.00     0.166 HD
HETATM    3  C6  UNL     1      49.260   6.845  55.079  1.00  0.00     0.175 C 
HETATM    4  N5  UNL     1      49.141   6.113  56.250  1.00  0.00    -0.336 N 
ATOM      5  H5  UNL     1      48.442   6.452  56.911  1.00  0.00     0.168 HD
HETATM    6  C7  UNL     1      49.827   5.008  56.636  1.00  0.00     0.067 C 
HETATM    7  C8  UNL     1      49.129   4.023  57.431  1.00  0.00    -0.008 A 
HETATM    8  C9  UNL     1      47.933   4.279  58.104  1.00  0.00     0.014 A 
HETATM    9  C10 UNL     1      47.244   3.297  58.806  1.00  0.00     0.001 A 
HETATM   10  C11 UNL     1      47.717   2.014  58.869  1.00  0.00     0.000 A 
HETATM   11  C12 UNL     1      48.891   1.728  58.217  1.00  0.00     0.001 A 
HETATM   12  C13 UNL     1      49.583   2.725  57.509  1.00  0.00     0.014 A 
HETATM   13  C14 UNL     1      51.160   4.809  56.336  1.00  0.00     0.106 C 
HETATM   14 BR1  UNL     1      52.232   4.101  57.708  1.00  0.00    -0.043 Br
HETATM   15  C15 UNL     1      51.796   5.099  55.139  1.00  0.00     0.268 C 
HETATM   16  O1  UNL     1      52.795   4.407  54.836  1.00  0.00    -0.267 OA
HETATM   17  N6  UNL     1      51.427   6.068  54.268  1.00  0.00    -0.286 N 
ATOM     18  H6  UNL     1      51.943   6.088  53.387  1.00  0.00     0.172 HD
HETATM   19  C16 UNL     1      50.460   7.023  54.402  1.00  0.00     0.292 C 
HETATM   20  O2  UNL     1      50.719   8.113  53.865  1.00  0.00    -0.264 OA
ENDROOT
BRANCH   1  21
HETATM   21  C5  UNL     1      48.012   8.143  53.485  1.00  0.00     0.064 C 
BRANCH  21  22
HETATM   22  C4  UNL     1      46.902   9.163  53.686  1.00  0.00     0.072 C 
BRANCH  22  23
HETATM   23  C3  UNL     1      45.625   8.726  53.010  1.00  0.00     0.237 C 
BRANCH  23  24
HETATM   24  N3  UNL     1      45.655   8.781  51.587  1.00  0.00    -0.069 N 
ATOM     25  H32 UNL     1      46.454   9.327  51.265  1.00  0.00     0.277 HD
ATOM     26  H31 UNL     1      44.895   9.364  51.234  1.00  0.00     0.277 HD
BRANCH  24  27
HETATM   27  C2  UNL     1      45.638   7.495  50.959  1.00  0.00     0.293 C 
BRANCH  27  28
HETATM   28  C1  UNL     1      44.299   7.233  50.331  1.00  0.00     0.208 C 
BRANCH  28  29
HETATM   29  N2  UNL     1      43.247   7.190  51.004  1.00  0.00    -0.348 NA
BRANCH  29  30
HETATM   30  N1  UNL     1      42.280   7.198  51.783  1.00  0.00    -0.281 N 
ATOM     31  H12 UNL     1      41.733   7.276  50.925  1.00  0.00     0.191 HD
ATOM     32  H11 UNL     1      41.564   7.195  52.511  1.00  0.00     0.191 HD
ENDBRANCH  29  30
ENDBRANCH  28  29
ENDBRANCH  27  28
ENDBRANCH  24  27
ENDBRANCH  23  24
ENDBRANCH  22  23
ENDBRANCH  21  22
ENDBRANCH   1  21
TORSDOF 8
ENDMDL
MODEL 3
REMARK VINA RESULT: -8.349026977      2.256      2.687
REMARK  8 active torsions:
REMARK  status: ('A' for Active; 'I' for Inactive)
REMARK    1  A    between atoms: N1_1  and  N2_4 
REMARK    2  A    between atoms: N2_4  and  C1_5 
REMARK    3  A    between atoms: C1_5  and  C2_6 
REMARK    4  A    between atoms: C2_6  and  N3_7 
REMARK    5  A    between atoms: N3_7  and  C3_10 
REMARK    6  A    between atoms: C3_10  and  C4_11 
REMARK    7  A    between atoms: C4_11  and  C5_12 
REMARK    8  A    between atoms: C5_12  and  N4_13 
ROOT
HETATM    1  N4  UNL     1      48.525   6.565  55.756  1.00  0.00    -0.351 N 
ATOM      2  H4  UNL     1      47.685   5.991  55.682  1.00  0.00     0.166 HD
HETATM    3  C6  UNL     1      49.106   6.493  56.855  1.00  0.00     0.175 C 
HETATM    4  N5  UNL     1      48.547   5.659  57.809  1.00  0.00    -0.336 N 
ATOM      5  H5  UNL     1      47.529   5.595  57.796  1.00  0.00     0.168 HD
HETATM    6  C7  UNL     1      49.168   4.915  58.760  1.00  0.00     0.067 C 
HETATM    7  C8  UNL     1      48.575   3.648  59.121  1.00  0.00    -0.008 A 
HETATM    8  C9  UNL     1      47.257   3.297  58.821  1.00  0.00     0.014 A 
HETATM    9  C10 UNL     1      46.730   2.047  59.118  1.00  0.00     0.001 A 
HETATM   10  C11 UNL     1      47.491   1.088  59.729  1.00  0.00     0.000 A 
HETATM   11  C12 UNL     1      48.793   1.400  60.037  1.00  0.00     0.001 A 
HETATM   12  C13 UNL     1      49.321   2.666  59.733  1.00  0.00     0.014 A 
HETATM   13  C14 UNL     1      50.310   5.335  59.414  1.00  0.00     0.106 C 
HETATM   14 BR1  UNL     1      50.385   5.006  61.263  1.00  0.00    -0.043 Br
HETATM   15  C15 UNL     1      51.393   5.994  58.856  1.00  0.00     0.268 C 
HETATM   16  O1  UNL     1      52.510   5.830  59.400  1.00  0.00    -0.267 OA
HETATM   17  N6  UNL     1      51.348   6.803  57.769  1.00  0.00    -0.286 N 
ATOM     18  H6  UNL     1      52.251   7.134  57.430  1.00  0.00     0.172 HD
HETATM   19  C16 UNL     1      50.261   7.236  57.065  1.00  0.00     0.292 C 
HETATM   20  O2  UNL     1      50.360   8.384  56.599  1.00  0.00    -0.264 OA
ENDROOT
BRANCH   1  21
HETATM   21  C5  UNL     1      48.832   7.301  54.606  1.00  0.00     0.064 C 
BRANCH  21  22
HETATM   22  C4  UNL     1      47.632   8.078  54.087  1.00  0.00     0.072 C 
BRANCH  22  23
HETATM   23  C3  UNL     1      47.601   8.095  52.577  1.00  0.00     0.237 C 
BRANCH  23  24
HETATM   24  N3  UNL     1      46.296   8.057  52.008  1.00  0.00    -0.069 N 
ATOM     25  H32 UNL     1      45.926   9.000  51.894  1.00  0.00     0.277 HD
ATOM     26  H31 UNL     1      45.622   7.688  52.680  1.00  0.00     0.277 HD
BRANCH  24  27
HETATM   27  C2  UNL     1      46.225   7.335  50.775  1.00  0.00     0.293 C 
BRANCH  27  28
HETATM   28  C1  UNL     1      44.811   7.292  50.271  1.00  0.00     0.208 C 
BRANCH  28  29
HETATM   29  N2  UNL     1      43.828   7.325  51.044  1.00  0.00    -0.348 NA
BRANCH  29  30
HETATM   30  N1  UNL     1      42.855   7.213  51.807  1.00  0.00    -0.281 N 
ATOM     31  H12 UNL     1      42.644   6.396  51.235  1.00  0.00     0.191 HD
ATOM     32  H11 UNL     1      42.096   7.219  52.489  1.00  0.00     0.191 HD
ENDBRANCH  29  30
ENDBRANCH  28  29
ENDBRANCH  27  28
ENDBRANCH  24  27
ENDBRANCH  23  24
ENDBRANCH  22  23
ENDBRANCH  21  22
ENDBRANCH   1  21
TORSDOF 8
ENDMDL
MODEL 4
REMARK VINA RESULT: -8.082598805      1.052      1.176
REMARK  8 active torsions:
REMARK  status: ('A' for Active; 'I' for Inactive)
REMARK    1  A    between atoms: N1_1  and  N2_4 
REMARK    2  A    between atoms: N2_4  and  C1_5 
REMARK    3  A    between atoms: C1_5  and  C2_6 
REMARK    4  A    between atoms: C2_6  and  N3_7 
REMARK    5  A    between atoms: N3_7  and  C3_10 
REMARK    6  A    between atoms: C3_10  and  C4_11 
REMARK    7  A    between atoms: C4_11  and  C5_12 
REMARK    8  A    between atoms: C5_12  and  N4_13 
ROOT
HETATM    1  N4  UNL     1      49.275   7.133  54.815  1.00  0.00    -0.351 N 
ATOM      2  H4  UNL     1      48.442   7.206  55.399  1.00  0.00     0.166 HD
HETATM    3  C6  UNL     1      50.109   6.294  55.204  1.00  0.00     0.175 C 
HETATM    4  N5  UNL     1      49.800   5.587  56.355  1.00  0.00    -0.336 N 
ATOM      5  H5  UNL     1      49.266   6.099  57.057  1.00  0.00     0.168 HD
HETATM    6  C7  UNL     1      50.112   4.305  56.675  1.00  0.00     0.067 C 
HETATM    7  C8  UNL     1      49.162   3.556  57.467  1.00  0.00    -0.008 A 
HETATM    8  C9  UNL     1      48.130   4.147  58.199  1.00  0.00     0.014 A 
HETATM    9  C10 UNL     1      47.187   3.402  58.898  1.00  0.00     0.001 A 
HETATM   10  C11 UNL     1      47.230   2.035  58.899  1.00  0.00     0.000 A 
HETATM   11  C12 UNL     1      48.232   1.422  58.188  1.00  0.00     0.001 A 
HETATM   12  C13 UNL     1      49.182   2.180  57.483  1.00  0.00     0.014 A 
HETATM   13  C14 UNL     1      51.303   3.708  56.312  1.00  0.00     0.106 C 
HETATM   14 BR1  UNL     1      52.136   2.638  57.612  1.00  0.00    -0.043 Br
HETATM   15  C15 UNL     1      51.960   3.836  55.098  1.00  0.00     0.268 C 
HETATM   16  O1  UNL     1      52.679   2.878  54.729  1.00  0.00    -0.267 OA
HETATM   17  N6  UNL     1      51.891   4.910  54.275  1.00  0.00    -0.286 N 
ATOM     18  H6  UNL     1      52.360   4.805  53.375  1.00  0.00     0.172 HD
HETATM   19  C16 UNL     1      51.283   6.114  54.483  1.00  0.00     0.292 C 
HETATM   20  O2  UNL     1      51.857   7.090  53.970  1.00  0.00    -0.264 OA
ENDROOT
BRANCH   1  21
HETATM   21  C5  UNL     1      49.289   7.991  53.709  1.00  0.00     0.064 C 
BRANCH  21  22
HETATM   22  C4  UNL     1      48.084   7.780  52.806  1.00  0.00     0.072 C 
BRANCH  22  23
HETATM   23  C3  UNL     1      46.954   8.712  53.172  1.00  0.00     0.237 C 
BRANCH  23  24
HETATM   24  N3  UNL     1      46.110   9.080  52.086  1.00  0.00    -0.069 N 
ATOM     25  H32 UNL     1      46.607   8.994  51.199  1.00  0.00     0.277 HD
ATOM     26  H31 UNL     1      45.938  10.086  52.089  1.00  0.00     0.277 HD
BRANCH  24  27
HETATM   27  C2  UNL     1      44.875   8.357  52.043  1.00  0.00     0.293 C 
BRANCH  27  28
HETATM   28  C1  UNL     1      44.788   7.537  50.789  1.00  0.00     0.208 C 
BRANCH  28  29
HETATM   29  N2  UNL     1      45.803   7.060  50.234  1.00  0.00    -0.348 NA
BRANCH  29  30
HETATM   30  N1  UNL     1      46.777   6.670  49.570  1.00  0.00    -0.281 N 
ATOM     31  H12 UNL     1      46.504   7.423  48.938  1.00  0.00     0.191 HD
ATOM     32  H11 UNL     1      47.593   6.268  49.109  1.00  0.00     0.191 HD
ENDBRANCH  29  30
ENDBRANCH  28  29
ENDBRANCH  27  28
ENDBRANCH  24  27
ENDBRANCH  23  24
ENDBRANCH  22  23
ENDBRANCH  21  22
ENDBRANCH   1  21
TORSDOF 8
ENDMDL
MODEL 5
REMARK VINA RESULT: -7.921066361      2.466      3.056
REMARK  8 active torsions:
REMARK  status: ('A' for Active; 'I' for Inactive)
REMARK    1  A    between atoms: N1_1  and  N2_4 
REMARK    2  A    between atoms: N2_4  and  C1_5 
REMARK    3  A    between atoms: C1_5  and  C2_6 
REMARK    4  A    between atoms: C2_6  and  N3_7 
REMARK    5  A    between atoms: N3_7  and  C3_10 
REMARK    6  A    between atoms: C3_10  and  C4_11 
REMARK    7  A    between atoms: C4_11  and  C5_12 
REMARK    8  A    between atoms: C5_12  and  N4_13 
ROOT
HETATM    1  N4  UNL     1      49.393   7.797  58.218  1.00  0.00    -0.351 N 
ATOM      2  H4  UNL     1      48.714   7.562  58.942  1.00  0.00     0.166 HD
HETATM    3  C6  UNL     1      50.094   6.842  57.835  1.00  0.00     0.175 C 
HETATM    4  N5  UNL     1      49.863   5.613  58.431  1.00  0.00    -0.336 N 
ATOM      5  H5  UNL     1      49.583   5.644  59.412  1.00  0.00     0.168 HD
HETATM    6  C7  UNL     1      49.958   4.372  57.889  1.00  0.00     0.067 C 
HETATM    7  C8  UNL     1      49.036   3.360  58.352  1.00  0.00    -0.008 A 
HETATM    8  C9  UNL     1      48.300   3.467  59.534  1.00  0.00     0.014 A 
HETATM    9  C10 UNL     1      47.369   2.512  59.925  1.00  0.00     0.001 A 
HETATM   10  C11 UNL     1      47.130   1.406  59.156  1.00  0.00     0.000 A 
HETATM   11  C12 UNL     1      47.836   1.270  57.986  1.00  0.00     0.001 A 
HETATM   12  C13 UNL     1      48.776   2.239  57.596  1.00  0.00     0.014 A 
HETATM   13  C14 UNL     1      50.913   4.033  56.951  1.00  0.00     0.106 C 
HETATM   14 BR1  UNL     1      51.733   2.355  57.158  1.00  0.00    -0.043 Br
HETATM   15  C15 UNL     1      51.349   4.811  55.890  1.00  0.00     0.268 C 
HETATM   16  O1  UNL     1      51.775   4.212  54.875  1.00  0.00    -0.267 OA
HETATM   17  N6  UNL     1      51.352   6.165  55.856  1.00  0.00    -0.286 N 
ATOM     18  H6  UNL     1      51.616   6.582  54.962  1.00  0.00     0.172 HD
HETATM   19  C16 UNL     1      51.053   7.051  56.851  1.00  0.00     0.292 C 
HETATM   20  O2  UNL     1      51.712   8.104  56.834  1.00  0.00    -0.264 OA
ENDROOT
BRANCH   1  21
HETATM   21  C5  UNL     1      49.380   9.138  57.819  1.00  0.00     0.064 C 
BRANCH  21  22
HETATM   22  C4  UNL     1      47.973   9.634  57.524  1.00  0.00     0.072 C 
BRANCH  22  23
HETATM   23  C3  UNL     1      47.193   8.625  56.716  1.00  0.00     0.237 C 
BRANCH  23  24
HETATM   24  N3  UNL     1      46.526   9.160  55.578  1.00  0.00    -0.069 N 
ATOM     25  H32 UNL     1      46.448  10.175  55.651  1.00  0.00     0.277 HD
ATOM     26  H31 UNL     1      45.536   8.911  55.592  1.00  0.00     0.277 HD
BRANCH  24  27
HETATM   27  C2  UNL     1      47.122   8.790  54.331  1.00  0.00     0.293 C 
BRANCH  27  28
HETATM   28  C1  UNL     1      48.137   7.703  54.534  1.00  0.00     0.208 C 
BRANCH  28  29
HETATM   29  N2  UNL     1      49.100   7.538  53.753  1.00  0.00    -0.348 NA
BRANCH  29  30
HETATM   30  N1  UNL     1      49.983   7.259  52.926  1.00  0.00    -0.281 N 
ATOM     31  H12 UNL     1      49.287   6.602  52.573  1.00  0.00     0.191 HD
ATOM     32  H11 UNL     1      50.776   7.111  52.301  1.00  0.00     0.191 HD
ENDBRANCH  29  30
ENDBRANCH  28  29
ENDBRANCH  27  28
ENDBRANCH  24  27
ENDBRANCH  23  24
ENDBRANCH  22  23
ENDBRANCH  21  22
ENDBRANCH   1  21
TORSDOF 8
ENDMDL
