MODEL 1
REMARK VINA RESULT: -9.536020907      0.000      0.000
REMARK  8 active torsions:
REMARK  status: ('A' for Active; 'I' for Inactive)
REMARK    1  A    between atoms: N1_2  and  C2_3 
REMARK    2  A    between atoms: C2_3  and  C3_4 
REMARK    3  A    between atoms: C9_10  and  C10_11 
REMARK    4  A    between atoms: C10_11  and  O1_12 
REMARK    5  A    between atoms: C10_11  and  C11_14 
REMARK    6  A    between atoms: C11_14  and  N2_15 
REMARK    7  A    between atoms: C14_18  and  C15_20 
REMARK    8  A    between atoms: N3_23  and  O2_24 
ROOT
HETATM    1  N2  UNL     1      48.584   8.223  56.335  1.00  0.00    -0.331 N 
HETATM    2  C12 UNL     1      48.806   7.182  55.353  1.00  0.00     0.133 C 
HETATM    3  C13 UNL     1      48.451   7.682  53.987  1.00  0.00     0.092 C 
HETATM    4  C14 UNL     1      47.254   8.563  53.900  1.00  0.00     0.209 C 
HETATM    5  F1  UNL     1      47.739   9.868  53.635  1.00  0.00    -0.213 F 
HETATM    6  N4  UNL     1      46.532   8.683  55.125  1.00  0.00    -0.303 N 
ATOM      7  H4  UNL     1      45.513   8.661  55.149  1.00  0.00     0.167 HD
HETATM    8  C20 UNL     1      47.302   8.836  56.315  1.00  0.00     0.321 C 
HETATM    9  O3  UNL     1      46.887   9.479  57.308  1.00  0.00    -0.247 OA
ENDROOT
BRANCH   1  10
HETATM   10  C11 UNL     1      49.613   8.641  57.306  1.00  0.00     0.164 C 
BRANCH  10  11
HETATM   11  C10 UNL     1      50.233   7.499  58.055  1.00  0.00     0.174 C 
BRANCH  11  12
HETATM   12  C9  UNL     1      49.336   6.273  57.947  1.00  0.00     0.091 C 
HETATM   13  N1  UNL     1      49.757   5.100  58.504  1.00  0.00    -0.391 N 
HETATM   14  C1  UNL     1      49.867   4.887  59.892  1.00  0.00     0.149 C 
BRANCH  13  15
HETATM   15  C2  UNL     1      49.333   3.880  57.807  1.00  0.00     0.160 C 
BRANCH  15  16
HETATM   16  C3  UNL     1      48.630   2.911  58.634  1.00  0.00    -0.040 A 
HETATM   17  C4  UNL     1      47.251   2.904  58.665  1.00  0.00     0.009 A 
HETATM   18  C5  UNL     1      46.549   2.002  59.418  1.00  0.00     0.001 A 
HETATM   19  C6  UNL     1      47.212   1.075  60.169  1.00  0.00     0.000 A 
HETATM   20  C7  UNL     1      48.584   1.074  60.145  1.00  0.00     0.001 A 
HETATM   21  C8  UNL     1      49.296   1.963  59.402  1.00  0.00     0.009 A 
ENDBRANCH  15  16
ENDBRANCH  13  15
ENDBRANCH  11  12
BRANCH  11  22
HETATM   22  O1  UNL     1      51.456   7.145  57.375  1.00  0.00    -0.389 OA
ATOM     23  H1  UNL     1      52.120   7.726  57.727  1.00  0.00     0.210 HD
ENDBRANCH  11  22
ENDBRANCH  10  11
ENDBRANCH   1  10
BRANCH   4  24
HETATM   24  C15 UNL     1      46.426   8.234  52.725  1.00  0.00     0.004 A 
HETATM   25  C16 UNL     1      47.017   7.536  51.694  1.00  0.00     0.032 A 
HETATM   26  C17 UNL     1      46.358   7.192  50.549  1.00  0.00     0.123 A 
HETATM   27  N3  UNL     1      45.078   7.540  50.403  1.00  0.00    -0.247 N 
HETATM   28  C18 UNL     1      44.472   8.223  51.393  1.00  0.00     0.123 A 
HETATM   29  C19 UNL     1      45.100   8.588  52.557  1.00  0.00     0.032 A 
BRANCH  27  30
HETATM   30  O2  UNL     1      44.403   7.202  49.249  1.00  0.00    -0.284 OA
ATOM     31  H2  UNL     1      44.170   7.877  48.623  1.00  0.00     0.245 HD
ENDBRANCH  27  30
ENDBRANCH   4  24
TORSDOF 8
ENDMDL
MODEL 2
REMARK VINA RESULT: -9.468765554      2.064      2.884
REMARK  8 active torsions:
REMARK  status: ('A' for Active; 'I' for Inactive)
REMARK    1  A    between atoms: N1_2  and  C2_3 
REMARK    2  A    between atoms: C2_3  and  C3_4 
REMARK    3  A    between atoms: C9_10  and  C10_11 
REMARK    4  A    between atoms: C10_11  and  O1_12 
REMARK    5  A    between atoms: C10_11  and  C11_14 
REMARK    6  A    between atoms: C11_14  and  N2_15 
REMARK    7  A    between atoms: C14_18  and  C15_20 
REMARK    8  A    between atoms: N3_23  and  O2_24 
ROOT
HETATM    1  N2  UNL     1      50.540   7.611  57.528  1.00  0.00    -0.331 N 
HETATM    2  C12 UNL     1      49.414   8.520  57.596  1.00  0.00     0.133 C 
HETATM    3  C13 UNL     1      48.325   8.056  56.678  1.00  0.00     0.092 C 
HETATM    4  C14 UNL     1      48.762   7.488  55.373  1.00  0.00     0.209 C 
HETATM    5  F1  UNL     1      48.522   6.093  55.446  1.00  0.00    -0.213 F 
HETATM    6  N4  UNL     1      50.164   7.605  55.130  1.00  0.00    -0.303 N 
ATOM      7  H4  UNL     1      50.526   7.875  54.216  1.00  0.00     0.167 HD
HETATM    8  C20 UNL     1      51.033   7.328  56.225  1.00  0.00     0.321 C 
HETATM    9  O3  UNL     1      52.183   6.853  56.068  1.00  0.00    -0.247 OA
ENDROOT
BRANCH   1  10
HETATM   10  C11 UNL     1      51.153   7.004  58.724  1.00  0.00     0.164 C 
BRANCH  10  11
HETATM   11  C10 UNL     1      50.263   6.021  59.424  1.00  0.00     0.174 C 
BRANCH  11  12
HETATM   12  C9  UNL     1      50.902   4.639  59.385  1.00  0.00     0.091 C 
HETATM   13  N1  UNL     1      50.488   3.749  58.435  1.00  0.00    -0.391 N 
HETATM   14  C1  UNL     1      50.745   3.898  57.059  1.00  0.00     0.149 C 
BRANCH  13  15
HETATM   15  C2  UNL     1      50.512   2.338  58.835  1.00  0.00     0.160 C 
BRANCH  15  16
HETATM   16  C3  UNL     1      49.219   1.779  59.200  1.00  0.00    -0.040 A 
HETATM   17  C4  UNL     1      48.232   1.651  58.246  1.00  0.00     0.009 A 
HETATM   18  C5  UNL     1      47.006   1.118  58.541  1.00  0.00     0.001 A 
HETATM   19  C6  UNL     1      46.731   0.697  59.810  1.00  0.00     0.000 A 
HETATM   20  C7  UNL     1      47.707   0.821  60.767  1.00  0.00     0.001 A 
HETATM   21  C8  UNL     1      48.930   1.347  60.489  1.00  0.00     0.009 A 
ENDBRANCH  15  16
ENDBRANCH  13  15
ENDBRANCH  11  12
BRANCH  11  22
HETATM   22  O1  UNL     1      50.219   6.388  60.819  1.00  0.00    -0.389 OA
ATOM     23  H1  UNL     1      49.332   6.690  60.974  1.00  0.00     0.210 HD
ENDBRANCH  11  22
ENDBRANCH  10  11
ENDBRANCH   1  10
BRANCH   4  24
HETATM   24  C15 UNL     1      47.902   7.951  54.269  1.00  0.00     0.004 A 
HETATM   25  C16 UNL     1      46.801   8.716  54.585  1.00  0.00     0.032 A 
HETATM   26  C17 UNL     1      45.923   9.185  53.651  1.00  0.00     0.123 A 
HETATM   27  N3  UNL     1      46.125   8.900  52.363  1.00  0.00    -0.247 N 
HETATM   28  C18 UNL     1      47.193   8.153  52.021  1.00  0.00     0.123 A 
HETATM   29  C19 UNL     1      48.097   7.662  52.930  1.00  0.00     0.032 A 
BRANCH  27  30
HETATM   30  O2  UNL     1      45.243   9.364  51.410  1.00  0.00    -0.284 OA
ATOM     31  H2  UNL     1      45.465   9.301  50.489  1.00  0.00     0.245 HD
ENDBRANCH  27  30
ENDBRANCH   4  24
TORSDOF 8
ENDMDL
MODEL 3
REMARK VINA RESULT: -9.403640033      2.689      8.227
REMARK  8 active torsions:
REMARK  status: ('A' for Active; 'I' for Inactive)
REMARK    1  A    between atoms: N1_2  and  C2_3 
REMARK    2  A    between atoms: C2_3  and  C3_4 
REMARK    3  A    between atoms: C9_10  and  C10_11 
REMARK    4  A    between atoms: C10_11  and  O1_12 
REMARK    5  A    between atoms: C10_11  and  C11_14 
REMARK    6  A    between atoms: C11_14  and  N2_15 
REMARK    7  A    between atoms: C14_18  and  C15_20 
REMARK    8  A    between atoms: N3_23  and  O2_24 
ROOT
HETATM    1  N2  UNL     1      50.288   6.056  56.623  1.00  0.00    -0.331 N 
HETATM    2  C12 UNL     1      50.538   4.663  56.313  1.00  0.00     0.133 C 
HETATM    3  C13 UNL     1      49.388   3.823  56.774  1.00  0.00     0.092 C 
HETATM    4  C14 UNL     1      48.767   4.210  58.071  1.00  0.00     0.209 C 
HETATM    5  F1  UNL     1      47.502   4.766  57.755  1.00  0.00    -0.213 F 
HETATM    6  N4  UNL     1      49.462   5.250  58.758  1.00  0.00    -0.303 N 
ATOM      7  H4  UNL     1      49.615   5.215  59.765  1.00  0.00     0.167 HD
HETATM    8  C20 UNL     1      49.934   6.340  57.970  1.00  0.00     0.321 C 
HETATM    9  O3  UNL     1      50.036   7.505  58.424  1.00  0.00    -0.247 OA
ENDROOT
BRANCH   1  10
HETATM   10  C11 UNL     1      50.389   7.132  55.619  1.00  0.00     0.164 C 
BRANCH  10  11
HETATM   11  C10 UNL     1      49.573   6.882  54.386  1.00  0.00     0.174 C 
BRANCH  11  12
HETATM   12  C9  UNL     1      48.932   8.186  53.927  1.00  0.00     0.091 C 
HETATM   13  N1  UNL     1      47.602   8.383  54.163  1.00  0.00    -0.391 N 
HETATM   14  C1  UNL     1      47.054   8.575  55.446  1.00  0.00     0.149 C 
BRANCH  13  15
HETATM   15  C2  UNL     1      46.890   9.175  53.154  1.00  0.00     0.160 C 
BRANCH  15  16
HETATM   16  C3  UNL     1      46.163   8.398  52.162  1.00  0.00    -0.040 A 
HETATM   17  C4  UNL     1      44.785   8.442  52.128  1.00  0.00     0.009 A 
HETATM   18  C5  UNL     1      44.061   7.738  51.205  1.00  0.00     0.001 A 
HETATM   19  C6  UNL     1      44.700   6.961  50.282  1.00  0.00     0.000 A 
HETATM   20  C7  UNL     1      46.071   6.910  50.307  1.00  0.00     0.001 A 
HETATM   21  C8  UNL     1      46.805   7.605  51.218  1.00  0.00     0.009 A 
ENDBRANCH  15  16
ENDBRANCH  13  15
ENDBRANCH  11  12
BRANCH  11  22
HETATM   22  O1  UNL     1      50.481   6.505  53.329  1.00  0.00    -0.389 OA
ATOM     23  H1  UNL     1      50.131   5.699  52.969  1.00  0.00     0.210 HD
ENDBRANCH  11  22
ENDBRANCH  10  11
ENDBRANCH   1  10
BRANCH   4  24
HETATM   24  C15 UNL     1      48.454   3.027  58.893  1.00  0.00     0.004 A 
HETATM   25  C16 UNL     1      47.164   2.541  58.859  1.00  0.00     0.032 A 
HETATM   26  C17 UNL     1      46.751   1.466  59.592  1.00  0.00     0.123 A 
HETATM   27  N3  UNL     1      47.624   0.841  60.385  1.00  0.00    -0.247 N 
HETATM   28  C18 UNL     1      48.893   1.292  60.440  1.00  0.00     0.123 A 
HETATM   29  C19 UNL     1      49.346   2.370  59.720  1.00  0.00     0.032 A 
BRANCH  27  30
HETATM   30  O2  UNL     1      47.218  -0.243  61.133  1.00  0.00    -0.284 OA
ATOM     31  H2  UNL     1      46.490  -0.156  61.735  1.00  0.00     0.245 HD
ENDBRANCH  27  30
ENDBRANCH   4  24
TORSDOF 8
ENDMDL
MODEL 4
REMARK VINA RESULT: -9.240417138      3.160      5.289
REMARK  8 active torsions:
REMARK  status: ('A' for Active; 'I' for Inactive)
REMARK    1  A    between atoms: N1_2  and  C2_3 
REMARK    2  A    between atoms: C2_3  and  C3_4 
REMARK    3  A    between atoms: C9_10  and  C10_11 
REMARK    4  A    between atoms: C10_11  and  O1_12 
REMARK    5  A    between atoms: C10_11  and  C11_14 
REMARK    6  A    between atoms: C11_14  and  N2_15 
REMARK    7  A    between atoms: C14_18  and  C15_20 
REMARK    8  A    between atoms: N3_23  and  O2_24 
ROOT
HETATM    1  N2  UNL     1      48.533   8.220  56.347  1.00  0.00    -0.331 N 
HETATM    2  C12 UNL     1      48.668   7.108  55.429  1.00  0.00     0.133 C 
HETATM    3  C13 UNL     1      48.377   7.559  54.031  1.00  0.00     0.092 C 
HETATM    4  C14 UNL     1      47.267   8.539  53.874  1.00  0.00     0.209 C 
HETATM    5  F1  UNL     1      47.875   9.777  53.544  1.00  0.00    -0.213 F 
HETATM    6  N4  UNL     1      46.546   8.796  55.078  1.00  0.00    -0.303 N 
ATOM      7  H4  UNL     1      45.529   8.869  55.086  1.00  0.00     0.167 HD
HETATM    8  C20 UNL     1      47.313   8.945  56.270  1.00  0.00     0.321 C 
HETATM    9  O3  UNL     1      46.947   9.681  57.219  1.00  0.00    -0.247 OA
ENDROOT
BRANCH   1  10
HETATM   10  C11 UNL     1      49.584   8.597  57.310  1.00  0.00     0.164 C 
BRANCH  10  11
HETATM   11  C10 UNL     1      50.211   7.426  58.006  1.00  0.00     0.174 C 
BRANCH  11  12
HETATM   12  C9  UNL     1      51.662   7.288  57.562  1.00  0.00     0.091 C 
HETATM   13  N1  UNL     1      52.265   8.346  56.945  1.00  0.00    -0.391 N 
HETATM   14  C1  UNL     1      52.587   9.553  57.597  1.00  0.00     0.149 C 
BRANCH  13  15
HETATM   15  C2  UNL     1      53.266   8.002  55.931  1.00  0.00     0.160 C 
BRANCH  15  16
HETATM   16  C3  UNL     1      52.955   8.448  54.581  1.00  0.00    -0.040 A 
HETATM   17  C4  UNL     1      53.582   9.561  54.062  1.00  0.00     0.009 A 
HETATM   18  C5  UNL     1      53.330  10.008  52.794  1.00  0.00     0.001 A 
HETATM   19  C6  UNL     1      52.434   9.349  52.002  1.00  0.00     0.000 A 
HETATM   20  C7  UNL     1      51.804   8.241  52.510  1.00  0.00     0.001 A 
HETATM   21  C8  UNL     1      52.044   7.784  53.768  1.00  0.00     0.009 A 
ENDBRANCH  15  16
ENDBRANCH  13  15
ENDBRANCH  11  12
BRANCH  11  22
HETATM   22  O1  UNL     1      50.265   7.733  59.415  1.00  0.00    -0.389 OA
ATOM     23  H1  UNL     1      49.401   7.528  59.753  1.00  0.00     0.210 HD
ENDBRANCH  11  22
ENDBRANCH  10  11
ENDBRANCH   1  10
BRANCH   4  24
HETATM   24  C15 UNL     1      46.427   8.221  52.705  1.00  0.00     0.004 A 
HETATM   25  C16 UNL     1      46.998   7.506  51.675  1.00  0.00     0.032 A 
HETATM   26  C17 UNL     1      46.326   7.169  50.536  1.00  0.00     0.123 A 
HETATM   27  N3  UNL     1      45.051   7.540  50.395  1.00  0.00    -0.247 N 
HETATM   28  C18 UNL     1      44.465   8.241  51.385  1.00  0.00     0.123 A 
HETATM   29  C19 UNL     1      45.107   8.600  52.544  1.00  0.00     0.032 A 
BRANCH  27  30
HETATM   30  O2  UNL     1      44.363   7.210  49.247  1.00  0.00    -0.284 OA
ATOM     31  H2  UNL     1      44.284   7.844  48.545  1.00  0.00     0.245 HD
ENDBRANCH  27  30
ENDBRANCH   4  24
TORSDOF 8
ENDMDL
MODEL 5
REMARK VINA RESULT: -9.222688069      0.545      1.038
REMARK  8 active torsions:
REMARK  status: ('A' for Active; 'I' for Inactive)
REMARK    1  A    between atoms: N1_2  and  C2_3 
REMARK    2  A    between atoms: C2_3  and  C3_4 
REMARK    3  A    between atoms: C9_10  and  C10_11 
REMARK    4  A    between atoms: C10_11  and  O1_12 
REMARK    5  A    between atoms: C10_11  and  C11_14 
REMARK    6  A    between atoms: C11_14  and  N2_15 
REMARK    7  A    between atoms: C14_18  and  C15_20 
REMARK    8  A    between atoms: N3_23  and  O2_24 
ROOT
HETATM    1  N2  UNL     1      48.471   8.220  56.414  1.00  0.00    -0.331 N 
HETATM    2  C12 UNL     1      48.586   7.084  55.522  1.00  0.00     0.133 C 
HETATM    3  C13 UNL     1      48.339   7.516  54.110  1.00  0.00     0.092 C 
HETATM    4  C14 UNL     1      47.267   8.530  53.910  1.00  0.00     0.209 C 
HETATM    5  F1  UNL     1      47.923   9.739  53.568  1.00  0.00    -0.213 F 
HETATM    6  N4  UNL     1      46.531   8.836  55.093  1.00  0.00    -0.303 N 
ATOM      7  H4  UNL     1      45.517   8.944  55.078  1.00  0.00     0.167 HD
HETATM    8  C20 UNL     1      47.279   8.984  56.298  1.00  0.00     0.321 C 
HETATM    9  O3  UNL     1      46.919   9.751  57.223  1.00  0.00    -0.247 OA
ENDROOT
BRANCH   1  10
HETATM   10  C11 UNL     1      49.515   8.580  57.391  1.00  0.00     0.164 C 
BRANCH  10  11
HETATM   11  C10 UNL     1      50.548   7.512  57.591  1.00  0.00     0.174 C 
BRANCH  11  12
HETATM   12  C9  UNL     1      49.862   6.158  57.714  1.00  0.00     0.091 C 
HETATM   13  N1  UNL     1      50.604   5.077  58.094  1.00  0.00    -0.391 N 
HETATM   14  C1  UNL     1      51.143   4.912  59.385  1.00  0.00     0.149 C 
BRANCH  13  15
HETATM   15  C2  UNL     1      50.193   3.792  57.517  1.00  0.00     0.160 C 
BRANCH  15  16
HETATM   16  C3  UNL     1      49.160   3.085  58.259  1.00  0.00    -0.040 A 
HETATM   17  C4  UNL     1      49.479   1.948  58.971  1.00  0.00     0.009 A 
HETATM   18  C5  UNL     1      48.542   1.260  59.693  1.00  0.00     0.001 A 
HETATM   19  C6  UNL     1      47.248   1.692  59.721  1.00  0.00     0.000 A 
HETATM   20  C7  UNL     1      46.920   2.822  59.015  1.00  0.00     0.001 A 
HETATM   21  C8  UNL     1      47.839   3.518  58.294  1.00  0.00     0.009 A 
ENDBRANCH  15  16
ENDBRANCH  13  15
ENDBRANCH  11  12
BRANCH  11  22
HETATM   22  O1  UNL     1      51.338   7.437  56.385  1.00  0.00    -0.389 OA
ATOM     23  H1  UNL     1      52.048   8.056  56.508  1.00  0.00     0.210 HD
ENDBRANCH  11  22
ENDBRANCH  10  11
ENDBRANCH   1  10
BRANCH   4  24
HETATM   24  C15 UNL     1      46.440   8.216  52.730  1.00  0.00     0.004 A 
HETATM   25  C16 UNL     1      47.028   7.521  51.696  1.00  0.00     0.032 A 
HETATM   26  C17 UNL     1      46.369   7.191  50.547  1.00  0.00     0.123 A 
HETATM   27  N3  UNL     1      45.091   7.549  50.401  1.00  0.00    -0.247 N 
HETATM   28  C18 UNL     1      44.488   8.229  51.395  1.00  0.00     0.123 A 
HETATM   29  C19 UNL     1      45.116   8.581  52.563  1.00  0.00     0.032 A 
BRANCH  27  30
HETATM   30  O2  UNL     1      44.416   7.224  49.243  1.00  0.00    -0.284 OA
ATOM     31  H2  UNL     1      44.848   6.710  48.572  1.00  0.00     0.245 HD
ENDBRANCH  27  30
ENDBRANCH   4  24
TORSDOF 8
ENDMDL
