MODEL 1
REMARK VINA RESULT: -7.508558365      0.000      0.000
REMARK  9 active torsions:
REMARK  status: ('A' for Active; 'I' for Inactive)
REMARK    1  A    between atoms: C1_2  and  C2_4 
REMARK    2  A    between atoms: C2_4  and  N2_5 
REMARK    3  A    between atoms: N2_5  and  C3_7 
REMARK    4  A    between atoms: C4_10  and  N4_11 
REMARK    5  A    between atoms: N4_11  and  C5_13 
REMARK    6  A    between atoms: C5_13  and  C6_14 
REMARK    7  A    between atoms: C6_14  and  C7_15 
REMARK    8  A    between atoms: C7_15  and  C8_16 
REMARK    9  A    between atoms: C8_16  and  N5_17 
ROOT
HETATM    1  C3  UNL     1      47.577   8.304  54.734  1.00  0.00     0.136 A 
HETATM    2  N3  UNL     1      48.715   7.681  55.008  1.00  0.00    -0.176 N 
ATOM      3  H3  UNL     1      49.023   7.581  55.975  1.00  0.00     0.186 HD
HETATM    4  C4  UNL     1      49.467   7.178  54.002  1.00  0.00     0.679 A 
HETATM    5  N6  UNL     1      49.068   7.306  52.726  1.00  0.00    -0.201 N 
ATOM      6  H6  UNL     1      49.650   6.920  51.983  1.00  0.00     0.183 HD
HETATM    7  C14 UNL     1      47.916   7.934  52.398  1.00  0.00     0.129 A 
HETATM    8  C15 UNL     1      47.155   8.443  53.421  1.00  0.00     0.071 A 
HETATM    9 BR1  UNL     1      45.527   9.331  52.991  1.00  0.00    -0.046 Br
ENDROOT
BRANCH   4  10
HETATM   10  N4  UNL     1      50.565   6.576  54.247  1.00  0.00    -0.226 N 
ATOM     11  H4  UNL     1      51.036   6.164  53.442  1.00  0.00     0.177 HD
BRANCH  10  12
HETATM   12  C5  UNL     1      51.218   6.405  55.510  1.00  0.00     0.138 C 
BRANCH  12  13
HETATM   13  C6  UNL     1      51.010   5.035  56.094  1.00  0.00     0.022 C 
BRANCH  13  14
HETATM   14  C7  UNL     1      49.956   4.995  57.158  1.00  0.00     0.032 C 
BRANCH  14  15
HETATM   15  C8  UNL     1      48.767   4.162  56.763  1.00  0.00     0.272 C 
BRANCH  15  16
HETATM   16  N5  UNL     1      48.207   3.486  57.887  1.00  0.00     0.088 N 
HETATM   17  C9  UNL     1      48.527   2.074  57.768  1.00  0.00     0.272 C 
HETATM   18  C10 UNL     1      47.481   1.301  58.516  1.00  0.00     0.030 C 
HETATM   19  C11 UNL     1      47.199   2.001  59.805  1.00  0.00     0.003 C 
HETATM   20  C12 UNL     1      48.281   2.965  60.221  1.00  0.00     0.030 C 
HETATM   21  C13 UNL     1      48.613   3.977  59.162  1.00  0.00     0.272 C 
ENDBRANCH  15  16
ENDBRANCH  14  15
ENDBRANCH  13  14
ENDBRANCH  12  13
ENDBRANCH  10  12
ENDBRANCH   4  10
BRANCH   1  22
HETATM   22  N2  UNL     1      46.805   8.810  55.640  1.00  0.00    -0.366 N 
ATOM     23  H2  UNL     1      45.978   9.320  55.331  1.00  0.00     0.161 HD
BRANCH  22  24
HETATM   24  C2  UNL     1      47.038   8.700  57.051  1.00  0.00     0.220 C 
BRANCH  24  25
HETATM   25  C1  UNL     1      48.011   9.744  57.445  1.00  0.00     0.248 C 
HETATM   26  N1  UNL     1      49.312   9.340  57.867  1.00  0.00    -0.061 NA
HETATM   27  O1  UNL     1      47.699  10.954  57.406  1.00  0.00    -0.275 OA
ENDBRANCH  24  25
ENDBRANCH  22  24
ENDBRANCH   1  22
TORSDOF 9
ENDMDL
MODEL 2
REMARK VINA RESULT: -7.504934488      0.902      1.120
REMARK  9 active torsions:
REMARK  status: ('A' for Active; 'I' for Inactive)
REMARK    1  A    between atoms: C1_2  and  C2_4 
REMARK    2  A    between atoms: C2_4  and  N2_5 
REMARK    3  A    between atoms: N2_5  and  C3_7 
REMARK    4  A    between atoms: C4_10  and  N4_11 
REMARK    5  A    between atoms: N4_11  and  C5_13 
REMARK    6  A    between atoms: C5_13  and  C6_14 
REMARK    7  A    between atoms: C6_14  and  C7_15 
REMARK    8  A    between atoms: C7_15  and  C8_16 
REMARK    9  A    between atoms: C8_16  and  N5_17 
ROOT
HETATM    1  C3  UNL     1      47.371   8.439  54.451  1.00  0.00     0.136 A 
HETATM    2  N3  UNL     1      48.558   7.849  54.469  1.00  0.00    -0.176 N 
ATOM      3  H3  UNL     1      49.077   7.773  55.343  1.00  0.00     0.186 HD
HETATM    4  C4  UNL     1      49.079   7.349  53.325  1.00  0.00     0.679 A 
HETATM    5  N6  UNL     1      48.401   7.447  52.170  1.00  0.00    -0.201 N 
ATOM      6  H6  UNL     1      48.813   7.063  51.319  1.00  0.00     0.183 HD
HETATM    7  C14 UNL     1      47.188   8.040  52.102  1.00  0.00     0.129 A 
HETATM    8  C15 UNL     1      46.661   8.546  53.264  1.00  0.00     0.071 A 
HETATM    9 BR1  UNL     1      44.955   9.387  53.201  1.00  0.00    -0.046 Br
ENDROOT
BRANCH   4  10
HETATM   10  N4  UNL     1      50.220   6.778  53.323  1.00  0.00    -0.226 N 
ATOM     11  H4  UNL     1      50.395   6.134  52.552  1.00  0.00     0.177 HD
BRANCH  10  12
HETATM   12  C5  UNL     1      51.286   6.928  54.268  1.00  0.00     0.138 C 
BRANCH  12  13
HETATM   13  C6  UNL     1      51.731   5.618  54.859  1.00  0.00     0.022 C 
BRANCH  13  14
HETATM   14  C7  UNL     1      51.038   5.277  56.142  1.00  0.00     0.032 C 
BRANCH  14  15
HETATM   15  C8  UNL     1      50.755   3.806  56.274  1.00  0.00     0.272 C 
BRANCH  15  16
HETATM   16  N5  UNL     1      49.591   3.567  57.061  1.00  0.00     0.088 N 
HETATM   17  C9  UNL     1      49.823   2.374  57.857  1.00  0.00     0.272 C 
HETATM   18  C10 UNL     1      48.489   1.765  58.173  1.00  0.00     0.030 C 
HETATM   19  C11 UNL     1      47.539   2.859  58.541  1.00  0.00     0.003 C 
HETATM   20  C12 UNL     1      48.220   4.145  58.934  1.00  0.00     0.030 C 
HETATM   21  C13 UNL     1      49.186   4.645  57.900  1.00  0.00     0.272 C 
ENDBRANCH  15  16
ENDBRANCH  14  15
ENDBRANCH  13  14
ENDBRANCH  12  13
ENDBRANCH  10  12
ENDBRANCH   4  10
BRANCH   1  22
HETATM   22  N2  UNL     1      46.808   8.941  55.502  1.00  0.00    -0.366 N 
ATOM     23  H2  UNL     1      46.044   9.603  55.363  1.00  0.00     0.161 HD
BRANCH  22  24
HETATM   24  C2  UNL     1      47.188   8.626  56.848  1.00  0.00     0.220 C 
BRANCH  24  25
HETATM   25  C1  UNL     1      47.966   9.763  57.389  1.00  0.00     0.248 C 
HETATM   26  N1  UNL     1      49.181   9.490  58.083  1.00  0.00    -0.061 NA
HETATM   27  O1  UNL     1      47.565  10.938  57.240  1.00  0.00    -0.275 OA
ENDBRANCH  24  25
ENDBRANCH  22  24
ENDBRANCH   1  22
TORSDOF 9
ENDMDL
MODEL 3
REMARK VINA RESULT: -7.473216326      0.936      1.591
REMARK  9 active torsions:
REMARK  status: ('A' for Active; 'I' for Inactive)
REMARK    1  A    between atoms: C1_2  and  C2_4 
REMARK    2  A    between atoms: C2_4  and  N2_5 
REMARK    3  A    between atoms: N2_5  and  C3_7 
REMARK    4  A    between atoms: C4_10  and  N4_11 
REMARK    5  A    between atoms: N4_11  and  C5_13 
REMARK    6  A    between atoms: C5_13  and  C6_14 
REMARK    7  A    between atoms: C6_14  and  C7_15 
REMARK    8  A    between atoms: C7_15  and  C8_16 
REMARK    9  A    between atoms: C8_16  and  N5_17 
ROOT
HETATM    1  C3  UNL     1      47.343   8.447  54.420  1.00  0.00     0.136 A 
HETATM    2  N3  UNL     1      48.534   7.867  54.394  1.00  0.00    -0.176 N 
ATOM      3  H3  UNL     1      49.059   7.736  55.259  1.00  0.00     0.186 HD
HETATM    4  C4  UNL     1      49.054   7.448  53.217  1.00  0.00     0.679 A 
HETATM    5  N6  UNL     1      48.370   7.618  52.074  1.00  0.00    -0.201 N 
ATOM      6  H6  UNL     1      48.780   7.295  51.198  1.00  0.00     0.183 HD
HETATM    7  C14 UNL     1      47.152   8.204  52.051  1.00  0.00     0.129 A 
HETATM    8  C15 UNL     1      46.627   8.628  53.247  1.00  0.00     0.071 A 
HETATM    9 BR1  UNL     1      44.914   9.457  53.247  1.00  0.00    -0.046 Br
ENDROOT
BRANCH   4  10
HETATM   10  N4  UNL     1      50.200   6.888  53.172  1.00  0.00    -0.226 N 
ATOM     11  H4  UNL     1      50.332   6.203  52.429  1.00  0.00     0.177 HD
BRANCH  10  12
HETATM   12  C5  UNL     1      51.323   7.100  54.035  1.00  0.00     0.138 C 
BRANCH  12  13
HETATM   13  C6  UNL     1      51.782   5.840  54.717  1.00  0.00     0.022 C 
BRANCH  13  14
HETATM   14  C7  UNL     1      50.973   5.490  55.927  1.00  0.00     0.032 C 
BRANCH  14  15
HETATM   15  C8  UNL     1      51.050   4.027  56.272  1.00  0.00     0.272 C 
BRANCH  15  16
HETATM   16  N5  UNL     1      50.047   3.660  57.216  1.00  0.00     0.088 N 
HETATM   17  C9  UNL     1      48.877   4.485  56.975  1.00  0.00     0.272 C 
HETATM   18  C10 UNL     1      48.109   4.583  58.260  1.00  0.00     0.030 C 
HETATM   19  C11 UNL     1      48.078   3.234  58.902  1.00  0.00     0.003 C 
HETATM   20  C12 UNL     1      48.386   2.104  57.954  1.00  0.00     0.030 C 
HETATM   21  C13 UNL     1      49.684   2.282  57.220  1.00  0.00     0.272 C 
ENDBRANCH  15  16
ENDBRANCH  14  15
ENDBRANCH  13  14
ENDBRANCH  12  13
ENDBRANCH  10  12
ENDBRANCH   4  10
BRANCH   1  22
HETATM   22  N2  UNL     1      46.781   8.873  55.505  1.00  0.00    -0.366 N 
ATOM     23  H2  UNL     1      45.976   9.492  55.413  1.00  0.00     0.161 HD
BRANCH  22  24
HETATM   24  C2  UNL     1      47.217   8.531  56.827  1.00  0.00     0.220 C 
BRANCH  24  25
HETATM   25  C1  UNL     1      48.005   9.663  57.365  1.00  0.00     0.248 C 
HETATM   26  N1  UNL     1      49.244   9.387  58.013  1.00  0.00    -0.061 NA
HETATM   27  O1  UNL     1      47.591  10.837  57.252  1.00  0.00    -0.275 OA
ENDBRANCH  24  25
ENDBRANCH  22  24
ENDBRANCH   1  22
TORSDOF 9
ENDMDL
MODEL 4
REMARK VINA RESULT: -7.210618974      1.012      1.173
REMARK  9 active torsions:
REMARK  status: ('A' for Active; 'I' for Inactive)
REMARK    1  A    between atoms: C1_2  and  C2_4 
REMARK    2  A    between atoms: C2_4  and  N2_5 
REMARK    3  A    between atoms: N2_5  and  C3_7 
REMARK    4  A    between atoms: C4_10  and  N4_11 
REMARK    5  A    between atoms: N4_11  and  C5_13 
REMARK    6  A    between atoms: C5_13  and  C6_14 
REMARK    7  A    between atoms: C6_14  and  C7_15 
REMARK    8  A    between atoms: C7_15  and  C8_16 
REMARK    9  A    between atoms: C8_16  and  N5_17 
ROOT
HETATM    1  C3  UNL     1      47.528   8.409  54.621  1.00  0.00     0.136 A 
HETATM    2  N3  UNL     1      48.697   7.815  54.817  1.00  0.00    -0.176 N 
ATOM      3  H3  UNL     1      49.092   7.761  55.756  1.00  0.00     0.186 HD
HETATM    4  C4  UNL     1      49.365   7.280  53.769  1.00  0.00     0.679 A 
HETATM    5  N6  UNL     1      48.852   7.349  52.530  1.00  0.00    -0.201 N 
ATOM      6  H6  UNL     1      49.372   6.940  51.754  1.00  0.00     0.183 HD
HETATM    7  C14 UNL     1      47.664   7.945  52.281  1.00  0.00     0.129 A 
HETATM    8  C15 UNL     1      46.988   8.486  53.347  1.00  0.00     0.071 A 
HETATM    9 BR1  UNL     1      45.313   9.331  53.028  1.00  0.00    -0.046 Br
ENDROOT
BRANCH   4  10
HETATM   10  N4  UNL     1      50.491   6.705  53.938  1.00  0.00    -0.226 N 
ATOM     11  H4  UNL     1      50.877   6.231  53.122  1.00  0.00     0.177 HD
BRANCH  10  12
HETATM   12  C5  UNL     1      51.282   6.641  55.131  1.00  0.00     0.138 C 
BRANCH  12  13
HETATM   13  C6  UNL     1      51.208   5.301  55.810  1.00  0.00     0.022 C 
BRANCH  13  14
HETATM   14  C7  UNL     1      50.086   5.195  56.796  1.00  0.00     0.032 C 
BRANCH  14  15
HETATM   15  C8  UNL     1      50.435   4.334  57.979  1.00  0.00     0.272 C 
BRANCH  15  16
HETATM   16  N5  UNL     1      49.395   3.403  58.272  1.00  0.00     0.088 N 
HETATM   17  C9  UNL     1      49.666   2.821  59.574  1.00  0.00     0.272 C 
HETATM   18  C10 UNL     1      49.014   1.470  59.620  1.00  0.00     0.030 C 
HETATM   19  C11 UNL     1      47.657   1.574  59.003  1.00  0.00     0.003 C 
HETATM   20  C12 UNL     1      47.132   2.985  58.926  1.00  0.00     0.030 C 
HETATM   21  C13 UNL     1      48.072   3.931  58.236  1.00  0.00     0.272 C 
ENDBRANCH  15  16
ENDBRANCH  14  15
ENDBRANCH  13  14
ENDBRANCH  12  13
ENDBRANCH  10  12
ENDBRANCH   4  10
BRANCH   1  22
HETATM   22  N2  UNL     1      46.831   8.942  55.572  1.00  0.00    -0.366 N 
ATOM     23  H2  UNL     1      46.054   9.549  55.310  1.00  0.00     0.161 HD
BRANCH  22  24
HETATM   24  C2  UNL     1      47.080   8.735  56.968  1.00  0.00     0.220 C 
BRANCH  24  25
HETATM   25  C1  UNL     1      48.116   9.699  57.404  1.00  0.00     0.248 C 
HETATM   26  N1  UNL     1      47.745  11.063  57.587  1.00  0.00    -0.061 NA
HETATM   27  O1  UNL     1      49.291   9.323  57.608  1.00  0.00    -0.275 OA
ENDBRANCH  24  25
ENDBRANCH  22  24
ENDBRANCH   1  22
TORSDOF 9
ENDMDL
MODEL 5
REMARK VINA RESULT: -7.056348485      2.144      3.608
REMARK  9 active torsions:
REMARK  status: ('A' for Active; 'I' for Inactive)
REMARK    1  A    between atoms: C1_2  and  C2_4 
REMARK    2  A    between atoms: C2_4  and  N2_5 
REMARK    3  A    between atoms: N2_5  and  C3_7 
REMARK    4  A    between atoms: C4_10  and  N4_11 
REMARK    5  A    between atoms: N4_11  and  C5_13 
REMARK    6  A    between atoms: C5_13  and  C6_14 
REMARK    7  A    between atoms: C6_14  and  C7_15 
REMARK    8  A    between atoms: C7_15  and  C8_16 
REMARK    9  A    between atoms: C8_16  and  N5_17 
ROOT
HETATM    1  C3  UNL     1      47.951   7.887  53.159  1.00  0.00     0.136 A 
HETATM    2  N3  UNL     1      47.994   8.294  54.420  1.00  0.00    -0.176 N 
ATOM      3  H3  UNL     1      48.836   8.146  54.976  1.00  0.00     0.186 HD
HETATM    4  C4  UNL     1      46.920   8.908  54.967  1.00  0.00     0.679 A 
HETATM    5  N6  UNL     1      45.808   9.107  54.240  1.00  0.00    -0.201 N 
ATOM      6  H6  UNL     1      45.010   9.572  54.672  1.00  0.00     0.183 HD
HETATM    7  C14 UNL     1      45.717   8.709  52.951  1.00  0.00     0.129 A 
HETATM    8  C15 UNL     1      46.809   8.087  52.399  1.00  0.00     0.071 A 
HETATM    9 BR1  UNL     1      46.712   7.514  50.586  1.00  0.00    -0.046 Br
ENDROOT
BRANCH   4  10
HETATM   10  N4  UNL     1      46.943   9.307  56.179  1.00  0.00    -0.226 N 
ATOM     11  H4  UNL     1      46.744  10.296  56.326  1.00  0.00     0.177 HD
BRANCH  10  12
HETATM   12  C5  UNL     1      47.214   8.540  57.358  1.00  0.00     0.138 C 
BRANCH  12  13
HETATM   13  C6  UNL     1      48.606   7.971  57.377  1.00  0.00     0.022 C 
BRANCH  13  14
HETATM   14  C7  UNL     1      48.642   6.482  57.217  1.00  0.00     0.032 C 
BRANCH  14  15
HETATM   15  C8  UNL     1      49.380   5.798  58.336  1.00  0.00     0.272 C 
BRANCH  15  16
HETATM   16  N5  UNL     1      49.177   4.387  58.309  1.00  0.00     0.088 N 
HETATM   17  C9  UNL     1      47.748   4.136  58.385  1.00  0.00     0.272 C 
HETATM   18  C10 UNL     1      47.551   2.772  58.979  1.00  0.00     0.030 C 
HETATM   19  C11 UNL     1      48.545   1.838  58.370  1.00  0.00     0.003 C 
HETATM   20  C12 UNL     1      49.133   2.338  57.075  1.00  0.00     0.030 C 
HETATM   21  C13 UNL     1      49.735   3.709  57.187  1.00  0.00     0.272 C 
ENDBRANCH  15  16
ENDBRANCH  14  15
ENDBRANCH  13  14
ENDBRANCH  12  13
ENDBRANCH  10  12
ENDBRANCH   4  10
BRANCH   1  22
HETATM   22  N2  UNL     1      48.937   7.294  52.568  1.00  0.00    -0.366 N 
ATOM     23  H2  UNL     1      48.749   6.405  52.104  1.00  0.00     0.161 HD
BRANCH  22  24
HETATM   24  C2  UNL     1      50.276   7.805  52.521  1.00  0.00     0.220 C 
BRANCH  24  25
HETATM   25  C1  UNL     1      51.050   7.181  53.618  1.00  0.00     0.248 C 
HETATM   26  N1  UNL     1      51.156   7.873  54.859  1.00  0.00    -0.061 NA
HETATM   27  O1  UNL     1      51.598   6.069  53.457  1.00  0.00    -0.275 OA
ENDBRANCH  24  25
ENDBRANCH  22  24
ENDBRANCH   1  22
TORSDOF 9
ENDMDL
