MODEL 1
REMARK VINA RESULT: -6.436775810      0.000      0.000
REMARK  11 active torsions:
REMARK  status: ('A' for Active; 'I' for Inactive)
REMARK    1  A    between atoms: O1_2  and  C2_3 
REMARK    2  A    between atoms: C2_3  and  C3_4 
REMARK    3  A    between atoms: C3_4  and  N1_5 
REMARK    4  A    between atoms: N1_5  and  C4_6 
REMARK    5  A    between atoms: N1_5  and  C6_10 
REMARK    6  A    between atoms: C4_6  and  C5_7 
REMARK    7  A    between atoms: C6_10  and  O3_11 
REMARK    8  A    between atoms: C6_10  and  C7_13 
REMARK    9  A    between atoms: C10_16  and  C11_17 
REMARK   10  A    between atoms: C12_18  and  C13_19 
REMARK   11  A    between atoms: C16_22  and  C17_23 
ROOT
HETATM    1  C7  UNL     1      53.144   8.254  53.416  1.00  0.00     0.018 A 
HETATM    2  C8  UNL     1      51.962   7.712  52.989  1.00  0.00     0.017 A 
HETATM    3  C9  UNL     1      51.203   6.840  53.792  1.00  0.00     0.025 A 
HETATM    4  C10 UNL     1      51.607   6.485  55.050  1.00  0.00     0.056 A 
HETATM    5  C20 UNL     1      52.786   7.017  55.500  1.00  0.00     0.136 A 
HETATM    6  F1  UNL     1      53.208   6.685  56.737  1.00  0.00    -0.205 F 
HETATM    7  C21 UNL     1      53.525   7.866  54.715  1.00  0.00     0.059 A 
ENDROOT
BRANCH   4   8
HETATM    8  C11 UNL     1      50.803   5.593  55.839  1.00  0.00    -0.058 C 
HETATM    9  C12 UNL     1      50.125   4.839  56.478  1.00  0.00    -0.061 C 
BRANCH   9  10
HETATM   10  C13 UNL     1      49.304   3.958  57.249  1.00  0.00     0.018 A 
HETATM   11  C14 UNL     1      49.428   2.601  57.104  1.00  0.00     0.021 A 
HETATM   12  C15 UNL     1      48.647   1.744  57.837  1.00  0.00     0.016 A 
HETATM   13  C16 UNL     1      47.731   2.208  58.725  1.00  0.00     0.005 A 
HETATM   14  C18 UNL     1      47.594   3.583  58.883  1.00  0.00     0.016 A 
HETATM   15  C19 UNL     1      48.374   4.452  58.152  1.00  0.00     0.021 A 
BRANCH  13  16
HETATM   16  C17 UNL     1      46.894   1.336  59.512  1.00  0.00     0.120 C 
HETATM   17  N3  UNL     1      45.665   1.181  59.246  1.00  0.00    -0.387 N 
ATOM     18  H32 UNL     1      45.271   1.691  58.455  1.00  0.00     0.157 HD
ATOM     19  H31 UNL     1      45.073   0.563  59.802  1.00  0.00     0.157 HD
HETATM   20  N4  UNL     1      47.447   0.618  60.625  1.00  0.00    -0.082 NA
ENDBRANCH  13  16
ENDBRANCH   9  10
ENDBRANCH   4   8
BRANCH   1  21
HETATM   21  C6  UNL     1      53.966   9.141  52.633  1.00  0.00     0.149 C 
BRANCH  21  22
HETATM   22  N1  UNL     1      55.326   9.345  52.535  1.00  0.00    -0.351 N 
BRANCH  22  23
HETATM   23  C3  UNL     1      56.162  10.346  53.084  1.00  0.00     0.151 C 
BRANCH  23  24
HETATM   24  C2  UNL     1      55.890  10.675  54.545  1.00  0.00     0.186 C 
BRANCH  24  25
HETATM   25  O1  UNL     1      54.976  11.702  54.678  1.00  0.00    -0.394 OA
HETATM   26  C1  UNL     1      54.017  11.442  55.644  1.00  0.00     0.201 C 
ENDBRANCH  24  25
ENDBRANCH  23  24
ENDBRANCH  22  23
BRANCH  22  27
HETATM   27  C4  UNL     1      56.058   8.333  51.703  1.00  0.00     0.224 C 
BRANCH  27  28
HETATM   28  C5  UNL     1      56.395   7.176  52.561  1.00  0.00     0.248 C 
HETATM   29  N2  UNL     1      55.727   5.928  52.470  1.00  0.00    -0.061 NA
HETATM   30  O2  UNL     1      57.312   7.301  53.406  1.00  0.00    -0.275 OA
ENDBRANCH  27  28
ENDBRANCH  22  27
ENDBRANCH  21  22
BRANCH  21  31
HETATM   31  O3  UNL     1      53.225   9.918  51.845  1.00  0.00    -0.346 OA
ATOM     32  H3  UNL     1      52.287   9.837  51.971  1.00  0.00     0.219 HD
ENDBRANCH  21  31
ENDBRANCH   1  21
TORSDOF 11
ENDMDL
MODEL 2
REMARK VINA RESULT: -6.361636582      0.668      1.217
REMARK  11 active torsions:
REMARK  status: ('A' for Active; 'I' for Inactive)
REMARK    1  A    between atoms: O1_2  and  C2_3 
REMARK    2  A    between atoms: C2_3  and  C3_4 
REMARK    3  A    between atoms: C3_4  and  N1_5 
REMARK    4  A    between atoms: N1_5  and  C4_6 
REMARK    5  A    between atoms: N1_5  and  C6_10 
REMARK    6  A    between atoms: C4_6  and  C5_7 
REMARK    7  A    between atoms: C6_10  and  O3_11 
REMARK    8  A    between atoms: C6_10  and  C7_13 
REMARK    9  A    between atoms: C10_16  and  C11_17 
REMARK   10  A    between atoms: C12_18  and  C13_19 
REMARK   11  A    between atoms: C16_22  and  C17_23 
ROOT
HETATM    1  C7  UNL     1      53.181   8.399  53.394  1.00  0.00     0.018 A 
HETATM    2  C8  UNL     1      52.025   7.826  52.938  1.00  0.00     0.017 A 
HETATM    3  C9  UNL     1      51.254   6.958  53.734  1.00  0.00     0.025 A 
HETATM    4  C10 UNL     1      51.621   6.637  55.013  1.00  0.00     0.056 A 
HETATM    5  C20 UNL     1      52.774   7.200  55.490  1.00  0.00     0.136 A 
HETATM    6  F1  UNL     1      53.159   6.902  56.748  1.00  0.00    -0.205 F 
HETATM    7  C21 UNL     1      53.524   8.046  54.712  1.00  0.00     0.059 A 
ENDROOT
BRANCH   4   8
HETATM    8  C11 UNL     1      50.807   5.747  55.793  1.00  0.00    -0.058 C 
HETATM    9  C12 UNL     1      50.139   5.010  56.462  1.00  0.00    -0.061 C 
BRANCH   9  10
HETATM   10  C13 UNL     1      49.351   4.113  57.248  1.00  0.00     0.018 A 
HETATM   11  C14 UNL     1      48.460   4.605  58.167  1.00  0.00     0.021 A 
HETATM   12  C15 UNL     1      47.697   3.757  58.928  1.00  0.00     0.016 A 
HETATM   13  C16 UNL     1      47.798   2.408  58.797  1.00  0.00     0.005 A 
HETATM   14  C18 UNL     1      48.697   1.895  57.870  1.00  0.00     0.016 A 
HETATM   15  C19 UNL     1      49.468   2.738  57.100  1.00  0.00     0.021 A 
BRANCH  13  16
HETATM   16  C17 UNL     1      47.011   1.488  59.580  1.00  0.00     0.120 C 
HETATM   17  N3  UNL     1      47.070   1.479  60.847  1.00  0.00    -0.387 N 
ATOM     18  H32 UNL     1      47.691   2.143  61.309  1.00  0.00     0.157 HD
ATOM     19  H31 UNL     1      46.513   0.828  61.401  1.00  0.00     0.157 HD
HETATM   20  N4  UNL     1      46.137   0.553  58.931  1.00  0.00    -0.082 NA
ENDBRANCH  13  16
ENDBRANCH   9  10
ENDBRANCH   4   8
BRANCH   1  21
HETATM   21  C6  UNL     1      54.013   9.285  52.619  1.00  0.00     0.149 C 
BRANCH  21  22
HETATM   22  N1  UNL     1      55.375   9.481  52.531  1.00  0.00    -0.351 N 
BRANCH  22  23
HETATM   23  C3  UNL     1      56.212  10.482  53.079  1.00  0.00     0.151 C 
BRANCH  23  24
HETATM   24  C2  UNL     1      55.995  10.754  54.561  1.00  0.00     0.186 C 
BRANCH  24  25
HETATM   25  O1  UNL     1      55.231  11.886  54.768  1.00  0.00    -0.394 OA
HETATM   26  C1  UNL     1      54.138  11.651  55.585  1.00  0.00     0.201 C 
ENDBRANCH  24  25
ENDBRANCH  23  24
ENDBRANCH  22  23
BRANCH  22  27
HETATM   27  C4  UNL     1      56.109   8.459  51.713  1.00  0.00     0.224 C 
BRANCH  27  28
HETATM   28  C5  UNL     1      56.397   7.290  52.572  1.00  0.00     0.248 C 
HETATM   29  N2  UNL     1      57.295   7.341  53.670  1.00  0.00    -0.061 NA
HETATM   30  O2  UNL     1      55.824   6.204  52.320  1.00  0.00    -0.275 OA
ENDBRANCH  27  28
ENDBRANCH  22  27
ENDBRANCH  21  22
BRANCH  21  31
HETATM   31  O3  UNL     1      53.282  10.070  51.830  1.00  0.00    -0.346 OA
ATOM     32  H3  UNL     1      53.513  10.991  51.859  1.00  0.00     0.219 HD
ENDBRANCH  21  31
ENDBRANCH   1  21
TORSDOF 11
ENDMDL
MODEL 3
REMARK VINA RESULT: -6.342239046      5.749      7.472
REMARK  11 active torsions:
REMARK  status: ('A' for Active; 'I' for Inactive)
REMARK    1  A    between atoms: O1_2  and  C2_3 
REMARK    2  A    between atoms: C2_3  and  C3_4 
REMARK    3  A    between atoms: C3_4  and  N1_5 
REMARK    4  A    between atoms: N1_5  and  C4_6 
REMARK    5  A    between atoms: N1_5  and  C6_10 
REMARK    6  A    between atoms: C4_6  and  C5_7 
REMARK    7  A    between atoms: C6_10  and  O3_11 
REMARK    8  A    between atoms: C6_10  and  C7_13 
REMARK    9  A    between atoms: C10_16  and  C11_17 
REMARK   10  A    between atoms: C12_18  and  C13_19 
REMARK   11  A    between atoms: C16_22  and  C17_23 
ROOT
HETATM    1  C7  UNL     1      48.976   6.272  56.900  1.00  0.00     0.018 A 
HETATM    2  C8  UNL     1      50.162   6.298  57.582  1.00  0.00     0.017 A 
HETATM    3  C9  UNL     1      50.431   5.423  58.652  1.00  0.00     0.025 A 
HETATM    4  C10 UNL     1      49.517   4.495  59.070  1.00  0.00     0.056 A 
HETATM    5  C20 UNL     1      48.323   4.450  58.401  1.00  0.00     0.136 A 
HETATM    6  F1  UNL     1      47.404   3.544  58.792  1.00  0.00    -0.205 F 
HETATM    7  C21 UNL     1      48.063   5.304  57.359  1.00  0.00     0.059 A 
ENDROOT
BRANCH   4   8
HETATM    8  C11 UNL     1      49.830   3.620  60.166  1.00  0.00    -0.058 C 
HETATM    9  C12 UNL     1      50.113   2.897  61.079  1.00  0.00    -0.061 C 
BRANCH   9  10
HETATM   10  C13 UNL     1      50.444   2.016  62.156  1.00  0.00     0.018 A 
HETATM   11  C14 UNL     1      50.584   2.507  63.428  1.00  0.00     0.021 A 
HETATM   12  C15 UNL     1      50.901   1.674  64.470  1.00  0.00     0.016 A 
HETATM   13  C16 UNL     1      51.086   0.342  64.278  1.00  0.00     0.005 A 
HETATM   14  C18 UNL     1      50.947  -0.170  62.993  1.00  0.00     0.016 A 
HETATM   15  C19 UNL     1      50.628   0.658  61.939  1.00  0.00     0.021 A 
BRANCH  13  16
HETATM   16  C17 UNL     1      51.420  -0.562  65.350  1.00  0.00     0.120 C 
HETATM   17  N3  UNL     1      50.557  -1.346  65.847  1.00  0.00    -0.387 N 
ATOM     18  H32 UNL     1      49.609  -1.327  65.470  1.00  0.00     0.157 HD
ATOM     19  H31 UNL     1      50.793  -1.986  66.606  1.00  0.00     0.157 HD
HETATM   20  N4  UNL     1      52.753  -0.589  65.882  1.00  0.00    -0.082 NA
ENDBRANCH  13  16
ENDBRANCH   9  10
ENDBRANCH   4   8
BRANCH   1  21
HETATM   21  C6  UNL     1      48.644   7.150  55.807  1.00  0.00     0.149 C 
BRANCH  21  22
HETATM   22  N1  UNL     1      47.830   8.256  55.684  1.00  0.00    -0.351 N 
BRANCH  22  23
HETATM   23  C3  UNL     1      47.499   9.053  54.563  1.00  0.00     0.151 C 
BRANCH  23  24
HETATM   24  C2  UNL     1      46.557   8.393  53.567  1.00  0.00     0.186 C 
BRANCH  24  25
HETATM   25  O1  UNL     1      47.238   7.603  52.662  1.00  0.00    -0.394 OA
HETATM   26  C1  UNL     1      46.832   7.814  51.355  1.00  0.00     0.201 C 
ENDBRANCH  24  25
ENDBRANCH  23  24
ENDBRANCH  22  23
BRANCH  22  27
HETATM   27  C4  UNL     1      47.173   8.700  56.959  1.00  0.00     0.224 C 
BRANCH  27  28
HETATM   28  C5  UNL     1      47.961   9.815  57.528  1.00  0.00     0.248 C 
HETATM   29  N2  UNL     1      49.095   9.613  58.358  1.00  0.00    -0.061 NA
HETATM   30  O2  UNL     1      47.615  10.991  57.269  1.00  0.00    -0.275 OA
ENDBRANCH  27  28
ENDBRANCH  22  27
ENDBRANCH  21  22
BRANCH  21  31
HETATM   31  O3  UNL     1      49.271   6.790  54.688  1.00  0.00    -0.346 OA
ATOM     32  H3  UNL     1      48.813   7.010  53.886  1.00  0.00     0.219 HD
ENDBRANCH  21  31
ENDBRANCH   1  21
TORSDOF 11
ENDMDL
MODEL 4
REMARK VINA RESULT: -6.263579521      1.049      2.642
REMARK  11 active torsions:
REMARK  status: ('A' for Active; 'I' for Inactive)
REMARK    1  A    between atoms: O1_2  and  C2_3 
REMARK    2  A    between atoms: C2_3  and  C3_4 
REMARK    3  A    between atoms: C3_4  and  N1_5 
REMARK    4  A    between atoms: N1_5  and  C4_6 
REMARK    5  A    between atoms: N1_5  and  C6_10 
REMARK    6  A    between atoms: C4_6  and  C5_7 
REMARK    7  A    between atoms: C6_10  and  O3_11 
REMARK    8  A    between atoms: C6_10  and  C7_13 
REMARK    9  A    between atoms: C10_16  and  C11_17 
REMARK   10  A    between atoms: C12_18  and  C13_19 
REMARK   11  A    between atoms: C16_22  and  C17_23 
ROOT
HETATM    1  C7  UNL     1      53.275   8.270  53.540  1.00  0.00     0.018 A 
HETATM    2  C8  UNL     1      52.053   7.813  53.126  1.00  0.00     0.017 A 
HETATM    3  C9  UNL     1      51.274   6.940  53.909  1.00  0.00     0.025 A 
HETATM    4  C10 UNL     1      51.698   6.500  55.134  1.00  0.00     0.056 A 
HETATM    5  C20 UNL     1      52.917   6.946  55.569  1.00  0.00     0.136 A 
HETATM    6  F1  UNL     1      53.359   6.530  56.773  1.00  0.00    -0.205 F 
HETATM    7  C21 UNL     1      53.675   7.797  54.803  1.00  0.00     0.059 A 
ENDROOT
BRANCH   4   8
HETATM    8  C11 UNL     1      50.873   5.611  55.903  1.00  0.00    -0.058 C 
HETATM    9  C12 UNL     1      50.189   4.852  56.531  1.00  0.00    -0.061 C 
BRANCH   9  10
HETATM   10  C13 UNL     1      49.355   3.961  57.275  1.00  0.00     0.018 A 
HETATM   11  C14 UNL     1      48.425   4.459  58.151  1.00  0.00     0.021 A 
HETATM   12  C15 UNL     1      47.619   3.616  58.871  1.00  0.00     0.016 A 
HETATM   13  C16 UNL     1      47.713   2.267  58.743  1.00  0.00     0.005 A 
HETATM   14  C18 UNL     1      48.652   1.748  57.859  1.00  0.00     0.016 A 
HETATM   15  C19 UNL     1      49.467   2.585  57.130  1.00  0.00     0.021 A 
BRANCH  13  16
HETATM   16  C17 UNL     1      46.881   1.353  59.484  1.00  0.00     0.120 C 
HETATM   17  N3  UNL     1      45.647   1.221  59.224  1.00  0.00    -0.387 N 
ATOM     18  H32 UNL     1      45.248   1.781  58.469  1.00  0.00     0.157 HD
ATOM     19  H31 UNL     1      45.058   0.574  59.748  1.00  0.00     0.157 HD
HETATM   20  N4  UNL     1      47.442   0.565  60.545  1.00  0.00    -0.082 NA
ENDBRANCH  13  16
ENDBRANCH   9  10
ENDBRANCH   4   8
BRANCH   1  21
HETATM   21  C6  UNL     1      54.117   9.153  52.774  1.00  0.00     0.149 C 
BRANCH  21  22
HETATM   22  N1  UNL     1      55.432   9.099  52.363  1.00  0.00    -0.351 N 
BRANCH  22  23
HETATM   23  C3  UNL     1      56.153   8.100  51.667  1.00  0.00     0.151 C 
BRANCH  23  24
HETATM   24  C2  UNL     1      56.601   6.924  52.522  1.00  0.00     0.186 C 
BRANCH  24  25
HETATM   25  O1  UNL     1      55.716   5.866  52.443  1.00  0.00    -0.394 OA
HETATM   26  C1  UNL     1      55.809   5.009  53.527  1.00  0.00     0.201 C 
ENDBRANCH  24  25
ENDBRANCH  23  24
ENDBRANCH  22  23
BRANCH  22  27
HETATM   27  C4  UNL     1      56.252  10.308  52.708  1.00  0.00     0.224 C 
BRANCH  27  28
HETATM   28  C5  UNL     1      56.166  10.532  54.168  1.00  0.00     0.248 C 
HETATM   29  N2  UNL     1      55.404  11.582  54.744  1.00  0.00    -0.061 NA
HETATM   30  O2  UNL     1      56.792   9.761  54.933  1.00  0.00    -0.275 OA
ENDBRANCH  27  28
ENDBRANCH  22  27
ENDBRANCH  21  22
BRANCH  21  31
HETATM   31  O3  UNL     1      53.458  10.248  52.399  1.00  0.00    -0.346 OA
ATOM     32  H3  UNL     1      53.691  11.037  52.875  1.00  0.00     0.219 HD
ENDBRANCH  21  31
ENDBRANCH   1  21
TORSDOF 11
ENDMDL
MODEL 5
REMARK VINA RESULT: -6.243520126      4.917      6.115
REMARK  11 active torsions:
REMARK  status: ('A' for Active; 'I' for Inactive)
REMARK    1  A    between atoms: O1_2  and  C2_3 
REMARK    2  A    between atoms: C2_3  and  C3_4 
REMARK    3  A    between atoms: C3_4  and  N1_5 
REMARK    4  A    between atoms: N1_5  and  C4_6 
REMARK    5  A    between atoms: N1_5  and  C6_10 
REMARK    6  A    between atoms: C4_6  and  C5_7 
REMARK    7  A    between atoms: C6_10  and  O3_11 
REMARK    8  A    between atoms: C6_10  and  C7_13 
REMARK    9  A    between atoms: C10_16  and  C11_17 
REMARK   10  A    between atoms: C12_18  and  C13_19 
REMARK   11  A    between atoms: C16_22  and  C17_23 
ROOT
HETATM    1  C7  UNL     1      53.562   8.177  53.947  1.00  0.00     0.018 A 
HETATM    2  C8  UNL     1      53.083   8.828  52.843  1.00  0.00     0.017 A 
HETATM    3  C9  UNL     1      51.738   8.727  52.438  1.00  0.00     0.025 A 
HETATM    4  C10 UNL     1      50.833   7.970  53.129  1.00  0.00     0.056 A 
HETATM    5  C20 UNL     1      51.290   7.311  54.239  1.00  0.00     0.136 A 
HETATM    6  F1  UNL     1      50.419   6.557  54.941  1.00  0.00    -0.205 F 
HETATM    7  C21 UNL     1      52.601   7.410  54.632  1.00  0.00     0.059 A 
ENDROOT
BRANCH   4   8
HETATM    8  C11 UNL     1      49.470   7.894  52.684  1.00  0.00    -0.058 C 
HETATM    9  C12 UNL     1      48.326   7.844  52.328  1.00  0.00    -0.061 C 
BRANCH   9  10
HETATM   10  C13 UNL     1      46.961   7.762  51.909  1.00  0.00     0.018 A 
HETATM   11  C14 UNL     1      45.986   8.428  52.607  1.00  0.00     0.021 A 
HETATM   12  C15 UNL     1      44.674   8.358  52.216  1.00  0.00     0.016 A 
HETATM   13  C16 UNL     1      44.297   7.631  51.132  1.00  0.00     0.005 A 
HETATM   14  C18 UNL     1      45.275   6.951  50.415  1.00  0.00     0.016 A 
HETATM   15  C19 UNL     1      46.596   7.015  50.798  1.00  0.00     0.021 A 
BRANCH  13  16
HETATM   16  C17 UNL     1      42.927   7.537  50.694  1.00  0.00     0.120 C 
HETATM   17  N3  UNL     1      42.632   7.401  49.469  1.00  0.00    -0.387 N 
ATOM     18  H32 UNL     1      43.391   7.358  48.788  1.00  0.00     0.157 HD
ATOM     19  H31 UNL     1      41.662   7.333  49.159  1.00  0.00     0.157 HD
HETATM   20  N4  UNL     1      41.858   7.597  51.650  1.00  0.00    -0.082 NA
ENDBRANCH  13  16
ENDBRANCH   9  10
ENDBRANCH   4   8
BRANCH   1  21
HETATM   21  C6  UNL     1      54.929   8.235  54.400  1.00  0.00     0.149 C 
BRANCH  21  22
HETATM   22  N1  UNL     1      56.125   7.783  53.885  1.00  0.00    -0.351 N 
BRANCH  22  23
HETATM   23  C3  UNL     1      57.151   8.454  53.178  1.00  0.00     0.151 C 
BRANCH  23  24
HETATM   24  C2  UNL     1      56.868   9.918  52.878  1.00  0.00     0.186 C 
BRANCH  24  25
HETATM   25  O1  UNL     1      56.600  10.126  51.540  1.00  0.00    -0.394 OA
HETATM   26  C1  UNL     1      56.677   8.962  50.792  1.00  0.00     0.201 C 
ENDBRANCH  24  25
ENDBRANCH  23  24
ENDBRANCH  22  23
BRANCH  22  27
HETATM   27  C4  UNL     1      56.397   6.324  54.107  1.00  0.00     0.224 C 
BRANCH  27  28
HETATM   28  C5  UNL     1      56.181   5.606  52.832  1.00  0.00     0.248 C 
HETATM   29  N2  UNL     1      57.246   5.103  52.040  1.00  0.00    -0.061 NA
HETATM   30  O2  UNL     1      55.007   5.433  52.430  1.00  0.00    -0.275 OA
ENDBRANCH  27  28
ENDBRANCH  22  27
ENDBRANCH  21  22
BRANCH  21  31
HETATM   31  O3  UNL     1      55.026   8.865  55.570  1.00  0.00    -0.346 OA
ATOM     32  H3  UNL     1      55.835   8.709  56.041  1.00  0.00     0.219 HD
ENDBRANCH  21  31
ENDBRANCH   1  21
TORSDOF 11
ENDMDL
