MODEL 1
REMARK VINA RESULT: -8.886541892      0.000      0.000
REMARK  9 active torsions:
REMARK  status: ('A' for Active; 'I' for Inactive)
REMARK    1  A    between atoms: O1_1  and  C1_3 
REMARK    2  A    between atoms: C1_3  and  C12_17 
REMARK    3  A    between atoms: C2_4  and  C3_5 
REMARK    4  A    between atoms: C3_5  and  C4_6 
REMARK    5  A    between atoms: C4_6  and  C5_7 
REMARK    6  A    between atoms: C5_7  and  C6_8 
REMARK    7  A    between atoms: C9_11  and  N1_12 
REMARK    8  A    between atoms: C13_18  and  C14_19 
REMARK    9  A    between atoms: C15_20  and  C16_21 
ROOT
HETATM    1  C1  UNL     1      24.058  45.924  60.479  1.00  0.00     0.065 C 
HETATM    2  C2  UNL     1      24.468  47.077  59.763  1.00  0.00     0.036 C 
ENDROOT
BRANCH   2   3
HETATM    3  C3  UNL     1      23.824  47.721  58.864  1.00  0.00     0.003 C 
BRANCH   3   4
HETATM    4  C4  UNL     1      22.885  48.786  59.001  1.00  0.00     0.001 C 
BRANCH   4   5
HETATM    5  C5  UNL     1      21.586  48.529  59.318  1.00  0.00     0.011 C 
BRANCH   5   6
HETATM    6  C6  UNL     1      21.151  48.579  60.684  1.00  0.00    -0.036 A 
HETATM    7  C7  UNL     1      19.775  48.419  60.910  1.00  0.00     0.014 A 
HETATM    8  C8  UNL     1      19.224  48.446  62.169  1.00  0.00     0.037 A 
HETATM    9  C9  UNL     1      20.044  48.639  63.275  1.00  0.00     0.102 A 
HETATM   10  C10 UNL     1      21.385  48.797  63.078  1.00  0.00     0.037 A 
HETATM   11  C11 UNL     1      21.924  48.767  61.802  1.00  0.00     0.014 A 
BRANCH   9  12
HETATM   12  N1  UNL     1      19.520  48.675  64.593  1.00  0.00    -0.116 N 
HETATM   13  O2  UNL     1      18.923  47.656  65.014  1.00  0.00    -0.532 OA
HETATM   14  O3  UNL     1      19.676  49.800  65.357  1.00  0.00    -0.532 OA
ENDBRANCH   9  12
ENDBRANCH   5   6
ENDBRANCH   4   5
ENDBRANCH   3   4
ENDBRANCH   2   3
BRANCH   1  15
HETATM   15  O1  UNL     1      22.867  45.458  60.177  1.00  0.00    -0.361 OA
ATOM     16  H1  UNL     1      22.690  44.566  60.454  1.00  0.00     0.217 HD
ENDBRANCH   1  15
BRANCH   1  17
HETATM   17  C12 UNL     1      24.714  45.178  61.468  1.00  0.00     0.036 C 
HETATM   18  C13 UNL     1      25.828  45.206  62.098  1.00  0.00     0.003 C 
BRANCH  18  19
HETATM   19  C14 UNL     1      26.939  46.098  62.021  1.00  0.00     0.003 C 
HETATM   20  C15 UNL     1      27.092  47.276  62.502  1.00  0.00     0.037 C 
BRANCH  20  21
HETATM   21  C16 UNL     1      26.264  48.139  63.274  1.00  0.00     0.074 A 
HETATM   22  C17 UNL     1      24.946  48.431  63.265  1.00  0.00     0.039 A 
HETATM   23  C18 UNL     1      24.699  49.370  64.276  1.00  0.00     0.027 A 
HETATM   24  C19 UNL     1      25.919  49.595  64.851  1.00  0.00     0.142 A 
HETATM   25  O4  UNL     1      26.807  48.883  64.269  1.00  0.00    -0.323 OA
ENDBRANCH  20  21
ENDBRANCH  18  19
ENDBRANCH   1  17
TORSDOF 9
ENDMDL
MODEL 2
REMARK VINA RESULT: -8.721535613      2.308      6.472
REMARK  9 active torsions:
REMARK  status: ('A' for Active; 'I' for Inactive)
REMARK    1  A    between atoms: O1_1  and  C1_3 
REMARK    2  A    between atoms: C1_3  and  C12_17 
REMARK    3  A    between atoms: C2_4  and  C3_5 
REMARK    4  A    between atoms: C3_5  and  C4_6 
REMARK    5  A    between atoms: C4_6  and  C5_7 
REMARK    6  A    between atoms: C5_7  and  C6_8 
REMARK    7  A    between atoms: C9_11  and  N1_12 
REMARK    8  A    between atoms: C13_18  and  C14_19 
REMARK    9  A    between atoms: C15_20  and  C16_21 
ROOT
HETATM    1  C1  UNL     1      25.190  49.006  64.047  1.00  0.00     0.065 C 
HETATM    2  C2  UNL     1      25.822  48.076  63.183  1.00  0.00     0.036 C 
ENDROOT
BRANCH   2   3
HETATM    3  C3  UNL     1      27.049  47.710  63.177  1.00  0.00     0.003 C 
BRANCH   3   4
HETATM    4  C4  UNL     1      27.625  46.460  62.806  1.00  0.00     0.001 C 
BRANCH   4   5
HETATM    5  C5  UNL     1      26.836  45.381  62.550  1.00  0.00     0.011 C 
BRANCH   5   6
HETATM    6  C6  UNL     1      25.821  45.449  61.538  1.00  0.00    -0.036 A 
HETATM    7  C7  UNL     1      26.263  45.627  60.218  1.00  0.00     0.014 A 
HETATM    8  C8  UNL     1      25.398  45.709  59.153  1.00  0.00     0.037 A 
HETATM    9  C9  UNL     1      24.028  45.614  59.371  1.00  0.00     0.102 A 
HETATM   10  C10 UNL     1      23.577  45.440  60.647  1.00  0.00     0.037 A 
HETATM   11  C11 UNL     1      24.462  45.360  61.708  1.00  0.00     0.014 A 
BRANCH   9  12
HETATM   12  N1  UNL     1      23.097  45.693  58.302  1.00  0.00    -0.116 N 
HETATM   13  O2  UNL     1      22.703  44.620  57.788  1.00  0.00    -0.532 OA
HETATM   14  O3  UNL     1      22.663  46.916  57.868  1.00  0.00    -0.532 OA
ENDBRANCH   9  12
ENDBRANCH   5   6
ENDBRANCH   4   5
ENDBRANCH   3   4
ENDBRANCH   2   3
BRANCH   1  15
HETATM   15  O1  UNL     1      25.963  49.561  64.954  1.00  0.00    -0.361 OA
ATOM     16  H1  UNL     1      26.098  49.055  65.746  1.00  0.00     0.217 HD
ENDBRANCH   1  15
BRANCH   1  17
HETATM   17  C12 UNL     1      23.860  49.446  64.104  1.00  0.00     0.036 C 
HETATM   18  C13 UNL     1      22.690  48.966  63.902  1.00  0.00     0.003 C 
BRANCH  18  19
HETATM   19  C14 UNL     1      22.254  47.670  63.499  1.00  0.00     0.003 C 
HETATM   20  C15 UNL     1      21.158  47.296  62.949  1.00  0.00     0.037 C 
BRANCH  20  21
HETATM   21  C16 UNL     1      19.983  47.982  62.532  1.00  0.00     0.074 A 
HETATM   22  C17 UNL     1      19.726  48.921  61.597  1.00  0.00     0.039 A 
HETATM   23  C18 UNL     1      18.358  49.221  61.644  1.00  0.00     0.027 A 
HETATM   24  C19 UNL     1      17.857  48.422  62.633  1.00  0.00     0.142 A 
HETATM   25  O4  UNL     1      18.797  47.716  63.134  1.00  0.00    -0.323 OA
ENDBRANCH  20  21
ENDBRANCH  18  19
ENDBRANCH   1  17
TORSDOF 9
ENDMDL
MODEL 3
REMARK VINA RESULT: -8.526086957      2.619      5.221
REMARK  9 active torsions:
REMARK  status: ('A' for Active; 'I' for Inactive)
REMARK    1  A    between atoms: O1_1  and  C1_3 
REMARK    2  A    between atoms: C1_3  and  C12_17 
REMARK    3  A    between atoms: C2_4  and  C3_5 
REMARK    4  A    between atoms: C3_5  and  C4_6 
REMARK    5  A    between atoms: C4_6  and  C5_7 
REMARK    6  A    between atoms: C5_7  and  C6_8 
REMARK    7  A    between atoms: C9_11  and  N1_12 
REMARK    8  A    between atoms: C13_18  and  C14_19 
REMARK    9  A    between atoms: C15_20  and  C16_21 
ROOT
HETATM    1  C1  UNL     1      24.596  49.269  64.346  1.00  0.00     0.065 C 
HETATM    2  C2  UNL     1      23.350  48.957  63.745  1.00  0.00     0.036 C 
ENDROOT
BRANCH   2   3
HETATM    3  C3  UNL     1      22.178  49.295  64.133  1.00  0.00     0.003 C 
BRANCH   3   4
HETATM    4  C4  UNL     1      20.917  49.112  63.492  1.00  0.00     0.001 C 
BRANCH   4   5
HETATM    5  C5  UNL     1      20.578  47.906  62.960  1.00  0.00     0.011 C 
BRANCH   5   6
HETATM    6  C6  UNL     1      21.335  47.354  61.873  1.00  0.00    -0.036 A 
HETATM    7  C7  UNL     1      21.360  48.098  60.684  1.00  0.00     0.014 A 
HETATM    8  C8  UNL     1      22.046  47.685  59.567  1.00  0.00     0.037 A 
HETATM    9  C9  UNL     1      22.749  46.486  59.596  1.00  0.00     0.102 A 
HETATM   10  C10 UNL     1      22.739  45.747  60.743  1.00  0.00     0.037 A 
HETATM   11  C11 UNL     1      22.042  46.178  61.859  1.00  0.00     0.014 A 
BRANCH   9  12
HETATM   12  N1  UNL     1      23.472  46.020  58.467  1.00  0.00    -0.116 N 
HETATM   13  O2  UNL     1      23.032  45.011  57.866  1.00  0.00    -0.532 OA
HETATM   14  O3  UNL     1      24.609  46.671  58.071  1.00  0.00    -0.532 OA
ENDBRANCH   9  12
ENDBRANCH   5   6
ENDBRANCH   4   5
ENDBRANCH   3   4
ENDBRANCH   2   3
BRANCH   1  15
HETATM   15  O1  UNL     1      24.536  49.995  65.440  1.00  0.00    -0.361 OA
ATOM     16  H1  UNL     1      25.368  50.176  65.862  1.00  0.00     0.217 HD
ENDBRANCH   1  15
BRANCH   1  17
HETATM   17  C12 UNL     1      25.904  48.932  63.972  1.00  0.00     0.036 C 
HETATM   18  C13 UNL     1      26.490  48.046  63.258  1.00  0.00     0.003 C 
BRANCH  18  19
HETATM   19  C14 UNL     1      25.980  46.953  62.495  1.00  0.00     0.003 C 
HETATM   20  C15 UNL     1      26.408  45.751  62.379  1.00  0.00     0.037 C 
BRANCH  20  21
HETATM   21  C16 UNL     1      27.510  45.041  62.933  1.00  0.00     0.074 A 
HETATM   22  C17 UNL     1      28.851  45.159  62.830  1.00  0.00     0.039 A 
HETATM   23  C18 UNL     1      29.440  44.160  63.617  1.00  0.00     0.027 A 
HETATM   24  C19 UNL     1      28.389  43.479  64.163  1.00  0.00     0.142 A 
HETATM   25  O4  UNL     1      27.288  43.993  63.764  1.00  0.00    -0.323 OA
ENDBRANCH  20  21
ENDBRANCH  18  19
ENDBRANCH   1  17
TORSDOF 9
ENDMDL
MODEL 4
REMARK VINA RESULT: -8.509364422      2.783      7.124
REMARK  9 active torsions:
REMARK  status: ('A' for Active; 'I' for Inactive)
REMARK    1  A    between atoms: O1_1  and  C1_3 
REMARK    2  A    between atoms: C1_3  and  C12_17 
REMARK    3  A    between atoms: C2_4  and  C3_5 
REMARK    4  A    between atoms: C3_5  and  C4_6 
REMARK    5  A    between atoms: C4_6  and  C5_7 
REMARK    6  A    between atoms: C5_7  and  C6_8 
REMARK    7  A    between atoms: C9_11  and  N1_12 
REMARK    8  A    between atoms: C13_18  and  C14_19 
REMARK    9  A    between atoms: C15_20  and  C16_21 
ROOT
HETATM    1  C1  UNL     1      20.487  49.033  64.399  1.00  0.00     0.065 C 
HETATM    2  C2  UNL     1      21.801  48.524  64.235  1.00  0.00     0.036 C 
ENDROOT
BRANCH   2   3
HETATM    3  C3  UNL     1      22.908  49.163  64.285  1.00  0.00     0.003 C 
BRANCH   3   4
HETATM    4  C4  UNL     1      23.942  49.276  63.308  1.00  0.00     0.001 C 
BRANCH   4   5
HETATM    5  C5  UNL     1      25.232  48.980  63.626  1.00  0.00     0.011 C 
BRANCH   5   6
HETATM    6  C6  UNL     1      25.866  47.818  63.072  1.00  0.00    -0.036 A 
HETATM    7  C7  UNL     1      25.020  46.849  62.511  1.00  0.00     0.014 A 
HETATM    8  C8  UNL     1      25.496  45.689  61.947  1.00  0.00     0.037 A 
HETATM    9  C9  UNL     1      26.865  45.447  61.922  1.00  0.00     0.102 A 
HETATM   10  C10 UNL     1      27.705  46.377  62.462  1.00  0.00     0.037 A 
HETATM   11  C11 UNL     1      27.209  47.540  63.026  1.00  0.00     0.014 A 
BRANCH   9  12
HETATM   12  N1  UNL     1      27.401  44.264  61.351  1.00  0.00    -0.116 N 
HETATM   13  O2  UNL     1      27.367  44.149  60.103  1.00  0.00    -0.532 OA
HETATM   14  O3  UNL     1      27.931  43.297  62.162  1.00  0.00    -0.532 OA
ENDBRANCH   9  12
ENDBRANCH   5   6
ENDBRANCH   4   5
ENDBRANCH   3   4
ENDBRANCH   2   3
BRANCH   1  15
HETATM   15  O1  UNL     1      20.400  50.324  64.631  1.00  0.00    -0.361 OA
ATOM     16  H1  UNL     1      19.666  50.768  64.222  1.00  0.00     0.217 HD
ENDBRANCH   1  15
BRANCH   1  17
HETATM   17  C12 UNL     1      19.243  48.389  64.356  1.00  0.00     0.036 C 
HETATM   18  C13 UNL     1      18.265  48.264  63.539  1.00  0.00     0.003 C 
BRANCH  18  19
HETATM   19  C14 UNL     1      18.051  48.787  62.230  1.00  0.00     0.003 C 
HETATM   20  C15 UNL     1      18.828  48.818  61.211  1.00  0.00     0.037 C 
BRANCH  20  21
HETATM   21  C16 UNL     1      20.157  48.368  60.973  1.00  0.00     0.074 A 
HETATM   22  C17 UNL     1      21.254  48.930  60.421  1.00  0.00     0.039 A 
HETATM   23  C18 UNL     1      22.293  47.990  60.460  1.00  0.00     0.027 A 
HETATM   24  C19 UNL     1      21.744  46.885  61.050  1.00  0.00     0.142 A 
HETATM   25  O4  UNL     1      20.520  47.115  61.340  1.00  0.00    -0.323 OA
ENDBRANCH  20  21
ENDBRANCH  18  19
ENDBRANCH   1  17
TORSDOF 9
ENDMDL
MODEL 5
REMARK VINA RESULT: -8.484325554      1.991      4.064
REMARK  9 active torsions:
REMARK  status: ('A' for Active; 'I' for Inactive)
REMARK    1  A    between atoms: O1_1  and  C1_3 
REMARK    2  A    between atoms: C1_3  and  C12_17 
REMARK    3  A    between atoms: C2_4  and  C3_5 
REMARK    4  A    between atoms: C3_5  and  C4_6 
REMARK    5  A    between atoms: C4_6  and  C5_7 
REMARK    6  A    between atoms: C5_7  and  C6_8 
REMARK    7  A    between atoms: C9_11  and  N1_12 
REMARK    8  A    between atoms: C13_18  and  C14_19 
REMARK    9  A    between atoms: C15_20  and  C16_21 
ROOT
HETATM    1  C1  UNL     1      26.811  46.744  61.948  1.00  0.00     0.065 C 
HETATM    2  C2  UNL     1      25.864  47.328  62.826  1.00  0.00     0.036 C 
ENDROOT
BRANCH   2   3
HETATM    3  C3  UNL     1      25.967  48.418  63.490  1.00  0.00     0.003 C 
BRANCH   3   4
HETATM    4  C4  UNL     1      24.994  49.429  63.740  1.00  0.00     0.001 C 
BRANCH   4   5
HETATM    5  C5  UNL     1      23.810  49.120  64.336  1.00  0.00     0.011 C 
BRANCH   5   6
HETATM    6  C6  UNL     1      22.604  49.053  63.561  1.00  0.00    -0.036 A 
HETATM    7  C7  UNL     1      21.397  49.071  64.276  1.00  0.00     0.014 A 
HETATM    8  C8  UNL     1      20.170  49.012  63.659  1.00  0.00     0.037 A 
HETATM    9  C9  UNL     1      20.101  48.931  62.273  1.00  0.00     0.102 A 
HETATM   10  C10 UNL     1      21.263  48.911  61.558  1.00  0.00     0.037 A 
HETATM   11  C11 UNL     1      22.490  48.971  62.196  1.00  0.00     0.014 A 
BRANCH   9  12
HETATM   12  N1  UNL     1      18.857  48.868  61.593  1.00  0.00    -0.116 N 
HETATM   13  O2  UNL     1      18.504  47.762  61.119  1.00  0.00    -0.532 OA
HETATM   14  O3  UNL     1      18.089  49.995  61.474  1.00  0.00    -0.532 OA
ENDBRANCH   9  12
ENDBRANCH   5   6
ENDBRANCH   4   5
ENDBRANCH   3   4
ENDBRANCH   2   3
BRANCH   1  15
HETATM   15  O1  UNL     1      27.937  47.406  61.800  1.00  0.00    -0.361 OA
ATOM     16  H1  UNL     1      28.723  46.951  62.077  1.00  0.00     0.217 HD
ENDBRANCH   1  15
BRANCH   1  17
HETATM   17  C12 UNL     1      26.758  45.561  61.197  1.00  0.00     0.036 C 
HETATM   18  C13 UNL     1      26.032  45.054  60.273  1.00  0.00     0.003 C 
BRANCH  18  19
HETATM   19  C14 UNL     1      24.884  45.553  59.587  1.00  0.00     0.003 C 
HETATM   20  C15 UNL     1      23.692  45.764  60.009  1.00  0.00     0.037 C 
BRANCH  20  21
HETATM   21  C16 UNL     1      23.051  45.600  61.268  1.00  0.00     0.074 A 
HETATM   22  C17 UNL     1      23.491  45.507  62.542  1.00  0.00     0.039 A 
HETATM   23  C18 UNL     1      22.378  45.353  63.379  1.00  0.00     0.027 A 
HETATM   24  C19 UNL     1      21.301  45.362  62.537  1.00  0.00     0.142 A 
HETATM   25  O4  UNL     1      21.700  45.505  61.330  1.00  0.00    -0.323 OA
ENDBRANCH  20  21
ENDBRANCH  18  19
ENDBRANCH   1  17
TORSDOF 9
ENDMDL
