MODEL 1
REMARK VINA RESULT: -8.526533256      0.000      0.000
REMARK  7 active torsions:
REMARK  status: ('A' for Active; 'I' for Inactive)
REMARK    1  A    between atoms: C2_2  and  S1_3 
REMARK    2  A    between atoms: C2_2  and  C9_10 
REMARK    3  A    between atoms: S1_3  and  C3_4 
REMARK    4  A    between atoms: C9_10  and  C10_11 
REMARK    5  A    between atoms: C9_10  and  N1_20 
REMARK    6  A    between atoms: C10_11  and  C11_12 
REMARK    7  A    between atoms: C13_14  and  C14_15 
ROOT
HETATM    1  C9  UNL     1      23.946  46.674  59.855  1.00  0.00     0.100 C 
ENDROOT
BRANCH   1   2
HETATM    2  C2  UNL     1      23.093  47.717  60.417  1.00  0.00     0.025 C 
HETATM    3  C1  UNL     1      22.552  48.743  59.822  1.00  0.00     0.034 C 
BRANCH   2   4
HETATM    4  S1  UNL     1      22.732  47.531  62.194  1.00  0.00    -0.089 SA
BRANCH   4   5
HETATM    5  C3  UNL     1      24.002  48.302  63.172  1.00  0.00     0.005 A 
HETATM    6  C4  UNL     1      25.350  48.019  63.032  1.00  0.00     0.019 A 
HETATM    7  C5  UNL     1      26.289  48.665  63.838  1.00  0.00     0.001 A 
HETATM    8  C6  UNL     1      25.891  49.591  64.780  1.00  0.00     0.000 A 
HETATM    9  C7  UNL     1      24.546  49.867  64.911  1.00  0.00     0.001 A 
HETATM   10  C8  UNL     1      23.634  49.227  64.115  1.00  0.00     0.019 A 
ENDBRANCH   4   5
ENDBRANCH   2   4
ENDBRANCH   1   2
BRANCH   1  11
HETATM   11  C10 UNL     1      24.217  45.467  60.652  1.00  0.00     0.099 C 
BRANCH  11  12
HETATM   12  C11 UNL     1      25.582  45.067  60.966  1.00  0.00    -0.075 C 
HETATM   13  C12 UNL     1      26.603  44.647  59.977  1.00  0.00     0.044 C 
HETATM   14  C13 UNL     1      25.944  45.034  62.252  1.00  0.00     0.040 C 
BRANCH  14  15
HETATM   15  C14 UNL     1      27.234  44.675  62.780  1.00  0.00     0.075 A 
HETATM   16  C15 UNL     1      28.428  45.341  62.648  1.00  0.00     0.039 A 
HETATM   17  C16 UNL     1      29.407  44.640  63.313  1.00  0.00     0.027 A 
HETATM   18  C17 UNL     1      28.746  43.530  63.845  1.00  0.00     0.142 A 
HETATM   19  O1  UNL     1      27.493  43.602  63.506  1.00  0.00    -0.323 OA
ENDBRANCH  14  15
ENDBRANCH  11  12
ENDBRANCH   1  11
BRANCH   1  20
HETATM   20  N1  UNL     1      23.812  46.475  58.428  1.00  0.00    -0.118 N 
HETATM   21  O2  UNL     1      22.878  45.893  57.868  1.00  0.00    -0.532 OA
HETATM   22  O3  UNL     1      24.818  46.934  57.611  1.00  0.00    -0.532 OA
ENDBRANCH   1  20
TORSDOF 7
ENDMDL
MODEL 2
REMARK VINA RESULT: -8.473529308      2.581      5.478
REMARK  7 active torsions:
REMARK  status: ('A' for Active; 'I' for Inactive)
REMARK    1  A    between atoms: C2_2  and  S1_3 
REMARK    2  A    between atoms: C2_2  and  C9_10 
REMARK    3  A    between atoms: S1_3  and  C3_4 
REMARK    4  A    between atoms: C9_10  and  C10_11 
REMARK    5  A    between atoms: C9_10  and  N1_20 
REMARK    6  A    between atoms: C10_11  and  C11_12 
REMARK    7  A    between atoms: C13_14  and  C14_15 
ROOT
HETATM    1  C9  UNL     1      24.349  46.851  59.448  1.00  0.00     0.100 C 
ENDROOT
BRANCH   1   2
HETATM    2  C2  UNL     1      25.710  46.905  59.974  1.00  0.00     0.025 C 
HETATM    3  C1  UNL     1      26.798  47.323  59.391  1.00  0.00     0.034 C 
BRANCH   2   4
HETATM    4  S1  UNL     1      25.887  46.318  61.691  1.00  0.00    -0.089 SA
BRANCH   4   5
HETATM    5  C3  UNL     1      25.542  47.634  62.837  1.00  0.00     0.005 A 
HETATM    6  C4  UNL     1      26.511  48.236  63.623  1.00  0.00     0.019 A 
HETATM    7  C5  UNL     1      26.162  49.263  64.500  1.00  0.00     0.001 A 
HETATM    8  C6  UNL     1      24.856  49.694  64.598  1.00  0.00     0.000 A 
HETATM    9  C7  UNL     1      23.897  49.089  63.811  1.00  0.00     0.001 A 
HETATM   10  C8  UNL     1      24.252  48.082  62.953  1.00  0.00     0.019 A 
ENDBRANCH   4   5
ENDBRANCH   2   4
ENDBRANCH   1   2
BRANCH   1  11
HETATM   11  C10 UNL     1      23.739  48.080  58.918  1.00  0.00     0.099 C 
BRANCH  11  12
HETATM   12  C11 UNL     1      22.574  48.676  59.557  1.00  0.00    -0.075 C 
HETATM   13  C12 UNL     1      22.135  50.083  59.404  1.00  0.00     0.044 C 
HETATM   14  C13 UNL     1      21.856  47.911  60.386  1.00  0.00     0.040 C 
BRANCH  14  15
HETATM   15  C14 UNL     1      20.674  48.293  61.112  1.00  0.00     0.075 A 
HETATM   16  C15 UNL     1      20.584  48.880  62.351  1.00  0.00     0.039 A 
HETATM   17  C16 UNL     1      19.257  49.070  62.660  1.00  0.00     0.027 A 
HETATM   18  C17 UNL     1      18.563  48.571  61.555  1.00  0.00     0.142 A 
HETATM   19  O1  UNL     1      19.432  48.135  60.692  1.00  0.00    -0.323 OA
ENDBRANCH  14  15
ENDBRANCH  11  12
ENDBRANCH   1  11
BRANCH   1  20
HETATM   20  N1  UNL     1      24.005  45.625  58.761  1.00  0.00    -0.118 N 
HETATM   21  O2  UNL     1      24.634  44.565  58.824  1.00  0.00    -0.532 OA
HETATM   22  O3  UNL     1      22.907  45.630  57.933  1.00  0.00    -0.532 OA
ENDBRANCH   1  20
TORSDOF 7
ENDMDL
MODEL 3
REMARK VINA RESULT: -8.449168950      2.586      3.541
REMARK  7 active torsions:
REMARK  status: ('A' for Active; 'I' for Inactive)
REMARK    1  A    between atoms: C2_2  and  S1_3 
REMARK    2  A    between atoms: C2_2  and  C9_10 
REMARK    3  A    between atoms: S1_3  and  C3_4 
REMARK    4  A    between atoms: C9_10  and  C10_11 
REMARK    5  A    between atoms: C9_10  and  N1_20 
REMARK    6  A    between atoms: C10_11  and  C11_12 
REMARK    7  A    between atoms: C13_14  and  C14_15 
ROOT
HETATM    1  C9  UNL     1      21.753  46.515  61.609  1.00  0.00     0.100 C 
ENDROOT
BRANCH   1   2
HETATM    2  C2  UNL     1      22.016  47.947  61.492  1.00  0.00     0.025 C 
HETATM    3  C1  UNL     1      22.135  48.673  60.416  1.00  0.00     0.034 C 
BRANCH   2   4
HETATM    4  S1  UNL     1      22.178  48.823  63.081  1.00  0.00    -0.089 SA
BRANCH   4   5
HETATM    5  C3  UNL     1      23.883  48.890  63.585  1.00  0.00     0.005 A 
HETATM    6  C4  UNL     1      24.348  49.709  64.600  1.00  0.00     0.019 A 
HETATM    7  C5  UNL     1      25.702  49.706  64.938  1.00  0.00     0.001 A 
HETATM    8  C6  UNL     1      26.593  48.892  64.270  1.00  0.00     0.000 A 
HETATM    9  C7  UNL     1      26.121  48.080  63.260  1.00  0.00     0.001 A 
HETATM   10  C8  UNL     1      24.790  48.091  62.938  1.00  0.00     0.019 A 
ENDBRANCH   4   5
ENDBRANCH   2   4
ENDBRANCH   1   2
BRANCH   1  11
HETATM   11  C10 UNL     1      22.888  45.581  61.652  1.00  0.00     0.099 C 
BRANCH  11  12
HETATM   12  C11 UNL     1      23.844  45.512  60.555  1.00  0.00    -0.075 C 
HETATM   13  C12 UNL     1      23.498  45.475  59.115  1.00  0.00     0.044 C 
HETATM   14  C13 UNL     1      25.143  45.436  60.862  1.00  0.00     0.040 C 
BRANCH  14  15
HETATM   15  C14 UNL     1      26.248  45.365  59.942  1.00  0.00     0.075 A 
HETATM   16  C15 UNL     1      27.100  44.313  59.707  1.00  0.00     0.039 A 
HETATM   17  C16 UNL     1      28.011  44.683  58.745  1.00  0.00     0.027 A 
HETATM   18  C17 UNL     1      27.667  45.997  58.419  1.00  0.00     0.142 A 
HETATM   19  O1  UNL     1      26.641  46.339  59.141  1.00  0.00    -0.323 OA
ENDBRANCH  14  15
ENDBRANCH  11  12
ENDBRANCH   1  11
BRANCH   1  20
HETATM   20  N1  UNL     1      20.613  46.166  62.430  1.00  0.00    -0.118 N 
HETATM   21  O2  UNL     1      20.546  45.199  63.193  1.00  0.00    -0.532 OA
HETATM   22  O3  UNL     1      19.484  46.946  62.337  1.00  0.00    -0.532 OA
ENDBRANCH   1  20
TORSDOF 7
ENDMDL
MODEL 4
REMARK VINA RESULT: -8.448172345      2.724      5.426
REMARK  7 active torsions:
REMARK  status: ('A' for Active; 'I' for Inactive)
REMARK    1  A    between atoms: C2_2  and  S1_3 
REMARK    2  A    between atoms: C2_2  and  C9_10 
REMARK    3  A    between atoms: S1_3  and  C3_4 
REMARK    4  A    between atoms: C9_10  and  C10_11 
REMARK    5  A    between atoms: C9_10  and  N1_20 
REMARK    6  A    between atoms: C10_11  and  C11_12 
REMARK    7  A    between atoms: C13_14  and  C14_15 
ROOT
HETATM    1  C9  UNL     1      23.061  46.862  59.596  1.00  0.00     0.100 C 
ENDROOT
BRANCH   1   2
HETATM    2  C2  UNL     1      24.482  47.037  59.888  1.00  0.00     0.025 C 
HETATM    3  C1  UNL     1      25.391  47.659  59.190  1.00  0.00     0.034 C 
BRANCH   2   4
HETATM    4  S1  UNL     1      25.035  46.293  61.456  1.00  0.00    -0.089 SA
BRANCH   4   5
HETATM    5  C3  UNL     1      25.277  47.550  62.691  1.00  0.00     0.005 A 
HETATM    6  C4  UNL     1      26.511  47.846  63.247  1.00  0.00     0.019 A 
HETATM    7  C5  UNL     1      26.621  48.848  64.213  1.00  0.00     0.001 A 
HETATM    8  C6  UNL     1      25.511  49.554  64.626  1.00  0.00     0.000 A 
HETATM    9  C7  UNL     1      24.287  49.252  64.067  1.00  0.00     0.001 A 
HETATM   10  C8  UNL     1      24.191  48.268  63.119  1.00  0.00     0.019 A 
ENDBRANCH   4   5
ENDBRANCH   2   4
ENDBRANCH   1   2
BRANCH   1  11
HETATM   11  C10 UNL     1      22.102  47.861  60.090  1.00  0.00     0.099 C 
BRANCH  11  12
HETATM   12  C11 UNL     1      21.428  47.686  61.370  1.00  0.00    -0.075 C 
HETATM   13  C12 UNL     1      21.350  46.417  62.132  1.00  0.00     0.044 C 
HETATM   14  C13 UNL     1      20.790  48.738  61.890  1.00  0.00     0.040 C 
BRANCH  14  15
HETATM   15  C14 UNL     1      20.070  48.786  63.135  1.00  0.00     0.075 A 
HETATM   16  C15 UNL     1      20.360  49.512  64.265  1.00  0.00     0.039 A 
HETATM   17  C16 UNL     1      19.404  49.254  65.220  1.00  0.00     0.027 A 
HETATM   18  C17 UNL     1      18.535  48.344  64.612  1.00  0.00     0.142 A 
HETATM   19  O1  UNL     1      18.968  48.110  63.409  1.00  0.00    -0.323 OA
ENDBRANCH  14  15
ENDBRANCH  11  12
ENDBRANCH   1  11
BRANCH   1  20
HETATM   20  N1  UNL     1      22.768  46.287  58.301  1.00  0.00    -0.118 N 
HETATM   21  O2  UNL     1      23.127  45.172  57.912  1.00  0.00    -0.532 OA
HETATM   22  O3  UNL     1      22.061  47.046  57.398  1.00  0.00    -0.532 OA
ENDBRANCH   1  20
TORSDOF 7
ENDMDL
MODEL 5
REMARK VINA RESULT: -8.243758381      3.809      7.404
REMARK  7 active torsions:
REMARK  status: ('A' for Active; 'I' for Inactive)
REMARK    1  A    between atoms: C2_2  and  S1_3 
REMARK    2  A    between atoms: C2_2  and  C9_10 
REMARK    3  A    between atoms: S1_3  and  C3_4 
REMARK    4  A    between atoms: C9_10  and  C10_11 
REMARK    5  A    between atoms: C9_10  and  N1_20 
REMARK    6  A    between atoms: C10_11  and  C11_12 
REMARK    7  A    between atoms: C13_14  and  C14_15 
ROOT
HETATM    1  C9  UNL     1      23.394  48.826  63.395  1.00  0.00     0.100 C 
ENDROOT
BRANCH   1   2
HETATM    2  C2  UNL     1      23.483  48.026  62.177  1.00  0.00     0.025 C 
HETATM    3  C1  UNL     1      23.517  48.423  60.936  1.00  0.00     0.034 C 
BRANCH   2   4
HETATM    4  S1  UNL     1      23.575  46.227  62.452  1.00  0.00    -0.089 SA
BRANCH   4   5
HETATM    5  C3  UNL     1      24.993  45.542  61.625  1.00  0.00     0.005 A 
HETATM    6  C4  UNL     1      25.034  45.287  60.264  1.00  0.00     0.019 A 
HETATM    7  C5  UNL     1      26.184  44.748  59.687  1.00  0.00     0.001 A 
HETATM    8  C6  UNL     1      27.292  44.461  60.457  1.00  0.00     0.000 A 
HETATM    9  C7  UNL     1      27.242  44.718  61.811  1.00  0.00     0.001 A 
HETATM   10  C8  UNL     1      26.108  45.248  62.367  1.00  0.00     0.019 A 
ENDBRANCH   4   5
ENDBRANCH   2   4
ENDBRANCH   1   2
BRANCH   1  11
HETATM   11  C10 UNL     1      22.265  48.609  64.312  1.00  0.00     0.099 C 
BRANCH  11  12
HETATM   12  C11 UNL     1      20.907  48.968  63.927  1.00  0.00    -0.075 C 
HETATM   13  C12 UNL     1      20.069  49.993  64.593  1.00  0.00     0.044 C 
HETATM   14  C13 UNL     1      20.345  48.297  62.917  1.00  0.00     0.040 C 
BRANCH  14  15
HETATM   15  C14 UNL     1      19.026  48.492  62.376  1.00  0.00     0.075 A 
HETATM   16  C15 UNL     1      18.547  49.556  61.649  1.00  0.00     0.039 A 
HETATM   17  C16 UNL     1      17.228  49.326  61.337  1.00  0.00     0.027 A 
HETATM   18  C17 UNL     1      16.941  48.084  61.908  1.00  0.00     0.142 A 
HETATM   19  O1  UNL     1      18.016  47.649  62.496  1.00  0.00    -0.323 OA
ENDBRANCH  14  15
ENDBRANCH  11  12
ENDBRANCH   1  11
BRANCH   1  20
HETATM   20  N1  UNL     1      24.664  49.141  64.015  1.00  0.00    -0.118 N 
HETATM   21  O2  UNL     1      25.774  48.816  63.585  1.00  0.00    -0.532 OA
HETATM   22  O3  UNL     1      24.652  49.829  65.206  1.00  0.00    -0.532 OA
ENDBRANCH   1  20
TORSDOF 7
ENDMDL
