MODEL 1
REMARK VINA RESULT: -8.337377797      0.000      0.000
REMARK  7 active torsions:
REMARK  status: ('A' for Active; 'I' for Inactive)
REMARK    1  A    between atoms: C1_2  and  C2_3 
REMARK    2  A    between atoms: C1_2  and  C10_11 
REMARK    3  A    between atoms: C2_3  and  C3_4 
REMARK    4  A    between atoms: C3_4  and  C4_5 
REMARK    5  A    between atoms: C10_11  and  C11_12 
REMARK    6  A    between atoms: C11_12  and  C12_13 
REMARK    7  A    between atoms: C16_17  and  C17_18 
ROOT
HETATM    1  C12 UNL     1      24.618  45.450  61.764  1.00  0.00     0.145 C 
HETATM    2  C13 UNL     1      25.972  44.891  62.008  1.00  0.00     0.001 C 
HETATM    3  C14 UNL     1      26.965  45.757  62.159  1.00  0.00    -0.025 C 
HETATM    4  C15 UNL     1      26.701  47.200  62.082  1.00  0.00     0.065 C 
HETATM    5  C16 UNL     1      25.288  47.587  62.336  1.00  0.00     0.177 C 
HETATM    6  O3  UNL     1      24.427  46.546  62.558  1.00  0.00    -0.370 OA
ENDROOT
BRANCH   1   7
HETATM    7  C11 UNL     1      24.457  45.729  60.285  1.00  0.00     0.043 C 
BRANCH   7   8
HETATM    8  C10 UNL     1      22.980  45.781  59.986  1.00  0.00     0.081 C 
BRANCH   8   9
HETATM    9  C1  UNL     1      22.644  47.095  59.399  1.00  0.00     0.127 C 
HETATM   10  O1  UNL     1      22.403  47.164  58.213  1.00  0.00    -0.298 OA
BRANCH   9  11
HETATM   11  C2  UNL     1      22.603  48.286  60.240  1.00  0.00     0.078 C 
BRANCH  11  12
HETATM   12  C3  UNL     1      21.239  48.755  60.593  1.00  0.00     0.012 C 
BRANCH  12  13
HETATM   13  C4  UNL     1      20.372  47.822  61.313  1.00  0.00    -0.014 C 
HETATM   14  C5  UNL     1      20.643  47.277  62.634  1.00  0.00     0.004 C 
HETATM   15  C6  UNL     1      20.324  48.213  63.752  1.00  0.00     0.000 C 
HETATM   16  C7  UNL     1      19.693  49.505  63.387  1.00  0.00     0.000 C 
HETATM   17  C8  UNL     1      18.690  49.435  62.289  1.00  0.00     0.000 C 
HETATM   18  C9  UNL     1      18.937  48.360  61.294  1.00  0.00     0.004 C 
ENDBRANCH  12  13
ENDBRANCH  11  12
ENDBRANCH   9  11
ENDBRANCH   8   9
ENDBRANCH   7   8
ENDBRANCH   1   7
BRANCH   5  19
HETATM   19  C17 UNL     1      25.151  48.544  63.469  1.00  0.00     0.062 A 
HETATM   20  C18 UNL     1      23.928  49.030  63.892  1.00  0.00     0.170 A 
HETATM   21  O2  UNL     1      24.147  49.846  64.902  1.00  0.00    -0.316 OA
HETATM   22  C19 UNL     1      25.446  49.900  65.140  1.00  0.00     0.233 A 
HETATM   23  N1  UNL     1      26.066  49.097  64.256  1.00  0.00    -0.347 N 
ATOM     24  H1  UNL     1      27.073  48.939  64.201  1.00  0.00     0.167 HD
ENDBRANCH   5  19
TORSDOF 7
ENDMDL
MODEL 2
REMARK VINA RESULT: -8.214073091      2.762      5.012
REMARK  7 active torsions:
REMARK  status: ('A' for Active; 'I' for Inactive)
REMARK    1  A    between atoms: C1_2  and  C2_3 
REMARK    2  A    between atoms: C1_2  and  C10_11 
REMARK    3  A    between atoms: C2_3  and  C3_4 
REMARK    4  A    between atoms: C3_4  and  C4_5 
REMARK    5  A    between atoms: C10_11  and  C11_12 
REMARK    6  A    between atoms: C11_12  and  C12_13 
REMARK    7  A    between atoms: C16_17  and  C17_18 
ROOT
HETATM    1  C12 UNL     1      26.426  46.364  62.379  1.00  0.00     0.145 C 
HETATM    2  C13 UNL     1      25.246  45.463  62.337  1.00  0.00     0.001 C 
HETATM    3  C14 UNL     1      24.731  45.197  61.145  1.00  0.00    -0.025 C 
HETATM    4  C15 UNL     1      25.328  45.785  59.938  1.00  0.00     0.065 C 
HETATM    5  C16 UNL     1      26.740  46.222  60.093  1.00  0.00     0.177 C 
HETATM    6  O3  UNL     1      27.268  46.060  61.345  1.00  0.00    -0.370 OA
ENDROOT
BRANCH   1   7
HETATM    7  C11 UNL     1      25.953  47.801  62.381  1.00  0.00     0.043 C 
BRANCH   7   8
HETATM    8  C10 UNL     1      26.182  48.358  63.763  1.00  0.00     0.081 C 
BRANCH   8   9
HETATM    9  C1  UNL     1      25.056  49.243  64.129  1.00  0.00     0.127 C 
HETATM   10  O1  UNL     1      25.089  49.826  65.192  1.00  0.00    -0.298 OA
BRANCH   9  11
HETATM   11  C2  UNL     1      23.926  49.408  63.222  1.00  0.00     0.078 C 
BRANCH  11  12
HETATM   12  C3  UNL     1      22.704  48.657  63.605  1.00  0.00     0.012 C 
BRANCH  12  13
HETATM   13  C4  UNL     1      22.295  47.549  62.741  1.00  0.00    -0.014 C 
HETATM   14  C5  UNL     1      21.093  46.751  62.917  1.00  0.00     0.004 C 
HETATM   15  C6  UNL     1      19.850  47.410  62.417  1.00  0.00     0.000 C 
HETATM   16  C7  UNL     1      20.012  48.716  61.732  1.00  0.00     0.000 C 
HETATM   17  C8  UNL     1      21.208  48.830  60.854  1.00  0.00     0.000 C 
HETATM   18  C9  UNL     1      22.368  48.004  61.280  1.00  0.00     0.004 C 
ENDBRANCH  12  13
ENDBRANCH  11  12
ENDBRANCH   9  11
ENDBRANCH   8   9
ENDBRANCH   7   8
ENDBRANCH   1   7
BRANCH   5  19
HETATM   19  C17 UNL     1      27.655  45.561  59.122  1.00  0.00     0.062 A 
HETATM   20  C18 UNL     1      28.061  44.247  59.255  1.00  0.00     0.170 A 
HETATM   21  O2  UNL     1      28.859  43.968  58.244  1.00  0.00    -0.316 OA
HETATM   22  C19 UNL     1      28.976  45.039  57.479  1.00  0.00     0.233 A 
HETATM   23  N1  UNL     1      28.233  46.023  58.020  1.00  0.00    -0.347 N 
ATOM     24  H1  UNL     1      28.132  46.966  57.645  1.00  0.00     0.167 HD
ENDBRANCH   5  19
TORSDOF 7
ENDMDL
MODEL 3
REMARK VINA RESULT: -8.146413894      1.479      4.918
REMARK  7 active torsions:
REMARK  status: ('A' for Active; 'I' for Inactive)
REMARK    1  A    between atoms: C1_2  and  C2_3 
REMARK    2  A    between atoms: C1_2  and  C10_11 
REMARK    3  A    between atoms: C2_3  and  C3_4 
REMARK    4  A    between atoms: C3_4  and  C4_5 
REMARK    5  A    between atoms: C10_11  and  C11_12 
REMARK    6  A    between atoms: C11_12  and  C12_13 
REMARK    7  A    between atoms: C16_17  and  C17_18 
ROOT
HETATM    1  C12 UNL     1      21.782  48.842  60.846  1.00  0.00     0.145 C 
HETATM    2  C13 UNL     1      20.590  48.542  61.679  1.00  0.00     0.001 C 
HETATM    3  C14 UNL     1      20.788  47.840  62.787  1.00  0.00    -0.025 C 
HETATM    4  C15 UNL     1      22.142  47.395  63.144  1.00  0.00     0.065 C 
HETATM    5  C16 UNL     1      23.238  48.175  62.513  1.00  0.00     0.177 C 
HETATM    6  O3  UNL     1      22.835  49.164  61.656  1.00  0.00    -0.370 OA
ENDROOT
BRANCH   1   7
HETATM    7  C11 UNL     1      22.051  47.670  59.927  1.00  0.00     0.043 C 
BRANCH   7   8
HETATM    8  C10 UNL     1      22.834  48.183  58.746  1.00  0.00     0.081 C 
BRANCH   8   9
HETATM    9  C1  UNL     1      23.669  47.093  58.199  1.00  0.00     0.127 C 
HETATM   10  O1  UNL     1      23.126  46.102  57.759  1.00  0.00    -0.298 OA
BRANCH   9  11
HETATM   11  C2  UNL     1      25.123  47.213  58.193  1.00  0.00     0.078 C 
BRANCH  11  12
HETATM   12  C3  UNL     1      25.794  46.734  59.427  1.00  0.00     0.012 C 
BRANCH  12  13
HETATM   13  C4  UNL     1      25.702  45.306  59.733  1.00  0.00    -0.014 C 
HETATM   14  C5  UNL     1      26.827  44.386  59.778  1.00  0.00     0.004 C 
HETATM   15  C6  UNL     1      27.619  44.459  61.041  1.00  0.00     0.000 C 
HETATM   16  C7  UNL     1      27.110  45.364  62.101  1.00  0.00     0.000 C 
HETATM   17  C8  UNL     1      25.630  45.391  62.257  1.00  0.00     0.000 C 
HETATM   18  C9  UNL     1      24.872  45.122  61.008  1.00  0.00     0.004 C 
ENDBRANCH  12  13
ENDBRANCH  11  12
ENDBRANCH   9  11
ENDBRANCH   8   9
ENDBRANCH   7   8
ENDBRANCH   1   7
BRANCH   5  19
HETATM   19  C17 UNL     1      24.157  48.784  63.514  1.00  0.00     0.062 A 
HETATM   20  C18 UNL     1      23.706  49.545  64.576  1.00  0.00     0.170 A 
HETATM   21  O2  UNL     1      24.757  49.933  65.269  1.00  0.00    -0.316 OA
HETATM   22  C19 UNL     1      25.849  49.454  64.699  1.00  0.00     0.233 A 
HETATM   23  N1  UNL     1      25.480  48.745  63.616  1.00  0.00    -0.347 N 
ATOM     24  H1  UNL     1      26.112  48.259  62.980  1.00  0.00     0.167 HD
ENDBRANCH   5  19
TORSDOF 7
ENDMDL
MODEL 4
REMARK VINA RESULT: -8.049686743      2.525      4.746
REMARK  7 active torsions:
REMARK  status: ('A' for Active; 'I' for Inactive)
REMARK    1  A    between atoms: C1_2  and  C2_3 
REMARK    2  A    between atoms: C1_2  and  C10_11 
REMARK    3  A    between atoms: C2_3  and  C3_4 
REMARK    4  A    between atoms: C3_4  and  C4_5 
REMARK    5  A    between atoms: C10_11  and  C11_12 
REMARK    6  A    between atoms: C11_12  and  C12_13 
REMARK    7  A    between atoms: C16_17  and  C17_18 
ROOT
HETATM    1  C12 UNL     1      25.379  46.475  62.209  1.00  0.00     0.145 C 
HETATM    2  C13 UNL     1      24.183  45.653  61.896  1.00  0.00     0.001 C 
HETATM    3  C14 UNL     1      23.912  45.444  60.614  1.00  0.00    -0.025 C 
HETATM    4  C15 UNL     1      24.781  46.017  59.576  1.00  0.00     0.065 C 
HETATM    5  C16 UNL     1      26.152  46.360  60.034  1.00  0.00     0.177 C 
HETATM    6  O3  UNL     1      26.398  46.139  61.362  1.00  0.00    -0.370 OA
ENDROOT
BRANCH   1   7
HETATM    7  C11 UNL     1      25.000  47.939  62.161  1.00  0.00     0.043 C 
BRANCH   7   8
HETATM    8  C10 UNL     1      25.153  48.500  63.553  1.00  0.00     0.081 C 
BRANCH   8   9
HETATM    9  C1  UNL     1      23.887  49.137  63.968  1.00  0.00     0.127 C 
HETATM   10  O1  UNL     1      23.835  49.693  65.045  1.00  0.00    -0.298 OA
BRANCH   9  11
HETATM   11  C2  UNL     1      22.721  49.094  63.093  1.00  0.00     0.078 C 
BRANCH  11  12
HETATM   12  C3  UNL     1      21.413  49.191  63.790  1.00  0.00     0.012 C 
BRANCH  12  13
HETATM   13  C4  UNL     1      20.465  48.093  63.599  1.00  0.00    -0.014 C 
HETATM   14  C5  UNL     1      19.037  48.166  63.862  1.00  0.00     0.004 C 
HETATM   15  C6  UNL     1      18.256  48.838  62.781  1.00  0.00     0.000 C 
HETATM   16  C7  UNL     1      19.004  49.243  61.566  1.00  0.00     0.000 C 
HETATM   17  C8  UNL     1      20.051  48.286  61.114  1.00  0.00     0.000 C 
HETATM   18  C9  UNL     1      20.674  47.492  62.205  1.00  0.00     0.004 C 
ENDBRANCH  12  13
ENDBRANCH  11  12
ENDBRANCH   9  11
ENDBRANCH   8   9
ENDBRANCH   7   8
ENDBRANCH   1   7
BRANCH   5  19
HETATM   19  C17 UNL     1      27.209  45.662  59.251  1.00  0.00     0.062 A 
HETATM   20  C18 UNL     1      27.518  44.327  59.438  1.00  0.00     0.170 A 
HETATM   21  O2  UNL     1      28.486  44.017  58.600  1.00  0.00    -0.316 OA
HETATM   22  C19 UNL     1      28.803  45.087  57.892  1.00  0.00     0.233 A 
HETATM   23  N1  UNL     1      28.016  46.103  58.293  1.00  0.00    -0.347 N 
ATOM     24  H1  UNL     1      28.036  47.053  57.922  1.00  0.00     0.167 HD
ENDBRANCH   5  19
TORSDOF 7
ENDMDL
MODEL 5
REMARK VINA RESULT: -7.992937729      2.410      5.610
REMARK  7 active torsions:
REMARK  status: ('A' for Active; 'I' for Inactive)
REMARK    1  A    between atoms: C1_2  and  C2_3 
REMARK    2  A    between atoms: C1_2  and  C10_11 
REMARK    3  A    between atoms: C2_3  and  C3_4 
REMARK    4  A    between atoms: C3_4  and  C4_5 
REMARK    5  A    between atoms: C10_11  and  C11_12 
REMARK    6  A    between atoms: C11_12  and  C12_13 
REMARK    7  A    between atoms: C16_17  and  C17_18 
ROOT
HETATM    1  C12 UNL     1      22.975  45.779  62.085  1.00  0.00     0.145 C 
HETATM    2  C13 UNL     1      24.261  46.431  62.439  1.00  0.00     0.001 C 
HETATM    3  C14 UNL     1      24.259  47.752  62.548  1.00  0.00    -0.025 C 
HETATM    4  C15 UNL     1      23.019  48.507  62.323  1.00  0.00     0.065 C 
HETATM    5  C16 UNL     1      21.772  47.713  62.479  1.00  0.00     0.177 C 
HETATM    6  O3  UNL     1      21.955  46.386  62.763  1.00  0.00    -0.370 OA
ENDROOT
BRANCH   1   7
HETATM    7  C11 UNL     1      22.808  45.796  60.582  1.00  0.00     0.043 C 
BRANCH   7   8
HETATM    8  C10 UNL     1      24.122  45.384  59.968  1.00  0.00     0.081 C 
BRANCH   8   9
HETATM    9  C1  UNL     1      24.309  46.094  58.686  1.00  0.00     0.127 C 
HETATM   10  O1  UNL     1      23.406  46.092  57.877  1.00  0.00    -0.298 OA
BRANCH   9  11
HETATM   11  C2  UNL     1      25.564  46.783  58.404  1.00  0.00     0.078 C 
BRANCH  11  12
HETATM   12  C3  UNL     1      26.337  47.187  59.605  1.00  0.00     0.012 C 
BRANCH  12  13
HETATM   13  C4  UNL     1      27.754  46.823  59.647  1.00  0.00    -0.014 C 
HETATM   14  C5  UNL     1      28.632  47.013  60.790  1.00  0.00     0.004 C 
HETATM   15  C6  UNL     1      28.481  45.973  61.850  1.00  0.00     0.000 C 
HETATM   16  C7  UNL     1      27.552  44.853  61.563  1.00  0.00     0.000 C 
HETATM   17  C8  UNL     1      27.568  44.356  60.160  1.00  0.00     0.000 C 
HETATM   18  C9  UNL     1      27.914  45.384  59.144  1.00  0.00     0.004 C 
ENDBRANCH  12  13
ENDBRANCH  11  12
ENDBRANCH   9  11
ENDBRANCH   8   9
ENDBRANCH   7   8
ENDBRANCH   1   7
BRANCH   5  19
HETATM   19  C17 UNL     1      20.857  48.279  63.508  1.00  0.00     0.062 A 
HETATM   20  C18 UNL     1      21.052  49.525  64.076  1.00  0.00     0.170 A 
HETATM   21  O2  UNL     1      20.080  49.729  64.941  1.00  0.00    -0.316 OA
HETATM   22  C19 UNL     1      19.281  48.677  64.948  1.00  0.00     0.233 A 
HETATM   23  N1  UNL     1      19.760  47.781  64.065  1.00  0.00    -0.347 N 
ATOM     24  H1  UNL     1      19.347  46.872  63.857  1.00  0.00     0.167 HD
ENDBRANCH   5  19
TORSDOF 7
ENDMDL
