MODEL 1
REMARK VINA RESULT: -6.650644994      0.000      0.000
REMARK  20 active torsions:
REMARK  status: ('A' for Active; 'I' for Inactive)
REMARK    1  A    between atoms: O1_2  and  C2_3 
REMARK    2  A    between atoms: C2_3  and  C3_4 
REMARK    3  A    between atoms: C2_3  and  C5_8 
REMARK    4  A    between atoms: C3_4  and  O2_6 
REMARK    5  A    between atoms: C5_8  and  O3_9 
REMARK    6  A    between atoms: C5_8  and  C6_11 
REMARK    7  A    between atoms: C6_11  and  O4_12 
REMARK    8  A    between atoms: C6_11  and  C7_14 
REMARK    9  A    between atoms: C9_16  and  O5_17 
REMARK   10  A    between atoms: C20_29  and  C21_30 
REMARK   11  A    between atoms: C21_30  and  O6_31 
REMARK   12  A    between atoms: C21_30  and  C22_33 
REMARK   13  A    between atoms: C22_33  and  C23_34 
REMARK   14  A    between atoms: C23_34  and  C24_35 
REMARK   15  A    between atoms: C24_35  and  N1_36 
REMARK   16  A    between atoms: C24_35  and  C25_40 
REMARK       I    between atoms: C25_40  and  N2_42 
REMARK   17  A    between atoms: N2_42  and  C26_44 
REMARK   18  A    between atoms: C26_44  and  C27_45 
REMARK   19  A    between atoms: C27_45  and  O8_46 
REMARK   20  A    between atoms: C32_52  and  O9_53 
ROOT
HETATM    1  C7  UNL     1       3.453  53.167 -49.014  1.00  0.00     0.031 C 
HETATM    2  C8  UNL     1       3.530  54.509 -49.692  1.00  0.00     0.040 C 
HETATM    3  C9  UNL     1       4.873  55.105 -49.891  1.00  0.00     0.126 C 
HETATM    4  C10 UNL     1       5.984  54.151 -50.158  1.00  0.00    -0.017 C 
HETATM    5  C11 UNL     1       7.119  54.289 -49.223  1.00  0.00     0.018 C 
HETATM    6  C12 UNL     1       6.603  54.539 -51.537  1.00  0.00     0.018 C 
HETATM    7  C13 UNL     1       5.395  52.811 -50.396  1.00  0.00     0.007 C 
HETATM    8  C14 UNL     1       6.241  51.840 -51.132  1.00  0.00     0.007 C 
HETATM    9  C15 UNL     1       5.319  51.005 -52.030  1.00  0.00     0.008 C 
HETATM   10  C16 UNL     1       3.911  50.978 -51.396  1.00  0.00     0.025 C 
HETATM   11  C17 UNL     1       3.369  49.651 -51.868  1.00  0.00     0.001 C 
HETATM   12  C18 UNL     1       2.971  49.641 -53.308  1.00  0.00     0.006 C 
HETATM   13  C19 UNL     1       2.267  48.300 -53.385  1.00  0.00     0.008 C 
HETATM   14  C20 UNL     1       1.675  48.047 -51.989  1.00  0.00     0.023 C 
HETATM   15  C28 UNL     1       2.110  49.208 -51.175  1.00  0.00    -0.034 C 
HETATM   16  C29 UNL     1       1.014  50.252 -51.255  1.00  0.00     0.016 C 
HETATM   17  C30 UNL     1       2.522  48.933 -49.764  1.00  0.00     0.013 C 
HETATM   18  C31 UNL     1       2.909  50.299 -49.182  1.00  0.00     0.040 C 
HETATM   19  C32 UNL     1       4.070  50.874 -49.895  1.00  0.00     0.070 C 
HETATM   20  C33 UNL     1       4.556  52.213 -49.277  1.00  0.00    -0.002 C 
HETATM   21  C34 UNL     1       5.366  51.765 -48.109  1.00  0.00     0.019 C 
ENDROOT
BRANCH  14  22
HETATM   22  C21 UNL     1       2.001  46.696 -51.484  1.00  0.00     0.123 C 
BRANCH  22  23
HETATM   23  O6  UNL     1       0.867  45.902 -51.472  1.00  0.00    -0.395 OA
ATOM     24  H6  UNL     1       1.088  45.016 -51.208  1.00  0.00     0.210 HD
ENDBRANCH  22  23
BRANCH  22  25
HETATM   25  C22 UNL     1       3.001  46.055 -52.431  1.00  0.00     0.034 C 
BRANCH  25  26
HETATM   26  C23 UNL     1       4.337  45.838 -51.752  1.00  0.00     0.045 C 
BRANCH  26  27
HETATM   27  C24 UNL     1       4.377  44.401 -51.256  1.00  0.00     0.274 C 
BRANCH  27  28
HETATM   28  N1  UNL     1       5.721  43.937 -51.449  1.00  0.00    -0.067 N 
ATOM     29  H13 UNL     1       6.386  44.689 -51.630  1.00  0.00     0.275 HD
ATOM     30  H12 UNL     1       6.153  43.588 -50.594  1.00  0.00     0.275 HD
ATOM     31  H11 UNL     1       5.685  43.243 -52.196  1.00  0.00     0.275 HD
ENDBRANCH  27  28
BRANCH  27  32
HETATM   32  C25 UNL     1       4.007  44.281 -49.839  1.00  0.00     0.248 C 
HETATM   33  O7  UNL     1       4.878  44.401 -48.936  1.00  0.00    -0.271 OA
HETATM   34  N2  UNL     1       2.657  44.026 -49.488  1.00  0.00    -0.357 N 
ATOM     35  H2  UNL     1       1.945  43.927 -50.213  1.00  0.00     0.162 HD
BRANCH  34  36
HETATM   36  C26 UNL     1       2.302  43.909 -48.098  1.00  0.00     0.148 C 
BRANCH  36  37
HETATM   37  C27 UNL     1       0.867  44.254 -47.831  1.00  0.00     0.183 C 
BRANCH  37  38
HETATM   38  O8  UNL     1       0.117  44.085 -48.999  1.00  0.00    -0.399 OA
ATOM     39  H8  UNL     1      -0.447  44.839 -49.128  1.00  0.00     0.209 HD
ENDBRANCH  37  38
ENDBRANCH  36  37
ENDBRANCH  34  36
ENDBRANCH  27  32
ENDBRANCH  26  27
ENDBRANCH  25  26
ENDBRANCH  22  25
ENDBRANCH  14  22
BRANCH  19  40
HETATM   40  O9  UNL     1       5.085  49.915 -49.805  1.00  0.00    -0.389 OA
ATOM     41  H9  UNL     1       5.616  50.284 -49.109  1.00  0.00     0.210 HD
ENDBRANCH  19  40
BRANCH   1  42
HETATM   42  C6  UNL     1       2.705  53.174 -47.744  1.00  0.00     0.154 C 
BRANCH  42  43
HETATM   43  C5  UNL     1       3.003  54.096 -46.634  1.00  0.00     0.178 C 
BRANCH  43  44
HETATM   44  C2  UNL     1       1.669  54.678 -46.142  1.00  0.00     0.180 C 
BRANCH  44  45
HETATM   45  O1  UNL     1       1.423  55.950 -46.588  1.00  0.00    -0.385 OA
HETATM   46  C1  UNL     1       2.516  56.733 -46.841  1.00  0.00     0.202 C 
ENDBRANCH  44  45
BRANCH  44  47
HETATM   47  C3  UNL     1       1.406  54.566 -44.687  1.00  0.00     0.145 C 
HETATM   48  C4  UNL     1       0.237  55.519 -44.348  1.00  0.00     0.042 C 
BRANCH  47  49
HETATM   49  O2  UNL     1       0.921  53.297 -44.348  1.00  0.00    -0.393 OA
ATOM     50  H2  UNL     1       1.487  52.862 -43.722  1.00  0.00     0.210 HD
ENDBRANCH  47  49
ENDBRANCH  44  47
ENDBRANCH  43  44
BRANCH  43  51
HETATM   51  O3  UNL     1       3.524  53.532 -45.472  1.00  0.00    -0.390 OA
ATOM     52  H3  UNL     1       3.227  52.632 -45.537  1.00  0.00     0.210 HD
ENDBRANCH  43  51
ENDBRANCH  42  43
BRANCH  42  53
HETATM   53  O4  UNL     1       1.308  53.388 -47.959  1.00  0.00    -0.393 OA
ATOM     54  H4  UNL     1       1.290  53.767 -48.830  1.00  0.00     0.210 HD
ENDBRANCH  42  53
ENDBRANCH   1  42
BRANCH   3  55
HETATM   55  O5  UNL     1       5.285  55.929 -48.813  1.00  0.00    -0.395 OA
ATOM     56  H5  UNL     1       6.229  56.026 -48.754  1.00  0.00     0.210 HD
ENDBRANCH   3  55
TORSDOF 20
ENDMDL
MODEL 2
REMARK VINA RESULT: -6.331652221      1.245      1.976
REMARK  20 active torsions:
REMARK  status: ('A' for Active; 'I' for Inactive)
REMARK    1  A    between atoms: O1_2  and  C2_3 
REMARK    2  A    between atoms: C2_3  and  C3_4 
REMARK    3  A    between atoms: C2_3  and  C5_8 
REMARK    4  A    between atoms: C3_4  and  O2_6 
REMARK    5  A    between atoms: C5_8  and  O3_9 
REMARK    6  A    between atoms: C5_8  and  C6_11 
REMARK    7  A    between atoms: C6_11  and  O4_12 
REMARK    8  A    between atoms: C6_11  and  C7_14 
REMARK    9  A    between atoms: C9_16  and  O5_17 
REMARK   10  A    between atoms: C20_29  and  C21_30 
REMARK   11  A    between atoms: C21_30  and  O6_31 
REMARK   12  A    between atoms: C21_30  and  C22_33 
REMARK   13  A    between atoms: C22_33  and  C23_34 
REMARK   14  A    between atoms: C23_34  and  C24_35 
REMARK   15  A    between atoms: C24_35  and  N1_36 
REMARK   16  A    between atoms: C24_35  and  C25_40 
REMARK       I    between atoms: C25_40  and  N2_42 
REMARK   17  A    between atoms: N2_42  and  C26_44 
REMARK   18  A    between atoms: C26_44  and  C27_45 
REMARK   19  A    between atoms: C27_45  and  O8_46 
REMARK   20  A    between atoms: C32_52  and  O9_53 
ROOT
HETATM    1  C7  UNL     1       3.493  53.360 -48.956  1.00  0.00     0.031 C 
HETATM    2  C8  UNL     1       3.523  54.720 -49.604  1.00  0.00     0.040 C 
HETATM    3  C9  UNL     1       4.849  55.332 -49.857  1.00  0.00     0.126 C 
HETATM    4  C10 UNL     1       5.952  54.396 -50.207  1.00  0.00    -0.017 C 
HETATM    5  C11 UNL     1       7.134  54.521 -49.329  1.00  0.00     0.018 C 
HETATM    6  C12 UNL     1       6.495  54.824 -51.606  1.00  0.00     0.018 C 
HETATM    7  C13 UNL     1       5.362  53.057 -50.447  1.00  0.00     0.007 C 
HETATM    8  C14 UNL     1       6.176  52.112 -51.252  1.00  0.00     0.007 C 
HETATM    9  C15 UNL     1       5.215  51.292 -52.121  1.00  0.00     0.008 C 
HETATM   10  C16 UNL     1       3.842  51.236 -51.415  1.00  0.00     0.025 C 
HETATM   11  C17 UNL     1       3.287  49.916 -51.891  1.00  0.00     0.001 C 
HETATM   12  C18 UNL     1       2.813  49.939 -53.308  1.00  0.00     0.006 C 
HETATM   13  C19 UNL     1       2.117  48.593 -53.383  1.00  0.00     0.008 C 
HETATM   14  C20 UNL     1       1.601  48.300 -51.964  1.00  0.00     0.023 C 
HETATM   15  C28 UNL     1       2.069  49.444 -51.145  1.00  0.00    -0.034 C 
HETATM   16  C29 UNL     1       0.963  50.479 -51.141  1.00  0.00     0.016 C 
HETATM   17  C30 UNL     1       2.558  49.138 -49.765  1.00  0.00     0.013 C 
HETATM   18  C31 UNL     1       2.964  50.493 -49.169  1.00  0.00     0.040 C 
HETATM   19  C32 UNL     1       4.081  51.096 -49.927  1.00  0.00     0.070 C 
HETATM   20  C33 UNL     1       4.589  52.423 -49.302  1.00  0.00    -0.002 C 
HETATM   21  C34 UNL     1       5.462  51.954 -48.190  1.00  0.00     0.019 C 
ENDROOT
BRANCH  14  22
HETATM   22  C21 UNL     1       1.965  46.940 -51.512  1.00  0.00     0.123 C 
BRANCH  22  23
HETATM   23  O6  UNL     1       0.931  46.056 -51.774  1.00  0.00    -0.395 OA
ATOM     24  H6  UNL     1       1.010  45.286 -51.222  1.00  0.00     0.210 HD
ENDBRANCH  22  23
BRANCH  22  25
HETATM   25  C22 UNL     1       3.176  46.476 -52.302  1.00  0.00     0.034 C 
BRANCH  25  26
HETATM   26  C23 UNL     1       4.294  46.035 -51.379  1.00  0.00     0.045 C 
BRANCH  26  27
HETATM   27  C24 UNL     1       4.315  44.514 -51.372  1.00  0.00     0.274 C 
BRANCH  27  28
HETATM   28  N1  UNL     1       4.646  44.101 -52.706  1.00  0.00    -0.067 N 
ATOM     29  H13 UNL     1       4.371  43.141 -52.911  1.00  0.00     0.275 HD
ATOM     30  H12 UNL     1       4.073  44.552 -53.420  1.00  0.00     0.275 HD
ATOM     31  H11 UNL     1       5.645  44.269 -52.825  1.00  0.00     0.275 HD
ENDBRANCH  27  28
BRANCH  27  32
HETATM   32  C25 UNL     1       5.295  43.966 -50.424  1.00  0.00     0.248 C 
HETATM   33  O7  UNL     1       5.382  44.427 -49.254  1.00  0.00    -0.271 OA
HETATM   34  N2  UNL     1       6.149  42.910 -50.833  1.00  0.00    -0.357 N 
ATOM     35  H2  UNL     1       6.085  42.532 -51.778  1.00  0.00     0.162 HD
BRANCH  34  36
HETATM   36  C26 UNL     1       7.107  42.378 -49.898  1.00  0.00     0.148 C 
BRANCH  36  37
HETATM   37  C27 UNL     1       8.284  43.284 -49.690  1.00  0.00     0.183 C 
BRANCH  37  38
HETATM   38  O8  UNL     1       8.127  43.992 -48.494  1.00  0.00    -0.399 OA
ATOM     39  H8  UNL     1       7.760  44.849 -48.676  1.00  0.00     0.209 HD
ENDBRANCH  37  38
ENDBRANCH  36  37
ENDBRANCH  34  36
ENDBRANCH  27  32
ENDBRANCH  26  27
ENDBRANCH  25  26
ENDBRANCH  22  25
ENDBRANCH  14  22
BRANCH  19  40
HETATM   40  O9  UNL     1       5.107  50.144 -49.916  1.00  0.00    -0.389 OA
ATOM     41  H9  UNL     1       5.865  50.700 -50.051  1.00  0.00     0.210 HD
ENDBRANCH  19  40
BRANCH   1  42
HETATM   42  C6  UNL     1       2.814  53.329 -47.649  1.00  0.00     0.154 C 
BRANCH  42  43
HETATM   43  C5  UNL     1       3.148  54.240 -46.541  1.00  0.00     0.178 C 
BRANCH  43  44
HETATM   44  C2  UNL     1       1.829  54.805 -45.990  1.00  0.00     0.180 C 
BRANCH  44  45
HETATM   45  O1  UNL     1       1.576  56.094 -46.376  1.00  0.00    -0.385 OA
HETATM   46  C1  UNL     1       2.666  56.882 -46.631  1.00  0.00     0.202 C 
ENDBRANCH  44  45
BRANCH  44  47
HETATM   47  C3  UNL     1       1.605  54.633 -44.534  1.00  0.00     0.145 C 
HETATM   48  C4  UNL     1       0.410  55.529 -44.137  1.00  0.00     0.042 C 
BRANCH  47  49
HETATM   49  O2  UNL     1       1.174  53.336 -44.229  1.00  0.00    -0.393 OA
ATOM     50  H2  UNL     1       0.886  53.267 -43.327  1.00  0.00     0.210 HD
ENDBRANCH  47  49
ENDBRANCH  44  47
ENDBRANCH  43  44
BRANCH  43  51
HETATM   51  O3  UNL     1       3.718  53.666 -45.408  1.00  0.00    -0.390 OA
ATOM     52  H3  UNL     1       4.570  54.086 -45.377  1.00  0.00     0.210 HD
ENDBRANCH  43  51
ENDBRANCH  42  43
BRANCH  42  53
HETATM   53  O4  UNL     1       1.403  53.511 -47.788  1.00  0.00    -0.393 OA
ATOM     54  H4  UNL     1       1.265  53.361 -48.716  1.00  0.00     0.210 HD
ENDBRANCH  42  53
ENDBRANCH   1  42
BRANCH   3  55
HETATM   55  O5  UNL     1       5.312  56.133 -48.782  1.00  0.00    -0.395 OA
ATOM     56  H5  UNL     1       5.532  55.630 -48.007  1.00  0.00     0.210 HD
ENDBRANCH   3  55
TORSDOF 20
ENDMDL
MODEL 3
REMARK VINA RESULT: -6.206842950      2.826      5.702
REMARK  20 active torsions:
REMARK  status: ('A' for Active; 'I' for Inactive)
REMARK    1  A    between atoms: O1_2  and  C2_3 
REMARK    2  A    between atoms: C2_3  and  C3_4 
REMARK    3  A    between atoms: C2_3  and  C5_8 
REMARK    4  A    between atoms: C3_4  and  O2_6 
REMARK    5  A    between atoms: C5_8  and  O3_9 
REMARK    6  A    between atoms: C5_8  and  C6_11 
REMARK    7  A    between atoms: C6_11  and  O4_12 
REMARK    8  A    between atoms: C6_11  and  C7_14 
REMARK    9  A    between atoms: C9_16  and  O5_17 
REMARK   10  A    between atoms: C20_29  and  C21_30 
REMARK   11  A    between atoms: C21_30  and  O6_31 
REMARK   12  A    between atoms: C21_30  and  C22_33 
REMARK   13  A    between atoms: C22_33  and  C23_34 
REMARK   14  A    between atoms: C23_34  and  C24_35 
REMARK   15  A    between atoms: C24_35  and  N1_36 
REMARK   16  A    between atoms: C24_35  and  C25_40 
REMARK       I    between atoms: C25_40  and  N2_42 
REMARK   17  A    between atoms: N2_42  and  C26_44 
REMARK   18  A    between atoms: C26_44  and  C27_45 
REMARK   19  A    between atoms: C27_45  and  O8_46 
REMARK   20  A    between atoms: C32_52  and  O9_53 
ROOT
HETATM    1  C7  UNL     1       1.793  56.312 -44.718  1.00  0.00     0.031 C 
HETATM    2  C8  UNL     1       0.433  56.874 -44.394  1.00  0.00     0.040 C 
HETATM    3  C9  UNL     1       0.077  58.191 -44.973  1.00  0.00     0.126 C 
HETATM    4  C10 UNL     1       0.622  58.485 -46.327  1.00  0.00    -0.017 C 
HETATM    5  C11 UNL     1       1.393  59.744 -46.393  1.00  0.00     0.018 C 
HETATM    6  C12 UNL     1      -0.595  58.758 -47.265  1.00  0.00     0.018 C 
HETATM    7  C13 UNL     1       1.216  57.238 -46.866  1.00  0.00     0.007 C 
HETATM    8  C14 UNL     1       1.381  57.170 -48.339  1.00  0.00     0.007 C 
HETATM    9  C15 UNL     1       1.108  55.724 -48.772  1.00  0.00     0.008 C 
HETATM   10  C16 UNL     1       1.427  54.788 -47.586  1.00  0.00     0.025 C 
HETATM   11  C17 UNL     1       1.840  53.514 -48.279  1.00  0.00     0.001 C 
HETATM   12  C18 UNL     1       0.699  52.752 -48.869  1.00  0.00     0.006 C 
HETATM   13  C19 UNL     1       1.400  51.463 -49.250  1.00  0.00     0.008 C 
HETATM   14  C20 UNL     1       2.548  51.288 -48.242  1.00  0.00     0.023 C 
HETATM   15  C28 UNL     1       2.487  52.495 -47.382  1.00  0.00    -0.034 C 
HETATM   16  C29 UNL     1       1.622  52.154 -46.186  1.00  0.00     0.016 C 
HETATM   17  C30 UNL     1       3.789  53.109 -46.977  1.00  0.00     0.013 C 
HETATM   18  C31 UNL     1       3.415  54.315 -46.106  1.00  0.00     0.040 C 
HETATM   19  C32 UNL     1       2.657  55.319 -46.882  1.00  0.00     0.070 C 
HETATM   20  C33 UNL     1       2.340  56.601 -46.065  1.00  0.00    -0.002 C 
HETATM   21  C34 UNL     1       3.618  57.363 -46.133  1.00  0.00     0.019 C 
ENDROOT
BRANCH  14  22
HETATM   22  C21 UNL     1       3.833  50.987 -48.910  1.00  0.00     0.123 C 
BRANCH  22  23
HETATM   23  O6  UNL     1       4.537  50.037 -48.190  1.00  0.00    -0.395 OA
ATOM     24  H6  UNL     1       5.466  50.236 -48.203  1.00  0.00     0.210 HD
ENDBRANCH  22  23
BRANCH  22  25
HETATM   25  C22 UNL     1       3.539  50.400 -50.279  1.00  0.00     0.034 C 
BRANCH  25  26
HETATM   26  C23 UNL     1       3.900  48.930 -50.333  1.00  0.00     0.045 C 
BRANCH  26  27
HETATM   27  C24 UNL     1       2.604  48.134 -50.322  1.00  0.00     0.274 C 
BRANCH  27  28
HETATM   28  N1  UNL     1       2.602  47.335 -51.513  1.00  0.00    -0.067 N 
ATOM     29  H13 UNL     1       3.420  47.488 -52.103  1.00  0.00     0.275 HD
ATOM     30  H12 UNL     1       2.760  46.343 -51.333  1.00  0.00     0.275 HD
ATOM     31  H11 UNL     1       1.720  47.523 -51.990  1.00  0.00     0.275 HD
ENDBRANCH  27  28
BRANCH  27  32
HETATM   32  C25 UNL     1       2.481  47.269 -49.141  1.00  0.00     0.248 C 
HETATM   33  O7  UNL     1       2.800  47.694 -47.998  1.00  0.00    -0.271 OA
HETATM   34  N2  UNL     1       1.999  45.944 -49.292  1.00  0.00    -0.357 N 
ATOM     35  H2  UNL     1       1.739  45.591 -50.213  1.00  0.00     0.162 HD
BRANCH  34  36
HETATM   36  C26 UNL     1       1.882  45.101 -48.130  1.00  0.00     0.148 C 
BRANCH  36  37
HETATM   37  C27 UNL     1       0.894  43.988 -48.313  1.00  0.00     0.183 C 
BRANCH  37  38
HETATM   38  O8  UNL     1       1.574  42.787 -48.536  1.00  0.00    -0.399 OA
ATOM     39  H8  UNL     1       1.578  42.270 -47.739  1.00  0.00     0.209 HD
ENDBRANCH  37  38
ENDBRANCH  36  37
ENDBRANCH  34  36
ENDBRANCH  27  32
ENDBRANCH  26  27
ENDBRANCH  25  26
ENDBRANCH  22  25
ENDBRANCH  14  22
BRANCH  19  40
HETATM   40  O9  UNL     1       3.465  55.644 -47.977  1.00  0.00    -0.389 OA
ATOM     41  H9  UNL     1       4.011  54.868 -48.030  1.00  0.00     0.210 HD
ENDBRANCH  19  40
BRANCH   1  42
HETATM   42  C6  UNL     1       2.659  56.113 -43.542  1.00  0.00     0.154 C 
BRANCH  42  43
HETATM   43  C5  UNL     1       2.725  57.059 -42.415  1.00  0.00     0.178 C 
BRANCH  43  44
HETATM   44  C2  UNL     1       2.316  56.298 -41.145  1.00  0.00     0.180 C 
BRANCH  44  45
HETATM   45  O1  UNL     1       1.136  56.729 -40.598  1.00  0.00    -0.385 OA
HETATM   46  C1  UNL     1       0.783  58.028 -40.848  1.00  0.00     0.202 C 
ENDBRANCH  44  45
BRANCH  44  47
HETATM   47  C3  UNL     1       3.362  56.159 -40.103  1.00  0.00     0.145 C 
HETATM   48  C4  UNL     1       2.670  55.688 -38.804  1.00  0.00     0.042 C 
BRANCH  47  49
HETATM   49  O2  UNL     1       4.255  55.124 -40.407  1.00  0.00    -0.393 OA
ATOM     50  H2  UNL     1       4.278  54.945 -41.339  1.00  0.00     0.210 HD
ENDBRANCH  47  49
ENDBRANCH  44  47
ENDBRANCH  43  44
BRANCH  43  51
HETATM   51  O3  UNL     1       3.986  57.543 -42.076  1.00  0.00    -0.390 OA
ATOM     52  H3  UNL     1       4.539  56.786 -42.232  1.00  0.00     0.210 HD
ENDBRANCH  43  51
ENDBRANCH  42  43
BRANCH  42  53
HETATM   53  O4  UNL     1       2.380  54.872 -42.890  1.00  0.00    -0.393 OA
ATOM     54  H4  UNL     1       3.221  54.644 -42.511  1.00  0.00     0.210 HD
ENDBRANCH  42  53
ENDBRANCH   1  42
BRANCH   3  55
HETATM   55  O5  UNL     1       0.427  59.283 -44.140  1.00  0.00    -0.395 OA
ATOM     56  H5  UNL     1       0.706  60.052 -44.625  1.00  0.00     0.210 HD
ENDBRANCH   3  55
TORSDOF 20
ENDMDL
MODEL 4
REMARK VINA RESULT: -6.198768400      1.723      2.774
REMARK  20 active torsions:
REMARK  status: ('A' for Active; 'I' for Inactive)
REMARK    1  A    between atoms: O1_2  and  C2_3 
REMARK    2  A    between atoms: C2_3  and  C3_4 
REMARK    3  A    between atoms: C2_3  and  C5_8 
REMARK    4  A    between atoms: C3_4  and  O2_6 
REMARK    5  A    between atoms: C5_8  and  O3_9 
REMARK    6  A    between atoms: C5_8  and  C6_11 
REMARK    7  A    between atoms: C6_11  and  O4_12 
REMARK    8  A    between atoms: C6_11  and  C7_14 
REMARK    9  A    between atoms: C9_16  and  O5_17 
REMARK   10  A    between atoms: C20_29  and  C21_30 
REMARK   11  A    between atoms: C21_30  and  O6_31 
REMARK   12  A    between atoms: C21_30  and  C22_33 
REMARK   13  A    between atoms: C22_33  and  C23_34 
REMARK   14  A    between atoms: C23_34  and  C24_35 
REMARK   15  A    between atoms: C24_35  and  N1_36 
REMARK   16  A    between atoms: C24_35  and  C25_40 
REMARK       I    between atoms: C25_40  and  N2_42 
REMARK   17  A    between atoms: N2_42  and  C26_44 
REMARK   18  A    between atoms: C26_44  and  C27_45 
REMARK   19  A    between atoms: C27_45  and  O8_46 
REMARK   20  A    between atoms: C32_52  and  O9_53 
ROOT
HETATM    1  C7  UNL     1       2.814  53.775 -48.910  1.00  0.00     0.031 C 
HETATM    2  C8  UNL     1       2.853  54.890 -49.922  1.00  0.00     0.040 C 
HETATM    3  C9  UNL     1       4.117  55.653 -50.058  1.00  0.00     0.126 C 
HETATM    4  C10 UNL     1       5.375  54.885 -49.853  1.00  0.00    -0.017 C 
HETATM    5  C11 UNL     1       6.261  55.465 -48.822  1.00  0.00     0.018 C 
HETATM    6  C12 UNL     1       6.213  55.016 -51.163  1.00  0.00     0.018 C 
HETATM    7  C13 UNL     1       5.032  53.444 -49.792  1.00  0.00     0.007 C 
HETATM    8  C14 UNL     1       6.135  52.490 -50.069  1.00  0.00     0.007 C 
HETATM    9  C15 UNL     1       5.541  51.299 -50.830  1.00  0.00     0.008 C 
HETATM   10  C16 UNL     1       4.047  51.174 -50.457  1.00  0.00     0.025 C 
HETATM   11  C17 UNL     1       3.797  49.694 -50.612  1.00  0.00     0.001 C 
HETATM   12  C18 UNL     1       3.714  49.243 -52.034  1.00  0.00     0.006 C 
HETATM   13  C19 UNL     1       3.226  47.821 -51.840  1.00  0.00     0.008 C 
HETATM   14  C20 UNL     1       2.393  47.828 -50.548  1.00  0.00     0.023 C 
HETATM   15  C28 UNL     1       2.490  49.218 -50.040  1.00  0.00    -0.034 C 
HETATM   16  C29 UNL     1       1.307  49.985 -50.596  1.00  0.00     0.016 C 
HETATM   17  C30 UNL     1       2.630  49.394 -48.562  1.00  0.00     0.013 C 
HETATM   18  C31 UNL     1       2.701  50.910 -48.339  1.00  0.00     0.040 C 
HETATM   19  C32 UNL     1       3.899  51.488 -48.984  1.00  0.00     0.070 C 
HETATM   20  C33 UNL     1       4.064  53.006 -48.704  1.00  0.00    -0.002 C 
HETATM   21  C34 UNL     1       4.662  53.029 -47.339  1.00  0.00     0.019 C 
ENDROOT
BRANCH  14  22
HETATM   22  C21 UNL     1       2.782  46.735 -49.631  1.00  0.00     0.123 C 
BRANCH  22  23
HETATM   23  O6  UNL     1       1.697  45.912 -49.378  1.00  0.00    -0.395 OA
ATOM     24  H6  UNL     1       0.971  46.421 -49.037  1.00  0.00     0.210 HD
ENDBRANCH  22  23
BRANCH  22  25
HETATM   25  C22 UNL     1       3.848  45.892 -50.309  1.00  0.00     0.034 C 
BRANCH  25  26
HETATM   26  C23 UNL     1       3.584  44.414 -50.113  1.00  0.00     0.045 C 
BRANCH  26  27
HETATM   27  C24 UNL     1       4.718  43.848 -49.272  1.00  0.00     0.274 C 
BRANCH  27  28
HETATM   28  N1  UNL     1       4.314  42.531 -48.869  1.00  0.00    -0.067 N 
ATOM     29  H13 UNL     1       4.894  42.141 -48.127  1.00  0.00     0.275 HD
ATOM     30  H12 UNL     1       3.430  42.520 -48.360  1.00  0.00     0.275 HD
ATOM     31  H11 UNL     1       4.300  41.959 -49.714  1.00  0.00     0.275 HD
ENDBRANCH  27  28
BRANCH  27  32
HETATM   32  C25 UNL     1       5.987  43.776 -50.009  1.00  0.00     0.248 C 
HETATM   33  O7  UNL     1       7.075  44.064 -49.442  1.00  0.00    -0.271 OA
HETATM   34  N2  UNL     1       5.984  43.380 -51.371  1.00  0.00    -0.357 N 
ATOM     35  H2  UNL     1       5.108  43.147 -51.838  1.00  0.00     0.162 HD
BRANCH  34  36
HETATM   36  C26 UNL     1       7.232  43.313 -52.087  1.00  0.00     0.148 C 
BRANCH  36  37
HETATM   37  C27 UNL     1       7.756  41.913 -52.214  1.00  0.00     0.183 C 
BRANCH  37  38
HETATM   38  O8  UNL     1       8.254  41.484 -50.979  1.00  0.00    -0.399 OA
ATOM     39  H8  UNL     1       8.670  40.635 -51.080  1.00  0.00     0.209 HD
ENDBRANCH  37  38
ENDBRANCH  36  37
ENDBRANCH  34  36
ENDBRANCH  27  32
ENDBRANCH  26  27
ENDBRANCH  25  26
ENDBRANCH  22  25
ENDBRANCH  14  22
BRANCH  19  40
HETATM   40  O9  UNL     1       4.991  50.789 -48.457  1.00  0.00    -0.389 OA
ATOM     41  H9  UNL     1       5.416  51.475 -47.956  1.00  0.00     0.210 HD
ENDBRANCH  19  40
BRANCH   1  42
HETATM   42  C6  UNL     1       1.822  53.968 -47.838  1.00  0.00     0.154 C 
BRANCH  42  43
HETATM   43  C5  UNL     1       1.690  55.220 -47.073  1.00  0.00     0.178 C 
BRANCH  43  44
HETATM   44  C2  UNL     1       1.003  54.881 -45.741  1.00  0.00     0.180 C 
BRANCH  44  45
HETATM   45  O1  UNL     1       0.860  53.537 -45.519  1.00  0.00    -0.385 OA
HETATM   46  C1  UNL     1       1.617  52.997 -44.515  1.00  0.00     0.202 C 
ENDBRANCH  44  45
BRANCH  44  47
HETATM   47  C3  UNL     1      -0.260  55.603 -45.456  1.00  0.00     0.145 C 
HETATM   48  C4  UNL     1      -0.175  56.985 -46.143  1.00  0.00     0.042 C 
BRANCH  47  49
HETATM   49  O2  UNL     1      -1.356  54.984 -46.071  1.00  0.00    -0.393 OA
ATOM     50  H2  UNL     1      -1.614  55.439 -46.863  1.00  0.00     0.210 HD
ENDBRANCH  47  49
ENDBRANCH  44  47
ENDBRANCH  43  44
BRANCH  43  51
HETATM   51  O3  UNL     1       2.871  55.824 -46.650  1.00  0.00    -0.390 OA
ATOM     52  H3  UNL     1       2.699  55.977 -45.728  1.00  0.00     0.210 HD
ENDBRANCH  43  51
ENDBRANCH  42  43
BRANCH  42  53
HETATM   53  O4  UNL     1       0.490  53.750 -48.309  1.00  0.00    -0.393 OA
ATOM     54  H4  UNL     1       0.518  52.843 -48.593  1.00  0.00     0.210 HD
ENDBRANCH  42  53
ENDBRANCH   1  42
BRANCH   3  55
HETATM   55  O5  UNL     1       4.181  56.786 -49.208  1.00  0.00    -0.395 OA
ATOM     56  H5  UNL     1       3.338  57.031 -48.844  1.00  0.00     0.210 HD
ENDBRANCH   3  55
TORSDOF 20
ENDMDL
MODEL 5
REMARK VINA RESULT: -6.153095672      0.988      1.019
REMARK  20 active torsions:
REMARK  status: ('A' for Active; 'I' for Inactive)
REMARK    1  A    between atoms: O1_2  and  C2_3 
REMARK    2  A    between atoms: C2_3  and  C3_4 
REMARK    3  A    between atoms: C2_3  and  C5_8 
REMARK    4  A    between atoms: C3_4  and  O2_6 
REMARK    5  A    between atoms: C5_8  and  O3_9 
REMARK    6  A    between atoms: C5_8  and  C6_11 
REMARK    7  A    between atoms: C6_11  and  O4_12 
REMARK    8  A    between atoms: C6_11  and  C7_14 
REMARK    9  A    between atoms: C9_16  and  O5_17 
REMARK   10  A    between atoms: C20_29  and  C21_30 
REMARK   11  A    between atoms: C21_30  and  O6_31 
REMARK   12  A    between atoms: C21_30  and  C22_33 
REMARK   13  A    between atoms: C22_33  and  C23_34 
REMARK   14  A    between atoms: C23_34  and  C24_35 
REMARK   15  A    between atoms: C24_35  and  N1_36 
REMARK   16  A    between atoms: C24_35  and  C25_40 
REMARK       I    between atoms: C25_40  and  N2_42 
REMARK   17  A    between atoms: N2_42  and  C26_44 
REMARK   18  A    between atoms: C26_44  and  C27_45 
REMARK   19  A    between atoms: C27_45  and  O8_46 
REMARK   20  A    between atoms: C32_52  and  O9_53 
ROOT
HETATM    1  C7  UNL     1       3.186  52.913 -49.427  1.00  0.00     0.031 C 
HETATM    2  C8  UNL     1       3.319  54.181 -50.230  1.00  0.00     0.040 C 
HETATM    3  C9  UNL     1       4.659  54.810 -50.306  1.00  0.00     0.126 C 
HETATM    4  C10 UNL     1       5.823  53.882 -50.315  1.00  0.00    -0.017 C 
HETATM    5  C11 UNL     1       6.812  54.163 -49.254  1.00  0.00     0.018 C 
HETATM    6  C12 UNL     1       6.619  54.152 -51.631  1.00  0.00     0.018 C 
HETATM    7  C13 UNL     1       5.311  52.501 -50.486  1.00  0.00     0.007 C 
HETATM    8  C14 UNL     1       6.279  51.496 -50.991  1.00  0.00     0.007 C 
HETATM    9  C15 UNL     1       5.516  50.535 -51.911  1.00  0.00     0.008 C 
HETATM   10  C16 UNL     1       4.034  50.513 -51.476  1.00  0.00     0.025 C 
HETATM   11  C17 UNL     1       3.601  49.123 -51.871  1.00  0.00     0.001 C 
HETATM   12  C18 UNL     1       3.409  48.948 -53.343  1.00  0.00     0.006 C 
HETATM   13  C19 UNL     1       2.761  47.577 -53.371  1.00  0.00     0.008 C 
HETATM   14  C20 UNL     1       1.986  47.444 -52.050  1.00  0.00     0.023 C 
HETATM   15  C28 UNL     1       2.270  48.700 -51.314  1.00  0.00    -0.034 C 
HETATM   16  C29 UNL     1       1.168  49.682 -51.654  1.00  0.00     0.016 C 
HETATM   17  C30 UNL     1       2.489  48.589 -49.838  1.00  0.00     0.013 C 
HETATM   18  C31 UNL     1       2.751  50.023 -49.359  1.00  0.00     0.040 C 
HETATM   19  C32 UNL     1       3.984  50.570 -49.965  1.00  0.00     0.070 C 
HETATM   20  C33 UNL     1       4.342  51.985 -49.434  1.00  0.00    -0.002 C 
HETATM   21  C34 UNL     1       4.992  51.694 -48.125  1.00  0.00     0.019 C 
ENDROOT
BRANCH  14  22
HETATM   22  C21 UNL     1       2.276  46.167 -51.362  1.00  0.00     0.123 C 
BRANCH  22  23
HETATM   23  O6  UNL     1       1.164  45.343 -51.392  1.00  0.00    -0.395 OA
ATOM     24  H6  UNL     1       1.418  44.455 -51.617  1.00  0.00     0.210 HD
ENDBRANCH  22  23
BRANCH  22  25
HETATM   25  C22 UNL     1       3.392  45.458 -52.111  1.00  0.00     0.034 C 
BRANCH  25  26
HETATM   26  C23 UNL     1       4.652  45.386 -51.274  1.00  0.00     0.045 C 
BRANCH  26  27
HETATM   27  C24 UNL     1       4.628  44.068 -50.514  1.00  0.00     0.274 C 
BRANCH  27  28
HETATM   28  N1  UNL     1       5.995  43.722 -50.249  1.00  0.00    -0.067 N 
ATOM     29  H13 UNL     1       6.664  44.328 -50.722  1.00  0.00     0.275 HD
ATOM     30  H12 UNL     1       6.286  43.932 -49.294  1.00  0.00     0.275 HD
ATOM     31  H11 UNL     1       6.099  42.737 -50.494  1.00  0.00     0.275 HD
ENDBRANCH  27  28
BRANCH  27  32
HETATM   32  C25 UNL     1       3.882  44.157 -49.251  1.00  0.00     0.248 C 
HETATM   33  O7  UNL     1       4.378  44.746 -48.253  1.00  0.00    -0.271 OA
HETATM   34  N2  UNL     1       2.594  43.572 -49.157  1.00  0.00    -0.357 N 
ATOM     35  H2  UNL     1       2.185  43.093 -49.960  1.00  0.00     0.162 HD
BRANCH  34  36
HETATM   36  C26 UNL     1       1.869  43.663 -47.916  1.00  0.00     0.148 C 
BRANCH  36  37
HETATM   37  C27 UNL     1       0.978  44.868 -47.848  1.00  0.00     0.183 C 
BRANCH  37  38
HETATM   38  O8  UNL     1       1.711  45.970 -47.395  1.00  0.00    -0.399 OA
ATOM     39  H8  UNL     1       1.136  46.720 -47.303  1.00  0.00     0.209 HD
ENDBRANCH  37  38
ENDBRANCH  36  37
ENDBRANCH  34  36
ENDBRANCH  27  32
ENDBRANCH  26  27
ENDBRANCH  25  26
ENDBRANCH  22  25
ENDBRANCH  14  22
BRANCH  19  40
HETATM   40  O9  UNL     1       5.003  49.670 -49.635  1.00  0.00    -0.389 OA
ATOM     41  H9  UNL     1       5.642  49.871 -50.308  1.00  0.00     0.210 HD
ENDBRANCH  19  40
BRANCH   1  42
HETATM   42  C6  UNL     1       2.268  53.019 -48.279  1.00  0.00     0.154 C 
BRANCH  42  43
HETATM   43  C5  UNL     1       2.157  54.225 -47.440  1.00  0.00     0.178 C 
BRANCH  43  44
HETATM   44  C2  UNL     1       1.394  53.834 -46.164  1.00  0.00     0.180 C 
BRANCH  44  45
HETATM   45  O1  UNL     1       0.220  54.517 -45.992  1.00  0.00    -0.385 OA
HETATM   46  C1  UNL     1      -0.117  55.414 -46.969  1.00  0.00     0.202 C 
ENDBRANCH  44  45
BRANCH  44  47
HETATM   47  C3  UNL     1       2.187  53.817 -44.911  1.00  0.00     0.145 C 
HETATM   48  C4  UNL     1       1.555  54.843 -43.943  1.00  0.00     0.042 C 
BRANCH  47  49
HETATM   49  O2  UNL     1       2.062  52.594 -44.240  1.00  0.00    -0.393 OA
ATOM     50  H2  UNL     1       2.910  52.217 -44.041  1.00  0.00     0.210 HD
ENDBRANCH  47  49
ENDBRANCH  44  47
ENDBRANCH  43  44
BRANCH  43  51
HETATM   51  O3  UNL     1       3.343  54.743 -46.927  1.00  0.00    -0.390 OA
ATOM     52  H3  UNL     1       3.142  55.668 -46.852  1.00  0.00     0.210 HD
ENDBRANCH  43  51
ENDBRANCH  42  43
BRANCH  42  53
HETATM   53  O4  UNL     1       0.912  52.785 -48.669  1.00  0.00    -0.393 OA
ATOM     54  H4  UNL     1       0.422  53.200 -47.969  1.00  0.00     0.210 HD
ENDBRANCH  42  53
ENDBRANCH   1  42
BRANCH   3  55
HETATM   55  O5  UNL     1       4.894  55.757 -49.277  1.00  0.00    -0.395 OA
ATOM     56  H5  UNL     1       4.134  55.909 -48.727  1.00  0.00     0.210 HD
ENDBRANCH   3  55
TORSDOF 20
ENDMDL
