MODEL 1
REMARK VINA RESULT: -6.905403460      0.000      0.000
REMARK  19 active torsions:
REMARK  status: ('A' for Active; 'I' for Inactive)
REMARK    1  A    between atoms: C2_2  and  C3_3 
REMARK    2  A    between atoms: C3_3  and  N1_4 
REMARK    3  A    between atoms: N1_4  and  C4_7 
REMARK    4  A    between atoms: C10_13  and  O1_14 
REMARK    5  A    between atoms: C13_18  and  O2_19 
REMARK    6  A    between atoms: O2_19  and  C14_20 
REMARK    7  A    between atoms: C14_20  and  C15_22 
REMARK    8  A    between atoms: C15_22  and  C16_23 
REMARK    9  A    between atoms: C16_23  and  N2_24 
REMARK   10  A    between atoms: C16_23  and  C17_28 
REMARK   11  A    between atoms: C19_32  and  C20_33 
REMARK   12  A    between atoms: C20_33  and  O6_34 
REMARK   13  A    between atoms: C20_33  and  C21_36 
REMARK   14  A    between atoms: C21_36  and  O7_37 
REMARK   15  A    between atoms: C21_36  and  C22_39 
REMARK   16  A    between atoms: C22_39  and  O8_40 
REMARK   17  A    between atoms: C22_39  and  C23_42 
REMARK   18  A    between atoms: C23_42  and  O9_43 
REMARK   19  A    between atoms: C33_54  and  O10_55 
ROOT
HETATM    1  C4  UNL     1       2.195  56.394 -44.789  1.00  0.00     0.215 C 
HETATM    2  C5  UNL     1       1.885  55.003 -44.224  1.00  0.00     0.036 C 
HETATM    3  C6  UNL     1       1.930  54.028 -45.338  1.00  0.00     0.008 C 
HETATM    4  C7  UNL     1       3.283  53.956 -46.059  1.00  0.00     0.001 C 
HETATM    5  C8  UNL     1       3.157  52.822 -47.039  1.00  0.00    -0.002 C 
HETATM    6  C9  UNL     1       4.443  52.212 -47.457  1.00  0.00     0.038 C 
HETATM    7  C10 UNL     1       4.261  50.963 -48.260  1.00  0.00     0.134 C 
HETATM    8  C11 UNL     1       2.969  50.819 -49.038  1.00  0.00     0.039 C 
HETATM    9  C12 UNL     1       1.983  50.162 -48.090  1.00  0.00     0.026 C 
HETATM   10  C13 UNL     1       3.308  49.970 -50.200  1.00  0.00     0.065 C 
HETATM   11  C18 UNL     1       2.437  49.763 -51.348  1.00  0.00     0.014 C 
HETATM   12  C19 UNL     1       1.005  50.225 -51.365  1.00  0.00     0.042 C 
HETATM   13  C24 UNL     1       0.854  51.685 -51.360  1.00  0.00     0.012 C 
HETATM   14  C25 UNL     1       1.048  52.157 -49.943  1.00  0.00     0.011 C 
HETATM   15  C26 UNL     1       2.432  52.191 -49.400  1.00  0.00    -0.024 C 
HETATM   16  C27 UNL     1       3.280  52.849 -50.477  1.00  0.00     0.017 C 
HETATM   17  C28 UNL     1       2.342  53.142 -48.231  1.00  0.00    -0.001 C 
HETATM   18  C29 UNL     1       2.577  54.548 -48.726  1.00  0.00     0.007 C 
HETATM   19  C30 UNL     1       2.526  55.595 -47.642  1.00  0.00     0.012 C 
HETATM   20  C31 UNL     1       3.579  55.295 -46.601  1.00  0.00    -0.012 C 
HETATM   21  C32 UNL     1       4.986  55.470 -47.127  1.00  0.00     0.018 C 
HETATM   22  C33 UNL     1       3.498  56.299 -45.469  1.00  0.00     0.157 C 
ENDROOT
BRANCH  10  23
HETATM   23  O2  UNL     1       3.881  48.740 -49.713  1.00  0.00    -0.283 OA
BRANCH  23  24
HETATM   24  C14 UNL     1       3.510  47.485 -49.981  1.00  0.00     0.266 C 
HETATM   25  O3  UNL     1       4.159  46.915 -50.872  1.00  0.00    -0.265 OA
BRANCH  24  26
HETATM   26  C15 UNL     1       2.417  46.744 -49.314  1.00  0.00     0.155 C 
BRANCH  26  27
HETATM   27  C16 UNL     1       2.126  45.432 -50.018  1.00  0.00     0.292 C 
BRANCH  27  28
HETATM   28  N2  UNL     1       1.267  45.596 -51.147  1.00  0.00    -0.065 N 
ATOM     29  H23 UNL     1       0.303  45.358 -50.914  1.00  0.00     0.275 HD
ATOM     30  H22 UNL     1       1.142  46.583 -51.373  1.00  0.00     0.275 HD
ATOM     31  H21 UNL     1       1.588  45.071 -51.961  1.00  0.00     0.275 HD
ENDBRANCH  27  28
BRANCH  27  32
HETATM   32  C17 UNL     1       1.535  44.451 -49.090  1.00  0.00     0.205 C 
HETATM   33  O4  UNL     1       2.278  43.830 -48.304  1.00  0.00    -0.646 OA
HETATM   34  O5  UNL     1       0.177  44.229 -49.100  1.00  0.00    -0.646 OA
ENDBRANCH  27  32
ENDBRANCH  26  27
ENDBRANCH  24  26
ENDBRANCH  23  24
ENDBRANCH  10  23
BRANCH   7  35
HETATM   35  O1  UNL     1       4.449  49.838 -47.414  1.00  0.00    -0.394 OA
ATOM     36  H1  UNL     1       3.686  49.740 -46.856  1.00  0.00     0.210 HD
ENDBRANCH   7  35
BRANCH  12  37
HETATM   37  C20 UNL     1       0.489  49.648 -52.706  1.00  0.00     0.157 C 
BRANCH  37  38
HETATM   38  O6  UNL     1       0.222  48.269 -52.419  1.00  0.00    -0.392 OA
ATOM     39  H6  UNL     1       0.029  48.257 -51.488  1.00  0.00     0.210 HD
ENDBRANCH  37  38
BRANCH  37  40
HETATM   40  C21 UNL     1      -0.792  50.198 -53.191  1.00  0.00     0.178 C 
BRANCH  40  41
HETATM   41  O7  UNL     1      -1.446  49.345 -54.136  1.00  0.00    -0.390 OA
ATOM     42  H7  UNL     1      -1.132  49.463 -55.024  1.00  0.00     0.210 HD
ENDBRANCH  40  41
BRANCH  40  43
HETATM   43  C22 UNL     1      -1.830  50.487 -52.116  1.00  0.00     0.172 C 
BRANCH  43  44
HETATM   44  O8  UNL     1      -2.798  49.440 -52.271  1.00  0.00    -0.391 OA
ATOM     45  H8  UNL     1      -3.559  49.755 -51.799  1.00  0.00     0.210 HD
ENDBRANCH  43  44
BRANCH  43  46
HETATM   46  C23 UNL     1      -2.582  51.735 -52.382  1.00  0.00     0.198 C 
BRANCH  46  47
HETATM   47  O9  UNL     1      -2.601  52.428 -51.115  1.00  0.00    -0.398 OA
ATOM     48  H9  UNL     1      -3.389  52.118 -50.683  1.00  0.00     0.209 HD
ENDBRANCH  46  47
ENDBRANCH  43  46
ENDBRANCH  40  43
ENDBRANCH  37  40
ENDBRANCH  12  37
BRANCH  22  49
HETATM   49  O10 UNL     1       3.976  57.530 -45.918  1.00  0.00    -0.393 OA
ATOM     50  H10 UNL     1       4.918  57.545 -46.038  1.00  0.00     0.210 HD
ENDBRANCH  22  49
BRANCH   1  51
HETATM   51  N1  UNL     1       2.361  57.242 -43.623  1.00  0.00    -0.068 N 
ATOM     52  H12 UNL     1       1.641  57.964 -43.600  1.00  0.00     0.277 HD
ATOM     53  H11 UNL     1       3.190  57.828 -43.720  1.00  0.00     0.277 HD
BRANCH  51  54
HETATM   54  C3  UNL     1       2.395  56.527 -42.383  1.00  0.00     0.232 C 
BRANCH  54  55
HETATM   55  C2  UNL     1       1.421  57.240 -41.445  1.00  0.00     0.023 C 
HETATM   56  C1  UNL     1       0.874  58.481 -42.064  1.00  0.00     0.007 C 
ENDBRANCH  54  55
ENDBRANCH  51  54
ENDBRANCH   1  51
TORSDOF 19
ENDMDL
MODEL 2
REMARK VINA RESULT: -6.897948569      1.339      2.189
REMARK  19 active torsions:
REMARK  status: ('A' for Active; 'I' for Inactive)
REMARK    1  A    between atoms: C2_2  and  C3_3 
REMARK    2  A    between atoms: C3_3  and  N1_4 
REMARK    3  A    between atoms: N1_4  and  C4_7 
REMARK    4  A    between atoms: C10_13  and  O1_14 
REMARK    5  A    between atoms: C13_18  and  O2_19 
REMARK    6  A    between atoms: O2_19  and  C14_20 
REMARK    7  A    between atoms: C14_20  and  C15_22 
REMARK    8  A    between atoms: C15_22  and  C16_23 
REMARK    9  A    between atoms: C16_23  and  N2_24 
REMARK   10  A    between atoms: C16_23  and  C17_28 
REMARK   11  A    between atoms: C19_32  and  C20_33 
REMARK   12  A    between atoms: C20_33  and  O6_34 
REMARK   13  A    between atoms: C20_33  and  C21_36 
REMARK   14  A    between atoms: C21_36  and  O7_37 
REMARK   15  A    between atoms: C21_36  and  C22_39 
REMARK   16  A    between atoms: C22_39  and  O8_40 
REMARK   17  A    between atoms: C22_39  and  C23_42 
REMARK   18  A    between atoms: C23_42  and  O9_43 
REMARK   19  A    between atoms: C33_54  and  O10_55 
ROOT
HETATM    1  C4  UNL     1       1.609  56.125 -44.925  1.00  0.00     0.215 C 
HETATM    2  C5  UNL     1       1.370  54.720 -44.359  1.00  0.00     0.036 C 
HETATM    3  C6  UNL     1       1.502  53.744 -45.464  1.00  0.00     0.008 C 
HETATM    4  C7  UNL     1       2.875  53.751 -46.149  1.00  0.00     0.001 C 
HETATM    5  C8  UNL     1       2.844  52.605 -47.124  1.00  0.00    -0.002 C 
HETATM    6  C9  UNL     1       4.175  52.072 -47.506  1.00  0.00     0.038 C 
HETATM    7  C10 UNL     1       4.090  50.811 -48.304  1.00  0.00     0.134 C 
HETATM    8  C11 UNL     1       2.829  50.584 -49.113  1.00  0.00     0.039 C 
HETATM    9  C12 UNL     1       1.861  49.874 -48.187  1.00  0.00     0.026 C 
HETATM   10  C13 UNL     1       3.249  49.751 -50.261  1.00  0.00     0.065 C 
HETATM   11  C18 UNL     1       2.422  49.486 -51.430  1.00  0.00     0.014 C 
HETATM   12  C19 UNL     1       0.965  49.860 -51.486  1.00  0.00     0.042 C 
HETATM   13  C24 UNL     1       0.727  51.308 -51.495  1.00  0.00     0.012 C 
HETATM   14  C25 UNL     1       0.855  51.799 -50.077  1.00  0.00     0.011 C 
HETATM   15  C26 UNL     1       2.220  51.919 -49.499  1.00  0.00    -0.024 C 
HETATM   16  C27 UNL     1       3.054  52.622 -50.559  1.00  0.00     0.017 C 
HETATM   17  C28 UNL     1       2.042  52.869 -48.339  1.00  0.00    -0.001 C 
HETATM   18  C29 UNL     1       2.204  54.284 -48.838  1.00  0.00     0.007 C 
HETATM   19  C30 UNL     1       2.062  55.332 -47.763  1.00  0.00     0.012 C 
HETATM   20  C31 UNL     1       3.104  55.102 -46.693  1.00  0.00    -0.012 C 
HETATM   21  C32 UNL     1       4.511  55.359 -47.184  1.00  0.00     0.018 C 
HETATM   22  C33 UNL     1       2.933  56.105 -45.571  1.00  0.00     0.157 C 
ENDROOT
BRANCH  10  23
HETATM   23  O2  UNL     1       3.882  48.560 -49.751  1.00  0.00    -0.283 OA
BRANCH  23  24
HETATM   24  C14 UNL     1       3.608  47.285 -50.034  1.00  0.00     0.266 C 
HETATM   25  O3  UNL     1       4.386  46.735 -50.830  1.00  0.00    -0.265 OA
BRANCH  24  26
HETATM   26  C15 UNL     1       2.480  46.499 -49.487  1.00  0.00     0.155 C 
BRANCH  26  27
HETATM   27  C16 UNL     1       2.614  45.026 -49.826  1.00  0.00     0.292 C 
BRANCH  27  28
HETATM   28  N2  UNL     1       2.426  44.765 -51.217  1.00  0.00    -0.065 N 
ATOM     29  H23 UNL     1       1.993  45.561 -51.685  1.00  0.00     0.275 HD
ATOM     30  H22 UNL     1       3.319  44.752 -51.712  1.00  0.00     0.275 HD
ATOM     31  H21 UNL     1       1.899  43.908 -51.387  1.00  0.00     0.275 HD
ENDBRANCH  27  28
BRANCH  27  32
HETATM   32  C17 UNL     1       1.668  44.212 -49.042  1.00  0.00     0.205 C 
HETATM   33  O4  UNL     1       2.108  43.430 -48.176  1.00  0.00    -0.646 OA
HETATM   34  O5  UNL     1       0.316  44.321 -49.272  1.00  0.00    -0.646 OA
ENDBRANCH  27  32
ENDBRANCH  26  27
ENDBRANCH  24  26
ENDBRANCH  23  24
ENDBRANCH  10  23
BRANCH   7  35
HETATM   35  O1  UNL     1       4.323  49.703 -47.446  1.00  0.00    -0.394 OA
ATOM     36  H1  UNL     1       4.597  48.959 -47.969  1.00  0.00     0.210 HD
ENDBRANCH   7  35
BRANCH  12  37
HETATM   37  C20 UNL     1       0.520  49.245 -52.836  1.00  0.00     0.157 C 
BRANCH  37  38
HETATM   38  O6  UNL     1       0.990  50.174 -53.820  1.00  0.00    -0.392 OA
ATOM     39  H6  UNL     1       0.259  50.271 -54.420  1.00  0.00     0.210 HD
ENDBRANCH  37  38
BRANCH  37  40
HETATM   40  C21 UNL     1       1.145  47.955 -53.189  1.00  0.00     0.178 C 
BRANCH  40  41
HETATM   41  O7  UNL     1       0.705  46.874 -52.360  1.00  0.00    -0.390 OA
ATOM     42  H7  UNL     1       0.585  46.063 -52.839  1.00  0.00     0.210 HD
ENDBRANCH  40  41
BRANCH  40  43
HETATM   43  C22 UNL     1       0.917  47.488 -54.620  1.00  0.00     0.172 C 
BRANCH  43  44
HETATM   44  O8  UNL     1      -0.459  47.798 -54.878  1.00  0.00    -0.391 OA
ATOM     45  H8  UNL     1      -0.611  47.474 -55.757  1.00  0.00     0.210 HD
ENDBRANCH  43  44
BRANCH  43  46
HETATM   46  C23 UNL     1       1.000  46.015 -54.750  1.00  0.00     0.198 C 
BRANCH  46  47
HETATM   47  O9  UNL     1       2.292  45.671 -54.202  1.00  0.00    -0.398 OA
ATOM     48  H9  UNL     1       2.917  46.006 -54.834  1.00  0.00     0.209 HD
ENDBRANCH  46  47
ENDBRANCH  43  46
ENDBRANCH  40  43
ENDBRANCH  37  40
ENDBRANCH  12  37
BRANCH  22  49
HETATM   49  O10 UNL     1       3.347  57.361 -46.015  1.00  0.00    -0.393 OA
ATOM     50  H10 UNL     1       4.272  57.397 -46.227  1.00  0.00     0.210 HD
ENDBRANCH  22  49
BRANCH   1  51
HETATM   51  N1  UNL     1       1.693  56.988 -43.760  1.00  0.00    -0.068 N 
ATOM     52  H12 UNL     1       1.876  57.951 -44.041  1.00  0.00     0.277 HD
ATOM     53  H11 UNL     1       2.546  56.798 -43.234  1.00  0.00     0.277 HD
BRANCH  51  54
HETATM   54  C3  UNL     1       0.550  56.922 -42.903  1.00  0.00     0.232 C 
BRANCH  54  55
HETATM   55  C2  UNL     1       1.067  57.101 -41.476  1.00  0.00     0.023 C 
HETATM   56  C1  UNL     1       2.510  56.745 -41.368  1.00  0.00     0.007 C 
ENDBRANCH  54  55
ENDBRANCH  51  54
ENDBRANCH   1  51
TORSDOF 19
ENDMDL
MODEL 3
REMARK VINA RESULT: -6.807600766      2.598      3.240
REMARK  19 active torsions:
REMARK  status: ('A' for Active; 'I' for Inactive)
REMARK    1  A    between atoms: C2_2  and  C3_3 
REMARK    2  A    between atoms: C3_3  and  N1_4 
REMARK    3  A    between atoms: N1_4  and  C4_7 
REMARK    4  A    between atoms: C10_13  and  O1_14 
REMARK    5  A    between atoms: C13_18  and  O2_19 
REMARK    6  A    between atoms: O2_19  and  C14_20 
REMARK    7  A    between atoms: C14_20  and  C15_22 
REMARK    8  A    between atoms: C15_22  and  C16_23 
REMARK    9  A    between atoms: C16_23  and  N2_24 
REMARK   10  A    between atoms: C16_23  and  C17_28 
REMARK   11  A    between atoms: C19_32  and  C20_33 
REMARK   12  A    between atoms: C20_33  and  O6_34 
REMARK   13  A    between atoms: C20_33  and  C21_36 
REMARK   14  A    between atoms: C21_36  and  O7_37 
REMARK   15  A    between atoms: C21_36  and  C22_39 
REMARK   16  A    between atoms: C22_39  and  O8_40 
REMARK   17  A    between atoms: C22_39  and  C23_42 
REMARK   18  A    between atoms: C23_42  and  O9_43 
REMARK   19  A    between atoms: C33_54  and  O10_55 
ROOT
HETATM    1  C4  UNL     1       5.786  57.394 -48.447  1.00  0.00     0.215 C 
HETATM    2  C5  UNL     1       4.928  56.678 -47.396  1.00  0.00     0.036 C 
HETATM    3  C6  UNL     1       4.425  55.417 -47.987  1.00  0.00     0.008 C 
HETATM    4  C7  UNL     1       5.526  54.449 -48.439  1.00  0.00     0.001 C 
HETATM    5  C8  UNL     1       4.811  53.196 -48.864  1.00  0.00    -0.002 C 
HETATM    6  C9  UNL     1       5.635  51.963 -48.828  1.00  0.00     0.038 C 
HETATM    7  C10 UNL     1       4.834  50.720 -49.053  1.00  0.00     0.134 C 
HETATM    8  C11 UNL     1       3.553  50.854 -49.852  1.00  0.00     0.039 C 
HETATM    9  C12 UNL     1       2.466  51.182 -48.847  1.00  0.00     0.026 C 
HETATM   10  C13 UNL     1       3.363  49.540 -50.503  1.00  0.00     0.065 C 
HETATM   11  C18 UNL     1       2.396  49.278 -51.559  1.00  0.00     0.014 C 
HETATM   12  C19 UNL     1       1.336  50.275 -51.944  1.00  0.00     0.042 C 
HETATM   13  C24 UNL     1       1.868  51.493 -52.567  1.00  0.00     0.012 C 
HETATM   14  C25 UNL     1       2.381  52.381 -51.464  1.00  0.00     0.011 C 
HETATM   15  C26 UNL     1       3.671  52.019 -50.817  1.00  0.00    -0.024 C 
HETATM   16  C27 UNL     1       4.626  51.699 -51.957  1.00  0.00     0.017 C 
HETATM   17  C28 UNL     1       4.128  53.305 -50.172  1.00  0.00    -0.001 C 
HETATM   18  C29 UNL     1       4.932  54.095 -51.175  1.00  0.00     0.007 C 
HETATM   19  C30 UNL     1       5.461  55.403 -50.641  1.00  0.00     0.012 C 
HETATM   20  C31 UNL     1       6.350  55.139 -49.448  1.00  0.00    -0.012 C 
HETATM   21  C32 UNL     1       7.629  54.424 -49.821  1.00  0.00     0.018 C 
HETATM   22  C33 UNL     1       6.836  56.447 -48.858  1.00  0.00     0.157 C 
ENDROOT
BRANCH  10  23
HETATM   23  O2  UNL     1       3.354  48.523 -49.481  1.00  0.00    -0.283 OA
BRANCH  23  24
HETATM   24  C14 UNL     1       3.307  47.196 -49.627  1.00  0.00     0.266 C 
HETATM   25  O3  UNL     1       4.163  46.712 -50.385  1.00  0.00    -0.265 OA
BRANCH  24  26
HETATM   26  C15 UNL     1       2.342  46.286 -48.972  1.00  0.00     0.155 C 
BRANCH  26  27
HETATM   27  C16 UNL     1       2.022  45.091 -49.851  1.00  0.00     0.292 C 
BRANCH  27  28
HETATM   28  N2  UNL     1       1.279  45.452 -51.016  1.00  0.00    -0.065 N 
ATOM     29  H23 UNL     1       0.838  46.365 -50.902  1.00  0.00     0.275 HD
ATOM     30  H22 UNL     1       1.901  45.668 -51.795  1.00  0.00     0.275 HD
ATOM     31  H21 UNL     1       0.594  44.743 -51.278  1.00  0.00     0.275 HD
ENDBRANCH  27  28
BRANCH  27  32
HETATM   32  C17 UNL     1       1.285  44.061 -49.098  1.00  0.00     0.205 C 
HETATM   33  O4  UNL     1       0.044  44.149 -48.999  1.00  0.00    -0.646 OA
HETATM   34  O5  UNL     1       1.966  43.018 -48.515  1.00  0.00    -0.646 OA
ENDBRANCH  27  32
ENDBRANCH  26  27
ENDBRANCH  24  26
ENDBRANCH  23  24
ENDBRANCH  10  23
BRANCH   7  35
HETATM   35  O1  UNL     1       4.562  50.111 -47.798  1.00  0.00    -0.394 OA
ATOM     36  H1  UNL     1       4.908  49.226 -47.803  1.00  0.00     0.210 HD
ENDBRANCH   7  35
BRANCH  12  37
HETATM   37  C20 UNL     1       0.496  49.481 -52.974  1.00  0.00     0.157 C 
BRANCH  37  38
HETATM   38  O6  UNL     1       0.220  48.235 -52.322  1.00  0.00    -0.392 OA
ATOM     39  H6  UNL     1       0.754  48.259 -51.536  1.00  0.00     0.210 HD
ENDBRANCH  37  38
BRANCH  37  40
HETATM   40  C21 UNL     1      -0.826  50.051 -53.300  1.00  0.00     0.178 C 
BRANCH  40  41
HETATM   41  O7  UNL     1      -1.607  49.203 -54.149  1.00  0.00    -0.390 OA
ATOM     42  H7  UNL     1      -1.327  49.225 -55.056  1.00  0.00     0.210 HD
ENDBRANCH  40  41
BRANCH  40  43
HETATM   43  C22 UNL     1      -1.716  50.363 -52.106  1.00  0.00     0.172 C 
BRANCH  43  44
HETATM   44  O8  UNL     1      -2.810  49.445 -52.232  1.00  0.00    -0.391 OA
ATOM     45  H8  UNL     1      -3.295  49.547 -51.422  1.00  0.00     0.210 HD
ENDBRANCH  43  44
BRANCH  43  46
HETATM   46  C23 UNL     1      -2.339  51.704 -52.206  1.00  0.00     0.198 C 
BRANCH  46  47
HETATM   47  O9  UNL     1      -2.439  51.956 -53.625  1.00  0.00    -0.398 OA
ATOM     48  H9  UNL     1      -2.903  52.783 -53.689  1.00  0.00     0.209 HD
ENDBRANCH  46  47
ENDBRANCH  43  46
ENDBRANCH  40  43
ENDBRANCH  37  40
ENDBRANCH  12  37
BRANCH  22  49
HETATM   49  O10 UNL     1       7.780  57.011 -49.716  1.00  0.00    -0.393 OA
ATOM     50  H10 UNL     1       8.640  56.615 -49.639  1.00  0.00     0.210 HD
ENDBRANCH  22  49
BRANCH   1  51
HETATM   51  N1  UNL     1       6.423  58.483 -47.729  1.00  0.00    -0.068 N 
ATOM     52  H12 UNL     1       5.872  59.337 -47.811  1.00  0.00     0.277 HD
ATOM     53  H11 UNL     1       7.272  58.780 -48.209  1.00  0.00     0.277 HD
BRANCH  51  54
HETATM   54  C3  UNL     1       6.698  58.193 -46.355  1.00  0.00     0.232 C 
BRANCH  54  55
HETATM   55  C2  UNL     1       7.956  58.980 -45.990  1.00  0.00     0.023 C 
HETATM   56  C1  UNL     1       8.807  59.239 -47.186  1.00  0.00     0.007 C 
ENDBRANCH  54  55
ENDBRANCH  51  54
ENDBRANCH   1  51
TORSDOF 19
ENDMDL
MODEL 4
REMARK VINA RESULT: -6.783655773      2.610      3.211
REMARK  19 active torsions:
REMARK  status: ('A' for Active; 'I' for Inactive)
REMARK    1  A    between atoms: C2_2  and  C3_3 
REMARK    2  A    between atoms: C3_3  and  N1_4 
REMARK    3  A    between atoms: N1_4  and  C4_7 
REMARK    4  A    between atoms: C10_13  and  O1_14 
REMARK    5  A    between atoms: C13_18  and  O2_19 
REMARK    6  A    between atoms: O2_19  and  C14_20 
REMARK    7  A    between atoms: C14_20  and  C15_22 
REMARK    8  A    between atoms: C15_22  and  C16_23 
REMARK    9  A    between atoms: C16_23  and  N2_24 
REMARK   10  A    between atoms: C16_23  and  C17_28 
REMARK   11  A    between atoms: C19_32  and  C20_33 
REMARK   12  A    between atoms: C20_33  and  O6_34 
REMARK   13  A    between atoms: C20_33  and  C21_36 
REMARK   14  A    between atoms: C21_36  and  O7_37 
REMARK   15  A    between atoms: C21_36  and  C22_39 
REMARK   16  A    between atoms: C22_39  and  O8_40 
REMARK   17  A    between atoms: C22_39  and  C23_42 
REMARK   18  A    between atoms: C23_42  and  O9_43 
REMARK   19  A    between atoms: C33_54  and  O10_55 
ROOT
HETATM    1  C4  UNL     1       5.846  57.352 -48.375  1.00  0.00     0.215 C 
HETATM    2  C5  UNL     1       5.026  56.647 -47.288  1.00  0.00     0.036 C 
HETATM    3  C6  UNL     1       4.454  55.409 -47.867  1.00  0.00     0.008 C 
HETATM    4  C7  UNL     1       5.500  54.416 -48.391  1.00  0.00     0.001 C 
HETATM    5  C8  UNL     1       4.725  53.190 -48.791  1.00  0.00    -0.002 C 
HETATM    6  C9  UNL     1       5.514  51.933 -48.816  1.00  0.00     0.038 C 
HETATM    7  C10 UNL     1       4.665  50.718 -49.013  1.00  0.00     0.134 C 
HETATM    8  C11 UNL     1       3.347  50.900 -49.738  1.00  0.00     0.039 C 
HETATM    9  C12 UNL     1       2.327  51.245 -48.671  1.00  0.00     0.026 C 
HETATM   10  C13 UNL     1       3.083  49.601 -50.394  1.00  0.00     0.065 C 
HETATM   11  C18 UNL     1       2.052  49.383 -51.398  1.00  0.00     0.014 C 
HETATM   12  C19 UNL     1       1.002  50.415 -51.712  1.00  0.00     0.042 C 
HETATM   13  C24 UNL     1       1.535  51.626 -52.347  1.00  0.00     0.012 C 
HETATM   14  C25 UNL     1       2.134  52.483 -51.263  1.00  0.00     0.011 C 
HETATM   15  C26 UNL     1       3.446  52.075 -50.693  1.00  0.00    -0.024 C 
HETATM   16  C27 UNL     1       4.327  51.744 -51.888  1.00  0.00     0.017 C 
HETATM   17  C28 UNL     1       3.976  53.338 -50.058  1.00  0.00    -0.001 C 
HETATM   18  C29 UNL     1       4.747  54.119 -51.094  1.00  0.00     0.007 C 
HETATM   19  C30 UNL     1       5.343  55.403 -50.574  1.00  0.00     0.012 C 
HETATM   20  C31 UNL     1       6.288  55.097 -49.435  1.00  0.00    -0.012 C 
HETATM   21  C32 UNL     1       7.523  54.350 -49.887  1.00  0.00     0.018 C 
HETATM   22  C33 UNL     1       6.844  56.381 -48.856  1.00  0.00     0.157 C 
ENDROOT
BRANCH  10  23
HETATM   23  O2  UNL     1       3.099  48.571 -49.387  1.00  0.00    -0.283 OA
BRANCH  23  24
HETATM   24  C14 UNL     1       3.188  47.248 -49.549  1.00  0.00     0.266 C 
HETATM   25  O3  UNL     1       4.053  46.866 -50.354  1.00  0.00    -0.265 OA
BRANCH  24  26
HETATM   26  C15 UNL     1       2.359  46.233 -48.863  1.00  0.00     0.155 C 
BRANCH  26  27
HETATM   27  C16 UNL     1       2.007  45.085 -49.789  1.00  0.00     0.292 C 
BRANCH  27  28
HETATM   28  N2  UNL     1       1.293  45.517 -50.949  1.00  0.00    -0.065 N 
ATOM     29  H23 UNL     1       0.906  46.451 -50.815  1.00  0.00     0.275 HD
ATOM     30  H22 UNL     1       1.932  45.714 -51.720  1.00  0.00     0.275 HD
ATOM     31  H21 UNL     1       0.570  44.856 -51.231  1.00  0.00     0.275 HD
ENDBRANCH  27  28
BRANCH  27  32
HETATM   32  C17 UNL     1       1.222  44.056 -49.086  1.00  0.00     0.205 C 
HETATM   33  O4  UNL     1      -0.018  44.177 -49.013  1.00  0.00    -0.646 OA
HETATM   34  O5  UNL     1       1.859  42.977 -48.516  1.00  0.00    -0.646 OA
ENDBRANCH  27  32
ENDBRANCH  26  27
ENDBRANCH  24  26
ENDBRANCH  23  24
ENDBRANCH  10  23
BRANCH   7  35
HETATM   35  O1  UNL     1       4.445  50.099 -47.753  1.00  0.00    -0.394 OA
ATOM     36  H1  UNL     1       5.133  49.463 -47.597  1.00  0.00     0.210 HD
ENDBRANCH   7  35
BRANCH  12  37
HETATM   37  C20 UNL     1       0.084  49.661 -52.704  1.00  0.00     0.157 C 
BRANCH  37  38
HETATM   38  O6  UNL     1       0.226  48.282 -52.339  1.00  0.00    -0.392 OA
ATOM     39  H6  UNL     1      -0.633  47.908 -52.499  1.00  0.00     0.210 HD
ENDBRANCH  37  38
BRANCH  37  40
HETATM   40  C21 UNL     1      -1.359  49.947 -52.588  1.00  0.00     0.178 C 
BRANCH  40  41
HETATM   41  O7  UNL     1      -1.695  50.656 -51.390  1.00  0.00    -0.390 OA
ATOM     42  H7  UNL     1      -1.908  51.568 -51.545  1.00  0.00     0.210 HD
ENDBRANCH  40  41
BRANCH  40  43
HETATM   43  C22 UNL     1      -1.957  50.763 -53.725  1.00  0.00     0.172 C 
BRANCH  43  44
HETATM   44  O8  UNL     1      -2.206  52.050 -53.143  1.00  0.00    -0.391 OA
ATOM     45  H8  UNL     1      -1.371  52.499 -53.205  1.00  0.00     0.210 HD
ENDBRANCH  43  44
BRANCH  43  46
HETATM   46  C23 UNL     1      -3.296  50.270 -54.127  1.00  0.00     0.198 C 
BRANCH  46  47
HETATM   47  O9  UNL     1      -3.563  49.168 -53.232  1.00  0.00    -0.398 OA
ATOM     48  H9  UNL     1      -4.063  49.551 -52.522  1.00  0.00     0.209 HD
ENDBRANCH  46  47
ENDBRANCH  43  46
ENDBRANCH  40  43
ENDBRANCH  37  40
ENDBRANCH  12  37
BRANCH  22  49
HETATM   49  O10 UNL     1       7.756  56.930 -49.758  1.00  0.00    -0.393 OA
ATOM     50  H10 UNL     1       7.365  57.160 -50.592  1.00  0.00     0.210 HD
ENDBRANCH  22  49
BRANCH   1  51
HETATM   51  N1  UNL     1       6.554  58.412 -47.680  1.00  0.00    -0.068 N 
ATOM     52  H12 UNL     1       6.155  59.321 -47.913  1.00  0.00     0.277 HD
ATOM     53  H11 UNL     1       7.490  58.531 -48.067  1.00  0.00     0.277 HD
BRANCH  51  54
HETATM   54  C3  UNL     1       6.615  58.238 -46.261  1.00  0.00     0.232 C 
BRANCH  54  55
HETATM   55  C2  UNL     1       8.008  58.695 -45.829  1.00  0.00     0.023 C 
HETATM   56  C1  UNL     1       8.147  58.697 -44.345  1.00  0.00     0.007 C 
ENDBRANCH  54  55
ENDBRANCH  51  54
ENDBRANCH   1  51
TORSDOF 19
ENDMDL
MODEL 5
REMARK VINA RESULT: -6.778689082      1.276      1.622
REMARK  19 active torsions:
REMARK  status: ('A' for Active; 'I' for Inactive)
REMARK    1  A    between atoms: C2_2  and  C3_3 
REMARK    2  A    between atoms: C3_3  and  N1_4 
REMARK    3  A    between atoms: N1_4  and  C4_7 
REMARK    4  A    between atoms: C10_13  and  O1_14 
REMARK    5  A    between atoms: C13_18  and  O2_19 
REMARK    6  A    between atoms: O2_19  and  C14_20 
REMARK    7  A    between atoms: C14_20  and  C15_22 
REMARK    8  A    between atoms: C15_22  and  C16_23 
REMARK    9  A    between atoms: C16_23  and  N2_24 
REMARK   10  A    between atoms: C16_23  and  C17_28 
REMARK   11  A    between atoms: C19_32  and  C20_33 
REMARK   12  A    between atoms: C20_33  and  O6_34 
REMARK   13  A    between atoms: C20_33  and  C21_36 
REMARK   14  A    between atoms: C21_36  and  O7_37 
REMARK   15  A    between atoms: C21_36  and  C22_39 
REMARK   16  A    between atoms: C22_39  and  O8_40 
REMARK   17  A    between atoms: C22_39  and  C23_42 
REMARK   18  A    between atoms: C23_42  and  O9_43 
REMARK   19  A    between atoms: C33_54  and  O10_55 
ROOT
HETATM    1  C4  UNL     1       3.855  56.664 -45.779  1.00  0.00     0.215 C 
HETATM    2  C5  UNL     1       3.147  55.524 -45.037  1.00  0.00     0.036 C 
HETATM    3  C6  UNL     1       2.842  54.453 -46.013  1.00  0.00     0.008 C 
HETATM    4  C7  UNL     1       4.076  53.868 -46.712  1.00  0.00     0.001 C 
HETATM    5  C8  UNL     1       3.564  52.717 -47.535  1.00  0.00    -0.002 C 
HETATM    6  C9  UNL     1       4.578  51.684 -47.864  1.00  0.00     0.038 C 
HETATM    7  C10 UNL     1       3.984  50.466 -48.497  1.00  0.00     0.134 C 
HETATM    8  C11 UNL     1       2.683  50.640 -49.254  1.00  0.00     0.039 C 
HETATM    9  C12 UNL     1       1.578  50.454 -48.232  1.00  0.00     0.026 C 
HETATM   10  C13 UNL     1       2.695  49.588 -50.293  1.00  0.00     0.065 C 
HETATM   11  C18 UNL     1       1.761  49.524 -51.408  1.00  0.00     0.014 C 
HETATM   12  C19 UNL     1       0.546  50.409 -51.491  1.00  0.00     0.042 C 
HETATM   13  C24 UNL     1       0.861  51.830 -51.679  1.00  0.00     0.012 C 
HETATM   14  C25 UNL     1       1.246  52.391 -50.336  1.00  0.00     0.011 C 
HETATM   15  C26 UNL     1       2.590  52.054 -49.796  1.00  0.00    -0.024 C 
HETATM   16  C27 UNL     1       3.561  52.270 -50.947  1.00  0.00     0.017 C 
HETATM   17  C28 UNL     1       2.847  53.125 -48.763  1.00  0.00    -0.001 C 
HETATM   18  C29 UNL     1       3.492  54.311 -49.437  1.00  0.00     0.007 C 
HETATM   19  C30 UNL     1       3.812  55.448 -48.500  1.00  0.00     0.012 C 
HETATM   20  C31 UNL     1       4.757  54.965 -47.424  1.00  0.00    -0.012 C 
HETATM   21  C32 UNL     1       6.127  54.619 -47.963  1.00  0.00     0.018 C 
HETATM   22  C33 UNL     1       5.037  56.077 -46.435  1.00  0.00     0.157 C 
ENDROOT
BRANCH  10  23
HETATM   23  O2  UNL     1       2.871  48.312 -49.646  1.00  0.00    -0.283 OA
BRANCH  23  24
HETATM   24  C14 UNL     1       3.106  47.121 -50.204  1.00  0.00     0.266 C 
HETATM   25  O3  UNL     1       4.225  46.987 -50.723  1.00  0.00    -0.265 OA
BRANCH  24  26
HETATM   26  C15 UNL     1       2.161  45.984 -50.247  1.00  0.00     0.155 C 
BRANCH  26  27
HETATM   27  C16 UNL     1       2.608  44.855 -49.337  1.00  0.00     0.292 C 
BRANCH  27  28
HETATM   28  N2  UNL     1       3.631  44.051 -49.926  1.00  0.00    -0.065 N 
ATOM     29  H23 UNL     1       3.964  43.343 -49.271  1.00  0.00     0.275 HD
ATOM     30  H22 UNL     1       3.248  43.439 -50.647  1.00  0.00     0.275 HD
ATOM     31  H21 UNL     1       4.405  44.608 -50.290  1.00  0.00     0.275 HD
ENDBRANCH  27  28
BRANCH  27  32
HETATM   32  C17 UNL     1       1.472  44.000 -48.954  1.00  0.00     0.205 C 
HETATM   33  O4  UNL     1       1.690  42.926 -48.358  1.00  0.00    -0.646 OA
HETATM   34  O5  UNL     1       0.187  44.390 -49.254  1.00  0.00    -0.646 OA
ENDBRANCH  27  32
ENDBRANCH  26  27
ENDBRANCH  24  26
ENDBRANCH  23  24
ENDBRANCH  10  23
BRANCH   7  35
HETATM   35  O1  UNL     1       3.841  49.456 -47.509  1.00  0.00    -0.394 OA
ATOM     36  H1  UNL     1       2.940  49.444 -47.207  1.00  0.00     0.210 HD
ENDBRANCH   7  35
BRANCH  12  37
HETATM   37  C20 UNL     1      -0.175  49.859 -52.747  1.00  0.00     0.157 C 
BRANCH  37  38
HETATM   38  O6  UNL     1       0.131  48.459 -52.747  1.00  0.00    -0.392 OA
ATOM     39  H6  UNL     1      -0.305  48.124 -53.521  1.00  0.00     0.210 HD
ENDBRANCH  37  38
BRANCH  37  40
HETATM   40  C21 UNL     1      -1.649  49.935 -52.725  1.00  0.00     0.178 C 
BRANCH  40  41
HETATM   41  O7  UNL     1      -2.161  50.539 -51.532  1.00  0.00    -0.390 OA
ATOM     42  H7  UNL     1      -1.775  51.387 -51.349  1.00  0.00     0.210 HD
ENDBRANCH  40  41
BRANCH  40  43
HETATM   43  C22 UNL     1      -2.282  50.704 -53.875  1.00  0.00     0.172 C 
BRANCH  43  44
HETATM   44  O8  UNL     1      -2.571  51.994 -53.320  1.00  0.00    -0.391 OA
ATOM     45  H8  UNL     1      -2.274  51.933 -52.420  1.00  0.00     0.210 HD
ENDBRANCH  43  44
BRANCH  43  46
HETATM   46  C23 UNL     1      -3.605  50.156 -54.257  1.00  0.00     0.198 C 
BRANCH  46  47
HETATM   47  O9  UNL     1      -3.790  49.013 -53.393  1.00  0.00    -0.398 OA
ATOM     48  H9  UNL     1      -4.725  48.985 -53.229  1.00  0.00     0.209 HD
ENDBRANCH  46  47
ENDBRANCH  43  46
ENDBRANCH  40  43
ENDBRANCH  37  40
ENDBRANCH  12  37
BRANCH  22  49
HETATM   49  O10 UNL     1       5.859  57.028 -47.039  1.00  0.00    -0.393 OA
ATOM     50  H10 UNL     1       6.780  56.799 -47.011  1.00  0.00     0.210 HD
ENDBRANCH  22  49
BRANCH   1  51
HETATM   51  N1  UNL     1       4.322  57.556 -44.733  1.00  0.00    -0.068 N 
ATOM     52  H12 UNL     1       4.902  58.297 -45.127  1.00  0.00     0.277 HD
ATOM     53  H11 UNL     1       5.014  57.090 -44.147  1.00  0.00     0.277 HD
BRANCH  51  54
HETATM   54  C3  UNL     1       3.276  58.110 -43.930  1.00  0.00     0.232 C 
BRANCH  54  55
HETATM   55  C2  UNL     1       3.859  58.303 -42.531  1.00  0.00     0.023 C 
HETATM   56  C1  UNL     1       3.119  57.504 -41.514  1.00  0.00     0.007 C 
ENDBRANCH  54  55
ENDBRANCH  51  54
ENDBRANCH   1  51
TORSDOF 19
ENDMDL
