MODEL 1
REMARK VINA RESULT: -5.188445311      0.000      0.000
REMARK  19 active torsions:
REMARK  status: ('A' for Active; 'I' for Inactive)
REMARK       I    between atoms: N1_2  and  C2_4 
REMARK    1  A    between atoms: C2_4  and  C3_6 
REMARK    2  A    between atoms: C5_8  and  C6_9 
REMARK    3  A    between atoms: C6_9  and  O2_10 
REMARK    4  A    between atoms: C6_9  and  O3_12 
REMARK    5  A    between atoms: O3_12  and  C7_13 
REMARK    6  A    between atoms: C8_14  and  C9_15 
REMARK    7  A    between atoms: C9_15  and  C10_16 
REMARK    8  A    between atoms: C10_16  and  C11_17 
REMARK    9  A    between atoms: C11_17  and  C12_18 
REMARK   10  A    between atoms: C12_18  and  C13_19 
REMARK   11  A    between atoms: C13_19  and  C14_20 
REMARK   12  A    between atoms: C14_20  and  C15_21 
REMARK   13  A    between atoms: C15_21  and  C16_22 
REMARK   14  A    between atoms: C16_22  and  C17_23 
REMARK   15  A    between atoms: C17_23  and  O4_24 
REMARK   16  A    between atoms: C22_31  and  C23_32 
REMARK   17  A    between atoms: C25_34  and  N2_35 
REMARK       I    between atoms: N2_35  and  C26_37 
REMARK   18  A    between atoms: C26_37  and  C27_39 
REMARK   19  A    between atoms: C27_39  and  O7_40 
ROOT
HETATM    1  C7  UNL     1      55.452  21.297 -14.191  1.00  0.00     0.162 C 
HETATM    2  C8  UNL     1      54.703  22.563 -13.863  1.00  0.00     0.152 C 
HETATM    3  O5  UNL     1      53.663  22.904 -14.636  1.00  0.00    -0.372 OA
HETATM    4  C18 UNL     1      53.096  21.992 -15.466  1.00  0.00     0.066 C 
HETATM    5  C19 UNL     1      51.878  21.303 -14.854  1.00  0.00     0.047 C 
HETATM    6  C20 UNL     1      52.566  22.778 -16.656  1.00  0.00     0.023 C 
HETATM    7  C21 UNL     1      51.298  23.509 -16.357  1.00  0.00     0.013 C 
HETATM    8  C22 UNL     1      52.457  21.729 -17.710  1.00  0.00     0.022 C 
HETATM    9  C30 UNL     1      53.786  21.016 -17.578  1.00  0.00     0.016 C 
HETATM   10  C31 UNL     1      54.010  21.011 -16.098  1.00  0.00     0.031 C 
HETATM   11  C32 UNL     1      55.447  21.185 -15.703  1.00  0.00    -0.013 C 
HETATM   12  C33 UNL     1      56.093  22.412 -16.290  1.00  0.00     0.018 C 
HETATM   13  C34 UNL     1      56.205  20.001 -16.226  1.00  0.00     0.018 C 
ENDROOT
BRANCH   8  14
HETATM   14  C23 UNL     1      52.353  22.308 -19.105  1.00  0.00     0.139 C 
HETATM   15  C24 UNL     1      53.674  22.099 -19.795  1.00  0.00     0.068 C 
HETATM   16  C25 UNL     1      53.334  21.341 -21.042  1.00  0.00     0.186 C 
HETATM   17  C29 UNL     1      52.016  20.751 -20.717  1.00  0.00     0.282 C 
HETATM   18  O8  UNL     1      51.535  19.642 -21.115  1.00  0.00    -0.263 OA
HETATM   19  O9  UNL     1      51.379  21.651 -19.874  1.00  0.00    -0.314 OA
BRANCH  16  20
HETATM   20  N2  UNL     1      53.277  22.175 -22.231  1.00  0.00    -0.345 N 
HETATM   21  C26 UNL     1      54.077  21.999 -23.354  1.00  0.00     0.242 C 
HETATM   22  O6  UNL     1      54.912  21.047 -23.367  1.00  0.00    -0.271 OA
ATOM     23  H2  UNL     1      52.605  22.941 -22.242  1.00  0.00     0.163 HD
BRANCH  21  24
HETATM   24  C27 UNL     1      54.004  22.853 -24.536  1.00  0.00     0.269 C 
BRANCH  24  25
HETATM   25  O7  UNL     1      55.184  23.515 -24.778  1.00  0.00    -0.387 OA
HETATM   26  C28 UNL     1      55.400  24.550 -23.911  1.00  0.00     0.202 C 
ENDBRANCH  24  25
ENDBRANCH  21  24
ENDBRANCH  16  20
ENDBRANCH   8  14
BRANCH   2  27
HETATM   27  C9  UNL     1      54.272  22.651 -12.414  1.00  0.00     0.034 C 
BRANCH  27  28
HETATM   28  C10 UNL     1      55.355  23.452 -11.682  1.00  0.00     0.002 C 
BRANCH  28  29
HETATM   29  C11 UNL     1      56.039  24.456 -12.535  1.00  0.00     0.000 C 
BRANCH  29  30
HETATM   30  C12 UNL     1      56.460  25.665 -11.726  1.00  0.00     0.000 C 
BRANCH  30  31
HETATM   31  C13 UNL     1      57.161  26.699 -12.540  1.00  0.00     0.000 C 
BRANCH  31  32
HETATM   32  C14 UNL     1      57.091  26.454 -14.041  1.00  0.00     0.000 C 
BRANCH  32  33
HETATM   33  C15 UNL     1      56.193  27.440 -14.704  1.00  0.00     0.002 C 
BRANCH  33  34
HETATM   34  C16 UNL     1      55.663  27.095 -16.040  1.00  0.00     0.026 C 
BRANCH  34  35
HETATM   35  C17 UNL     1      54.854  25.854 -16.106  1.00  0.00     0.164 C 
BRANCH  35  36
HETATM   36  O4  UNL     1      53.871  25.798 -15.140  1.00  0.00    -0.401 OA
ATOM     37  H4  UNL     1      53.795  24.941 -14.736  1.00  0.00     0.209 HD
ENDBRANCH  35  36
ENDBRANCH  34  35
ENDBRANCH  33  34
ENDBRANCH  32  33
ENDBRANCH  31  32
ENDBRANCH  30  31
ENDBRANCH  29  30
ENDBRANCH  28  29
ENDBRANCH  27  28
ENDBRANCH   2  27
BRANCH   1  38
HETATM   38  O3  UNL     1      54.873  20.248 -13.538  1.00  0.00    -0.349 OA
BRANCH  38  39
HETATM   39  C6  UNL     1      55.752  19.308 -13.003  1.00  0.00     0.282 C 
BRANCH  39  40
HETATM   40  C5  UNL     1      55.240  17.951 -13.030  1.00  0.00     0.045 C 
HETATM   41  C3  UNL     1      54.061  17.537 -12.744  1.00  0.00     0.006 C 
HETATM   42  C4  UNL     1      53.735  16.037 -12.851  1.00  0.00     0.054 C 
BRANCH  41  43
HETATM   43  C2  UNL     1      52.948  18.341 -12.321  1.00  0.00     0.246 C 
HETATM   44  N1  UNL     1      53.098  19.181 -11.140  1.00  0.00    -0.361 N 
HETATM   45  C1  UNL     1      52.010  20.007 -10.677  1.00  0.00     0.149 C 
ATOM     46  H1  UNL     1      53.984  19.185 -10.634  1.00  0.00     0.162 HD
HETATM   47  O1  UNL     1      51.819  18.421 -12.851  1.00  0.00    -0.268 OA
ENDBRANCH  41  43
ENDBRANCH  39  40
BRANCH  39  48
HETATM   48  O2  UNL     1      56.038  19.619 -11.655  1.00  0.00    -0.368 OA
ATOM     49  H2  UNL     1      55.442  20.312 -11.395  1.00  0.00     0.213 HD
ENDBRANCH  39  48
ENDBRANCH  38  39
ENDBRANCH   1  38
TORSDOF 19
ENDMDL
MODEL 2
REMARK VINA RESULT: -5.054382481      3.719     11.512
REMARK  19 active torsions:
REMARK  status: ('A' for Active; 'I' for Inactive)
REMARK       I    between atoms: N1_2  and  C2_4 
REMARK    1  A    between atoms: C2_4  and  C3_6 
REMARK    2  A    between atoms: C5_8  and  C6_9 
REMARK    3  A    between atoms: C6_9  and  O2_10 
REMARK    4  A    between atoms: C6_9  and  O3_12 
REMARK    5  A    between atoms: O3_12  and  C7_13 
REMARK    6  A    between atoms: C8_14  and  C9_15 
REMARK    7  A    between atoms: C9_15  and  C10_16 
REMARK    8  A    between atoms: C10_16  and  C11_17 
REMARK    9  A    between atoms: C11_17  and  C12_18 
REMARK   10  A    between atoms: C12_18  and  C13_19 
REMARK   11  A    between atoms: C13_19  and  C14_20 
REMARK   12  A    between atoms: C14_20  and  C15_21 
REMARK   13  A    between atoms: C15_21  and  C16_22 
REMARK   14  A    between atoms: C16_22  and  C17_23 
REMARK   15  A    between atoms: C17_23  and  O4_24 
REMARK   16  A    between atoms: C22_31  and  C23_32 
REMARK   17  A    between atoms: C25_34  and  N2_35 
REMARK       I    between atoms: N2_35  and  C26_37 
REMARK   18  A    between atoms: C26_37  and  C27_39 
REMARK   19  A    between atoms: C27_39  and  O7_40 
ROOT
HETATM    1  C7  UNL     1      53.641  21.204 -24.532  1.00  0.00     0.162 C 
HETATM    2  C8  UNL     1      52.385  20.467 -24.149  1.00  0.00     0.152 C 
HETATM    3  O5  UNL     1      51.744  20.840 -23.032  1.00  0.00    -0.372 OA
HETATM    4  C18 UNL     1      52.017  22.037 -22.453  1.00  0.00     0.066 C 
HETATM    5  C19 UNL     1      51.049  23.140 -22.877  1.00  0.00     0.047 C 
HETATM    6  C20 UNL     1      51.789  21.844 -20.961  1.00  0.00     0.023 C 
HETATM    7  C21 UNL     1      50.342  21.829 -20.587  1.00  0.00     0.013 C 
HETATM    8  C22 UNL     1      52.583  22.958 -20.368  1.00  0.00     0.022 C 
HETATM    9  C30 UNL     1      53.883  22.856 -21.136  1.00  0.00     0.016 C 
HETATM   10  C31 UNL     1      53.423  22.500 -22.515  1.00  0.00     0.031 C 
HETATM   11  C32 UNL     1      54.338  21.552 -23.231  1.00  0.00    -0.013 C 
HETATM   12  C33 UNL     1      54.617  20.284 -22.468  1.00  0.00     0.018 C 
HETATM   13  C34 UNL     1      55.655  22.247 -23.416  1.00  0.00     0.018 C 
ENDROOT
BRANCH   8  14
HETATM   14  C23 UNL     1      52.869  22.755 -18.896  1.00  0.00     0.139 C 
HETATM   15  C24 UNL     1      53.749  21.542 -18.757  1.00  0.00     0.068 C 
HETATM   16  C25 UNL     1      54.956  22.032 -18.017  1.00  0.00     0.186 C 
HETATM   17  C29 UNL     1      54.914  23.492 -18.254  1.00  0.00     0.282 C 
HETATM   18  O8  UNL     1      55.894  24.298 -18.359  1.00  0.00    -0.263 OA
HETATM   19  O9  UNL     1      53.573  23.838 -18.344  1.00  0.00    -0.314 OA
BRANCH  16  20
HETATM   20  N2  UNL     1      54.939  21.711 -16.600  1.00  0.00    -0.345 N 
HETATM   21  C26 UNL     1      55.720  20.727 -16.006  1.00  0.00     0.242 C 
HETATM   22  O6  UNL     1      56.516  20.058 -16.730  1.00  0.00    -0.271 OA
ATOM     23  H2  UNL     1      54.310  22.244 -16.000  1.00  0.00     0.163 HD
BRANCH  21  24
HETATM   24  C27 UNL     1      55.682  20.420 -14.579  1.00  0.00     0.269 C 
BRANCH  24  25
HETATM   25  O7  UNL     1      56.089  19.136 -14.308  1.00  0.00    -0.387 OA
HETATM   26  C28 UNL     1      55.468  18.600 -13.214  1.00  0.00     0.202 C 
ENDBRANCH  24  25
ENDBRANCH  21  24
ENDBRANCH  16  20
ENDBRANCH   8  14
BRANCH   2  27
HETATM   27  C9  UNL     1      51.373  20.373 -25.271  1.00  0.00     0.034 C 
BRANCH  27  28
HETATM   28  C10 UNL     1      51.851  19.252 -26.202  1.00  0.00     0.002 C 
BRANCH  28  29
HETATM   29  C11 UNL     1      52.340  18.046 -25.486  1.00  0.00     0.000 C 
BRANCH  29  30
HETATM   30  C12 UNL     1      53.600  17.504 -26.128  1.00  0.00     0.000 C 
BRANCH  30  31
HETATM   31  C13 UNL     1      54.828  17.776 -25.327  1.00  0.00     0.000 C 
BRANCH  31  32
HETATM   32  C14 UNL     1      55.928  16.741 -25.512  1.00  0.00     0.000 C 
BRANCH  32  33
HETATM   33  C15 UNL     1      56.695  16.541 -24.252  1.00  0.00     0.002 C 
BRANCH  33  34
HETATM   34  C16 UNL     1      56.745  17.664 -23.293  1.00  0.00     0.026 C 
BRANCH  34  35
HETATM   35  C17 UNL     1      56.994  17.289 -21.880  1.00  0.00     0.164 C 
BRANCH  35  36
HETATM   36  O4  UNL     1      58.334  17.279 -21.553  1.00  0.00    -0.401 OA
ATOM     37  H4  UNL     1      58.566  17.943 -20.913  1.00  0.00     0.209 HD
ENDBRANCH  35  36
ENDBRANCH  34  35
ENDBRANCH  33  34
ENDBRANCH  32  33
ENDBRANCH  31  32
ENDBRANCH  30  31
ENDBRANCH  29  30
ENDBRANCH  28  29
ENDBRANCH  27  28
ENDBRANCH   2  27
BRANCH   1  38
HETATM   38  O3  UNL     1      53.316  22.276 -25.312  1.00  0.00    -0.349 OA
BRANCH  38  39
HETATM   39  C6  UNL     1      54.020  22.391 -26.509  1.00  0.00     0.282 C 
BRANCH  39  40
HETATM   40  C5  UNL     1      54.977  21.322 -26.725  1.00  0.00     0.045 C 
HETATM   41  C3  UNL     1      55.656  21.060 -27.781  1.00  0.00     0.006 C 
HETATM   42  C4  UNL     1      56.627  19.866 -27.783  1.00  0.00     0.054 C 
BRANCH  41  43
HETATM   43  C2  UNL     1      55.625  21.780 -29.023  1.00  0.00     0.246 C 
HETATM   44  N1  UNL     1      56.368  23.030 -29.128  1.00  0.00    -0.361 N 
HETATM   45  C1  UNL     1      56.369  23.787 -30.355  1.00  0.00     0.149 C 
ATOM     46  H1  UNL     1      56.892  23.372 -28.323  1.00  0.00     0.162 HD
HETATM   47  O1  UNL     1      55.023  21.467 -30.072  1.00  0.00    -0.268 OA
ENDBRANCH  41  43
ENDBRANCH  39  40
BRANCH  39  48
HETATM   48  O2  UNL     1      54.740  23.606 -26.537  1.00  0.00    -0.368 OA
ATOM     49  H2  UNL     1      55.406  23.554 -25.861  1.00  0.00     0.213 HD
ENDBRANCH  39  48
ENDBRANCH  38  39
ENDBRANCH   1  38
TORSDOF 19
ENDMDL
MODEL 3
REMARK VINA RESULT: -5.013834962      2.638      9.070
REMARK  19 active torsions:
REMARK  status: ('A' for Active; 'I' for Inactive)
REMARK       I    between atoms: N1_2  and  C2_4 
REMARK    1  A    between atoms: C2_4  and  C3_6 
REMARK    2  A    between atoms: C5_8  and  C6_9 
REMARK    3  A    between atoms: C6_9  and  O2_10 
REMARK    4  A    between atoms: C6_9  and  O3_12 
REMARK    5  A    between atoms: O3_12  and  C7_13 
REMARK    6  A    between atoms: C8_14  and  C9_15 
REMARK    7  A    between atoms: C9_15  and  C10_16 
REMARK    8  A    between atoms: C10_16  and  C11_17 
REMARK    9  A    between atoms: C11_17  and  C12_18 
REMARK   10  A    between atoms: C12_18  and  C13_19 
REMARK   11  A    between atoms: C13_19  and  C14_20 
REMARK   12  A    between atoms: C14_20  and  C15_21 
REMARK   13  A    between atoms: C15_21  and  C16_22 
REMARK   14  A    between atoms: C16_22  and  C17_23 
REMARK   15  A    between atoms: C17_23  and  O4_24 
REMARK   16  A    between atoms: C22_31  and  C23_32 
REMARK   17  A    between atoms: C25_34  and  N2_35 
REMARK       I    between atoms: N2_35  and  C26_37 
REMARK   18  A    between atoms: C26_37  and  C27_39 
REMARK   19  A    between atoms: C27_39  and  O7_40 
ROOT
HETATM    1  C7  UNL     1      54.978  23.142 -18.264  1.00  0.00     0.162 C 
HETATM    2  C8  UNL     1      53.805  22.523 -18.980  1.00  0.00     0.152 C 
HETATM    3  O5  UNL     1      52.827  21.979 -18.243  1.00  0.00    -0.372 OA
HETATM    4  C18 UNL     1      52.723  22.265 -16.920  1.00  0.00     0.066 C 
HETATM    5  C19 UNL     1      51.741  23.399 -16.630  1.00  0.00     0.047 C 
HETATM    6  C20 UNL     1      52.124  21.028 -16.268  1.00  0.00     0.023 C 
HETATM    7  C21 UNL     1      50.654  20.895 -16.502  1.00  0.00     0.013 C 
HETATM    8  C22 UNL     1      52.524  21.193 -14.841  1.00  0.00     0.022 C 
HETATM    9  C30 UNL     1      53.985  21.569 -14.968  1.00  0.00     0.016 C 
HETATM   10  C31 UNL     1      53.993  22.448 -16.179  1.00  0.00     0.031 C 
HETATM   11  C32 UNL     1      55.217  22.290 -17.032  1.00  0.00    -0.013 C 
HETATM   12  C33 UNL     1      55.480  20.870 -17.460  1.00  0.00     0.018 C 
HETATM   13  C34 UNL     1      56.397  22.724 -16.215  1.00  0.00     0.018 C 
ENDROOT
BRANCH   8  14
HETATM   14  C23 UNL     1      52.419  19.906 -14.050  1.00  0.00     0.139 C 
HETATM   15  C24 UNL     1      53.775  19.254 -14.042  1.00  0.00     0.068 C 
HETATM   16  C25 UNL     1      54.104  19.081 -12.591  1.00  0.00     0.186 C 
HETATM   17  C29 UNL     1      53.217  20.068 -11.935  1.00  0.00     0.282 C 
HETATM   18  O8  UNL     1      53.434  20.733 -10.871  1.00  0.00    -0.263 OA
HETATM   19  O9  UNL     1      52.069  20.141 -12.710  1.00  0.00    -0.314 OA
BRANCH  16  20
HETATM   20  N2  UNL     1      53.874  17.733 -12.099  1.00  0.00    -0.345 N 
HETATM   21  C26 UNL     1      54.701  16.647 -12.363  1.00  0.00     0.242 C 
HETATM   22  O6  UNL     1      55.736  16.826 -13.071  1.00  0.00    -0.271 OA
ATOM     23  H2  UNL     1      53.050  17.572 -11.522  1.00  0.00     0.163 HD
BRANCH  21  24
HETATM   24  C27 UNL     1      54.446  15.301 -11.862  1.00  0.00     0.269 C 
BRANCH  24  25
HETATM   25  O7  UNL     1      53.426  14.674 -12.536  1.00  0.00    -0.387 OA
HETATM   26  C28 UNL     1      53.496  13.311 -12.461  1.00  0.00     0.202 C 
ENDBRANCH  24  25
ENDBRANCH  21  24
ENDBRANCH  16  20
ENDBRANCH   8  14
BRANCH   2  27
HETATM   27  C9  UNL     1      53.177  23.435 -20.011  1.00  0.00     0.034 C 
BRANCH  27  28
HETATM   28  C10 UNL     1      52.685  22.536 -21.152  1.00  0.00     0.002 C 
BRANCH  28  29
HETATM   29  C11 UNL     1      53.776  21.984 -21.993  1.00  0.00     0.000 C 
BRANCH  29  30
HETATM   30  C12 UNL     1      53.793  20.470 -21.941  1.00  0.00     0.000 C 
BRANCH  30  31
HETATM   31  C13 UNL     1      53.208  19.837 -23.157  1.00  0.00     0.000 C 
BRANCH  31  32
HETATM   32  C14 UNL     1      54.162  18.898 -23.884  1.00  0.00     0.000 C 
BRANCH  32  33
HETATM   33  C15 UNL     1      55.569  19.122 -23.453  1.00  0.00     0.002 C 
BRANCH  33  34
HETATM   34  C16 UNL     1      56.409  17.932 -23.204  1.00  0.00     0.026 C 
BRANCH  34  35
HETATM   35  C17 UNL     1      57.038  17.862 -21.864  1.00  0.00     0.164 C 
BRANCH  35  36
HETATM   36  O4  UNL     1      58.417  17.877 -21.913  1.00  0.00    -0.401 OA
ATOM     37  H4  UNL     1      58.779  17.146 -22.401  1.00  0.00     0.209 HD
ENDBRANCH  35  36
ENDBRANCH  34  35
ENDBRANCH  33  34
ENDBRANCH  32  33
ENDBRANCH  31  32
ENDBRANCH  30  31
ENDBRANCH  29  30
ENDBRANCH  28  29
ENDBRANCH  27  28
ENDBRANCH   2  27
BRANCH   1  38
HETATM   38  O3  UNL     1      54.708  24.455 -18.007  1.00  0.00    -0.349 OA
BRANCH  38  39
HETATM   39  C6  UNL     1      55.757  25.345 -18.233  1.00  0.00     0.282 C 
BRANCH  39  40
HETATM   40  C5  UNL     1      55.514  26.675 -17.710  1.00  0.00     0.045 C 
HETATM   41  C3  UNL     1      55.556  27.074 -16.492  1.00  0.00     0.006 C 
HETATM   42  C4  UNL     1      55.266  28.550 -16.165  1.00  0.00     0.054 C 
BRANCH  41  43
HETATM   43  C2  UNL     1      55.860  26.277 -15.337  1.00  0.00     0.246 C 
HETATM   44  N1  UNL     1      54.764  25.650 -14.609  1.00  0.00    -0.361 N 
HETATM   45  C1  UNL     1      55.019  24.838 -13.445  1.00  0.00     0.149 C 
ATOM     46  H1  UNL     1      53.805  25.788 -14.927  1.00  0.00     0.162 HD
HETATM   47  O1  UNL     1      56.985  26.035 -14.851  1.00  0.00    -0.268 OA
ENDBRANCH  41  43
ENDBRANCH  39  40
BRANCH  39  48
HETATM   48  O2  UNL     1      55.993  25.478 -19.619  1.00  0.00    -0.368 OA
ATOM     49  H2  UNL     1      55.896  24.615 -20.005  1.00  0.00     0.213 HD
ENDBRANCH  39  48
ENDBRANCH  38  39
ENDBRANCH   1  38
TORSDOF 19
ENDMDL
MODEL 4
REMARK VINA RESULT: -4.985340485      4.019     11.478
REMARK  19 active torsions:
REMARK  status: ('A' for Active; 'I' for Inactive)
REMARK       I    between atoms: N1_2  and  C2_4 
REMARK    1  A    between atoms: C2_4  and  C3_6 
REMARK    2  A    between atoms: C5_8  and  C6_9 
REMARK    3  A    between atoms: C6_9  and  O2_10 
REMARK    4  A    between atoms: C6_9  and  O3_12 
REMARK    5  A    between atoms: O3_12  and  C7_13 
REMARK    6  A    between atoms: C8_14  and  C9_15 
REMARK    7  A    between atoms: C9_15  and  C10_16 
REMARK    8  A    between atoms: C10_16  and  C11_17 
REMARK    9  A    between atoms: C11_17  and  C12_18 
REMARK   10  A    between atoms: C12_18  and  C13_19 
REMARK   11  A    between atoms: C13_19  and  C14_20 
REMARK   12  A    between atoms: C14_20  and  C15_21 
REMARK   13  A    between atoms: C15_21  and  C16_22 
REMARK   14  A    between atoms: C16_22  and  C17_23 
REMARK   15  A    between atoms: C17_23  and  O4_24 
REMARK   16  A    between atoms: C22_31  and  C23_32 
REMARK   17  A    between atoms: C25_34  and  N2_35 
REMARK       I    between atoms: N2_35  and  C26_37 
REMARK   18  A    between atoms: C26_37  and  C27_39 
REMARK   19  A    between atoms: C27_39  and  O7_40 
ROOT
HETATM    1  C7  UNL     1      53.347  20.098 -24.199  1.00  0.00     0.162 C 
HETATM    2  C8  UNL     1      52.334  19.167 -23.585  1.00  0.00     0.152 C 
HETATM    3  O5  UNL     1      51.714  19.554 -22.461  1.00  0.00    -0.372 OA
HETATM    4  C18 UNL     1      51.741  20.855 -22.076  1.00  0.00     0.066 C 
HETATM    5  C19 UNL     1      50.509  21.638 -22.528  1.00  0.00     0.047 C 
HETATM    6  C20 UNL     1      51.684  20.845 -20.556  1.00  0.00     0.023 C 
HETATM    7  C21 UNL     1      50.316  20.565 -20.023  1.00  0.00     0.013 C 
HETATM    8  C22 UNL     1      52.236  22.185 -20.205  1.00  0.00     0.022 C 
HETATM    9  C30 UNL     1      53.459  22.260 -21.095  1.00  0.00     0.016 C 
HETATM   10  C31 UNL     1      52.989  21.604 -22.355  1.00  0.00     0.031 C 
HETATM   11  C32 UNL     1      54.042  20.786 -23.041  1.00  0.00    -0.013 C 
HETATM   12  C33 UNL     1      54.672  19.743 -22.156  1.00  0.00     0.018 C 
HETATM   13  C34 UNL     1      55.138  21.720 -23.461  1.00  0.00     0.018 C 
ENDROOT
BRANCH   8  14
HETATM   14  C23 UNL     1      52.679  22.277 -18.760  1.00  0.00     0.139 C 
HETATM   15  C24 UNL     1      53.702  21.201 -18.519  1.00  0.00     0.068 C 
HETATM   16  C25 UNL     1      54.907  21.932 -18.009  1.00  0.00     0.186 C 
HETATM   17  C29 UNL     1      54.674  23.315 -18.481  1.00  0.00     0.282 C 
HETATM   18  O8  UNL     1      55.540  24.182 -18.827  1.00  0.00    -0.263 OA
HETATM   19  O9  UNL     1      53.300  23.505 -18.479  1.00  0.00    -0.314 OA
BRANCH  16  20
HETATM   20  N2  UNL     1      55.057  21.869 -16.565  1.00  0.00    -0.345 N 
HETATM   21  C26 UNL     1      55.812  20.914 -15.893  1.00  0.00     0.242 C 
HETATM   22  O6  UNL     1      56.426  20.035 -16.567  1.00  0.00    -0.271 OA
ATOM     23  H2  UNL     1      54.577  22.573 -16.006  1.00  0.00     0.163 HD
BRANCH  21  24
HETATM   24  C27 UNL     1      55.944  20.869 -14.440  1.00  0.00     0.269 C 
BRANCH  24  25
HETATM   25  O7  UNL     1      56.415  19.657 -13.994  1.00  0.00    -0.387 OA
HETATM   26  C28 UNL     1      55.584  19.068 -13.081  1.00  0.00     0.202 C 
ENDBRANCH  24  25
ENDBRANCH  21  24
ENDBRANCH  16  20
ENDBRANCH   8  14
BRANCH   2  27
HETATM   27  C9  UNL     1      51.287  18.680 -24.565  1.00  0.00     0.034 C 
BRANCH  27  28
HETATM   28  C10 UNL     1      51.749  17.302 -25.052  1.00  0.00     0.002 C 
BRANCH  28  29
HETATM   29  C11 UNL     1      52.306  17.308 -26.428  1.00  0.00     0.000 C 
BRANCH  29  30
HETATM   30  C12 UNL     1      53.548  16.446 -26.518  1.00  0.00     0.000 C 
BRANCH  30  31
HETATM   31  C13 UNL     1      54.569  16.782 -25.485  1.00  0.00     0.000 C 
BRANCH  31  32
HETATM   32  C14 UNL     1      55.729  15.798 -25.420  1.00  0.00     0.000 C 
BRANCH  32  33
HETATM   33  C15 UNL     1      56.870  16.364 -24.650  1.00  0.00     0.002 C 
BRANCH  33  34
HETATM   34  C16 UNL     1      56.574  17.413 -23.652  1.00  0.00     0.026 C 
BRANCH  34  35
HETATM   35  C17 UNL     1      57.007  17.118 -22.265  1.00  0.00     0.164 C 
BRANCH  35  36
HETATM   36  O4  UNL     1      58.188  17.744 -21.924  1.00  0.00    -0.401 OA
ATOM     37  H4  UNL     1      58.055  18.542 -21.426  1.00  0.00     0.209 HD
ENDBRANCH  35  36
ENDBRANCH  34  35
ENDBRANCH  33  34
ENDBRANCH  32  33
ENDBRANCH  31  32
ENDBRANCH  30  31
ENDBRANCH  29  30
ENDBRANCH  28  29
ENDBRANCH  27  28
ENDBRANCH   2  27
BRANCH   1  38
HETATM   38  O3  UNL     1      52.716  20.940 -25.069  1.00  0.00    -0.349 OA
BRANCH  38  39
HETATM   39  C6  UNL     1      53.208  20.942 -26.374  1.00  0.00     0.282 C 
BRANCH  39  40
HETATM   40  C5  UNL     1      54.507  20.311 -26.506  1.00  0.00     0.045 C 
HETATM   41  C3  UNL     1      55.053  19.820 -27.557  1.00  0.00     0.006 C 
HETATM   42  C4  UNL     1      56.458  19.200 -27.465  1.00  0.00     0.054 C 
BRANCH  41  43
HETATM   43  C2  UNL     1      54.490  19.780 -28.878  1.00  0.00     0.246 C 
HETATM   44  N1  UNL     1      54.270  18.484 -29.507  1.00  0.00    -0.361 N 
HETATM   45  C1  UNL     1      53.705  18.392 -30.831  1.00  0.00     0.149 C 
ATOM     46  H1  UNL     1      54.520  17.632 -29.006  1.00  0.00     0.162 HD
HETATM   47  O1  UNL     1      54.147  20.747 -29.591  1.00  0.00    -0.268 OA
ENDBRANCH  41  43
ENDBRANCH  39  40
BRANCH  39  48
HETATM   48  O2  UNL     1      53.337  22.268 -26.844  1.00  0.00    -0.368 OA
ATOM     49  H2  UNL     1      52.527  22.719 -26.637  1.00  0.00     0.213 HD
ENDBRANCH  39  48
ENDBRANCH  38  39
ENDBRANCH   1  38
TORSDOF 19
ENDMDL
MODEL 5
REMARK VINA RESULT: -4.946732987      1.726      2.260
REMARK  19 active torsions:
REMARK  status: ('A' for Active; 'I' for Inactive)
REMARK       I    between atoms: N1_2  and  C2_4 
REMARK    1  A    between atoms: C2_4  and  C3_6 
REMARK    2  A    between atoms: C5_8  and  C6_9 
REMARK    3  A    between atoms: C6_9  and  O2_10 
REMARK    4  A    between atoms: C6_9  and  O3_12 
REMARK    5  A    between atoms: O3_12  and  C7_13 
REMARK    6  A    between atoms: C8_14  and  C9_15 
REMARK    7  A    between atoms: C9_15  and  C10_16 
REMARK    8  A    between atoms: C10_16  and  C11_17 
REMARK    9  A    between atoms: C11_17  and  C12_18 
REMARK   10  A    between atoms: C12_18  and  C13_19 
REMARK   11  A    between atoms: C13_19  and  C14_20 
REMARK   12  A    between atoms: C14_20  and  C15_21 
REMARK   13  A    between atoms: C15_21  and  C16_22 
REMARK   14  A    between atoms: C16_22  and  C17_23 
REMARK   15  A    between atoms: C17_23  and  O4_24 
REMARK   16  A    between atoms: C22_31  and  C23_32 
REMARK   17  A    between atoms: C25_34  and  N2_35 
REMARK       I    between atoms: N2_35  and  C26_37 
REMARK   18  A    between atoms: C26_37  and  C27_39 
REMARK   19  A    between atoms: C27_39  and  O7_40 
ROOT
HETATM    1  C7  UNL     1      55.183  21.742 -15.156  1.00  0.00     0.162 C 
HETATM    2  C8  UNL     1      54.597  23.037 -14.659  1.00  0.00     0.152 C 
HETATM    3  O5  UNL     1      53.726  23.684 -15.446  1.00  0.00    -0.372 OA
HETATM    4  C18 UNL     1      53.139  23.045 -16.491  1.00  0.00     0.066 C 
HETATM    5  C19 UNL     1      51.764  22.476 -16.147  1.00  0.00     0.047 C 
HETATM    6  C20 UNL     1      52.889  24.109 -17.548  1.00  0.00     0.023 C 
HETATM    7  C21 UNL     1      51.716  24.981 -17.236  1.00  0.00     0.013 C 
HETATM    8  C22 UNL     1      52.760  23.300 -18.794  1.00  0.00     0.022 C 
HETATM    9  C30 UNL     1      53.939  22.358 -18.676  1.00  0.00     0.016 C 
HETATM   10  C31 UNL     1      53.969  22.051 -17.212  1.00  0.00     0.031 C 
HETATM   11  C32 UNL     1      55.354  21.904 -16.653  1.00  0.00    -0.013 C 
HETATM   12  C33 UNL     1      56.246  23.087 -16.922  1.00  0.00     0.018 C 
HETATM   13  C34 UNL     1      55.987  20.720 -17.323  1.00  0.00     0.018 C 
ENDROOT
BRANCH   8  14
HETATM   14  C23 UNL     1      52.922  24.128 -20.051  1.00  0.00     0.139 C 
HETATM   15  C24 UNL     1      54.266  23.808 -20.647  1.00  0.00     0.068 C 
HETATM   16  C25 UNL     1      53.963  23.360 -22.045  1.00  0.00     0.186 C 
HETATM   17  C29 UNL     1      52.537  22.971 -21.961  1.00  0.00     0.282 C 
HETATM   18  O8  UNL     1      51.934  22.057 -22.611  1.00  0.00    -0.263 OA
HETATM   19  O9  UNL     1      51.956  23.807 -21.018  1.00  0.00    -0.314 OA
BRANCH  16  20
HETATM   20  N2  UNL     1      54.187  24.389 -23.047  1.00  0.00    -0.345 N 
HETATM   21  C26 UNL     1      55.426  24.694 -23.597  1.00  0.00     0.242 C 
HETATM   22  O6  UNL     1      56.441  24.036 -23.221  1.00  0.00    -0.271 OA
ATOM     23  H2  UNL     1      53.381  24.923 -23.368  1.00  0.00     0.163 HD
BRANCH  21  24
HETATM   24  C27 UNL     1      55.627  25.735 -24.600  1.00  0.00     0.269 C 
BRANCH  24  25
HETATM   25  O7  UNL     1      55.817  26.975 -24.038  1.00  0.00    -0.387 OA
HETATM   26  C28 UNL     1      56.620  27.784 -24.792  1.00  0.00     0.202 C 
ENDBRANCH  24  25
ENDBRANCH  21  24
ENDBRANCH  16  20
ENDBRANCH   8  14
BRANCH   2  27
HETATM   27  C9  UNL     1      54.002  22.939 -13.270  1.00  0.00     0.034 C 
BRANCH  27  28
HETATM   28  C10 UNL     1      54.631  24.065 -12.442  1.00  0.00     0.002 C 
BRANCH  28  29
HETATM   29  C11 UNL     1      56.004  23.764 -11.963  1.00  0.00     0.000 C 
BRANCH  29  30
HETATM   30  C12 UNL     1      56.808  25.033 -11.778  1.00  0.00     0.000 C 
BRANCH  30  31
HETATM   31  C13 UNL     1      56.144  26.236 -12.355  1.00  0.00     0.000 C 
BRANCH  31  32
HETATM   32  C14 UNL     1      56.894  26.852 -13.528  1.00  0.00     0.000 C 
BRANCH  32  33
HETATM   33  C15 UNL     1      56.677  26.068 -14.775  1.00  0.00     0.002 C 
BRANCH  33  34
HETATM   34  C16 UNL     1      55.852  26.681 -15.837  1.00  0.00     0.026 C 
BRANCH  34  35
HETATM   35  C17 UNL     1      54.627  27.375 -15.375  1.00  0.00     0.164 C 
BRANCH  35  36
HETATM   36  O4  UNL     1      53.681  26.514 -14.858  1.00  0.00    -0.401 OA
ATOM     37  H4  UNL     1      54.060  25.811 -14.344  1.00  0.00     0.209 HD
ENDBRANCH  35  36
ENDBRANCH  34  35
ENDBRANCH  33  34
ENDBRANCH  32  33
ENDBRANCH  31  32
ENDBRANCH  30  31
ENDBRANCH  29  30
ENDBRANCH  28  29
ENDBRANCH  27  28
ENDBRANCH   2  27
BRANCH   1  38
HETATM   38  O3  UNL     1      54.375  20.707 -14.781  1.00  0.00    -0.349 OA
BRANCH  38  39
HETATM   39  C6  UNL     1      54.991  19.691 -14.052  1.00  0.00     0.282 C 
BRANCH  39  40
HETATM   40  C5  UNL     1      54.481  19.553 -12.702  1.00  0.00     0.045 C 
HETATM   41  C3  UNL     1      54.290  18.479 -12.026  1.00  0.00     0.006 C 
HETATM   42  C4  UNL     1      53.740  18.572 -10.592  1.00  0.00     0.054 C 
BRANCH  41  43
HETATM   43  C2  UNL     1      54.542  17.134 -12.462  1.00  0.00     0.246 C 
HETATM   44  N1  UNL     1      53.458  16.162 -12.401  1.00  0.00    -0.361 N 
HETATM   45  C1  UNL     1      53.662  14.800 -12.830  1.00  0.00     0.149 C 
ATOM     46  H1  UNL     1      52.544  16.449 -12.051  1.00  0.00     0.162 HD
HETATM   47  O1  UNL     1      55.611  16.664 -12.906  1.00  0.00    -0.268 OA
ENDBRANCH  41  43
ENDBRANCH  39  40
BRANCH  39  48
HETATM   48  O2  UNL     1      56.379  19.937 -13.950  1.00  0.00    -0.368 OA
ATOM     49  H2  UNL     1      56.631  20.441 -14.715  1.00  0.00     0.213 HD
ENDBRANCH  39  48
ENDBRANCH  38  39
ENDBRANCH   1  38
TORSDOF 19
ENDMDL
