MODEL 1
REMARK VINA RESULT: -5.661015171      0.000      0.000
REMARK  20 active torsions:
REMARK  status: ('A' for Active; 'I' for Inactive)
REMARK    1  A    between atoms: C2_2  and  C3_3 
REMARK    2  A    between atoms: C3_3  and  S1_4 
REMARK    3  A    between atoms: S1_4  and  C4_5 
REMARK    4  A    between atoms: C7_8  and  C8_9 
REMARK    5  A    between atoms: C8_9  and  N1_10 
REMARK    6  A    between atoms: N1_10  and  C9_12 
REMARK    7  A    between atoms: C10_15  and  N3_16 
REMARK    8  A    between atoms: N3_16  and  C11_18 
REMARK    9  A    between atoms: C11_18  and  C12_19 
REMARK   10  A    between atoms: C12_19  and  O1_20 
REMARK   11  A    between atoms: C15_25  and  N5_26 
REMARK   12  A    between atoms: N5_26  and  C16_28 
REMARK   13  A    between atoms: C16_28  and  C17_29 
REMARK   14  A    between atoms: C17_29  and  N6_30 
REMARK   15  A    between atoms: N7_33  and  C20_34 
REMARK   16  A    between atoms: C20_34  and  C21_35 
REMARK   17  A    between atoms: C21_35  and  C22_36 
REMARK   18  A    between atoms: C22_36  and  N8_37 
REMARK   19  A    between atoms: N8_37  and  C24_39 
REMARK   20  A    between atoms: C29_46  and  O2_47 
ROOT
HETATM    1  C9  UNL     1      53.424  21.150 -20.735  1.00  0.00     0.681 A 
HETATM    2  N2  UNL     1      53.790  22.339 -21.271  1.00  0.00    -0.175 N 
ATOM      3  H2  UNL     1      53.744  22.423 -22.286  1.00  0.00     0.186 HD
HETATM    4  C10 UNL     1      54.199  23.401 -20.599  1.00  0.00     0.148 A 
HETATM    5  C14 UNL     1      54.265  23.300 -19.204  1.00  0.00     0.138 A 
HETATM    6  N4  UNL     1      54.625  24.159 -18.252  1.00  0.00    -0.184 N 
ATOM      7  H4  UNL     1      54.940  25.118 -18.401  1.00  0.00     0.184 HD
HETATM    8  C15 UNL     1      54.502  23.545 -17.060  1.00  0.00     0.682 A 
HETATM    9  N7  UNL     1      54.059  22.289 -17.299  1.00  0.00    -0.165 N 
HETATM   10  C30 UNL     1      53.901  22.108 -18.634  1.00  0.00     0.170 A 
HETATM   11  N10 UNL     1      53.496  21.074 -19.393  1.00  0.00    -0.173 N 
ATOM     12  H10 UNL     1      53.234  20.201 -18.936  1.00  0.00     0.186 HD
ENDROOT
BRANCH   9  13
HETATM   13  C20 UNL     1      53.793  21.298 -16.263  1.00  0.00     0.151 C 
BRANCH  13  14
HETATM   14  C21 UNL     1      54.970  20.384 -16.221  1.00  0.00     0.041 C 
BRANCH  14  15
HETATM   15  C22 UNL     1      55.873  20.529 -15.050  1.00  0.00     0.124 C 
BRANCH  15  16
HETATM   16  N8  UNL     1      55.244  20.335 -13.784  1.00  0.00    -0.383 N 
HETATM   17  C23 UNL     1      55.511  21.373 -12.769  1.00  0.00     0.150 C 
BRANCH  16  18
HETATM   18  C24 UNL     1      54.423  19.273 -13.410  1.00  0.00     0.066 A 
HETATM   19  C25 UNL     1      53.048  19.444 -13.236  1.00  0.00     0.049 A 
HETATM   20  C26 UNL     1      52.228  18.397 -12.872  1.00  0.00     0.090 A 
HETATM   21  N9  UNL     1      52.736  17.166 -12.673  1.00  0.00    -0.367 N 
HETATM   22  C27 UNL     1      54.052  16.967 -12.831  1.00  0.00     0.041 A 
ATOM     23  H9  UNL     1      52.127  16.394 -12.405  1.00  0.00     0.165 HD
HETATM   24  C28 UNL     1      54.604  15.609 -12.610  1.00  0.00     0.071 C 
HETATM   25  C29 UNL     1      54.900  18.015 -13.198  1.00  0.00     0.114 A 
BRANCH  25  26
HETATM   26  O2  UNL     1      56.228  17.710 -13.332  1.00  0.00    -0.357 OA
ATOM     27  H2  UNL     1      56.524  16.833 -13.544  1.00  0.00     0.218 HD
ENDBRANCH  25  26
ENDBRANCH  16  18
ENDBRANCH  15  16
ENDBRANCH  14  15
ENDBRANCH  13  14
ENDBRANCH   9  13
BRANCH   8  28
HETATM   28  N5  UNL     1      54.762  24.062 -15.885  1.00  0.00    -0.224 N 
ATOM     29  H5  UNL     1      53.984  24.237 -15.250  1.00  0.00     0.177 HD
BRANCH  28  30
HETATM   30  C16 UNL     1      56.078  24.394 -15.451  1.00  0.00     0.168 C 
BRANCH  30  31
HETATM   31  C17 UNL     1      56.236  25.857 -15.100  1.00  0.00     0.291 C 
BRANCH  31  32
HETATM   32  N6  UNL     1      56.878  26.055 -13.836  1.00  0.00     0.081 N 
HETATM   33  C18 UNL     1      56.691  27.475 -13.494  1.00  0.00     0.309 C 
HETATM   34  C19 UNL     1      56.224  25.326 -12.757  1.00  0.00     0.309 C 
ENDBRANCH  31  32
ENDBRANCH  30  31
ENDBRANCH  28  30
ENDBRANCH   8  28
BRANCH   4  35
HETATM   35  N3  UNL     1      54.535  24.517 -21.171  1.00  0.00    -0.372 N 
ATOM     36  H3  UNL     1      54.804  25.309 -20.589  1.00  0.00     0.161 HD
BRANCH  35  37
HETATM   37  C11 UNL     1      54.539  24.669 -22.592  1.00  0.00     0.147 C 
BRANCH  37  38
HETATM   38  C12 UNL     1      55.841  24.140 -23.198  1.00  0.00     0.186 C 
BRANCH  38  39
HETATM   39  O1  UNL     1      55.638  22.862 -23.720  1.00  0.00    -0.394 OA
HETATM   40  C13 UNL     1      54.803  22.863 -24.810  1.00  0.00     0.201 C 
ENDBRANCH  38  39
ENDBRANCH  37  38
ENDBRANCH  35  37
ENDBRANCH   4  35
BRANCH   1  41
HETATM   41  N1  UNL     1      53.033  20.153 -21.464  1.00  0.00    -0.222 N 
ATOM     42  H1  UNL     1      52.615  19.325 -21.041  1.00  0.00     0.178 HD
BRANCH  41  43
HETATM   43  C8  UNL     1      53.206  20.250 -22.885  1.00  0.00     0.176 C 
BRANCH  43  44
HETATM   44  C7  UNL     1      54.179  19.291 -23.425  1.00  0.00    -0.040 A 
HETATM   45  C6  UNL     1      55.308  18.912 -22.730  1.00  0.00     0.010 A 
HETATM   46  C5  UNL     1      56.205  17.996 -23.281  1.00  0.00     0.019 A 
HETATM   47  C4  UNL     1      56.004  17.439 -24.526  1.00  0.00     0.000 A 
HETATM   48  C32 UNL     1      54.875  17.820 -25.217  1.00  0.00     0.019 A 
HETATM   49  C31 UNL     1      53.980  18.734 -24.669  1.00  0.00     0.010 A 
BRANCH  47  50
HETATM   50  S1  UNL     1      57.176  16.261 -25.215  1.00  0.00    -0.130 SA
BRANCH  50  51
HETATM   51  C3  UNL     1      57.183  16.403 -27.018  1.00  0.00     0.079 C 
BRANCH  51  52
HETATM   52  C2  UNL     1      58.019  17.606 -27.385  1.00  0.00     0.006 C 
HETATM   53  C1  UNL     1      59.466  17.269 -27.070  1.00  0.00     0.006 C 
ENDBRANCH  51  52
ENDBRANCH  50  51
ENDBRANCH  47  50
ENDBRANCH  43  44
ENDBRANCH  41  43
ENDBRANCH   1  41
TORSDOF 20
ENDMDL
MODEL 2
REMARK VINA RESULT: -5.489424447      3.652      9.447
REMARK  20 active torsions:
REMARK  status: ('A' for Active; 'I' for Inactive)
REMARK    1  A    between atoms: C2_2  and  C3_3 
REMARK    2  A    between atoms: C3_3  and  S1_4 
REMARK    3  A    between atoms: S1_4  and  C4_5 
REMARK    4  A    between atoms: C7_8  and  C8_9 
REMARK    5  A    between atoms: C8_9  and  N1_10 
REMARK    6  A    between atoms: N1_10  and  C9_12 
REMARK    7  A    between atoms: C10_15  and  N3_16 
REMARK    8  A    between atoms: N3_16  and  C11_18 
REMARK    9  A    between atoms: C11_18  and  C12_19 
REMARK   10  A    between atoms: C12_19  and  O1_20 
REMARK   11  A    between atoms: C15_25  and  N5_26 
REMARK   12  A    between atoms: N5_26  and  C16_28 
REMARK   13  A    between atoms: C16_28  and  C17_29 
REMARK   14  A    between atoms: C17_29  and  N6_30 
REMARK   15  A    between atoms: N7_33  and  C20_34 
REMARK   16  A    between atoms: C20_34  and  C21_35 
REMARK   17  A    between atoms: C21_35  and  C22_36 
REMARK   18  A    between atoms: C22_36  and  N8_37 
REMARK   19  A    between atoms: N8_37  and  C24_39 
REMARK   20  A    between atoms: C29_46  and  O2_47 
ROOT
HETATM    1  C9  UNL     1      54.202  21.315 -18.020  1.00  0.00     0.681 A 
HETATM    2  N2  UNL     1      54.936  22.448 -17.917  1.00  0.00    -0.175 N 
ATOM      3  H2  UNL     1      55.506  22.556 -17.078  1.00  0.00     0.186 HD
HETATM    4  C10 UNL     1      54.981  23.427 -18.803  1.00  0.00     0.148 A 
HETATM    5  C14 UNL     1      54.205  23.291 -19.960  1.00  0.00     0.138 A 
HETATM    6  N4  UNL     1      54.025  24.071 -21.025  1.00  0.00    -0.184 N 
ATOM      7  H4  UNL     1      54.467  24.977 -21.183  1.00  0.00     0.184 HD
HETATM    8  C15 UNL     1      53.161  23.458 -21.857  1.00  0.00     0.682 A 
HETATM    9  N7  UNL     1      52.813  22.285 -21.281  1.00  0.00    -0.165 N 
HETATM   10  C30 UNL     1      53.451  22.153 -20.092  1.00  0.00     0.170 A 
HETATM   11  N10 UNL     1      53.463  21.204 -19.139  1.00  0.00    -0.173 N 
ATOM     12  H10 UNL     1      52.889  20.371 -19.269  1.00  0.00     0.186 HD
ENDROOT
BRANCH   9  13
HETATM   13  C20 UNL     1      51.891  21.319 -21.870  1.00  0.00     0.151 C 
BRANCH  13  14
HETATM   14  C21 UNL     1      52.696  20.121 -22.243  1.00  0.00     0.041 C 
BRANCH  14  15
HETATM   15  C22 UNL     1      53.253  20.107 -23.621  1.00  0.00     0.124 C 
BRANCH  15  16
HETATM   16  N8  UNL     1      54.677  20.076 -23.687  1.00  0.00    -0.383 N 
HETATM   17  C23 UNL     1      55.331  21.357 -24.021  1.00  0.00     0.150 C 
BRANCH  16  18
HETATM   18  C24 UNL     1      55.503  18.972 -23.484  1.00  0.00     0.066 A 
HETATM   19  C25 UNL     1      55.999  18.660 -22.216  1.00  0.00     0.049 A 
HETATM   20  C26 UNL     1      56.811  17.566 -22.005  1.00  0.00     0.090 A 
HETATM   21  N9  UNL     1      57.152  16.759 -23.027  1.00  0.00    -0.367 N 
HETATM   22  C27 UNL     1      56.694  17.029 -24.257  1.00  0.00     0.041 A 
ATOM     23  H9  UNL     1      57.752  15.950 -22.867  1.00  0.00     0.165 HD
HETATM   24  C28 UNL     1      57.073  16.136 -25.377  1.00  0.00     0.071 C 
HETATM   25  C29 UNL     1      55.870  18.133 -24.492  1.00  0.00     0.114 A 
BRANCH  25  26
HETATM   26  O2  UNL     1      55.456  18.326 -25.783  1.00  0.00    -0.357 OA
ATOM     27  H2  UNL     1      54.880  17.712 -26.223  1.00  0.00     0.218 HD
ENDBRANCH  25  26
ENDBRANCH  16  18
ENDBRANCH  15  16
ENDBRANCH  14  15
ENDBRANCH  13  14
ENDBRANCH   9  13
BRANCH   8  28
HETATM   28  N5  UNL     1      52.735  23.910 -23.010  1.00  0.00    -0.224 N 
ATOM     29  H5  UNL     1      52.361  23.243 -23.684  1.00  0.00     0.177 HD
BRANCH  28  30
HETATM   30  C16 UNL     1      52.769  25.289 -23.370  1.00  0.00     0.168 C 
BRANCH  30  31
HETATM   31  C17 UNL     1      53.466  25.540 -24.689  1.00  0.00     0.291 C 
BRANCH  31  32
HETATM   32  N6  UNL     1      54.719  24.855 -24.791  1.00  0.00     0.081 N 
HETATM   33  C18 UNL     1      55.103  24.902 -26.211  1.00  0.00     0.309 C 
HETATM   34  C19 UNL     1      55.793  25.550 -24.093  1.00  0.00     0.309 C 
ENDBRANCH  31  32
ENDBRANCH  30  31
ENDBRANCH  28  30
ENDBRANCH   8  28
BRANCH   4  35
HETATM   35  N3  UNL     1      55.708  24.492 -18.648  1.00  0.00    -0.372 N 
ATOM     36  H3  UNL     1      56.648  24.510 -19.042  1.00  0.00     0.161 HD
BRANCH  35  37
HETATM   37  C11 UNL     1      55.230  25.639 -17.944  1.00  0.00     0.147 C 
BRANCH  37  38
HETATM   38  C12 UNL     1      55.293  26.891 -18.822  1.00  0.00     0.186 C 
BRANCH  38  39
HETATM   39  O1  UNL     1      55.678  26.545 -20.117  1.00  0.00    -0.394 OA
HETATM   40  C13 UNL     1      56.024  27.637 -20.875  1.00  0.00     0.201 C 
ENDBRANCH  38  39
ENDBRANCH  37  38
ENDBRANCH  35  37
ENDBRANCH   4  35
BRANCH   1  41
HETATM   41  N1  UNL     1      54.212  20.398 -17.104  1.00  0.00    -0.222 N 
ATOM     42  H1  UNL     1      53.542  19.629 -17.123  1.00  0.00     0.178 HD
BRANCH  41  43
HETATM   43  C8  UNL     1      55.193  20.499 -16.062  1.00  0.00     0.176 C 
BRANCH  43  44
HETATM   44  C7  UNL     1      54.738  19.957 -14.774  1.00  0.00    -0.040 A 
HETATM   45  C6  UNL     1      55.585  19.297 -13.909  1.00  0.00     0.010 A 
HETATM   46  C5  UNL     1      55.111  18.800 -12.695  1.00  0.00     0.019 A 
HETATM   47  C4  UNL     1      53.793  18.944 -12.313  1.00  0.00     0.000 A 
HETATM   48  C32 UNL     1      52.951  19.605 -13.181  1.00  0.00     0.019 A 
HETATM   49  C31 UNL     1      53.422  20.101 -14.392  1.00  0.00     0.010 A 
BRANCH  47  50
HETATM   50  S1  UNL     1      53.205  18.293 -10.744  1.00  0.00    -0.130 SA
BRANCH  50  51
HETATM   51  C3  UNL     1      53.139  16.488 -10.827  1.00  0.00     0.079 C 
BRANCH  51  52
HETATM   52  C2  UNL     1      52.720  16.104 -12.227  1.00  0.00     0.006 C 
HETATM   53  C1  UNL     1      53.836  15.265 -12.824  1.00  0.00     0.006 C 
ENDBRANCH  51  52
ENDBRANCH  50  51
ENDBRANCH  47  50
ENDBRANCH  43  44
ENDBRANCH  41  43
ENDBRANCH   1  41
TORSDOF 20
ENDMDL
MODEL 3
REMARK VINA RESULT: -5.467305745      3.980     11.081
REMARK  20 active torsions:
REMARK  status: ('A' for Active; 'I' for Inactive)
REMARK    1  A    between atoms: C2_2  and  C3_3 
REMARK    2  A    between atoms: C3_3  and  S1_4 
REMARK    3  A    between atoms: S1_4  and  C4_5 
REMARK    4  A    between atoms: C7_8  and  C8_9 
REMARK    5  A    between atoms: C8_9  and  N1_10 
REMARK    6  A    between atoms: N1_10  and  C9_12 
REMARK    7  A    between atoms: C10_15  and  N3_16 
REMARK    8  A    between atoms: N3_16  and  C11_18 
REMARK    9  A    between atoms: C11_18  and  C12_19 
REMARK   10  A    between atoms: C12_19  and  O1_20 
REMARK   11  A    between atoms: C15_25  and  N5_26 
REMARK   12  A    between atoms: N5_26  and  C16_28 
REMARK   13  A    between atoms: C16_28  and  C17_29 
REMARK   14  A    between atoms: C17_29  and  N6_30 
REMARK   15  A    between atoms: N7_33  and  C20_34 
REMARK   16  A    between atoms: C20_34  and  C21_35 
REMARK   17  A    between atoms: C21_35  and  C22_36 
REMARK   18  A    between atoms: C22_36  and  N8_37 
REMARK   19  A    between atoms: N8_37  and  C24_39 
REMARK   20  A    between atoms: C29_46  and  O2_47 
ROOT
HETATM    1  C9  UNL     1      53.095  20.932 -19.779  1.00  0.00     0.681 A 
HETATM    2  N2  UNL     1      51.898  20.361 -19.510  1.00  0.00    -0.175 N 
ATOM      3  H2  UNL     1      51.539  20.464 -18.561  1.00  0.00     0.186 HD
HETATM    4  C10 UNL     1      51.151  19.683 -20.363  1.00  0.00     0.148 A 
HETATM    5  C14 UNL     1      51.631  19.535 -21.670  1.00  0.00     0.138 A 
HETATM    6  N4  UNL     1      51.142  18.928 -22.749  1.00  0.00    -0.184 N 
ATOM      7  H4  UNL     1      50.255  18.426 -22.802  1.00  0.00     0.184 HD
HETATM    8  C15 UNL     1      52.018  19.089 -23.760  1.00  0.00     0.682 A 
HETATM    9  N7  UNL     1      53.057  19.809 -23.278  1.00  0.00    -0.165 N 
HETATM   10  C30 UNL     1      52.842  20.103 -21.972  1.00  0.00     0.170 A 
HETATM   11  N10 UNL     1      53.539  20.777 -21.040  1.00  0.00    -0.173 N 
ATOM     12  H10 UNL     1      54.437  21.186 -21.299  1.00  0.00     0.186 HD
ENDROOT
BRANCH   9  13
HETATM   13  C20 UNL     1      54.220  20.203 -24.065  1.00  0.00     0.151 C 
BRANCH  13  14
HETATM   14  C21 UNL     1      55.303  19.224 -23.762  1.00  0.00     0.041 C 
BRANCH  14  15
HETATM   15  C22 UNL     1      55.771  18.390 -24.900  1.00  0.00     0.124 C 
BRANCH  15  16
HETATM   16  N8  UNL     1      56.362  17.148 -24.525  1.00  0.00    -0.383 N 
HETATM   17  C23 UNL     1      56.863  17.069 -23.138  1.00  0.00     0.150 C 
BRANCH  16  18
HETATM   18  C24 UNL     1      56.523  16.019 -25.326  1.00  0.00     0.066 A 
HETATM   19  C25 UNL     1      55.509  15.067 -25.451  1.00  0.00     0.049 A 
HETATM   20  C26 UNL     1      55.658  13.951 -26.247  1.00  0.00     0.090 A 
HETATM   21  N9  UNL     1      56.798  13.747 -26.934  1.00  0.00    -0.367 N 
HETATM   22  C27 UNL     1      57.792  14.641 -26.836  1.00  0.00     0.041 A 
ATOM     23  H9  UNL     1      56.905  12.921 -27.523  1.00  0.00     0.165 HD
HETATM   24  C28 UNL     1      59.043  14.409 -27.595  1.00  0.00     0.071 C 
HETATM   25  C29 UNL     1      57.660  15.777 -26.034  1.00  0.00     0.114 A 
BRANCH  25  26
HETATM   26  O2  UNL     1      58.732  16.629 -25.999  1.00  0.00    -0.357 OA
ATOM     27  H2  UNL     1      59.185  16.901 -26.788  1.00  0.00     0.218 HD
ENDBRANCH  25  26
ENDBRANCH  16  18
ENDBRANCH  15  16
ENDBRANCH  14  15
ENDBRANCH  13  14
ENDBRANCH   9  13
BRANCH   8  28
HETATM   28  N5  UNL     1      51.891  18.636 -24.982  1.00  0.00    -0.224 N 
ATOM     29  H5  UNL     1      51.490  19.252 -25.689  1.00  0.00     0.177 HD
BRANCH  28  30
HETATM   30  C16 UNL     1      52.286  17.324 -25.374  1.00  0.00     0.168 C 
BRANCH  30  31
HETATM   31  C17 UNL     1      51.163  16.314 -25.281  1.00  0.00     0.291 C 
BRANCH  31  32
HETATM   32  N6  UNL     1      51.635  14.963 -25.282  1.00  0.00     0.081 N 
HETATM   33  C18 UNL     1      50.511  14.131 -24.821  1.00  0.00     0.309 C 
HETATM   34  C19 UNL     1      51.930  14.475 -26.623  1.00  0.00     0.309 C 
ENDBRANCH  31  32
ENDBRANCH  30  31
ENDBRANCH  28  30
ENDBRANCH   8  28
BRANCH   4  35
HETATM   35  N3  UNL     1      50.006  19.159 -20.045  1.00  0.00    -0.372 N 
ATOM     36  H3  UNL     1      49.835  18.178 -20.263  1.00  0.00     0.161 HD
BRANCH  35  37
HETATM   37  C11 UNL     1      48.981  19.914 -19.398  1.00  0.00     0.147 C 
BRANCH  37  38
HETATM   38  C12 UNL     1      48.819  19.486 -17.937  1.00  0.00     0.186 C 
BRANCH  38  39
HETATM   39  O1  UNL     1      49.818  20.067 -17.157  1.00  0.00    -0.394 OA
HETATM   40  C13 UNL     1      49.525  21.361 -16.802  1.00  0.00     0.201 C 
ENDBRANCH  38  39
ENDBRANCH  37  38
ENDBRANCH  35  37
ENDBRANCH   4  35
BRANCH   1  41
HETATM   41  N1  UNL     1      53.769  21.583 -18.884  1.00  0.00    -0.222 N 
ATOM     42  H1  UNL     1      54.731  21.872 -19.058  1.00  0.00     0.178 HD
BRANCH  41  43
HETATM   43  C8  UNL     1      53.120  21.883 -17.641  1.00  0.00     0.176 C 
BRANCH  43  44
HETATM   44  C7  UNL     1      53.682  21.156 -16.494  1.00  0.00    -0.040 A 
HETATM   45  C6  UNL     1      52.956  20.904 -15.350  1.00  0.00     0.010 A 
HETATM   46  C5  UNL     1      53.530  20.208 -14.285  1.00  0.00     0.019 A 
HETATM   47  C4  UNL     1      54.830  19.751 -14.331  1.00  0.00     0.000 A 
HETATM   48  C32 UNL     1      55.552  20.005 -15.476  1.00  0.00     0.019 A 
HETATM   49  C31 UNL     1      54.981  20.699 -16.539  1.00  0.00     0.010 A 
BRANCH  47  50
HETATM   50  S1  UNL     1      55.548  18.858 -12.945  1.00  0.00    -0.130 SA
BRANCH  50  51
HETATM   51  C3  UNL     1      55.238  17.088 -13.143  1.00  0.00     0.079 C 
BRANCH  51  52
HETATM   52  C2  UNL     1      53.804  16.822 -12.751  1.00  0.00     0.006 C 
HETATM   53  C1  UNL     1      53.621  15.316 -12.684  1.00  0.00     0.006 C 
ENDBRANCH  51  52
ENDBRANCH  50  51
ENDBRANCH  47  50
ENDBRANCH  43  44
ENDBRANCH  41  43
ENDBRANCH   1  41
TORSDOF 20
ENDMDL
MODEL 4
REMARK VINA RESULT: -5.433470780      4.034      9.332
REMARK  20 active torsions:
REMARK  status: ('A' for Active; 'I' for Inactive)
REMARK    1  A    between atoms: C2_2  and  C3_3 
REMARK    2  A    between atoms: C3_3  and  S1_4 
REMARK    3  A    between atoms: S1_4  and  C4_5 
REMARK    4  A    between atoms: C7_8  and  C8_9 
REMARK    5  A    between atoms: C8_9  and  N1_10 
REMARK    6  A    between atoms: N1_10  and  C9_12 
REMARK    7  A    between atoms: C10_15  and  N3_16 
REMARK    8  A    between atoms: N3_16  and  C11_18 
REMARK    9  A    between atoms: C11_18  and  C12_19 
REMARK   10  A    between atoms: C12_19  and  O1_20 
REMARK   11  A    between atoms: C15_25  and  N5_26 
REMARK   12  A    between atoms: N5_26  and  C16_28 
REMARK   13  A    between atoms: C16_28  and  C17_29 
REMARK   14  A    between atoms: C17_29  and  N6_30 
REMARK   15  A    between atoms: N7_33  and  C20_34 
REMARK   16  A    between atoms: C20_34  and  C21_35 
REMARK   17  A    between atoms: C21_35  and  C22_36 
REMARK   18  A    between atoms: C22_36  and  N8_37 
REMARK   19  A    between atoms: N8_37  and  C24_39 
REMARK   20  A    between atoms: C29_46  and  O2_47 
ROOT
HETATM    1  C9  UNL     1      50.381  20.024 -18.636  1.00  0.00     0.681 A 
HETATM    2  N2  UNL     1      49.447  19.270 -19.260  1.00  0.00    -0.175 N 
ATOM      3  H2  UNL     1      48.646  18.970 -18.704  1.00  0.00     0.186 HD
HETATM    4  C10 UNL     1      49.476  18.887 -20.525  1.00  0.00     0.148 A 
HETATM    5  C14 UNL     1      50.569  19.292 -21.300  1.00  0.00     0.138 A 
HETATM    6  N4  UNL     1      50.900  19.086 -22.573  1.00  0.00    -0.184 N 
ATOM      7  H4  UNL     1      50.359  18.549 -23.252  1.00  0.00     0.184 HD
HETATM    8  C15 UNL     1      52.071  19.707 -22.812  1.00  0.00     0.682 A 
HETATM    9  N7  UNL     1      52.453  20.300 -21.658  1.00  0.00    -0.165 N 
HETATM   10  C30 UNL     1      51.531  20.057 -20.693  1.00  0.00     0.170 A 
HETATM   11  N10 UNL     1      51.423  20.403 -19.398  1.00  0.00    -0.173 N 
ATOM     12  H10 UNL     1      52.159  20.972 -18.978  1.00  0.00     0.186 HD
ENDROOT
BRANCH   9  13
HETATM   13  C20 UNL     1      53.674  21.082 -21.499  1.00  0.00     0.151 C 
BRANCH  13  14
HETATM   14  C21 UNL     1      53.293  22.517 -21.631  1.00  0.00     0.041 C 
BRANCH  14  15
HETATM   15  C22 UNL     1      54.140  23.492 -20.897  1.00  0.00     0.124 C 
BRANCH  15  16
HETATM   16  N8  UNL     1      53.950  23.500 -19.483  1.00  0.00    -0.383 N 
HETATM   17  C23 UNL     1      52.616  23.930 -19.018  1.00  0.00     0.150 C 
BRANCH  16  18
HETATM   18  C24 UNL     1      54.885  23.159 -18.508  1.00  0.00     0.066 A 
HETATM   19  C25 UNL     1      55.828  24.083 -18.052  1.00  0.00     0.049 A 
HETATM   20  C26 UNL     1      56.753  23.756 -17.083  1.00  0.00     0.090 A 
HETATM   21  N9  UNL     1      56.772  22.522 -16.543  1.00  0.00    -0.367 N 
HETATM   22  C27 UNL     1      55.881  21.611 -16.959  1.00  0.00     0.041 A 
ATOM     23  H9  UNL     1      57.456  22.284 -15.826  1.00  0.00     0.165 HD
HETATM   24  C28 UNL     1      55.909  20.255 -16.360  1.00  0.00     0.071 C 
HETATM   25  C29 UNL     1      54.937  21.923 -17.940  1.00  0.00     0.114 A 
BRANCH  25  26
HETATM   26  O2  UNL     1      54.072  20.923 -18.298  1.00  0.00    -0.357 OA
ATOM     27  H2  UNL     1      54.337  20.207 -18.862  1.00  0.00     0.218 HD
ENDBRANCH  25  26
ENDBRANCH  16  18
ENDBRANCH  15  16
ENDBRANCH  14  15
ENDBRANCH  13  14
ENDBRANCH   9  13
BRANCH   8  28
HETATM   28  N5  UNL     1      52.721  19.735 -23.949  1.00  0.00    -0.224 N 
ATOM     29  H5  UNL     1      52.627  20.560 -24.542  1.00  0.00     0.177 HD
BRANCH  28  30
HETATM   30  C16 UNL     1      53.554  18.670 -24.399  1.00  0.00     0.168 C 
BRANCH  30  31
HETATM   31  C17 UNL     1      55.024  18.917 -24.142  1.00  0.00     0.291 C 
BRANCH  31  32
HETATM   32  N6  UNL     1      55.672  17.800 -23.524  1.00  0.00     0.081 N 
HETATM   33  C18 UNL     1      56.710  17.349 -24.466  1.00  0.00     0.309 C 
HETATM   34  C19 UNL     1      56.402  18.175 -22.319  1.00  0.00     0.309 C 
ENDBRANCH  31  32
ENDBRANCH  30  31
ENDBRANCH  28  30
ENDBRANCH   8  28
BRANCH   4  35
HETATM   35  N3  UNL     1      48.546  18.163 -21.069  1.00  0.00    -0.372 N 
ATOM     36  H3  UNL     1      48.807  17.464 -21.764  1.00  0.00     0.161 HD
BRANCH  35  37
HETATM   37  C11 UNL     1      47.168  18.314 -20.723  1.00  0.00     0.147 C 
BRANCH  37  38
HETATM   38  C12 UNL     1      46.671  17.122 -19.903  1.00  0.00     0.186 C 
BRANCH  38  39
HETATM   39  O1  UNL     1      47.060  17.266 -18.571  1.00  0.00    -0.394 OA
HETATM   40  C13 UNL     1      46.691  16.195 -17.794  1.00  0.00     0.201 C 
ENDBRANCH  38  39
ENDBRANCH  37  38
ENDBRANCH  35  37
ENDBRANCH   4  35
BRANCH   1  41
HETATM   41  N1  UNL     1      50.280  20.359 -17.388  1.00  0.00    -0.222 N 
ATOM     42  H1  UNL     1      49.850  19.733 -16.708  1.00  0.00     0.178 HD
BRANCH  41  43
HETATM   43  C8  UNL     1      50.790  21.641 -16.992  1.00  0.00     0.176 C 
BRANCH  43  44
HETATM   44  C7  UNL     1      51.717  21.577 -15.854  1.00  0.00    -0.040 A 
HETATM   45  C6  UNL     1      51.859  20.447 -15.078  1.00  0.00     0.010 A 
HETATM   46  C5  UNL     1      52.752  20.430 -14.006  1.00  0.00     0.019 A 
HETATM   47  C4  UNL     1      53.521  21.529 -13.682  1.00  0.00     0.000 A 
HETATM   48  C32 UNL     1      53.377  22.656 -14.461  1.00  0.00     0.019 A 
HETATM   49  C31 UNL     1      52.486  22.673 -15.530  1.00  0.00     0.010 A 
BRANCH  47  50
HETATM   50  S1  UNL     1      54.665  21.483 -12.296  1.00  0.00    -0.130 SA
BRANCH  50  51
HETATM   51  C3  UNL     1      54.926  19.768 -11.786  1.00  0.00     0.079 C 
BRANCH  51  52
HETATM   52  C2  UNL     1      55.799  19.104 -12.825  1.00  0.00     0.006 C 
HETATM   53  C1  UNL     1      55.179  17.755 -13.146  1.00  0.00     0.006 C 
ENDBRANCH  51  52
ENDBRANCH  50  51
ENDBRANCH  47  50
ENDBRANCH  43  44
ENDBRANCH  41  43
ENDBRANCH   1  41
TORSDOF 20
ENDMDL
MODEL 5
REMARK VINA RESULT: -5.431500993      3.589      9.796
REMARK  20 active torsions:
REMARK  status: ('A' for Active; 'I' for Inactive)
REMARK    1  A    between atoms: C2_2  and  C3_3 
REMARK    2  A    between atoms: C3_3  and  S1_4 
REMARK    3  A    between atoms: S1_4  and  C4_5 
REMARK    4  A    between atoms: C7_8  and  C8_9 
REMARK    5  A    between atoms: C8_9  and  N1_10 
REMARK    6  A    between atoms: N1_10  and  C9_12 
REMARK    7  A    between atoms: C10_15  and  N3_16 
REMARK    8  A    between atoms: N3_16  and  C11_18 
REMARK    9  A    between atoms: C11_18  and  C12_19 
REMARK   10  A    between atoms: C12_19  and  O1_20 
REMARK   11  A    between atoms: C15_25  and  N5_26 
REMARK   12  A    between atoms: N5_26  and  C16_28 
REMARK   13  A    between atoms: C16_28  and  C17_29 
REMARK   14  A    between atoms: C17_29  and  N6_30 
REMARK   15  A    between atoms: N7_33  and  C20_34 
REMARK   16  A    between atoms: C20_34  and  C21_35 
REMARK   17  A    between atoms: C21_35  and  C22_36 
REMARK   18  A    between atoms: C22_36  and  N8_37 
REMARK   19  A    between atoms: N8_37  and  C24_39 
REMARK   20  A    between atoms: C29_46  and  O2_47 
ROOT
HETATM    1  C9  UNL     1      52.866  21.203 -20.254  1.00  0.00     0.681 A 
HETATM    2  N2  UNL     1      51.827  20.373 -20.510  1.00  0.00    -0.175 N 
ATOM      3  H2  UNL     1      51.171  20.204 -19.748  1.00  0.00     0.186 HD
HETATM    4  C10 UNL     1      51.585  19.763 -21.657  1.00  0.00     0.148 A 
HETATM    5  C14 UNL     1      52.477  19.988 -22.712  1.00  0.00     0.138 A 
HETATM    6  N4  UNL     1      52.524  19.542 -23.966  1.00  0.00    -0.184 N 
ATOM      7  H4  UNL     1      51.855  18.905 -24.399  1.00  0.00     0.184 HD
HETATM    8  C15 UNL     1      53.607  20.075 -24.564  1.00  0.00     0.682 A 
HETATM    9  N7  UNL     1      54.224  20.859 -23.651  1.00  0.00    -0.165 N 
HETATM   10  C30 UNL     1      53.539  20.824 -22.481  1.00  0.00     0.170 A 
HETATM   11  N10 UNL     1      53.712  21.404 -21.281  1.00  0.00    -0.173 N 
ATOM     12  H10 UNL     1      54.514  22.020 -21.143  1.00  0.00     0.186 HD
ENDROOT
BRANCH   9  13
HETATM   13  C20 UNL     1      55.441  21.622 -23.908  1.00  0.00     0.151 C 
BRANCH  13  14
HETATM   14  C21 UNL     1      55.058  23.062 -23.918  1.00  0.00     0.041 C 
BRANCH  14  15
HETATM   15  C22 UNL     1      55.899  23.971 -23.096  1.00  0.00     0.124 C 
BRANCH  15  16
HETATM   16  N8  UNL     1      55.225  25.130 -22.610  1.00  0.00    -0.383 N 
HETATM   17  C23 UNL     1      54.636  26.008 -23.640  1.00  0.00     0.150 C 
BRANCH  16  18
HETATM   18  C24 UNL     1      55.078  25.520 -21.280  1.00  0.00     0.066 A 
HETATM   19  C25 UNL     1      56.048  26.292 -20.638  1.00  0.00     0.049 A 
HETATM   20  C26 UNL     1      55.907  26.687 -19.324  1.00  0.00     0.090 A 
HETATM   21  N9  UNL     1      54.816  26.336 -18.617  1.00  0.00    -0.367 N 
HETATM   22  C27 UNL     1      53.866  25.595 -19.203  1.00  0.00     0.041 A 
ATOM     23  H9  UNL     1      54.714  26.631 -17.646  1.00  0.00     0.165 HD
HETATM   24  C28 UNL     1      52.668  25.213 -18.418  1.00  0.00     0.071 C 
HETATM   25  C29 UNL     1      53.991  25.184 -20.532  1.00  0.00     0.114 A 
BRANCH  25  26
HETATM   26  O2  UNL     1      52.967  24.428 -21.039  1.00  0.00    -0.357 OA
ATOM     27  H2  UNL     1      52.370  23.949 -20.477  1.00  0.00     0.218 HD
ENDBRANCH  25  26
ENDBRANCH  16  18
ENDBRANCH  15  16
ENDBRANCH  14  15
ENDBRANCH  13  14
ENDBRANCH   9  13
BRANCH   8  28
HETATM   28  N5  UNL     1      53.993  19.875 -25.800  1.00  0.00    -0.224 N 
ATOM     29  H5  UNL     1      53.932  20.651 -26.459  1.00  0.00     0.177 HD
BRANCH  28  30
HETATM   30  C16 UNL     1      54.495  18.627 -26.269  1.00  0.00     0.168 C 
BRANCH  30  31
HETATM   31  C17 UNL     1      55.864  18.294 -25.720  1.00  0.00     0.291 C 
BRANCH  31  32
HETATM   32  N6  UNL     1      55.811  17.364 -24.632  1.00  0.00     0.081 N 
HETATM   33  C18 UNL     1      56.694  16.245 -24.999  1.00  0.00     0.309 C 
HETATM   34  C19 UNL     1      56.389  17.905 -23.408  1.00  0.00     0.309 C 
ENDBRANCH  31  32
ENDBRANCH  30  31
ENDBRANCH  28  30
ENDBRANCH   8  28
BRANCH   4  35
HETATM   35  N3  UNL     1      50.567  18.979 -21.843  1.00  0.00    -0.372 N 
ATOM     36  H3  UNL     1      50.723  18.056 -22.248  1.00  0.00     0.161 HD
BRANCH  35  37
HETATM   37  C11 UNL     1      49.237  19.367 -21.496  1.00  0.00     0.147 C 
BRANCH  37  38
HETATM   38  C12 UNL     1      48.691  18.507 -20.354  1.00  0.00     0.186 C 
BRANCH  38  39
HETATM   39  O1  UNL     1      49.590  18.507 -19.287  1.00  0.00    -0.394 OA
HETATM   40  C13 UNL     1      49.167  19.290 -18.241  1.00  0.00     0.201 C 
ENDBRANCH  38  39
ENDBRANCH  37  38
ENDBRANCH  35  37
ENDBRANCH   4  35
BRANCH   1  41
HETATM   41  N1  UNL     1      53.035  21.764 -19.098  1.00  0.00    -0.222 N 
ATOM     42  H1  UNL     1      52.240  22.095 -18.553  1.00  0.00     0.178 HD
BRANCH  41  43
HETATM   43  C8  UNL     1      54.377  21.906 -18.610  1.00  0.00     0.176 C 
BRANCH  43  44
HETATM   44  C7  UNL     1      54.605  21.244 -17.318  1.00  0.00    -0.040 A 
HETATM   45  C6  UNL     1      53.593  21.037 -16.405  1.00  0.00     0.010 A 
HETATM   46  C5  UNL     1      53.855  20.402 -15.189  1.00  0.00     0.019 A 
HETATM   47  C4  UNL     1      55.118  19.962 -14.855  1.00  0.00     0.000 A 
HETATM   48  C32 UNL     1      56.126  20.171 -15.772  1.00  0.00     0.019 A 
HETATM   49  C31 UNL     1      55.867  20.804 -16.983  1.00  0.00     0.010 A 
BRANCH  47  50
HETATM   50  S1  UNL     1      55.431  19.148 -13.282  1.00  0.00    -0.130 SA
BRANCH  50  51
HETATM   51  C3  UNL     1      54.182  17.870 -13.007  1.00  0.00     0.079 C 
BRANCH  51  52
HETATM   52  C2  UNL     1      54.887  16.534 -12.964  1.00  0.00     0.006 C 
HETATM   53  C1  UNL     1      53.839  15.474 -12.677  1.00  0.00     0.006 C 
ENDBRANCH  51  52
ENDBRANCH  50  51
ENDBRANCH  47  50
ENDBRANCH  43  44
ENDBRANCH  41  43
ENDBRANCH   1  41
TORSDOF 20
ENDMDL
