MODEL 1
REMARK VINA RESULT: -5.512860109      0.000      0.000
REMARK  19 active torsions:
REMARK  status: ('A' for Active; 'I' for Inactive)
REMARK    1  A    between atoms: C2_2  and  C3_3 
REMARK    2  A    between atoms: C3_3  and  N1_4 
REMARK    3  A    between atoms: C4_6  and  O1_7 
REMARK    4  A    between atoms: C4_6  and  C6_9 
REMARK    5  A    between atoms: C6_9  and  N2_10 
REMARK    6  A    between atoms: C6_9  and  C14_22 
REMARK    7  A    between atoms: N2_10  and  C7_13 
REMARK    8  A    between atoms: C7_13  and  C9_16 
REMARK    9  A    between atoms: C9_16  and  C10_18 
REMARK       I    between atoms: C14_22  and  N4_24 
REMARK   10  A    between atoms: N4_24  and  C15_26 
REMARK   11  A    between atoms: C15_26  and  C16_27 
REMARK   12  A    between atoms: C15_26  and  C20_31 
REMARK   13  A    between atoms: C16_27  and  C17_28 
REMARK       I    between atoms: C20_31  and  N5_33 
REMARK   14  A    between atoms: N5_33  and  C21_35 
REMARK   15  A    between atoms: C21_35  and  C22_36 
REMARK   16  A    between atoms: C21_35  and  C29_51 
REMARK       I    between atoms: C22_36  and  N6_38 
REMARK   17  A    between atoms: N6_38  and  C23_40 
REMARK   18  A    between atoms: C23_40  and  C24_41 
REMARK   19  A    between atoms: C25_44  and  C26_45 
ROOT
HETATM    1  C7  UNL     1      55.430  21.133 -14.503  1.00  0.00     0.362 C 
HETATM    2  C8  UNL     1      56.036  20.471 -15.647  1.00  0.00     0.100 C 
HETATM    3  N3  UNL     1      56.523  19.966 -16.569  1.00  0.00    -0.195 NA
ENDROOT
BRANCH   1   4
HETATM    4  N2  UNL     1      54.877  22.391 -14.944  1.00  0.00    -0.031 N 
ATOM      5  H22 UNL     1      54.231  22.769 -14.251  1.00  0.00     0.280 HD
ATOM      6  H21 UNL     1      54.228  22.253 -15.719  1.00  0.00     0.280 HD
BRANCH   4   7
HETATM    7  C6  UNL     1      55.887  23.357 -15.284  1.00  0.00     0.352 C 
BRANCH   7   8
HETATM    8  C4  UNL     1      55.697  24.676 -14.660  1.00  0.00     0.154 C 
HETATM    9  N1  UNL     1      55.791  24.961 -13.426  1.00  0.00    -0.369 N 
ATOM     10  H1  UNL     1      55.619  25.942 -13.204  1.00  0.00     0.161 HD
BRANCH   9  11
HETATM   11  C3  UNL     1      56.091  24.153 -12.307  1.00  0.00     0.148 C 
BRANCH  11  12
HETATM   12  C2  UNL     1      54.894  24.150 -11.391  1.00  0.00    -0.018 C 
HETATM   13  C1  UNL     1      53.886  23.324 -11.614  1.00  0.00     0.008 C 
ENDBRANCH  11  12
ENDBRANCH   9  11
BRANCH   8  14
HETATM   14  O1  UNL     1      55.374  25.774 -15.496  1.00  0.00    -0.342 OA
HETATM   15  C5  UNL     1      56.048  26.994 -15.351  1.00  0.00     0.211 C 
ENDBRANCH   8  14
ENDBRANCH   7   8
BRANCH   7  16
HETATM   16  C14 UNL     1      55.863  23.544 -16.769  1.00  0.00     0.257 C 
HETATM   17  O3  UNL     1      56.960  23.514 -17.384  1.00  0.00    -0.271 OA
HETATM   18  N4  UNL     1      54.647  23.744 -17.458  1.00  0.00    -0.346 N 
ATOM     19  H4  UNL     1      53.793  23.743 -16.901  1.00  0.00     0.163 HD
BRANCH  18  20
HETATM   20  C15 UNL     1      54.502  23.951 -18.886  1.00  0.00     0.177 C 
BRANCH  20  21
HETATM   21  C16 UNL     1      54.658  25.382 -19.258  1.00  0.00     0.038 C 
BRANCH  21  22
HETATM   22  C17 UNL     1      55.763  25.652 -20.236  1.00  0.00    -0.020 C 
HETATM   23  C18 UNL     1      56.334  27.027 -19.958  1.00  0.00     0.009 C 
HETATM   24  C19 UNL     1      55.318  25.643 -21.670  1.00  0.00     0.009 C 
ENDBRANCH  21  22
ENDBRANCH  20  21
BRANCH  20  25
HETATM   25  C20 UNL     1      53.090  23.546 -19.265  1.00  0.00     0.241 C 
HETATM   26  O4  UNL     1      52.263  24.427 -19.609  1.00  0.00    -0.271 OA
HETATM   27  N5  UNL     1      52.657  22.202 -19.249  1.00  0.00    -0.345 N 
ATOM     28  H5  UNL     1      53.317  21.470 -18.983  1.00  0.00     0.163 HD
BRANCH  27  29
HETATM   29  C21 UNL     1      51.265  21.825 -19.610  1.00  0.00     0.184 C 
BRANCH  29  30
HETATM   30  C22 UNL     1      51.260  21.293 -20.994  1.00  0.00     0.241 C 
HETATM   31  O5  UNL     1      50.198  21.369 -21.651  1.00  0.00    -0.271 OA
HETATM   32  N6  UNL     1      52.393  20.705 -21.592  1.00  0.00    -0.352 N 
ATOM     33  H6  UNL     1      53.261  20.631 -21.061  1.00  0.00     0.162 HD
BRANCH  32  34
HETATM   34  C23 UNL     1      52.345  20.208 -22.941  1.00  0.00     0.209 C 
BRANCH  34  35
HETATM   35  C24 UNL     1      53.660  19.765 -23.413  1.00  0.00     0.166 A 
HETATM   36  N7  UNL     1      54.541  18.940 -22.792  1.00  0.00    -0.325 N 
HETATM   37  C25 UNL     1      55.602  18.807 -23.584  1.00  0.00     0.107 A 
ATOM     38  H7  UNL     1      54.412  18.500 -21.881  1.00  0.00     0.169 HD
HETATM   39  N8  UNL     1      55.386  19.539 -24.678  1.00  0.00    -0.247 N 
HETATM   40  O6  UNL     1      54.229  20.093 -24.545  1.00  0.00    -0.221 OA
ATOM     41  H8  UNL     1      56.019  19.642 -25.471  1.00  0.00     0.196 HD
BRANCH  37  42
HETATM   42  C26 UNL     1      56.810  17.973 -23.286  1.00  0.00     0.047 C 
HETATM   43  C27 UNL     1      56.674  16.693 -24.082  1.00  0.00     0.017 C 
HETATM   44  C28 UNL     1      56.819  17.711 -21.801  1.00  0.00     0.017 C 
ENDBRANCH  37  42
ENDBRANCH  34  35
ENDBRANCH  32  34
ENDBRANCH  29  30
BRANCH  29  45
HETATM   45  C29 UNL     1      50.867  20.809 -18.603  1.00  0.00    -0.022 C 
HETATM   46  C30 UNL     1      49.507  21.220 -18.050  1.00  0.00     0.017 C 
HETATM   47  C31 UNL     1      51.877  20.708 -17.466  1.00  0.00     0.017 C 
HETATM   48  C32 UNL     1      50.699  19.420 -19.150  1.00  0.00     0.017 C 
ENDBRANCH  29  45
ENDBRANCH  27  29
ENDBRANCH  20  25
ENDBRANCH  18  20
ENDBRANCH   7  16
ENDBRANCH   4   7
ENDBRANCH   1   4
BRANCH   1  49
HETATM   49  C9  UNL     1      54.352  20.343 -13.858  1.00  0.00     0.178 C 
HETATM   50  O2  UNL     1      53.244  20.387 -14.370  1.00  0.00    -0.294 OA
BRANCH  49  51
HETATM   51  C10 UNL     1      54.549  19.519 -12.635  1.00  0.00     0.013 C 
HETATM   52  C11 UNL     1      54.893  18.107 -13.080  1.00  0.00     0.022 C 
HETATM   53  C12 UNL     1      55.606  20.059 -11.723  1.00  0.00     0.022 C 
HETATM   54  C13 UNL     1      53.256  19.453 -11.825  1.00  0.00     0.022 C 
ENDBRANCH  49  51
ENDBRANCH   1  49
TORSDOF 19
ENDMDL
MODEL 2
REMARK VINA RESULT: -5.497441074      2.131      4.066
REMARK  19 active torsions:
REMARK  status: ('A' for Active; 'I' for Inactive)
REMARK    1  A    between atoms: C2_2  and  C3_3 
REMARK    2  A    between atoms: C3_3  and  N1_4 
REMARK    3  A    between atoms: C4_6  and  O1_7 
REMARK    4  A    between atoms: C4_6  and  C6_9 
REMARK    5  A    between atoms: C6_9  and  N2_10 
REMARK    6  A    between atoms: C6_9  and  C14_22 
REMARK    7  A    between atoms: N2_10  and  C7_13 
REMARK    8  A    between atoms: C7_13  and  C9_16 
REMARK    9  A    between atoms: C9_16  and  C10_18 
REMARK       I    between atoms: C14_22  and  N4_24 
REMARK   10  A    between atoms: N4_24  and  C15_26 
REMARK   11  A    between atoms: C15_26  and  C16_27 
REMARK   12  A    between atoms: C15_26  and  C20_31 
REMARK   13  A    between atoms: C16_27  and  C17_28 
REMARK       I    between atoms: C20_31  and  N5_33 
REMARK   14  A    between atoms: N5_33  and  C21_35 
REMARK   15  A    between atoms: C21_35  and  C22_36 
REMARK   16  A    between atoms: C21_35  and  C29_51 
REMARK       I    between atoms: C22_36  and  N6_38 
REMARK   17  A    between atoms: N6_38  and  C23_40 
REMARK   18  A    between atoms: C23_40  and  C24_41 
REMARK   19  A    between atoms: C25_44  and  C26_45 
ROOT
HETATM    1  C7  UNL     1      52.521  20.588 -13.569  1.00  0.00     0.362 C 
HETATM    2  C8  UNL     1      51.571  20.643 -14.669  1.00  0.00     0.100 C 
HETATM    3  N3  UNL     1      50.835  20.688 -15.562  1.00  0.00    -0.195 NA
ENDROOT
BRANCH   1   4
HETATM    4  N2  UNL     1      53.733  21.257 -13.977  1.00  0.00    -0.031 N 
ATOM      5  H22 UNL     1      54.012  21.957 -13.290  1.00  0.00     0.280 HD
ATOM      6  H21 UNL     1      53.562  21.867 -14.777  1.00  0.00     0.280 HD
BRANCH   4   7
HETATM    7  C6  UNL     1      54.810  20.343 -14.248  1.00  0.00     0.352 C 
BRANCH   7   8
HETATM    8  C4  UNL     1      55.594  19.964 -13.061  1.00  0.00     0.154 C 
HETATM    9  N1  UNL     1      55.952  18.793 -12.721  1.00  0.00    -0.369 N 
ATOM     10  H1  UNL     1      56.492  18.751 -11.857  1.00  0.00     0.161 HD
BRANCH   9  11
HETATM   11  C3  UNL     1      55.730  17.540 -13.334  1.00  0.00     0.148 C 
BRANCH  11  12
HETATM   12  C2  UNL     1      54.465  16.953 -12.764  1.00  0.00    -0.018 C 
HETATM   13  C1  UNL     1      54.269  15.645 -12.784  1.00  0.00     0.008 C 
ENDBRANCH  11  12
ENDBRANCH   9  11
BRANCH   8  14
HETATM   14  O1  UNL     1      56.013  20.989 -12.177  1.00  0.00    -0.342 OA
HETATM   15  C5  UNL     1      55.577  20.995 -10.845  1.00  0.00     0.211 C 
ENDBRANCH   8  14
ENDBRANCH   7   8
BRANCH   7  16
HETATM   16  C14 UNL     1      55.739  21.003 -15.219  1.00  0.00     0.257 C 
HETATM   17  O3  UNL     1      56.710  20.332 -15.653  1.00  0.00    -0.271 OA
HETATM   18  N4  UNL     1      55.528  22.334 -15.638  1.00  0.00    -0.346 N 
ATOM     19  H4  UNL     1      54.714  22.816 -15.258  1.00  0.00     0.163 HD
BRANCH  18  20
HETATM   20  C15 UNL     1      56.365  23.079 -16.559  1.00  0.00     0.177 C 
BRANCH  20  21
HETATM   21  C16 UNL     1      56.772  24.395 -15.998  1.00  0.00     0.038 C 
BRANCH  21  22
HETATM   22  C17 UNL     1      55.675  25.136 -15.294  1.00  0.00    -0.020 C 
HETATM   23  C18 UNL     1      55.532  26.507 -15.922  1.00  0.00     0.009 C 
HETATM   24  C19 UNL     1      55.931  25.349 -13.830  1.00  0.00     0.009 C 
ENDBRANCH  21  22
ENDBRANCH  20  21
BRANCH  20  25
HETATM   25  C20 UNL     1      55.539  23.363 -17.799  1.00  0.00     0.241 C 
HETATM   26  O4  UNL     1      56.028  24.057 -18.725  1.00  0.00    -0.271 OA
HETATM   27  N5  UNL     1      54.225  22.872 -17.963  1.00  0.00    -0.345 N 
ATOM     28  H5  UNL     1      53.814  22.297 -17.227  1.00  0.00     0.163 HD
BRANCH  27  29
HETATM   29  C21 UNL     1      53.425  23.172 -19.179  1.00  0.00     0.184 C 
BRANCH  29  30
HETATM   30  C22 UNL     1      52.994  21.893 -19.793  1.00  0.00     0.241 C 
HETATM   31  O5  UNL     1      52.520  21.009 -19.044  1.00  0.00    -0.271 OA
HETATM   32  N6  UNL     1      53.100  21.633 -21.175  1.00  0.00    -0.352 N 
ATOM     33  H6  UNL     1      53.493  22.345 -21.791  1.00  0.00     0.162 HD
BRANCH  32  34
HETATM   34  C23 UNL     1      52.663  20.379 -21.729  1.00  0.00     0.209 C 
BRANCH  34  35
HETATM   35  C24 UNL     1      53.707  19.739 -22.534  1.00  0.00     0.166 A 
HETATM   36  N7  UNL     1      54.836  19.121 -22.107  1.00  0.00    -0.325 N 
HETATM   37  C25 UNL     1      55.490  18.680 -23.179  1.00  0.00     0.107 A 
ATOM     38  H7  UNL     1      55.132  19.012 -21.137  1.00  0.00     0.169 HD
HETATM   39  N8  UNL     1      54.779  19.021 -24.256  1.00  0.00    -0.247 N 
HETATM   40  O6  UNL     1      53.731  19.646 -23.840  1.00  0.00    -0.221 OA
ATOM     41  H8  UNL     1      55.021  18.825 -25.227  1.00  0.00     0.196 HD
BRANCH  37  42
HETATM   42  C26 UNL     1      56.786  17.930 -23.161  1.00  0.00     0.047 C 
HETATM   43  C27 UNL     1      56.633  16.753 -24.099  1.00  0.00     0.017 C 
HETATM   44  C28 UNL     1      57.026  17.486 -21.740  1.00  0.00     0.017 C 
ENDBRANCH  37  42
ENDBRANCH  34  35
ENDBRANCH  32  34
ENDBRANCH  29  30
BRANCH  29  45
HETATM   45  C29 UNL     1      52.284  23.991 -18.698  1.00  0.00    -0.022 C 
HETATM   46  C30 UNL     1      52.679  25.456 -18.839  1.00  0.00     0.017 C 
HETATM   47  C31 UNL     1      51.937  23.687 -17.246  1.00  0.00     0.017 C 
HETATM   48  C32 UNL     1      51.015  23.818 -19.485  1.00  0.00     0.017 C 
ENDBRANCH  29  45
ENDBRANCH  27  29
ENDBRANCH  20  25
ENDBRANCH  18  20
ENDBRANCH   7  16
ENDBRANCH   4   7
ENDBRANCH   1   4
BRANCH   1  49
HETATM   49  C9  UNL     1      52.027  21.224 -12.322  1.00  0.00     0.178 C 
HETATM   50  O2  UNL     1      51.975  22.444 -12.300  1.00  0.00    -0.294 OA
BRANCH  49  51
HETATM   51  C10 UNL     1      51.603  20.462 -11.116  1.00  0.00     0.013 C 
HETATM   52  C11 UNL     1      50.109  20.210 -11.230  1.00  0.00     0.022 C 
HETATM   53  C12 UNL     1      52.346  19.175 -10.940  1.00  0.00     0.022 C 
HETATM   54  C13 UNL     1      51.845  21.288  -9.854  1.00  0.00     0.022 C 
ENDBRANCH  49  51
ENDBRANCH   1  49
TORSDOF 19
ENDMDL
MODEL 3
REMARK VINA RESULT: -5.297778953      2.349      9.244
REMARK  19 active torsions:
REMARK  status: ('A' for Active; 'I' for Inactive)
REMARK    1  A    between atoms: C2_2  and  C3_3 
REMARK    2  A    between atoms: C3_3  and  N1_4 
REMARK    3  A    between atoms: C4_6  and  O1_7 
REMARK    4  A    between atoms: C4_6  and  C6_9 
REMARK    5  A    between atoms: C6_9  and  N2_10 
REMARK    6  A    between atoms: C6_9  and  C14_22 
REMARK    7  A    between atoms: N2_10  and  C7_13 
REMARK    8  A    between atoms: C7_13  and  C9_16 
REMARK    9  A    between atoms: C9_16  and  C10_18 
REMARK       I    between atoms: C14_22  and  N4_24 
REMARK   10  A    between atoms: N4_24  and  C15_26 
REMARK   11  A    between atoms: C15_26  and  C16_27 
REMARK   12  A    between atoms: C15_26  and  C20_31 
REMARK   13  A    between atoms: C16_27  and  C17_28 
REMARK       I    between atoms: C20_31  and  N5_33 
REMARK   14  A    between atoms: N5_33  and  C21_35 
REMARK   15  A    between atoms: C21_35  and  C22_36 
REMARK   16  A    between atoms: C21_35  and  C29_51 
REMARK       I    between atoms: C22_36  and  N6_38 
REMARK   17  A    between atoms: N6_38  and  C23_40 
REMARK   18  A    between atoms: C23_40  and  C24_41 
REMARK   19  A    between atoms: C25_44  and  C26_45 
ROOT
HETATM    1  C7  UNL     1      53.327  21.257 -21.531  1.00  0.00     0.362 C 
HETATM    2  C8  UNL     1      52.060  21.969 -21.569  1.00  0.00     0.100 C 
HETATM    3  N3  UNL     1      51.054  22.544 -21.575  1.00  0.00    -0.195 NA
ENDROOT
BRANCH   1   4
HETATM    4  N2  UNL     1      53.594  20.871 -20.167  1.00  0.00    -0.031 N 
ATOM      5  H22 UNL     1      54.546  20.520 -20.066  1.00  0.00     0.280 HD
ATOM      6  H21 UNL     1      53.078  20.027 -19.918  1.00  0.00     0.280 HD
BRANCH   4   7
HETATM    7  C6  UNL     1      53.335  21.928 -19.227  1.00  0.00     0.352 C 
BRANCH   7   8
HETATM    8  C4  UNL     1      54.530  22.686 -18.824  1.00  0.00     0.154 C 
HETATM    9  N1  UNL     1      54.808  23.891 -19.114  1.00  0.00    -0.369 N 
ATOM     10  H1  UNL     1      55.693  24.225 -18.732  1.00  0.00     0.161 HD
BRANCH   9  11
HETATM   11  C3  UNL     1      54.101  24.850 -19.875  1.00  0.00     0.148 C 
BRANCH  11  12
HETATM   12  C2  UNL     1      54.659  26.212 -19.553  1.00  0.00    -0.018 C 
HETATM   13  C1  UNL     1      55.967  26.408 -19.525  1.00  0.00     0.008 C 
ENDBRANCH  11  12
ENDBRANCH   9  11
BRANCH   8  14
HETATM   14  O1  UNL     1      55.501  22.033 -18.024  1.00  0.00    -0.342 OA
HETATM   15  C5  UNL     1      56.414  22.783 -17.269  1.00  0.00     0.211 C 
ENDBRANCH   8  14
ENDBRANCH   7   8
BRANCH   7  16
HETATM   16  C14 UNL     1      52.743  21.315 -17.996  1.00  0.00     0.257 C 
HETATM   17  O3  UNL     1      51.930  20.367 -18.143  1.00  0.00    -0.271 OA
HETATM   18  N4  UNL     1      53.090  21.784 -16.711  1.00  0.00    -0.346 N 
ATOM     19  H4  UNL     1      53.766  22.546 -16.662  1.00  0.00     0.163 HD
BRANCH  18  20
HETATM   20  C15 UNL     1      52.574  21.281 -15.453  1.00  0.00     0.177 C 
BRANCH  20  21
HETATM   21  C16 UNL     1      52.434  22.360 -14.439  1.00  0.00     0.038 C 
BRANCH  21  22
HETATM   22  C17 UNL     1      51.083  22.431 -13.791  1.00  0.00    -0.020 C 
HETATM   23  C18 UNL     1      51.232  22.114 -12.318  1.00  0.00     0.009 C 
HETATM   24  C19 UNL     1      50.090  21.455 -14.352  1.00  0.00     0.009 C 
ENDBRANCH  21  22
ENDBRANCH  20  21
BRANCH  20  25
HETATM   25  C20 UNL     1      53.583  20.289 -14.908  1.00  0.00     0.241 C 
HETATM   26  O4  UNL     1      54.674  20.120 -15.507  1.00  0.00    -0.271 OA
HETATM   27  N5  UNL     1      53.347  19.535 -13.737  1.00  0.00    -0.345 N 
ATOM     28  H5  UNL     1      52.471  19.665 -13.229  1.00  0.00     0.163 HD
BRANCH  27  29
HETATM   29  C21 UNL     1      54.342  18.556 -13.224  1.00  0.00     0.184 C 
BRANCH  29  30
HETATM   30  C22 UNL     1      55.328  19.276 -12.382  1.00  0.00     0.241 C 
HETATM   31  O5  UNL     1      56.522  18.904 -12.422  1.00  0.00    -0.271 OA
HETATM   32  N6  UNL     1      54.975  20.351 -11.541  1.00  0.00    -0.352 N 
ATOM     33  H6  UNL     1      54.002  20.656 -11.495  1.00  0.00     0.162 HD
BRANCH  32  34
HETATM   34  C23 UNL     1      55.965  21.026 -10.745  1.00  0.00     0.209 C 
BRANCH  34  35
HETATM   35  C24 UNL     1      55.866  22.483 -10.861  1.00  0.00     0.166 A 
HETATM   36  N7  UNL     1      56.054  23.254 -11.962  1.00  0.00    -0.325 N 
HETATM   37  C25 UNL     1      55.857  24.522 -11.610  1.00  0.00     0.107 A 
ATOM     38  H7  UNL     1      56.301  22.920 -12.893  1.00  0.00     0.169 HD
HETATM   39  N8  UNL     1      55.555  24.541 -10.311  1.00  0.00    -0.247 N 
HETATM   40  O6  UNL     1      55.568  23.319  -9.898  1.00  0.00    -0.221 OA
ATOM     41  H8  UNL     1      55.351  25.367  -9.750  1.00  0.00     0.196 HD
BRANCH  37  42
HETATM   42  C26 UNL     1      55.954  25.703 -12.526  1.00  0.00     0.047 C 
HETATM   43  C27 UNL     1      56.196  25.167 -13.920  1.00  0.00     0.017 C 
HETATM   44  C28 UNL     1      57.106  26.549 -12.045  1.00  0.00     0.017 C 
ENDBRANCH  37  42
ENDBRANCH  34  35
ENDBRANCH  32  34
ENDBRANCH  29  30
BRANCH  29  45
HETATM   45  C29 UNL     1      53.548  17.563 -12.457  1.00  0.00    -0.022 C 
HETATM   46  C30 UNL     1      52.075  17.850 -12.724  1.00  0.00     0.017 C 
HETATM   47  C31 UNL     1      53.828  17.646 -10.961  1.00  0.00     0.017 C 
HETATM   48  C32 UNL     1      53.780  16.134 -12.858  1.00  0.00     0.017 C 
ENDBRANCH  29  45
ENDBRANCH  27  29
ENDBRANCH  20  25
ENDBRANCH  18  20
ENDBRANCH   7  16
ENDBRANCH   4   7
ENDBRANCH   1   4
BRANCH   1  49
HETATM   49  C9  UNL     1      53.354  20.040 -22.381  1.00  0.00     0.178 C 
HETATM   50  O2  UNL     1      52.383  19.301 -22.327  1.00  0.00    -0.294 OA
BRANCH  49  51
HETATM   51  C10 UNL     1      54.487  19.679 -23.275  1.00  0.00     0.013 C 
HETATM   52  C11 UNL     1      53.918  18.902 -24.451  1.00  0.00     0.022 C 
HETATM   53  C12 UNL     1      55.264  20.866 -23.751  1.00  0.00     0.022 C 
HETATM   54  C13 UNL     1      55.471  18.769 -22.543  1.00  0.00     0.022 C 
ENDBRANCH  49  51
ENDBRANCH   1  49
TORSDOF 19
ENDMDL
MODEL 4
REMARK VINA RESULT: -5.261661307      1.766      4.687
REMARK  19 active torsions:
REMARK  status: ('A' for Active; 'I' for Inactive)
REMARK    1  A    between atoms: C2_2  and  C3_3 
REMARK    2  A    between atoms: C3_3  and  N1_4 
REMARK    3  A    between atoms: C4_6  and  O1_7 
REMARK    4  A    between atoms: C4_6  and  C6_9 
REMARK    5  A    between atoms: C6_9  and  N2_10 
REMARK    6  A    between atoms: C6_9  and  C14_22 
REMARK    7  A    between atoms: N2_10  and  C7_13 
REMARK    8  A    between atoms: C7_13  and  C9_16 
REMARK    9  A    between atoms: C9_16  and  C10_18 
REMARK       I    between atoms: C14_22  and  N4_24 
REMARK   10  A    between atoms: N4_24  and  C15_26 
REMARK   11  A    between atoms: C15_26  and  C16_27 
REMARK   12  A    between atoms: C15_26  and  C20_31 
REMARK   13  A    between atoms: C16_27  and  C17_28 
REMARK       I    between atoms: C20_31  and  N5_33 
REMARK   14  A    between atoms: N5_33  and  C21_35 
REMARK   15  A    between atoms: C21_35  and  C22_36 
REMARK   16  A    between atoms: C21_35  and  C29_51 
REMARK       I    between atoms: C22_36  and  N6_38 
REMARK   17  A    between atoms: N6_38  and  C23_40 
REMARK   18  A    between atoms: C23_40  and  C24_41 
REMARK   19  A    between atoms: C25_44  and  C26_45 
ROOT
HETATM    1  C7  UNL     1      55.110  21.117 -14.803  1.00  0.00     0.362 C 
HETATM    2  C8  UNL     1      56.046  20.489 -15.723  1.00  0.00     0.100 C 
HETATM    3  N3  UNL     1      56.781  20.003 -16.474  1.00  0.00    -0.195 NA
ENDROOT
BRANCH   1   4
HETATM    4  N2  UNL     1      53.931  21.500 -15.542  1.00  0.00    -0.031 N 
ATOM      5  H22 UNL     1      53.243  21.938 -14.929  1.00  0.00     0.280 HD
ATOM      6  H21 UNL     1      53.399  20.679 -15.832  1.00  0.00     0.280 HD
BRANCH   4   7
HETATM    7  C6  UNL     1      54.228  22.345 -16.668  1.00  0.00     0.352 C 
BRANCH   7   8
HETATM    8  C4  UNL     1      54.442  23.759 -16.323  1.00  0.00     0.154 C 
HETATM    9  N1  UNL     1      55.181  24.594 -16.932  1.00  0.00    -0.369 N 
ATOM     10  H1  UNL     1      55.188  25.529 -16.524  1.00  0.00     0.161 HD
BRANCH   9  11
HETATM   11  C3  UNL     1      55.994  24.450 -18.079  1.00  0.00     0.148 C 
BRANCH  11  12
HETATM   12  C2  UNL     1      55.309  25.136 -19.233  1.00  0.00    -0.018 C 
HETATM   13  C1  UNL     1      54.908  24.437 -20.281  1.00  0.00     0.008 C 
ENDBRANCH  11  12
ENDBRANCH   9  11
BRANCH   8  14
HETATM   14  O1  UNL     1      53.767  24.284 -15.193  1.00  0.00    -0.342 OA
HETATM   15  C5  UNL     1      54.478  24.984 -14.208  1.00  0.00     0.211 C 
ENDBRANCH   8  14
ENDBRANCH   7   8
BRANCH   7  16
HETATM   16  C14 UNL     1      53.070  22.273 -17.614  1.00  0.00     0.257 C 
HETATM   17  O3  UNL     1      52.406  23.323 -17.812  1.00  0.00    -0.271 OA
HETATM   18  N4  UNL     1      52.736  21.066 -18.266  1.00  0.00    -0.346 N 
ATOM     19  H4  UNL     1      53.325  20.256 -18.071  1.00  0.00     0.163 HD
BRANCH  18  20
HETATM   20  C15 UNL     1      51.634  20.873 -19.187  1.00  0.00     0.177 C 
BRANCH  20  21
HETATM   21  C16 UNL     1      51.192  19.454 -19.234  1.00  0.00     0.038 C 
BRANCH  21  22
HETATM   22  C17 UNL     1      49.742  19.244 -18.910  1.00  0.00    -0.020 C 
HETATM   23  C18 UNL     1      48.995  18.947 -20.193  1.00  0.00     0.009 C 
HETATM   24  C19 UNL     1      49.083  20.439 -18.285  1.00  0.00     0.009 C 
ENDBRANCH  21  22
ENDBRANCH  20  21
BRANCH  20  25
HETATM   25  C20 UNL     1      52.130  21.228 -20.576  1.00  0.00     0.241 C 
HETATM   26  O4  UNL     1      52.057  22.416 -20.976  1.00  0.00    -0.271 OA
HETATM   27  N5  UNL     1      52.681  20.266 -21.452  1.00  0.00    -0.345 N 
ATOM     28  H5  UNL     1      52.758  19.297 -21.140  1.00  0.00     0.163 HD
BRANCH  27  29
HETATM   29  C21 UNL     1      53.150  20.629 -22.815  1.00  0.00     0.184 C 
BRANCH  29  30
HETATM   30  C22 UNL     1      54.519  20.094 -23.005  1.00  0.00     0.241 C 
HETATM   31  O5  UNL     1      55.316  20.751 -23.712  1.00  0.00    -0.271 OA
HETATM   32  N6  UNL     1      54.955  18.883 -22.430  1.00  0.00    -0.352 N 
ATOM     33  H6  UNL     1      54.309  18.337 -21.859  1.00  0.00     0.162 HD
BRANCH  32  34
HETATM   34  C23 UNL     1      56.296  18.404 -22.635  1.00  0.00     0.209 C 
BRANCH  34  35
HETATM   35  C24 UNL     1      56.395  17.527 -23.805  1.00  0.00     0.166 A 
HETATM   36  N7  UNL     1      57.431  16.732 -24.172  1.00  0.00    -0.325 N 
HETATM   37  C25 UNL     1      57.087  16.108 -25.297  1.00  0.00     0.107 A 
ATOM     38  H7  UNL     1      58.316  16.629 -23.676  1.00  0.00     0.169 HD
HETATM   39  N8  UNL     1      55.858  16.511 -25.624  1.00  0.00    -0.247 N 
HETATM   40  O6  UNL     1      55.477  17.350 -24.721  1.00  0.00    -0.221 OA
ATOM     41  H8  UNL     1      55.320  16.212 -26.437  1.00  0.00     0.196 HD
BRANCH  37  42
HETATM   42  C26 UNL     1      57.938  15.126 -26.042  1.00  0.00     0.047 C 
HETATM   43  C27 UNL     1      58.718  15.909 -27.075  1.00  0.00     0.017 C 
HETATM   44  C28 UNL     1      57.009  14.125 -26.682  1.00  0.00     0.017 C 
ENDBRANCH  37  42
ENDBRANCH  34  35
ENDBRANCH  32  34
ENDBRANCH  29  30
BRANCH  29  45
HETATM   45  C29 UNL     1      52.161  20.018 -23.739  1.00  0.00    -0.022 C 
HETATM   46  C30 UNL     1      51.181  21.110 -24.151  1.00  0.00     0.017 C 
HETATM   47  C31 UNL     1      51.406  18.868 -23.083  1.00  0.00     0.017 C 
HETATM   48  C32 UNL     1      52.748  19.474 -25.011  1.00  0.00     0.017 C 
ENDBRANCH  29  45
ENDBRANCH  27  29
ENDBRANCH  20  25
ENDBRANCH  18  20
ENDBRANCH   7  16
ENDBRANCH   4   7
ENDBRANCH   1   4
BRANCH   1  49
HETATM   49  C9  UNL     1      54.699  20.240 -13.679  1.00  0.00     0.178 C 
HETATM   50  O2  UNL     1      54.502  19.061 -13.933  1.00  0.00    -0.294 OA
BRANCH  49  51
HETATM   51  C10 UNL     1      54.513  20.718 -12.282  1.00  0.00     0.013 C 
HETATM   52  C11 UNL     1      55.416  21.924 -12.081  1.00  0.00     0.022 C 
HETATM   53  C12 UNL     1      53.092  21.061 -11.960  1.00  0.00     0.022 C 
HETATM   54  C13 UNL     1      54.943  19.639 -11.290  1.00  0.00     0.022 C 
ENDBRANCH  49  51
ENDBRANCH   1  49
TORSDOF 19
ENDMDL
MODEL 5
REMARK VINA RESULT: -5.222856498      2.232      4.658
REMARK  19 active torsions:
REMARK  status: ('A' for Active; 'I' for Inactive)
REMARK    1  A    between atoms: C2_2  and  C3_3 
REMARK    2  A    between atoms: C3_3  and  N1_4 
REMARK    3  A    between atoms: C4_6  and  O1_7 
REMARK    4  A    between atoms: C4_6  and  C6_9 
REMARK    5  A    between atoms: C6_9  and  N2_10 
REMARK    6  A    between atoms: C6_9  and  C14_22 
REMARK    7  A    between atoms: N2_10  and  C7_13 
REMARK    8  A    between atoms: C7_13  and  C9_16 
REMARK    9  A    between atoms: C9_16  and  C10_18 
REMARK       I    between atoms: C14_22  and  N4_24 
REMARK   10  A    between atoms: N4_24  and  C15_26 
REMARK   11  A    between atoms: C15_26  and  C16_27 
REMARK   12  A    between atoms: C15_26  and  C20_31 
REMARK   13  A    between atoms: C16_27  and  C17_28 
REMARK       I    between atoms: C20_31  and  N5_33 
REMARK   14  A    between atoms: N5_33  and  C21_35 
REMARK   15  A    between atoms: C21_35  and  C22_36 
REMARK   16  A    between atoms: C21_35  and  C29_51 
REMARK       I    between atoms: C22_36  and  N6_38 
REMARK   17  A    between atoms: N6_38  and  C23_40 
REMARK   18  A    between atoms: C23_40  and  C24_41 
REMARK   19  A    between atoms: C25_44  and  C26_45 
ROOT
HETATM    1  C7  UNL     1      54.249  18.725 -12.391  1.00  0.00     0.362 C 
HETATM    2  C8  UNL     1      55.262  19.374 -11.574  1.00  0.00     0.100 C 
HETATM    3  N3  UNL     1      56.067  19.912 -10.937  1.00  0.00    -0.195 NA
ENDROOT
BRANCH   1   4
HETATM    4  N2  UNL     1      54.263  19.329 -13.701  1.00  0.00    -0.031 N 
ATOM      5  H22 UNL     1      53.723  18.774 -14.365  1.00  0.00     0.280 HD
ATOM      6  H21 UNL     1      55.186  19.251 -14.130  1.00  0.00     0.280 HD
BRANCH   4   7
HETATM    7  C6  UNL     1      53.816  20.696 -13.691  1.00  0.00     0.352 C 
BRANCH   7   8
HETATM    8  C4  UNL     1      52.629  20.950 -14.523  1.00  0.00     0.154 C 
HETATM    9  N1  UNL     1      51.419  20.689 -14.234  1.00  0.00    -0.369 N 
ATOM     10  H1  UNL     1      50.747  20.947 -14.957  1.00  0.00     0.161 HD
BRANCH   9  11
HETATM   11  C3  UNL     1      50.846  20.103 -13.084  1.00  0.00     0.148 C 
BRANCH  11  12
HETATM   12  C2  UNL     1      49.366  19.944 -13.323  1.00  0.00    -0.018 C 
HETATM   13  C1  UNL     1      48.904  18.874 -13.948  1.00  0.00     0.008 C 
ENDBRANCH  11  12
ENDBRANCH   9  11
BRANCH   8  14
HETATM   14  O1  UNL     1      52.815  21.550 -15.793  1.00  0.00    -0.342 OA
HETATM   15  C5  UNL     1      51.710  21.857 -16.598  1.00  0.00     0.211 C 
ENDBRANCH   8  14
ENDBRANCH   7   8
BRANCH   7  16
HETATM   16  C14 UNL     1      54.931  21.549 -14.209  1.00  0.00     0.257 C 
HETATM   17  O3  UNL     1      56.004  20.981 -14.536  1.00  0.00    -0.271 OA
HETATM   18  N4  UNL     1      54.782  22.948 -14.330  1.00  0.00    -0.346 N 
ATOM     19  H4  UNL     1      53.881  23.342 -14.060  1.00  0.00     0.163 HD
BRANCH  18  20
HETATM   20  C15 UNL     1      55.792  23.874 -14.803  1.00  0.00     0.177 C 
BRANCH  20  21
HETATM   21  C16 UNL     1      55.375  25.290 -14.622  1.00  0.00     0.038 C 
BRANCH  21  22
HETATM   22  C17 UNL     1      56.444  26.296 -14.930  1.00  0.00    -0.020 C 
HETATM   23  C18 UNL     1      57.046  26.781 -13.627  1.00  0.00     0.009 C 
HETATM   24  C19 UNL     1      55.942  27.508 -15.659  1.00  0.00     0.009 C 
ENDBRANCH  21  22
ENDBRANCH  20  21
BRANCH  20  25
HETATM   25  C20 UNL     1      55.959  23.648 -16.293  1.00  0.00     0.241 C 
HETATM   26  O4  UNL     1      57.059  23.240 -16.740  1.00  0.00    -0.271 OA
HETATM   27  N5  UNL     1      54.914  23.879 -17.215  1.00  0.00    -0.345 N 
ATOM     28  H5  UNL     1      54.009  24.201 -16.870  1.00  0.00     0.163 HD
BRANCH  27  29
HETATM   29  C21 UNL     1      55.099  23.666 -18.675  1.00  0.00     0.184 C 
BRANCH  29  30
HETATM   30  C22 UNL     1      54.250  22.527 -19.101  1.00  0.00     0.241 C 
HETATM   31  O5  UNL     1      54.565  21.379 -18.714  1.00  0.00    -0.271 OA
HETATM   32  N6  UNL     1      53.114  22.684 -19.921  1.00  0.00    -0.352 N 
ATOM     33  H6  UNL     1      52.854  23.615 -20.248  1.00  0.00     0.162 HD
BRANCH  32  34
HETATM   34  C23 UNL     1      52.315  21.551 -20.305  1.00  0.00     0.209 C 
BRANCH  34  35
HETATM   35  C24 UNL     1      52.825  20.901 -21.514  1.00  0.00     0.166 A 
HETATM   36  N7  UNL     1      53.800  19.963 -21.616  1.00  0.00    -0.325 N 
HETATM   37  C25 UNL     1      53.933  19.652 -22.903  1.00  0.00     0.107 A 
ATOM     38  H7  UNL     1      54.336  19.566 -20.844  1.00  0.00     0.169 HD
HETATM   39  N8  UNL     1      53.057  20.386 -23.591  1.00  0.00    -0.247 N 
HETATM   40  O6  UNL     1      52.417  21.114 -22.740  1.00  0.00    -0.221 OA
ATOM     41  H8  UNL     1      52.919  20.374 -24.601  1.00  0.00     0.196 HD
BRANCH  37  42
HETATM   42  C26 UNL     1      54.895  18.648 -23.461  1.00  0.00     0.047 C 
HETATM   43  C27 UNL     1      55.998  18.474 -22.439  1.00  0.00     0.017 C 
HETATM   44  C28 UNL     1      55.419  19.203 -24.761  1.00  0.00     0.017 C 
ENDBRANCH  37  42
ENDBRANCH  34  35
ENDBRANCH  32  34
ENDBRANCH  29  30
BRANCH  29  45
HETATM   45  C29 UNL     1      54.697  24.948 -19.306  1.00  0.00    -0.022 C 
HETATM   46  C30 UNL     1      55.836  25.940 -19.094  1.00  0.00     0.017 C 
HETATM   47  C31 UNL     1      53.412  25.502 -18.703  1.00  0.00     0.017 C 
HETATM   48  C32 UNL     1      54.474  24.871 -20.790  1.00  0.00     0.017 C 
ENDBRANCH  29  45
ENDBRANCH  27  29
ENDBRANCH  20  25
ENDBRANCH  18  20
ENDBRANCH   7  16
ENDBRANCH   4   7
ENDBRANCH   1   4
BRANCH   1  49
HETATM   49  C9  UNL     1      54.450  17.263 -12.542  1.00  0.00     0.178 C 
HETATM   50  O2  UNL     1      55.509  16.892 -13.025  1.00  0.00    -0.294 OA
BRANCH  49  51
HETATM   51  C10 UNL     1      53.442  16.243 -12.147  1.00  0.00     0.013 C 
HETATM   52  C11 UNL     1      53.795  14.945 -12.854  1.00  0.00     0.022 C 
HETATM   53  C12 UNL     1      53.362  16.034 -10.667  1.00  0.00     0.022 C 
HETATM   54  C13 UNL     1      52.049  16.665 -12.610  1.00  0.00     0.022 C 
ENDBRANCH  49  51
ENDBRANCH   1  49
TORSDOF 19
ENDMDL
