MODEL 1
REMARK VINA RESULT: -4.847755114      0.000      0.000
REMARK  3 active torsions:
REMARK  status: ('A' for Active; 'I' for Inactive)
REMARK    1  A    between atoms: C4_11  and  N4_12 
REMARK    2  A    between atoms: N4_12  and  S1_14 
REMARK    3  A    between atoms: S1_14  and  N5_15 
ROOT
HETATM    1  N1  UNL     1     -23.565  -0.968 -28.315  1.00  0.00    -0.080 NA
HETATM    2  C1  UNL     1     -23.810  -0.816 -26.918  1.00  0.00     0.153 A 
HETATM    3  N2  UNL     1     -23.106   0.058 -26.178  1.00  0.00    -0.295 N 
ATOM      4  H2  UNL     1     -22.379   0.629 -26.610  1.00  0.00     0.172 HD
HETATM    5  C2  UNL     1     -23.368   0.171 -24.867  1.00  0.00     0.328 A 
HETATM    6  O1  UNL     1     -22.701   1.000 -24.158  1.00  0.00    -0.247 OA
HETATM    7  N3  UNL     1     -24.329  -0.585 -24.300  1.00  0.00    -0.273 N 
ATOM      8  H3  UNL     1     -24.505  -0.475 -23.301  1.00  0.00     0.173 HD
HETATM    9  C3  UNL     1     -25.069  -1.476 -24.983  1.00  0.00     0.280 A 
HETATM   10  O2  UNL     1     -25.958  -2.158 -24.396  1.00  0.00    -0.265 OA
HETATM   11  C4  UNL     1     -24.802  -1.594 -26.327  1.00  0.00     0.153 A 
ENDROOT
BRANCH  11  12
HETATM   12  N4  UNL     1     -25.565  -2.526 -27.076  1.00  0.00    -0.260 N 
ATOM     13  H4  UNL     1     -26.463  -2.214 -27.446  1.00  0.00     0.180 HD
BRANCH  12  14
HETATM   14  S1  UNL     1     -25.090  -4.126 -27.401  1.00  0.00     0.317 S 
HETATM   15  O3  UNL     1     -26.187  -4.957 -27.992  1.00  0.00    -0.183 OA
HETATM   16  O4  UNL     1     -24.660  -4.775 -26.115  1.00  0.00    -0.183 OA
BRANCH  14  17
HETATM   17  N5  UNL     1     -23.753  -4.209 -28.501  1.00  0.00    -0.311 N 
ATOM     18  H52 UNL     1     -23.466  -3.424 -29.086  1.00  0.00     0.170 HD
ATOM     19  H51 UNL     1     -23.298  -5.122 -28.493  1.00  0.00     0.170 HD
ENDBRANCH  14  17
ENDBRANCH  12  14
ENDBRANCH  11  12
TORSDOF 3
ENDMDL
MODEL 2
REMARK VINA RESULT: -4.827018829      1.349      2.200
REMARK  3 active torsions:
REMARK  status: ('A' for Active; 'I' for Inactive)
REMARK    1  A    between atoms: C4_11  and  N4_12 
REMARK    2  A    between atoms: N4_12  and  S1_14 
REMARK    3  A    between atoms: S1_14  and  N5_15 
ROOT
HETATM    1  N1  UNL     1     -26.150  -2.239 -24.528  1.00  0.00    -0.080 NA
HETATM    2  C1  UNL     1     -25.071  -1.495 -25.093  1.00  0.00     0.153 A 
HETATM    3  N2  UNL     1     -24.398  -0.585 -24.368  1.00  0.00    -0.295 N 
ATOM      4  H2  UNL     1     -24.651  -0.413 -23.395  1.00  0.00     0.172 HD
HETATM    5  C2  UNL     1     -23.389   0.094 -24.938  1.00  0.00     0.328 A 
HETATM    6  O1  UNL     1     -22.745   0.961 -24.253  1.00  0.00    -0.247 OA
HETATM    7  N3  UNL     1     -23.058  -0.137 -26.223  1.00  0.00    -0.273 N 
ATOM      8  H3  UNL     1     -22.287   0.396 -26.627  1.00  0.00     0.173 HD
HETATM    9  C3  UNL     1     -23.690  -1.032 -27.001  1.00  0.00     0.280 A 
HETATM   10  O2  UNL     1     -23.334  -1.205 -28.203  1.00  0.00    -0.265 OA
HETATM   11  C4  UNL     1     -24.724  -1.729 -26.421  1.00  0.00     0.153 A 
ENDROOT
BRANCH  11  12
HETATM   12  N4  UNL     1     -25.412  -2.681 -27.216  1.00  0.00    -0.260 N 
ATOM     13  H4  UNL     1     -26.270  -2.379 -27.680  1.00  0.00     0.180 HD
BRANCH  12  14
HETATM   14  S1  UNL     1     -24.911  -4.289 -27.449  1.00  0.00     0.317 S 
HETATM   15  O3  UNL     1     -25.978  -5.158 -28.041  1.00  0.00    -0.183 OA
HETATM   16  O4  UNL     1     -24.523  -4.874 -26.120  1.00  0.00    -0.183 OA
BRANCH  14  17
HETATM   17  N5  UNL     1     -23.533  -4.408 -28.495  1.00  0.00    -0.311 N 
ATOM     18  H52 UNL     1     -23.418  -5.158 -29.177  1.00  0.00     0.170 HD
ATOM     19  H51 UNL     1     -22.866  -3.652 -28.347  1.00  0.00     0.170 HD
ENDBRANCH  14  17
ENDBRANCH  12  14
ENDBRANCH  11  12
TORSDOF 3
ENDMDL
MODEL 3
REMARK VINA RESULT: -4.670017231      1.575      1.853
REMARK  3 active torsions:
REMARK  status: ('A' for Active; 'I' for Inactive)
REMARK    1  A    between atoms: C4_11  and  N4_12 
REMARK    2  A    between atoms: N4_12  and  S1_14 
REMARK    3  A    between atoms: S1_14  and  N5_15 
ROOT
HETATM    1  N1  UNL     1     -25.770  -0.525 -27.383  1.00  0.00    -0.080 NA
HETATM    2  C1  UNL     1     -24.636  -0.695 -26.533  1.00  0.00     0.153 A 
HETATM    3  N2  UNL     1     -24.243   0.278 -25.693  1.00  0.00    -0.295 N 
ATOM      4  H2  UNL     1     -24.755   1.159 -25.651  1.00  0.00     0.172 HD
HETATM    5  C2  UNL     1     -23.171   0.078 -24.911  1.00  0.00     0.328 A 
HETATM    6  O1  UNL     1     -22.792   1.000 -24.110  1.00  0.00    -0.247 OA
HETATM    7  N3  UNL     1     -22.497  -1.087 -24.970  1.00  0.00    -0.273 N 
ATOM      8  H3  UNL     1     -21.686  -1.208 -24.362  1.00  0.00     0.173 HD
HETATM    9  C3  UNL     1     -22.837  -2.099 -25.787  1.00  0.00     0.280 A 
HETATM   10  O2  UNL     1     -22.165  -3.171 -25.798  1.00  0.00    -0.265 OA
HETATM   11  C4  UNL     1     -23.936  -1.897 -26.590  1.00  0.00     0.153 A 
ENDROOT
BRANCH  11  12
HETATM   12  N4  UNL     1     -24.321  -2.945 -27.464  1.00  0.00    -0.260 N 
ATOM     13  H4  UNL     1     -24.074  -2.855 -28.450  1.00  0.00     0.180 HD
BRANCH  12  14
HETATM   14  S1  UNL     1     -25.166  -4.341 -26.986  1.00  0.00     0.317 S 
HETATM   15  O3  UNL     1     -25.985  -4.940 -28.088  1.00  0.00    -0.183 OA
HETATM   16  O4  UNL     1     -26.097  -3.985 -25.861  1.00  0.00    -0.183 OA
BRANCH  14  17
HETATM   17  N5  UNL     1     -24.110  -5.591 -26.413  1.00  0.00    -0.311 N 
ATOM     18  H52 UNL     1     -23.165  -5.407 -26.075  1.00  0.00     0.170 HD
ATOM     19  H51 UNL     1     -24.541  -6.514 -26.455  1.00  0.00     0.170 HD
ENDBRANCH  14  17
ENDBRANCH  12  14
ENDBRANCH  11  12
TORSDOF 3
ENDMDL
MODEL 4
REMARK VINA RESULT: -4.623934144      1.700      2.486
REMARK  3 active torsions:
REMARK  status: ('A' for Active; 'I' for Inactive)
REMARK    1  A    between atoms: C4_11  and  N4_12 
REMARK    2  A    between atoms: N4_12  and  S1_14 
REMARK    3  A    between atoms: S1_14  and  N5_15 
ROOT
HETATM    1  N1  UNL     1     -26.013  -2.459 -24.833  1.00  0.00    -0.080 NA
HETATM    2  C1  UNL     1     -25.009  -1.566 -25.315  1.00  0.00     0.153 A 
HETATM    3  N2  UNL     1     -24.422  -0.673 -24.500  1.00  0.00    -0.295 N 
ATOM      4  H2  UNL     1     -24.689  -0.621 -23.517  1.00  0.00     0.172 HD
HETATM    5  C2  UNL     1     -23.482   0.148 -24.993  1.00  0.00     0.328 A 
HETATM    6  O1  UNL     1     -22.920   1.000 -24.222  1.00  0.00    -0.247 OA
HETATM    7  N3  UNL     1     -23.132   0.076 -26.292  1.00  0.00    -0.273 N 
ATOM      8  H3  UNL     1     -22.414   0.714 -26.636  1.00  0.00     0.173 HD
HETATM    9  C3  UNL     1     -23.680  -0.794 -27.158  1.00  0.00     0.280 A 
HETATM   10  O2  UNL     1     -23.310  -0.815 -28.368  1.00  0.00    -0.265 OA
HETATM   11  C4  UNL     1     -24.644  -1.637 -26.657  1.00  0.00     0.153 A 
ENDROOT
BRANCH  11  12
HETATM   12  N4  UNL     1     -25.242  -2.566 -27.545  1.00  0.00    -0.260 N 
ATOM     13  H4  UNL     1     -26.122  -2.300 -27.988  1.00  0.00     0.180 HD
BRANCH  12  14
HETATM   14  S1  UNL     1     -24.596  -4.093 -27.926  1.00  0.00     0.317 S 
HETATM   15  O3  UNL     1     -23.684  -4.067 -29.114  1.00  0.00    -0.183 OA
HETATM   16  O4  UNL     1     -25.726  -5.036 -28.232  1.00  0.00    -0.183 OA
BRANCH  14  17
HETATM   17  N5  UNL     1     -23.688  -4.774 -26.616  1.00  0.00    -0.311 N 
ATOM     18  H52 UNL     1     -24.028  -4.787 -25.653  1.00  0.00     0.170 HD
ATOM     19  H51 UNL     1     -22.791  -5.152 -26.918  1.00  0.00     0.170 HD
ENDBRANCH  14  17
ENDBRANCH  12  14
ENDBRANCH  11  12
TORSDOF 3
ENDMDL
MODEL 5
REMARK VINA RESULT: -4.555567066      1.775      1.903
REMARK  3 active torsions:
REMARK  status: ('A' for Active; 'I' for Inactive)
REMARK    1  A    between atoms: C4_11  and  N4_12 
REMARK    2  A    between atoms: N4_12  and  S1_14 
REMARK    3  A    between atoms: S1_14  and  N5_15 
ROOT
HETATM    1  N1  UNL     1     -22.177  -3.347 -25.742  1.00  0.00    -0.080 NA
HETATM    2  C1  UNL     1     -22.878  -2.105 -25.701  1.00  0.00     0.153 A 
HETATM    3  N2  UNL     1     -22.478  -1.107 -24.894  1.00  0.00    -0.295 N 
ATOM      4  H2  UNL     1     -21.661  -1.225 -24.295  1.00  0.00     0.172 HD
HETATM    5  C2  UNL     1     -23.165   0.047 -24.885  1.00  0.00     0.328 A 
HETATM    6  O1  UNL     1     -22.789   1.000 -24.119  1.00  0.00    -0.247 OA
HETATM    7  N3  UNL     1     -24.243   0.199 -25.679  1.00  0.00    -0.273 N 
ATOM      8  H3  UNL     1     -24.744   1.088 -25.649  1.00  0.00     0.173 HD
HETATM    9  C3  UNL     1     -24.694  -0.758 -26.507  1.00  0.00     0.280 A 
HETATM   10  O2  UNL     1     -25.713  -0.557 -27.229  1.00  0.00    -0.265 OA
HETATM   11  C4  UNL     1     -23.993  -1.942 -26.519  1.00  0.00     0.153 A 
ENDROOT
BRANCH  11  12
HETATM   12  N4  UNL     1     -24.443  -2.972 -27.382  1.00  0.00    -0.260 N 
ATOM     13  H4  UNL     1     -24.197  -2.904 -28.370  1.00  0.00     0.180 HD
BRANCH  12  14
HETATM   14  S1  UNL     1     -25.362  -4.315 -26.888  1.00  0.00     0.317 S 
HETATM   15  O3  UNL     1     -26.292  -4.815 -27.951  1.00  0.00    -0.183 OA
HETATM   16  O4  UNL     1     -26.191  -3.924 -25.696  1.00  0.00    -0.183 OA
BRANCH  14  17
HETATM   17  N5  UNL     1     -24.373  -5.658 -26.418  1.00  0.00    -0.311 N 
ATOM     18  H52 UNL     1     -24.479  -6.592 -26.816  1.00  0.00     0.170 HD
ATOM     19  H51 UNL     1     -23.686  -5.406 -25.708  1.00  0.00     0.170 HD
ENDBRANCH  14  17
ENDBRANCH  12  14
ENDBRANCH  11  12
TORSDOF 3
ENDMDL
