MODEL 1
REMARK VINA RESULT: -5.334343884      0.000      0.000
REMARK  3 active torsions:
REMARK  status: ('A' for Active; 'I' for Inactive)
REMARK    1  A    between atoms: N1_1  and  C1_4 
REMARK    2  A    between atoms: N4_11  and  C3_12 
REMARK    3  A    between atoms: C3_12  and  C4_13 
ROOT
HETATM    1  C1  UNL     1     -22.925  -4.597 -26.644  1.00  0.00     0.697 A 
HETATM    2  N2  UNL     1     -22.527  -5.584 -27.467  1.00  0.00    -0.128 N 
ATOM      3  H2  UNL     1     -21.619  -6.050 -27.459  1.00  0.00     0.205 HD
HETATM    4  N3  UNL     1     -23.529  -5.838 -28.287  1.00  0.00    -0.236 N 
ATOM      5  H3  UNL     1     -23.521  -6.541 -29.026  1.00  0.00     0.192 HD
HETATM    6  C2  UNL     1     -24.566  -5.023 -27.997  1.00  0.00     0.356 A 
HETATM    7  O1  UNL     1     -25.684  -5.021 -28.610  1.00  0.00    -0.244 OA
HETATM    8  N4  UNL     1     -24.190  -4.244 -26.967  1.00  0.00    -0.125 N 
ENDROOT
BRANCH   8   9
HETATM    9  C3  UNL     1     -24.981  -3.217 -26.317  1.00  0.00     0.209 C 
BRANCH   9  10
HETATM   10  C4  UNL     1     -24.415  -1.864 -26.485  1.00  0.00     0.038 A 
HETATM   11  C5  UNL     1     -24.113  -1.020 -25.438  1.00  0.00     0.101 A 
HETATM   12  C6  UNL     1     -23.577   0.253 -25.664  1.00  0.00     0.251 A 
HETATM   13  O2  UNL     1     -23.314   1.000 -24.685  1.00  0.00    -0.268 OA
HETATM   14  N5  UNL     1     -23.370   0.614 -26.929  1.00  0.00    -0.275 N 
HETATM   15  C7  UNL     1     -23.656  -0.189 -27.965  1.00  0.00     0.327 A 
ATOM     16  H5  UNL     1     -22.980   1.538 -27.117  1.00  0.00     0.173 HD
HETATM   17  O3  UNL     1     -23.450   0.176 -29.170  1.00  0.00    -0.247 OA
HETATM   18  N6  UNL     1     -24.171  -1.409 -27.722  1.00  0.00    -0.310 N 
ATOM     19  H6  UNL     1     -24.385  -2.014 -28.515  1.00  0.00     0.170 HD
ENDBRANCH   9  10
ENDBRANCH   8   9
BRANCH   1  20
HETATM   20  N1  UNL     1     -22.173  -4.109 -25.715  1.00  0.00    -0.233 N 
ATOM     21  H12 UNL     1     -22.450  -3.763 -24.796  1.00  0.00     0.174 HD
ATOM     22  H11 UNL     1     -21.162  -4.015 -25.810  1.00  0.00     0.174 HD
ENDBRANCH   1  20
TORSDOF 3
ENDMDL
MODEL 2
REMARK VINA RESULT: -5.310250490      0.707      2.001
REMARK  3 active torsions:
REMARK  status: ('A' for Active; 'I' for Inactive)
REMARK    1  A    between atoms: N1_1  and  C1_4 
REMARK    2  A    between atoms: N4_11  and  C3_12 
REMARK    3  A    between atoms: C3_12  and  C4_13 
ROOT
HETATM    1  C1  UNL     1     -22.801  -4.404 -26.559  1.00  0.00     0.697 A 
HETATM    2  N2  UNL     1     -22.356  -5.389 -27.361  1.00  0.00    -0.128 N 
ATOM      3  H2  UNL     1     -21.446  -5.847 -27.309  1.00  0.00     0.205 HD
HETATM    4  N3  UNL     1     -23.316  -5.652 -28.227  1.00  0.00    -0.236 N 
ATOM      5  H3  UNL     1     -23.266  -6.357 -28.963  1.00  0.00     0.192 HD
HETATM    6  C2  UNL     1     -24.373  -4.847 -27.988  1.00  0.00     0.356 A 
HETATM    7  O1  UNL     1     -25.460  -4.855 -28.654  1.00  0.00    -0.244 OA
HETATM    8  N4  UNL     1     -24.052  -4.062 -26.942  1.00  0.00    -0.125 N 
ENDROOT
BRANCH   8   9
HETATM    9  C3  UNL     1     -24.882  -3.042 -26.332  1.00  0.00     0.209 C 
BRANCH   9  10
HETATM   10  C4  UNL     1     -24.377  -1.675 -26.570  1.00  0.00     0.038 A 
HETATM   11  C5  UNL     1     -24.246  -1.109 -27.820  1.00  0.00     0.101 A 
HETATM   12  C6  UNL     1     -23.761   0.194 -27.979  1.00  0.00     0.251 A 
HETATM   13  O2  UNL     1     -23.653   0.681 -29.135  1.00  0.00    -0.268 OA
HETATM   14  N5  UNL     1     -23.433   0.864 -26.875  1.00  0.00    -0.275 N 
HETATM   15  C7  UNL     1     -23.551   0.335 -25.647  1.00  0.00     0.327 A 
ATOM     16  H5  UNL     1     -23.078   1.816 -26.967  1.00  0.00     0.173 HD
HETATM   17  O3  UNL     1     -23.232   0.994 -24.603  1.00  0.00    -0.247 OA
HETATM   18  N6  UNL     1     -24.020  -0.920 -25.521  1.00  0.00    -0.310 N 
ATOM     19  H6  UNL     1     -24.108  -1.315 -24.584  1.00  0.00     0.170 HD
ENDBRANCH   9  10
ENDBRANCH   8   9
BRANCH   1  20
HETATM   20  N1  UNL     1     -22.098  -3.909 -25.597  1.00  0.00    -0.233 N 
ATOM     21  H12 UNL     1     -21.182  -4.210 -25.266  1.00  0.00     0.174 HD
ATOM     22  H11 UNL     1     -22.407  -3.117 -25.033  1.00  0.00     0.174 HD
ENDBRANCH   1  20
TORSDOF 3
ENDMDL
MODEL 3
REMARK VINA RESULT: -5.205946590      1.512      2.734
REMARK  3 active torsions:
REMARK  status: ('A' for Active; 'I' for Inactive)
REMARK    1  A    between atoms: N1_1  and  C1_4 
REMARK    2  A    between atoms: N4_11  and  C3_12 
REMARK    3  A    between atoms: C3_12  and  C4_13 
ROOT
HETATM    1  C1  UNL     1     -24.548  -4.981 -27.754  1.00  0.00     0.697 A 
HETATM    2  N2  UNL     1     -23.478  -5.764 -27.986  1.00  0.00    -0.128 N 
ATOM      3  H2  UNL     1     -23.435  -6.556 -28.628  1.00  0.00     0.205 HD
HETATM    4  N3  UNL     1     -22.495  -5.317 -27.229  1.00  0.00    -0.236 N 
ATOM      5  H3  UNL     1     -21.556  -5.713 -27.190  1.00  0.00     0.192 HD
HETATM    6  C2  UNL     1     -22.923  -4.254 -26.514  1.00  0.00     0.356 A 
HETATM    7  O1  UNL     1     -22.209  -3.597 -25.687  1.00  0.00    -0.244 OA
HETATM    8  N4  UNL     1     -24.211  -4.042 -26.841  1.00  0.00    -0.125 N 
ENDROOT
BRANCH   8   9
HETATM    9  C3  UNL     1     -25.082  -3.006 -26.323  1.00  0.00     0.209 C 
BRANCH   9  10
HETATM   10  C4  UNL     1     -24.511  -1.652 -26.465  1.00  0.00     0.038 A 
HETATM   11  C5  UNL     1     -24.421  -0.977 -27.664  1.00  0.00     0.101 A 
HETATM   12  C6  UNL     1     -23.869   0.308 -27.733  1.00  0.00     0.251 A 
HETATM   13  O2  UNL     1     -23.801   0.896 -28.843  1.00  0.00    -0.268 OA
HETATM   14  N5  UNL     1     -23.436   0.850 -26.596  1.00  0.00    -0.275 N 
HETATM   15  C7  UNL     1     -23.512   0.213 -25.417  1.00  0.00     0.327 A 
ATOM     16  H5  UNL     1     -23.030   1.785 -26.622  1.00  0.00     0.173 HD
HETATM   17  O3  UNL     1     -23.091   0.749 -24.339  1.00  0.00    -0.247 OA
HETATM   18  N6  UNL     1     -24.048  -1.022 -25.377  1.00  0.00    -0.310 N 
ATOM     19  H6  UNL     1     -24.102  -1.500 -24.477  1.00  0.00     0.170 HD
ENDBRANCH   9  10
ENDBRANCH   8   9
BRANCH   1  20
HETATM   20  N1  UNL     1     -25.685  -5.152 -28.341  1.00  0.00    -0.233 N 
ATOM     21  H12 UNL     1     -25.894  -5.097 -29.338  1.00  0.00     0.174 HD
ATOM     22  H11 UNL     1     -26.544  -5.372 -27.837  1.00  0.00     0.174 HD
ENDBRANCH   1  20
TORSDOF 3
ENDMDL
MODEL 4
REMARK VINA RESULT: -5.113477758      1.406      1.931
REMARK  3 active torsions:
REMARK  status: ('A' for Active; 'I' for Inactive)
REMARK    1  A    between atoms: N1_1  and  C1_4 
REMARK    2  A    between atoms: N4_11  and  C3_12 
REMARK    3  A    between atoms: C3_12  and  C4_13 
ROOT
HETATM    1  C1  UNL     1     -24.409  -4.576 -28.023  1.00  0.00     0.697 A 
HETATM    2  N2  UNL     1     -23.368  -5.406 -28.225  1.00  0.00    -0.128 N 
ATOM      3  H2  UNL     1     -23.260  -6.064 -28.997  1.00  0.00     0.205 HD
HETATM    4  N3  UNL     1     -22.515  -5.209 -27.239  1.00  0.00    -0.236 N 
ATOM      5  H3  UNL     1     -21.627  -5.699 -27.124  1.00  0.00     0.192 HD
HETATM    6  C2  UNL     1     -22.996  -4.261 -26.407  1.00  0.00     0.356 A 
HETATM    7  O1  UNL     1     -22.405  -3.845 -25.357  1.00  0.00    -0.244 OA
HETATM    8  N4  UNL     1     -24.184  -3.862 -26.897  1.00  0.00    -0.125 N 
ENDROOT
BRANCH   8   9
HETATM    9  C3  UNL     1     -25.066  -2.858 -26.334  1.00  0.00     0.209 C 
BRANCH   9  10
HETATM   10  C4  UNL     1     -24.479  -1.504 -26.352  1.00  0.00     0.038 A 
HETATM   11  C5  UNL     1     -24.005  -0.855 -25.232  1.00  0.00     0.101 A 
HETATM   12  C6  UNL     1     -23.458   0.431 -25.316  1.00  0.00     0.251 A 
HETATM   13  O2  UNL     1     -23.035   0.996 -24.274  1.00  0.00    -0.268 OA
HETATM   14  N5  UNL     1     -23.415   1.000 -26.519  1.00  0.00    -0.275 N 
HETATM   15  C7  UNL     1     -23.870   0.390 -27.624  1.00  0.00     0.327 A 
ATOM     16  H5  UNL     1     -23.020   1.937 -26.604  1.00  0.00     0.173 HD
HETATM   17  O3  UNL     1     -23.819   0.953 -28.767  1.00  0.00    -0.247 OA
HETATM   18  N6  UNL     1     -24.391  -0.847 -27.517  1.00  0.00    -0.310 N 
ATOM     19  H6  UNL     1     -24.735  -1.305 -28.362  1.00  0.00     0.170 HD
ENDBRANCH   9  10
ENDBRANCH   8   9
BRANCH   1  20
HETATM   20  N1  UNL     1     -25.426  -4.518 -28.815  1.00  0.00    -0.233 N 
ATOM     21  H12 UNL     1     -25.435  -4.340 -29.819  1.00  0.00     0.174 HD
ATOM     22  H11 UNL     1     -26.386  -4.653 -28.498  1.00  0.00     0.174 HD
ENDBRANCH   1  20
TORSDOF 3
ENDMDL
MODEL 5
REMARK VINA RESULT: -5.063528336      4.566      7.294
REMARK  3 active torsions:
REMARK  status: ('A' for Active; 'I' for Inactive)
REMARK    1  A    between atoms: N1_1  and  C1_4 
REMARK    2  A    between atoms: N4_11  and  C3_12 
REMARK    3  A    between atoms: C3_12  and  C4_13 
ROOT
HETATM    1  C1  UNL     1     -23.345  -6.734 -27.555  1.00  0.00     0.697 A 
HETATM    2  N2  UNL     1     -22.738  -5.540 -27.417  1.00  0.00    -0.128 N 
ATOM      3  H2  UNL     1     -21.818  -5.285 -27.774  1.00  0.00     0.205 HD
HETATM    4  N3  UNL     1     -23.555  -4.763 -26.733  1.00  0.00    -0.236 N 
ATOM      5  H3  UNL     1     -23.365  -3.795 -26.472  1.00  0.00     0.192 HD
HETATM    6  C2  UNL     1     -24.680  -5.445 -26.431  1.00  0.00     0.356 A 
HETATM    7  O1  UNL     1     -25.666  -4.971 -25.775  1.00  0.00    -0.244 OA
HETATM    8  N4  UNL     1     -24.551  -6.682 -26.945  1.00  0.00    -0.125 N 
ENDROOT
BRANCH   8   9
HETATM    9  C3  UNL     1     -25.515  -7.762 -26.869  1.00  0.00     0.209 C 
BRANCH   9  10
HETATM   10  C4  UNL     1     -25.520  -8.434 -25.554  1.00  0.00     0.038 A 
HETATM   11  C5  UNL     1     -25.916  -9.741 -25.359  1.00  0.00     0.101 A 
HETATM   12  C6  UNL     1     -25.897 -10.322 -24.086  1.00  0.00     0.251 A 
HETATM   13  O2  UNL     1     -26.266 -11.516 -23.942  1.00  0.00    -0.268 OA
HETATM   14  N5  UNL     1     -25.481  -9.563 -23.073  1.00  0.00    -0.275 N 
HETATM   15  C7  UNL     1     -25.091  -8.289 -23.237  1.00  0.00     0.327 A 
ATOM     16  H5  UNL     1     -25.458  -9.966 -22.136  1.00  0.00     0.173 HD
HETATM   17  O3  UNL     1     -24.695  -7.580 -22.254  1.00  0.00    -0.247 OA
HETATM   18  N6  UNL     1     -25.118  -7.753 -24.472  1.00  0.00    -0.310 N 
ATOM     19  H6  UNL     1     -24.819  -6.785 -24.589  1.00  0.00     0.170 HD
ENDBRANCH   9  10
ENDBRANCH   8   9
BRANCH   1  20
HETATM   20  N1  UNL     1     -22.809  -7.728 -28.180  1.00  0.00    -0.233 N 
ATOM     21  H12 UNL     1     -21.947  -7.739 -28.725  1.00  0.00     0.174 HD
ATOM     22  H11 UNL     1     -23.218  -8.662 -28.194  1.00  0.00     0.174 HD
ENDBRANCH   1  20
TORSDOF 3
ENDMDL
