MODEL 1
REMARK VINA RESULT: -5.319524069      0.000      0.000
REMARK  4 active torsions:
REMARK  status: ('A' for Active; 'I' for Inactive)
REMARK    1  A    between atoms: O1_2  and  C2_3 
REMARK    2  A    between atoms: C5_11  and  N4_12 
REMARK    3  A    between atoms: N4_12  and  C6_14 
REMARK    4  A    between atoms: C7_19  and  N7_20 
ROOT
HETATM    1  N4  UNL     1     -22.627  -3.280 -25.908  1.00  0.00    -0.200 N 
ATOM      2  H4  UNL     1     -21.701  -3.160 -25.498  1.00  0.00     0.180 HD
ENDROOT
BRANCH   1   3
HETATM    3  C5  UNL     1     -23.630  -2.188 -25.909  1.00  0.00     0.235 A 
HETATM    4  C2  UNL     1     -23.880  -1.708 -27.285  1.00  0.00     0.202 A 
HETATM    5  C3  UNL     1     -23.748  -0.267 -27.443  1.00  0.00     0.099 A 
HETATM    6  N1  UNL     1     -23.446   0.514 -26.497  1.00  0.00    -0.342 N 
HETATM    7  C4  UNL     1     -23.203   0.040 -25.162  1.00  0.00     0.189 A 
ATOM      8  H1  UNL     1     -23.373   1.514 -26.687  1.00  0.00     0.167 HD
HETATM    9  N2  UNL     1     -22.867   0.985 -24.154  1.00  0.00    -0.064 NA
HETATM   10  N3  UNL     1     -23.304  -1.201 -24.967  1.00  0.00    -0.340 N 
ATOM     11  H3  UNL     1     -23.129  -1.525 -24.015  1.00  0.00     0.164 HD
BRANCH   4  12
HETATM   12  O1  UNL     1     -25.141  -2.162 -27.730  1.00  0.00    -0.382 OA
HETATM   13  C1  UNL     1     -26.154  -1.874 -26.835  1.00  0.00     0.202 C 
ENDBRANCH   4  12
ENDBRANCH   1   3
BRANCH   1  14
HETATM   14  C6  UNL     1     -22.991  -4.388 -26.453  1.00  0.00     0.709 A 
HETATM   15  N5  UNL     1     -22.268  -5.229 -27.214  1.00  0.00    -0.117 N 
HETATM   16  N6  UNL     1     -23.001  -6.268 -27.588  1.00  0.00    -0.118 N 
ATOM     17  H5  UNL     1     -21.291  -5.086 -27.468  1.00  0.00     0.206 HD
HETATM   18  C7  UNL     1     -24.217  -6.081 -27.050  1.00  0.00     0.705 A 
ATOM     19  H6  UNL     1     -22.701  -7.052 -28.168  1.00  0.00     0.206 HD
HETATM   20  N8  UNL     1     -24.212  -4.946 -26.364  1.00  0.00    -0.020 N 
ATOM     21  H8  UNL     1     -25.005  -4.559 -25.853  1.00  0.00     0.203 HD
BRANCH  18  22
HETATM   22  N7  UNL     1     -25.233  -6.882 -27.181  1.00  0.00    -0.233 N 
ATOM     23  H72 UNL     1     -25.473  -7.405 -28.023  1.00  0.00     0.174 HD
ATOM     24  H71 UNL     1     -25.921  -7.090 -26.457  1.00  0.00     0.174 HD
ENDBRANCH  18  22
ENDBRANCH   1  14
TORSDOF 4
ENDMDL
MODEL 2
REMARK VINA RESULT: -5.239431007      0.539      1.124
REMARK  4 active torsions:
REMARK  status: ('A' for Active; 'I' for Inactive)
REMARK    1  A    between atoms: O1_2  and  C2_3 
REMARK    2  A    between atoms: C5_11  and  N4_12 
REMARK    3  A    between atoms: N4_12  and  C6_14 
REMARK    4  A    between atoms: C7_19  and  N7_20 
ROOT
HETATM    1  N4  UNL     1     -22.688  -3.368 -25.999  1.00  0.00    -0.200 N 
ATOM      2  H4  UNL     1     -21.726  -3.247 -25.682  1.00  0.00     0.180 HD
ENDROOT
BRANCH   1   3
HETATM    3  C5  UNL     1     -23.672  -2.261 -25.951  1.00  0.00     0.235 A 
HETATM    4  C2  UNL     1     -23.964  -1.761 -27.312  1.00  0.00     0.202 A 
HETATM    5  C3  UNL     1     -23.814  -0.320 -27.457  1.00  0.00     0.099 A 
HETATM    6  N1  UNL     1     -23.467   0.446 -26.515  1.00  0.00    -0.342 N 
HETATM    7  C4  UNL     1     -23.183  -0.049 -25.195  1.00  0.00     0.189 A 
ATOM      8  H1  UNL     1     -23.385   1.446 -26.695  1.00  0.00     0.167 HD
HETATM    9  N2  UNL     1     -22.797   0.879 -24.188  1.00  0.00    -0.064 NA
HETATM   10  N3  UNL     1     -23.297  -1.290 -25.010  1.00  0.00    -0.340 N 
ATOM     11  H3  UNL     1     -23.093  -1.628 -24.069  1.00  0.00     0.164 HD
BRANCH   4  12
HETATM   12  O1  UNL     1     -25.246  -2.190 -27.716  1.00  0.00    -0.382 OA
HETATM   13  C1  UNL     1     -26.207  -1.979 -26.744  1.00  0.00     0.202 C 
ENDBRANCH   4  12
ENDBRANCH   1   3
BRANCH   1  14
HETATM   14  C6  UNL     1     -23.114  -4.491 -26.462  1.00  0.00     0.709 A 
HETATM   15  N5  UNL     1     -24.288  -5.105 -26.232  1.00  0.00    -0.117 N 
HETATM   16  N6  UNL     1     -24.354  -6.251 -26.895  1.00  0.00    -0.118 N 
ATOM     17  H5  UNL     1     -25.025  -4.740 -25.629  1.00  0.00     0.206 HD
HETATM   18  C7  UNL     1     -23.194  -6.364 -27.563  1.00  0.00     0.705 A 
ATOM     19  H6  UNL     1     -25.130  -6.913 -26.897  1.00  0.00     0.206 HD
HETATM   20  N8  UNL     1     -22.445  -5.301 -27.303  1.00  0.00    -0.020 N 
ATOM     21  H8  UNL     1     -21.514  -5.127 -27.679  1.00  0.00     0.203 HD
BRANCH  18  22
HETATM   22  N7  UNL     1     -22.862  -7.354 -28.338  1.00  0.00    -0.233 N 
ATOM     23  H72 UNL     1     -23.507  -8.025 -28.755  1.00  0.00     0.174 HD
ATOM     24  H71 UNL     1     -21.912  -7.586 -28.629  1.00  0.00     0.174 HD
ENDBRANCH  18  22
ENDBRANCH   1  14
TORSDOF 4
ENDMDL
MODEL 3
REMARK VINA RESULT: -4.819513345      1.862      2.592
REMARK  4 active torsions:
REMARK  status: ('A' for Active; 'I' for Inactive)
REMARK    1  A    between atoms: O1_2  and  C2_3 
REMARK    2  A    between atoms: C5_11  and  N4_12 
REMARK    3  A    between atoms: N4_12  and  C6_14 
REMARK    4  A    between atoms: C7_19  and  N7_20 
ROOT
HETATM    1  N4  UNL     1     -22.178  -3.265 -25.648  1.00  0.00    -0.200 N 
ATOM      2  H4  UNL     1     -21.397  -3.401 -25.007  1.00  0.00     0.180 HD
ENDROOT
BRANCH   1   3
HETATM    3  C5  UNL     1     -22.734  -1.921 -25.930  1.00  0.00     0.235 A 
HETATM    4  C2  UNL     1     -23.828  -1.599 -24.987  1.00  0.00     0.202 A 
HETATM    5  C3  UNL     1     -25.060  -1.172 -25.633  1.00  0.00     0.099 A 
HETATM    6  N1  UNL     1     -25.197  -1.082 -26.886  1.00  0.00    -0.342 N 
HETATM    7  C4  UNL     1     -24.131  -1.398 -27.796  1.00  0.00     0.189 A 
ATOM      8  H1  UNL     1     -26.094  -0.774 -27.264  1.00  0.00     0.167 HD
HETATM    9  N2  UNL     1     -24.366  -1.271 -29.193  1.00  0.00    -0.064 NA
HETATM   10  N3  UNL     1     -23.038  -1.773 -27.291  1.00  0.00    -0.340 N 
ATOM     11  H3  UNL     1     -22.289  -1.994 -27.948  1.00  0.00     0.164 HD
BRANCH   4  12
HETATM   12  O1  UNL     1     -23.383  -0.646 -24.044  1.00  0.00    -0.382 OA
HETATM   13  C1  UNL     1     -22.878   0.494 -24.640  1.00  0.00     0.202 C 
ENDBRANCH   4  12
ENDBRANCH   1   3
BRANCH   1  14
HETATM   14  C6  UNL     1     -22.736  -4.252 -26.258  1.00  0.00     0.709 A 
HETATM   15  N5  UNL     1     -22.198  -5.104 -27.149  1.00  0.00    -0.117 N 
HETATM   16  N6  UNL     1     -23.098  -5.988 -27.553  1.00  0.00    -0.118 N 
ATOM     17  H5  UNL     1     -21.230  -5.072 -27.470  1.00  0.00     0.206 HD
HETATM   18  C7  UNL     1     -24.234  -5.691 -26.901  1.00  0.00     0.705 A 
ATOM     19  H6  UNL     1     -22.957  -6.744 -28.224  1.00  0.00     0.206 HD
HETATM   20  N8  UNL     1     -24.016  -4.643 -26.118  1.00  0.00    -0.020 N 
ATOM     21  H8  UNL     1     -24.706  -4.204 -25.510  1.00  0.00     0.203 HD
BRANCH  18  22
HETATM   22  N7  UNL     1     -25.362  -6.327 -27.018  1.00  0.00    -0.233 N 
ATOM     23  H72 UNL     1     -26.187  -6.187 -26.434  1.00  0.00     0.174 HD
ATOM     24  H71 UNL     1     -25.566  -7.049 -27.709  1.00  0.00     0.174 HD
ENDBRANCH  18  22
ENDBRANCH   1  14
TORSDOF 4
ENDMDL
MODEL 4
REMARK VINA RESULT: -4.807331878      2.221      3.676
REMARK  4 active torsions:
REMARK  status: ('A' for Active; 'I' for Inactive)
REMARK    1  A    between atoms: O1_2  and  C2_3 
REMARK    2  A    between atoms: C5_11  and  N4_12 
REMARK    3  A    between atoms: N4_12  and  C6_14 
REMARK    4  A    between atoms: C7_19  and  N7_20 
ROOT
HETATM    1  N4  UNL     1     -24.479  -0.234 -25.360  1.00  0.00    -0.200 N 
ATOM      2  H4  UNL     1     -24.794   0.108 -24.453  1.00  0.00     0.180 HD
ENDROOT
BRANCH   1   3
HETATM    3  C5  UNL     1     -25.098   0.223 -26.627  1.00  0.00     0.235 A 
HETATM    4  C2  UNL     1     -26.168  -0.705 -27.052  1.00  0.00     0.202 A 
HETATM    5  C3  UNL     1     -26.034  -1.174 -28.424  1.00  0.00     0.099 A 
HETATM    6  N1  UNL     1     -25.094  -0.827 -29.193  1.00  0.00    -0.342 N 
HETATM    7  C4  UNL     1     -24.057   0.074 -28.772  1.00  0.00     0.189 A 
ATOM      8  H1  UNL     1     -25.070  -1.198 -30.143  1.00  0.00     0.167 HD
HETATM    9  N2  UNL     1     -23.032   0.415 -29.698  1.00  0.00    -0.064 NA
HETATM   10  N3  UNL     1     -24.122   0.513 -27.592  1.00  0.00    -0.340 N 
ATOM     11  H3  UNL     1     -23.379   1.152 -27.305  1.00  0.00     0.164 HD
BRANCH   4  12
HETATM   12  O1  UNL     1     -27.431  -0.116 -26.829  1.00  0.00    -0.382 OA
HETATM   13  C1  UNL     1     -28.249  -0.898 -26.035  1.00  0.00     0.202 C 
ENDBRANCH   4  12
ENDBRANCH   1   3
BRANCH   1  14
HETATM   14  C6  UNL     1     -23.522  -1.088 -25.469  1.00  0.00     0.709 A 
HETATM   15  N5  UNL     1     -22.199  -0.892 -25.333  1.00  0.00    -0.117 N 
HETATM   16  N6  UNL     1     -21.536  -2.024 -25.521  1.00  0.00    -0.118 N 
ATOM     17  H5  UNL     1     -21.765   0.006 -25.116  1.00  0.00     0.206 HD
HETATM   18  C7  UNL     1     -22.463  -2.961 -25.781  1.00  0.00     0.705 A 
ATOM     19  H6  UNL     1     -20.526  -2.157 -25.477  1.00  0.00     0.206 HD
HETATM   20  N8  UNL     1     -23.662  -2.397 -25.749  1.00  0.00    -0.020 N 
ATOM     21  H8  UNL     1     -24.547  -2.877 -25.911  1.00  0.00     0.203 HD
BRANCH  18  22
HETATM   22  N7  UNL     1     -22.221  -4.216 -26.023  1.00  0.00    -0.233 N 
ATOM     23  H72 UNL     1     -21.331  -4.600 -26.337  1.00  0.00     0.174 HD
ATOM     24  H71 UNL     1     -22.894  -4.977 -25.930  1.00  0.00     0.174 HD
ENDBRANCH  18  22
ENDBRANCH   1  14
TORSDOF 4
ENDMDL
MODEL 5
REMARK VINA RESULT: -4.800605063      1.683      5.473
REMARK  4 active torsions:
REMARK  status: ('A' for Active; 'I' for Inactive)
REMARK    1  A    between atoms: O1_2  and  C2_3 
REMARK    2  A    between atoms: C5_11  and  N4_12 
REMARK    3  A    between atoms: N4_12  and  C6_14 
REMARK    4  A    between atoms: C7_19  and  N7_20 
ROOT
HETATM    1  N4  UNL     1     -22.634  -4.341 -26.179  1.00  0.00    -0.200 N 
ATOM      2  H4  UNL     1     -21.836  -4.882 -25.847  1.00  0.00     0.180 HD
ENDROOT
BRANCH   1   3
HETATM    3  C5  UNL     1     -23.726  -4.960 -26.967  1.00  0.00     0.235 A 
HETATM    4  C2  UNL     1     -24.807  -5.439 -26.077  1.00  0.00     0.202 A 
HETATM    5  C3  UNL     1     -25.180  -6.828 -26.295  1.00  0.00     0.099 A 
HETATM    6  N1  UNL     1     -24.639  -7.570 -27.162  1.00  0.00    -0.342 N 
HETATM    7  C4  UNL     1     -23.588  -7.098 -28.022  1.00  0.00     0.189 A 
ATOM      8  H1  UNL     1     -24.957  -8.535 -27.255  1.00  0.00     0.167 HD
HETATM    9  N2  UNL     1     -23.029  -7.997 -28.972  1.00  0.00    -0.064 NA
HETATM   10  N3  UNL     1     -23.223  -5.900 -27.878  1.00  0.00    -0.340 N 
ATOM     11  H3  UNL     1     -22.477  -5.578 -28.494  1.00  0.00     0.164 HD
BRANCH   4  12
HETATM   12  O1  UNL     1     -25.924  -4.582 -26.176  1.00  0.00    -0.382 OA
HETATM   13  C1  UNL     1     -26.438  -4.526 -27.458  1.00  0.00     0.202 C 
ENDBRANCH   4  12
ENDBRANCH   1   3
BRANCH   1  14
HETATM   14  C6  UNL     1     -22.748  -3.081 -25.938  1.00  0.00     0.709 A 
HETATM   15  N5  UNL     1     -21.790  -2.197 -25.607  1.00  0.00    -0.117 N 
HETATM   16  N6  UNL     1     -22.308  -0.989 -25.439  1.00  0.00    -0.118 N 
ATOM     17  H5  UNL     1     -20.802  -2.426 -25.500  1.00  0.00     0.206 HD
HETATM   18  C7  UNL     1     -23.625  -1.110 -25.670  1.00  0.00     0.705 A 
ATOM     19  H6  UNL     1     -21.806  -0.137 -25.185  1.00  0.00     0.206 HD
HETATM   20  N8  UNL     1     -23.892  -2.373 -25.972  1.00  0.00    -0.020 N 
ATOM     21  H8  UNL     1     -24.814  -2.748 -26.194  1.00  0.00     0.203 HD
BRANCH  18  22
HETATM   22  N7  UNL     1     -24.495  -0.146 -25.609  1.00  0.00    -0.233 N 
ATOM     23  H72 UNL     1     -24.366   0.796 -25.978  1.00  0.00     0.174 HD
ATOM     24  H71 UNL     1     -25.420  -0.208 -25.182  1.00  0.00     0.174 HD
ENDBRANCH  18  22
ENDBRANCH   1  14
TORSDOF 4
ENDMDL
