MODEL 1
REMARK VINA RESULT: -5.285861043      0.000      0.000
REMARK  3 active torsions:
REMARK  status: ('A' for Active; 'I' for Inactive)
REMARK    1  A    between atoms: C2_9  and  O1_10 
REMARK    2  A    between atoms: C2_9  and  C3_12 
REMARK    3  A    between atoms: C3_12  and  N4_13 
ROOT
HETATM    1  N1  UNL     1     -25.202 -10.882 -21.347  1.00  0.00    -0.370 N 
ATOM      2  H11 UNL     1     -25.954 -11.461 -20.973  1.00  0.00     0.159 HD
ATOM      3  H12 UNL     1     -24.333 -11.342 -21.075  1.00  0.00     0.159 HD
HETATM    4  C1  UNL     1     -25.347  -9.774 -22.032  1.00  0.00     0.191 A 
HETATM    5  N2  UNL     1     -24.305  -8.971 -22.551  1.00  0.00    -0.272 N 
ATOM      6  H2  UNL     1     -23.316  -9.190 -22.432  1.00  0.00     0.189 HD
HETATM    7  N3  UNL     1     -24.721  -7.961 -23.171  1.00  0.00    -0.280 N 
ATOM      8  H3  UNL     1     -24.136  -7.256 -23.619  1.00  0.00     0.185 HD
HETATM    9  C2  UNL     1     -26.144  -7.965 -23.143  1.00  0.00     0.246 A 
HETATM   10  N6  UNL     1     -26.559  -9.133 -22.411  1.00  0.00    -0.310 N 
ATOM     11  H6  UNL     1     -27.512  -9.434 -22.208  1.00  0.00     0.167 HD
ENDROOT
BRANCH   9  12
HETATM   12  O1  UNL     1     -26.557  -6.781 -22.512  1.00  0.00    -0.352 OA
ATOM     13  H1  UNL     1     -27.292  -6.435 -23.005  1.00  0.00     0.214 HD
ENDBRANCH   9  12
BRANCH   9  14
HETATM   14  C3  UNL     1     -26.764  -8.056 -24.520  1.00  0.00     0.220 C 
BRANCH  14  15
HETATM   15  N4  UNL     1     -25.747  -8.063 -25.533  1.00  0.00    -0.303 N 
HETATM   16  C4  UNL     1     -25.465  -6.871 -26.120  1.00  0.00     0.101 A 
HETATM   17  C5  UNL     1     -24.494  -6.844 -27.096  1.00  0.00     0.092 A 
HETATM   18  C6  UNL     1     -23.856  -8.005 -27.435  1.00  0.00     0.250 A 
HETATM   19  O2  UNL     1     -22.961  -7.947 -28.343  1.00  0.00    -0.268 OA
HETATM   20  N5  UNL     1     -24.130  -9.179 -26.860  1.00  0.00    -0.275 N 
HETATM   21  C7  UNL     1     -25.091  -9.180 -25.901  1.00  0.00     0.329 A 
ATOM     22  H5  UNL     1     -23.642 -10.034 -27.128  1.00  0.00     0.173 HD
HETATM   23  O3  UNL     1     -25.375 -10.266 -25.337  1.00  0.00    -0.246 OA
ENDBRANCH  14  15
ENDBRANCH   9  14
TORSDOF 3
ENDMDL
MODEL 2
REMARK VINA RESULT: -5.112319751      1.303      1.619
REMARK  3 active torsions:
REMARK  status: ('A' for Active; 'I' for Inactive)
REMARK    1  A    between atoms: C2_9  and  O1_10 
REMARK    2  A    between atoms: C2_9  and  C3_12 
REMARK    3  A    between atoms: C3_12  and  N4_13 
ROOT
HETATM    1  N1  UNL     1     -25.159 -10.866 -21.275  1.00  0.00    -0.370 N 
ATOM      2  H11 UNL     1     -25.907 -11.439 -20.885  1.00  0.00     0.159 HD
ATOM      3  H12 UNL     1     -24.287 -11.302 -20.977  1.00  0.00     0.159 HD
HETATM    4  C1  UNL     1     -25.312  -9.790 -22.007  1.00  0.00     0.191 A 
HETATM    5  N2  UNL     1     -24.275  -8.995 -22.549  1.00  0.00    -0.272 N 
ATOM      6  H2  UNL     1     -23.284  -9.196 -22.412  1.00  0.00     0.189 HD
HETATM    7  N3  UNL     1     -24.698  -8.017 -23.214  1.00  0.00    -0.280 N 
ATOM      8  H3  UNL     1     -24.118  -7.323 -23.686  1.00  0.00     0.185 HD
HETATM    9  C2  UNL     1     -26.121  -8.038 -23.200  1.00  0.00     0.246 A 
HETATM   10  N6  UNL     1     -26.528  -9.180 -22.423  1.00  0.00    -0.310 N 
ATOM     11  H6  UNL     1     -27.479  -9.485 -22.217  1.00  0.00     0.167 HD
ENDROOT
BRANCH   9  12
HETATM   12  O1  UNL     1     -26.555  -6.835 -22.621  1.00  0.00    -0.352 OA
ATOM     13  H1  UNL     1     -25.791  -6.283 -22.501  1.00  0.00     0.214 HD
ENDBRANCH   9  12
BRANCH   9  14
HETATM   14  C3  UNL     1     -26.726  -8.195 -24.577  1.00  0.00     0.220 C 
BRANCH  14  15
HETATM   15  N4  UNL     1     -25.718  -8.065 -25.590  1.00  0.00    -0.303 N 
HETATM   16  C4  UNL     1     -25.262  -9.218 -26.146  1.00  0.00     0.101 A 
HETATM   17  C5  UNL     1     -24.293  -9.127 -27.121  1.00  0.00     0.092 A 
HETATM   18  C6  UNL     1     -23.832  -7.894 -27.491  1.00  0.00     0.250 A 
HETATM   19  O2  UNL     1     -22.935  -7.843 -28.397  1.00  0.00    -0.268 OA
HETATM   20  N5  UNL     1     -24.278  -6.758 -26.947  1.00  0.00    -0.275 N 
HETATM   21  C7  UNL     1     -25.232  -6.873 -25.988  1.00  0.00     0.329 A 
ATOM     22  H5  UNL     1     -23.920  -5.849 -27.237  1.00  0.00     0.173 HD
HETATM   23  O3  UNL     1     -25.676  -5.827 -25.454  1.00  0.00    -0.246 OA
ENDBRANCH  14  15
ENDBRANCH   9  14
TORSDOF 3
ENDMDL
MODEL 3
REMARK VINA RESULT: -5.099821245      3.447      5.382
REMARK  3 active torsions:
REMARK  status: ('A' for Active; 'I' for Inactive)
REMARK    1  A    between atoms: C2_9  and  O1_10 
REMARK    2  A    between atoms: C2_9  and  C3_12 
REMARK    3  A    between atoms: C3_12  and  N4_13 
ROOT
HETATM    1  N1  UNL     1     -22.733  -2.067 -25.144  1.00  0.00    -0.370 N 
ATOM      2  H11 UNL     1     -23.275  -1.204 -25.093  1.00  0.00     0.159 HD
ATOM      3  H12 UNL     1     -22.033  -2.003 -24.405  1.00  0.00     0.159 HD
HETATM    4  C1  UNL     1     -22.918  -3.045 -25.997  1.00  0.00     0.191 A 
HETATM    5  N2  UNL     1     -22.168  -4.242 -26.068  1.00  0.00    -0.272 N 
ATOM      6  H2  UNL     1     -21.391  -4.456 -25.442  1.00  0.00     0.189 HD
HETATM    7  N3  UNL     1     -22.554  -5.013 -26.980  1.00  0.00    -0.280 N 
ATOM      8  H3  UNL     1     -22.149  -5.924 -27.201  1.00  0.00     0.185 HD
HETATM    9  C2  UNL     1     -23.650  -4.407 -27.655  1.00  0.00     0.246 A 
HETATM   10  N6  UNL     1     -23.894  -3.135 -27.027  1.00  0.00    -0.310 N 
ATOM     11  H6  UNL     1     -24.609  -2.449 -27.268  1.00  0.00     0.167 HD
ENDROOT
BRANCH   9  12
HETATM   12  O1  UNL     1     -23.286  -4.259 -29.003  1.00  0.00    -0.352 OA
ATOM     13  H1  UNL     1     -22.436  -3.835 -29.026  1.00  0.00     0.214 HD
ENDBRANCH   9  12
BRANCH   9  14
HETATM   14  C3  UNL     1     -24.928  -5.209 -27.553  1.00  0.00     0.220 C 
BRANCH  14  15
HETATM   15  N4  UNL     1     -24.637  -6.605 -27.395  1.00  0.00    -0.303 N 
HETATM   16  C4  UNL     1     -24.128  -7.248 -28.478  1.00  0.00     0.101 A 
HETATM   17  C5  UNL     1     -23.839  -8.589 -28.358  1.00  0.00     0.092 A 
HETATM   18  C6  UNL     1     -24.070  -9.218 -27.166  1.00  0.00     0.250 A 
HETATM   19  O2  UNL     1     -23.792 -10.461 -27.087  1.00  0.00    -0.268 OA
HETATM   20  N5  UNL     1     -24.570  -8.590 -26.099  1.00  0.00    -0.275 N 
HETATM   21  C7  UNL     1     -24.848  -7.269 -26.241  1.00  0.00     0.329 A 
ATOM     22  H5  UNL     1     -24.735  -9.079 -25.219  1.00  0.00     0.173 HD
HETATM   23  O3  UNL     1     -25.318  -6.645 -25.258  1.00  0.00    -0.246 OA
ENDBRANCH  14  15
ENDBRANCH   9  14
TORSDOF 3
ENDMDL
MODEL 4
REMARK VINA RESULT: -4.978218852      5.296      7.044
REMARK  3 active torsions:
REMARK  status: ('A' for Active; 'I' for Inactive)
REMARK    1  A    between atoms: C2_9  and  O1_10 
REMARK    2  A    between atoms: C2_9  and  C3_12 
REMARK    3  A    between atoms: C3_12  and  N4_13 
ROOT
HETATM    1  N1  UNL     1     -24.520  -8.034 -27.669  1.00  0.00    -0.370 N 
ATOM      2  H11 UNL     1     -24.990  -8.567 -26.937  1.00  0.00     0.159 HD
ATOM      3  H12 UNL     1     -24.404  -8.676 -28.453  1.00  0.00     0.159 HD
HETATM    4  C1  UNL     1     -24.149  -6.780 -27.594  1.00  0.00     0.191 A 
HETATM    5  N2  UNL     1     -23.497  -6.040 -28.608  1.00  0.00    -0.272 N 
ATOM      6  H2  UNL     1     -23.250  -6.431 -29.517  1.00  0.00     0.189 HD
HETATM    7  N3  UNL     1     -23.253  -4.854 -28.276  1.00  0.00    -0.280 N 
ATOM      8  H3  UNL     1     -22.790  -4.156 -28.858  1.00  0.00     0.185 HD
HETATM    9  C2  UNL     1     -23.729  -4.645 -26.951  1.00  0.00     0.246 A 
HETATM   10  N6  UNL     1     -24.311  -5.883 -26.501  1.00  0.00    -0.310 N 
ATOM     11  H6  UNL     1     -24.744  -6.075 -25.598  1.00  0.00     0.167 HD
ENDROOT
BRANCH   9  12
HETATM   12  O1  UNL     1     -22.630  -4.270 -26.162  1.00  0.00    -0.352 OA
ATOM     13  H1  UNL     1     -22.209  -3.534 -26.590  1.00  0.00     0.214 HD
ENDBRANCH   9  12
BRANCH   9  14
HETATM   14  C3  UNL     1     -24.807  -3.588 -26.867  1.00  0.00     0.220 C 
BRANCH  14  15
HETATM   15  N4  UNL     1     -24.270  -2.357 -26.362  1.00  0.00    -0.303 N 
HETATM   16  C4  UNL     1     -24.341  -2.167 -25.019  1.00  0.00     0.101 A 
HETATM   17  C5  UNL     1     -23.833  -0.995 -24.503  1.00  0.00     0.092 A 
HETATM   18  C6  UNL     1     -23.282  -0.076 -25.352  1.00  0.00     0.250 A 
HETATM   19  O2  UNL     1     -22.820   1.000 -24.844  1.00  0.00    -0.268 OA
HETATM   20  N5  UNL     1     -23.210  -0.259 -26.673  1.00  0.00    -0.275 N 
HETATM   21  C7  UNL     1     -23.717  -1.421 -27.158  1.00  0.00     0.329 A 
ATOM     22  H5  UNL     1     -22.794   0.440 -27.289  1.00  0.00     0.173 HD
HETATM   23  O3  UNL     1     -23.666  -1.629 -28.396  1.00  0.00    -0.246 OA
ENDBRANCH  14  15
ENDBRANCH   9  14
TORSDOF 3
ENDMDL
MODEL 5
REMARK VINA RESULT: -4.970343775      5.723      7.170
REMARK  3 active torsions:
REMARK  status: ('A' for Active; 'I' for Inactive)
REMARK    1  A    between atoms: C2_9  and  O1_10 
REMARK    2  A    between atoms: C2_9  and  C3_12 
REMARK    3  A    between atoms: C3_12  and  N4_13 
ROOT
HETATM    1  N1  UNL     1     -22.152   1.000 -24.242  1.00  0.00    -0.370 N 
ATOM      2  H11 UNL     1     -21.284   0.670 -23.821  1.00  0.00     0.159 HD
ATOM      3  H12 UNL     1     -22.210   1.995 -24.021  1.00  0.00     0.159 HD
HETATM    4  C1  UNL     1     -23.006   0.276 -24.923  1.00  0.00     0.191 A 
HETATM    5  N2  UNL     1     -24.209   0.734 -25.507  1.00  0.00    -0.272 N 
ATOM      6  H2  UNL     1     -24.530   1.701 -25.448  1.00  0.00     0.189 HD
HETATM    7  N3  UNL     1     -24.844  -0.169 -26.106  1.00  0.00    -0.280 N 
ATOM      8  H3  UNL     1     -25.733  -0.051 -26.593  1.00  0.00     0.185 HD
HETATM    9  C2  UNL     1     -24.116  -1.387 -25.993  1.00  0.00     0.246 A 
HETATM   10  N6  UNL     1     -22.926  -1.110 -25.231  1.00  0.00    -0.310 N 
ATOM     11  H6  UNL     1     -22.189  -1.765 -24.969  1.00  0.00     0.167 HD
ENDROOT
BRANCH   9  12
HETATM   12  O1  UNL     1     -24.945  -2.315 -25.343  1.00  0.00    -0.352 OA
ATOM     13  H1  UNL     1     -24.415  -2.771 -24.700  1.00  0.00     0.214 HD
ENDBRANCH   9  12
BRANCH   9  14
HETATM   14  C3  UNL     1     -23.673  -1.941 -27.329  1.00  0.00     0.220 C 
BRANCH  14  15
HETATM   15  N4  UNL     1     -23.945  -3.347 -27.408  1.00  0.00    -0.303 N 
HETATM   16  C4  UNL     1     -25.001  -3.721 -28.178  1.00  0.00     0.101 A 
HETATM   17  C5  UNL     1     -25.288  -5.065 -28.274  1.00  0.00     0.092 A 
HETATM   18  C6  UNL     1     -24.508  -5.964 -27.600  1.00  0.00     0.250 A 
HETATM   19  O2  UNL     1     -24.799  -7.201 -27.710  1.00  0.00    -0.268 OA
HETATM   20  N5  UNL     1     -23.469  -5.600 -26.843  1.00  0.00    -0.275 N 
HETATM   21  C7  UNL     1     -23.206  -4.271 -26.763  1.00  0.00     0.329 A 
ATOM     22  H5  UNL     1     -22.901  -6.288 -26.348  1.00  0.00     0.173 HD
HETATM   23  O3  UNL     1     -22.236  -3.892 -26.061  1.00  0.00    -0.246 OA
ENDBRANCH  14  15
ENDBRANCH   9  14
TORSDOF 3
ENDMDL
