MODEL 1
REMARK VINA RESULT: -4.771056231      0.000      0.000
REMARK  1 active torsions:
REMARK  status: ('A' for Active; 'I' for Inactive)
REMARK    1  A    between atoms: C2_2  and  C4_4 
REMARK       I    between atoms: N1_6  and  C6_7 
ROOT
HETATM    1  C4  UNL     1       1.526 -12.304  14.356  1.00  0.00     0.025 C 
HETATM    2  C5  UNL     1       0.928 -12.502  15.736  1.00  0.00     0.133 C 
HETATM    3  N1  UNL     1       1.227 -13.896  15.547  1.00  0.00    -0.336 N 
HETATM    4  C6  UNL     1       1.641 -14.966  16.346  1.00  0.00     0.330 C 
HETATM    5  N2  UNL     1       1.893 -14.887  17.734  1.00  0.00    -0.040 NA
HETATM    6  O1  UNL     1       1.811 -16.100  15.815  1.00  0.00    -0.251 OA
HETATM    7  C7  UNL     1       0.908 -13.693  14.163  1.00  0.00     0.133 C 
ENDROOT
BRANCH   1   8
HETATM    8  C2  UNL     1       0.836 -11.202  13.628  1.00  0.00    -0.015 C 
HETATM    9  C1  UNL     1      -0.655 -11.419  13.543  1.00  0.00     0.010 C 
HETATM   10  C3  UNL     1       1.409 -11.142  12.224  1.00  0.00     0.010 C 
ENDBRANCH   1   8
TORSDOF 1
ENDMDL
MODEL 2
REMARK VINA RESULT: -4.720930914      0.449      1.104
REMARK  1 active torsions:
REMARK  status: ('A' for Active; 'I' for Inactive)
REMARK    1  A    between atoms: C2_2  and  C4_4 
REMARK       I    between atoms: N1_6  and  C6_7 
ROOT
HETATM    1  C4  UNL     1       1.573 -12.409  14.213  1.00  0.00     0.025 C 
HETATM    2  C5  UNL     1       0.912 -12.527  15.574  1.00  0.00     0.133 C 
HETATM    3  N1  UNL     1       1.230 -13.927  15.486  1.00  0.00    -0.336 N 
HETATM    4  C6  UNL     1       1.614 -14.941  16.368  1.00  0.00     0.330 C 
HETATM    5  N2  UNL     1       1.800 -14.773  17.759  1.00  0.00    -0.040 NA
HETATM    6  O1  UNL     1       1.816 -16.104  15.918  1.00  0.00    -0.251 OA
HETATM    7  C7  UNL     1       0.974 -13.813  14.080  1.00  0.00     0.133 C 
ENDROOT
BRANCH   1   8
HETATM    8  C2  UNL     1       0.909 -11.361  13.387  1.00  0.00    -0.015 C 
HETATM    9  C1  UNL     1       1.317  -9.968  13.796  1.00  0.00     0.010 C 
HETATM   10  C3  UNL     1      -0.591 -11.512  13.562  1.00  0.00     0.010 C 
ENDBRANCH   1   8
TORSDOF 1
ENDMDL
MODEL 3
REMARK VINA RESULT: -4.701383759      1.510      1.912
REMARK  1 active torsions:
REMARK  status: ('A' for Active; 'I' for Inactive)
REMARK    1  A    between atoms: C2_2  and  C4_4 
REMARK       I    between atoms: N1_6  and  C6_7 
ROOT
HETATM    1  C4  UNL     1       0.672 -12.769  15.239  1.00  0.00     0.025 C 
HETATM    2  C5  UNL     1       0.229 -14.083  14.623  1.00  0.00     0.133 C 
HETATM    3  N1  UNL     1       0.853 -14.702  15.762  1.00  0.00    -0.336 N 
HETATM    4  C6  UNL     1       0.614 -15.813  16.574  1.00  0.00     0.330 C 
HETATM    5  N2  UNL     1      -0.468 -16.708  16.420  1.00  0.00    -0.040 NA
HETATM    6  O1  UNL     1       1.409 -16.062  17.525  1.00  0.00    -0.251 OA
HETATM    7  C7  UNL     1       1.835 -13.659  15.687  1.00  0.00     0.133 C 
ENDROOT
BRANCH   1   8
HETATM    8  C2  UNL     1       1.012 -11.773  14.184  1.00  0.00    -0.015 C 
HETATM    9  C1  UNL     1       1.349 -10.420  14.762  1.00  0.00     0.010 C 
HETATM   10  C3  UNL     1      -0.191 -11.636  13.269  1.00  0.00     0.010 C 
ENDBRANCH   1   8
TORSDOF 1
ENDMDL
MODEL 4
REMARK VINA RESULT: -4.694474493      2.627      4.606
REMARK  1 active torsions:
REMARK  status: ('A' for Active; 'I' for Inactive)
REMARK    1  A    between atoms: C2_2  and  C4_4 
REMARK       I    between atoms: N1_6  and  C6_7 
ROOT
HETATM    1  C4  UNL     1       1.718 -13.900  15.304  1.00  0.00     0.025 C 
HETATM    2  C5  UNL     1       0.446 -13.928  14.477  1.00  0.00     0.133 C 
HETATM    3  N1  UNL     1       0.469 -12.494  14.590  1.00  0.00    -0.336 N 
HETATM    4  C6  UNL     1       0.130 -11.404  13.785  1.00  0.00     0.330 C 
HETATM    5  N2  UNL     1      -0.392 -11.499  12.475  1.00  0.00    -0.040 NA
HETATM    6  O1  UNL     1       0.291 -10.234  14.234  1.00  0.00    -0.251 OA
HETATM    7  C7  UNL     1       0.999 -12.690  15.909  1.00  0.00     0.133 C 
ENDROOT
BRANCH   1   8
HETATM    8  C2  UNL     1       1.801 -15.091  16.195  1.00  0.00    -0.015 C 
HETATM    9  C1  UNL     1       0.476 -15.800  16.327  1.00  0.00     0.010 C 
HETATM   10  C3  UNL     1       2.250 -14.617  17.565  1.00  0.00     0.010 C 
ENDBRANCH   1   8
TORSDOF 1
ENDMDL
MODEL 5
REMARK VINA RESULT: -4.648662921      1.246      1.541
REMARK  1 active torsions:
REMARK  status: ('A' for Active; 'I' for Inactive)
REMARK    1  A    between atoms: C2_2  and  C4_4 
REMARK       I    between atoms: N1_6  and  C6_7 
ROOT
HETATM    1  C4  UNL     1       0.159 -12.177  14.833  1.00  0.00     0.025 C 
HETATM    2  C5  UNL     1       1.296 -13.123  14.493  1.00  0.00     0.133 C 
HETATM    3  N1  UNL     1       1.294 -13.455  15.892  1.00  0.00    -0.336 N 
HETATM    4  C6  UNL     1       1.515 -14.595  16.668  1.00  0.00     0.330 C 
HETATM    5  N2  UNL     1       1.839 -15.871  16.155  1.00  0.00    -0.040 NA
HETATM    6  O1  UNL     1       1.426 -14.511  17.926  1.00  0.00    -0.251 OA
HETATM    7  C7  UNL     1       0.963 -12.080  16.133  1.00  0.00     0.133 C 
ENDROOT
BRANCH   1   8
HETATM    8  C2  UNL     1       0.202 -10.960  13.974  1.00  0.00    -0.015 C 
HETATM    9  C1  UNL     1      -1.146 -10.630  13.383  1.00  0.00     0.010 C 
HETATM   10  C3  UNL     1       1.187 -11.220  12.849  1.00  0.00     0.010 C 
ENDBRANCH   1   8
TORSDOF 1
ENDMDL
