MODEL 1
REMARK VINA RESULT: -4.317820977      0.000      0.000
REMARK  2 active torsions:
REMARK  status: ('A' for Active; 'I' for Inactive)
REMARK    1  A    between atoms: C2_2  and  N1_4 
REMARK       I    between atoms: N1_4  and  C4_6 
REMARK       I    between atoms: C4_6  and  N2_8 
REMARK    2  A    between atoms: N2_8  and  C6_10 
ROOT
HETATM    1  N1  UNL     1       0.009 -10.923  15.951  1.00  0.00    -0.339 N 
ATOM      2  H1  UNL     1      -0.482 -11.021  15.062  1.00  0.00     0.164 HD
HETATM    3  C4  UNL     1       0.855 -11.974  16.386  1.00  0.00     0.318 C 
HETATM    4  O1  UNL     1       1.456 -11.866  17.465  1.00  0.00    -0.247 OA
HETATM    5  N2  UNL     1       1.001 -13.129  15.587  1.00  0.00    -0.334 N 
HETATM    6  C5  UNL     1       0.313 -13.282  14.327  1.00  0.00     0.154 C 
ENDROOT
BRANCH   1   7
HETATM    7  C2  UNL     1      -0.182  -9.712  16.726  1.00  0.00     0.078 C 
HETATM    8  C1  UNL     1      -1.652  -9.342  16.606  1.00  0.00     0.032 C 
HETATM    9  C3  UNL     1       0.701  -8.643  16.126  1.00  0.00     0.032 C 
ENDBRANCH   1   7
BRANCH   5  10
HETATM   10  C6  UNL     1       1.868 -14.189  16.037  1.00  0.00     0.088 A 
HETATM   11  C7  UNL     1       1.184 -15.220  16.924  1.00  0.00     0.027 A 
HETATM   12  C8  UNL     1       1.646 -15.563  15.574  1.00  0.00     0.027 A 
ENDBRANCH   5  10
TORSDOF 2
ENDMDL
MODEL 2
REMARK VINA RESULT: -4.297731463      2.186      2.331
REMARK  2 active torsions:
REMARK  status: ('A' for Active; 'I' for Inactive)
REMARK    1  A    between atoms: C2_2  and  N1_4 
REMARK       I    between atoms: N1_4  and  C4_6 
REMARK       I    between atoms: C4_6  and  N2_8 
REMARK    2  A    between atoms: N2_8  and  C6_10 
ROOT
HETATM    1  N1  UNL     1      -0.643 -11.913  13.902  1.00  0.00    -0.339 N 
ATOM      2  H1  UNL     1      -1.157 -12.673  13.457  1.00  0.00     0.164 HD
HETATM    3  C4  UNL     1       0.460 -12.228  14.735  1.00  0.00     0.318 C 
HETATM    4  O1  UNL     1       1.093 -11.313  15.282  1.00  0.00    -0.247 OA
HETATM    5  N2  UNL     1       0.824 -13.578  14.931  1.00  0.00    -0.334 N 
HETATM    6  C5  UNL     1       0.106 -14.665  14.307  1.00  0.00     0.154 C 
ENDROOT
BRANCH   1   7
HETATM    7  C2  UNL     1      -1.065 -10.546  13.662  1.00  0.00     0.078 C 
HETATM    8  C1  UNL     1      -2.585 -10.543  13.708  1.00  0.00     0.032 C 
HETATM    9  C3  UNL     1      -0.558 -10.147  12.296  1.00  0.00     0.032 C 
ENDBRANCH   1   7
BRANCH   5  10
HETATM   10  C6  UNL     1       1.952 -13.887  15.775  1.00  0.00     0.088 A 
HETATM   11  C7  UNL     1       1.623 -13.938  17.260  1.00  0.00     0.027 A 
HETATM   12  C8  UNL     1       1.986 -15.150  16.518  1.00  0.00     0.027 A 
ENDBRANCH   5  10
TORSDOF 2
ENDMDL
MODEL 3
REMARK VINA RESULT: -4.266265883      2.195      4.977
REMARK  2 active torsions:
REMARK  status: ('A' for Active; 'I' for Inactive)
REMARK    1  A    between atoms: C2_2  and  N1_4 
REMARK       I    between atoms: N1_4  and  C4_6 
REMARK       I    between atoms: C4_6  and  N2_8 
REMARK    2  A    between atoms: N2_8  and  C6_10 
ROOT
HETATM    1  N1  UNL     1       0.857 -13.030  15.835  1.00  0.00    -0.339 N 
ATOM      2  H1  UNL     1       0.798 -12.516  16.713  1.00  0.00     0.164 HD
HETATM    3  C4  UNL     1       0.233 -12.490  14.682  1.00  0.00     0.318 C 
HETATM    4  O1  UNL     1       0.297 -13.106  13.608  1.00  0.00    -0.247 OA
HETATM    5  N2  UNL     1      -0.453 -11.259  14.770  1.00  0.00    -0.334 N 
HETATM    6  C5  UNL     1      -0.544 -10.519  16.008  1.00  0.00     0.154 C 
ENDROOT
BRANCH   1   7
HETATM    7  C2  UNL     1       1.576 -14.290  15.807  1.00  0.00     0.078 C 
HETATM    8  C1  UNL     1       0.546 -15.387  16.028  1.00  0.00     0.032 C 
HETATM    9  C3  UNL     1       2.591 -14.259  16.926  1.00  0.00     0.032 C 
ENDBRANCH   1   7
BRANCH   5  10
HETATM   10  C6  UNL     1      -1.078 -10.716  13.591  1.00  0.00     0.088 A 
HETATM   11  C7  UNL     1      -2.587 -10.550  13.706  1.00  0.00     0.027 A 
HETATM   12  C8  UNL     1      -1.695  -9.387  13.635  1.00  0.00     0.027 A 
ENDBRANCH   5  10
TORSDOF 2
ENDMDL
MODEL 4
REMARK VINA RESULT: -4.206047034      2.015      4.789
REMARK  2 active torsions:
REMARK  status: ('A' for Active; 'I' for Inactive)
REMARK    1  A    between atoms: C2_2  and  N1_4 
REMARK       I    between atoms: N1_4  and  C4_6 
REMARK       I    between atoms: C4_6  and  N2_8 
REMARK    2  A    between atoms: N2_8  and  C6_10 
ROOT
HETATM    1  N1  UNL     1       1.184 -13.570  16.540  1.00  0.00    -0.339 N 
ATOM      2  H1  UNL     1       0.734 -13.075  17.310  1.00  0.00     0.164 HD
HETATM    3  C4  UNL     1       1.348 -12.904  15.300  1.00  0.00     0.318 C 
HETATM    4  O1  UNL     1       1.894 -13.496  14.357  1.00  0.00    -0.247 OA
HETATM    5  N2  UNL     1       0.889 -11.577  15.154  1.00  0.00    -0.334 N 
HETATM    6  C5  UNL     1       0.250 -10.863  16.235  1.00  0.00     0.154 C 
ENDROOT
BRANCH   1   7
HETATM    7  C2  UNL     1       1.635 -14.933  16.753  1.00  0.00     0.078 C 
HETATM    8  C1  UNL     1       0.499 -15.844  16.313  1.00  0.00     0.032 C 
HETATM    9  C3  UNL     1       1.925 -15.092  18.227  1.00  0.00     0.032 C 
ENDBRANCH   1   7
BRANCH   5  10
HETATM   10  C6  UNL     1       1.066 -10.907  13.890  1.00  0.00     0.088 A 
HETATM   11  C7  UNL     1      -0.147 -10.974  12.973  1.00  0.00     0.027 A 
HETATM   12  C8  UNL     1       0.281  -9.708  13.579  1.00  0.00     0.027 A 
ENDBRANCH   5  10
TORSDOF 2
ENDMDL
MODEL 5
REMARK VINA RESULT: -4.201188402      2.740      5.049
REMARK  2 active torsions:
REMARK  status: ('A' for Active; 'I' for Inactive)
REMARK    1  A    between atoms: C2_2  and  N1_4 
REMARK       I    between atoms: N1_4  and  C4_6 
REMARK       I    between atoms: C4_6  and  N2_8 
REMARK    2  A    between atoms: N2_8  and  C6_10 
ROOT
HETATM    1  N1  UNL     1       1.625 -13.121  15.397  1.00  0.00    -0.339 N 
ATOM      2  H1  UNL     1       1.510 -12.405  16.113  1.00  0.00     0.164 HD
HETATM    3  C4  UNL     1       1.573 -12.739  14.033  1.00  0.00     0.318 C 
HETATM    4  O1  UNL     1       1.711 -13.600  13.152  1.00  0.00    -0.247 OA
HETATM    5  N2  UNL     1       1.366 -11.384  13.694  1.00  0.00    -0.334 N 
HETATM    6  C5  UNL     1       1.203 -10.358  14.698  1.00  0.00     0.154 C 
ENDROOT
BRANCH   1   7
HETATM    7  C2  UNL     1       1.835 -14.496  15.808  1.00  0.00     0.078 C 
HETATM    8  C1  UNL     1       0.472 -15.172  15.790  1.00  0.00     0.032 C 
HETATM    9  C3  UNL     1       2.414 -14.471  17.203  1.00  0.00     0.032 C 
ENDBRANCH   1   7
BRANCH   5  10
HETATM   10  C6  UNL     1       1.322 -11.005  12.304  1.00  0.00     0.088 A 
HETATM   11  C7  UNL     1      -0.035 -10.497  11.839  1.00  0.00     0.027 A 
HETATM   12  C8  UNL     1       1.122  -9.600  11.933  1.00  0.00     0.027 A 
ENDBRANCH   5  10
TORSDOF 2
ENDMDL
