MODEL 1
REMARK VINA RESULT: -5.103894212      0.000      0.000
REMARK  1 active torsions:
REMARK  status: ('A' for Active; 'I' for Inactive)
REMARK    1  A    between atoms: C6_9  and  C7_10 
ROOT
HETATM    1  C1  UNL     1       2.016 -15.155  18.681  1.00  0.00     0.012 C 
HETATM    2  C2  UNL     1       1.960 -14.750  17.543  1.00  0.00    -0.113 C 
HETATM    3  C3  UNL     1       1.870 -14.257  16.171  1.00  0.00     0.068 C 
HETATM    4  C4  UNL     1       1.266 -15.327  15.324  1.00  0.00     0.044 C 
HETATM    5  C5  UNL     1       0.863 -14.882  13.954  1.00  0.00     0.234 C 
HETATM    6  N1  UNL     1       0.141 -13.625  13.954  1.00  0.00    -0.070 N 
ATOM      7  H11 UNL     1      -0.790 -13.708  14.364  1.00  0.00     0.277 HD
ATOM      8  H12 UNL     1      -0.143 -13.338  13.018  1.00  0.00     0.277 HD
HETATM    9  C6  UNL     1       0.950 -12.633  14.615  1.00  0.00     0.191 C 
HETATM   10  C10 UNL     1       1.015 -13.009  16.081  1.00  0.00     0.050 C 
ENDROOT
BRANCH   9  11
HETATM   11  C7  UNL     1       0.388 -11.240  14.461  1.00  0.00     0.016 A 
HETATM   12  C8  UNL     1       1.266 -10.337  13.588  1.00  0.00     0.007 A 
HETATM   13  C9  UNL     1      -0.083 -10.762  13.143  1.00  0.00     0.007 A 
ENDBRANCH   9  11
TORSDOF 1
ENDMDL
MODEL 2
REMARK VINA RESULT: -4.435194721      1.749      2.849
REMARK  1 active torsions:
REMARK  status: ('A' for Active; 'I' for Inactive)
REMARK    1  A    between atoms: C6_9  and  C7_10 
ROOT
HETATM    1  C1  UNL     1       1.188 -15.462  16.151  1.00  0.00     0.012 C 
HETATM    2  C2  UNL     1       0.908 -14.374  15.705  1.00  0.00    -0.113 C 
HETATM    3  C3  UNL     1       0.592 -13.055  15.162  1.00  0.00     0.068 C 
HETATM    4  C4  UNL     1       0.893 -12.030  16.205  1.00  0.00     0.044 C 
HETATM    5  C5  UNL     1       0.876 -10.619  15.713  1.00  0.00     0.234 C 
HETATM    6  N1  UNL     1       1.588 -10.443  14.463  1.00  0.00    -0.070 N 
ATOM      7  H11 UNL     1       2.597 -10.551  14.569  1.00  0.00     0.277 HD
ATOM      8  H12 UNL     1       1.583  -9.474  14.143  1.00  0.00     0.277 HD
HETATM    9  C6  UNL     1       1.033 -11.349  13.489  1.00  0.00     0.191 C 
HETATM   10  C10 UNL     1       1.404 -12.753  13.919  1.00  0.00     0.050 C 
ENDROOT
BRANCH   9  11
HETATM   11  C7  UNL     1       1.549 -11.078  12.096  1.00  0.00     0.016 A 
HETATM   12  C8  UNL     1       0.471 -10.524  11.159  1.00  0.00     0.007 A 
HETATM   13  C9  UNL     1       1.627  -9.695  11.579  1.00  0.00     0.007 A 
ENDBRANCH   9  11
TORSDOF 1
ENDMDL
MODEL 3
REMARK VINA RESULT: -4.417794319      1.737      4.445
REMARK  1 active torsions:
REMARK  status: ('A' for Active; 'I' for Inactive)
REMARK    1  A    between atoms: C6_9  and  C7_10 
ROOT
HETATM    1  C1  UNL     1       0.023  -8.576  17.099  1.00  0.00     0.012 C 
HETATM    2  C2  UNL     1       0.079  -9.597  16.454  1.00  0.00    -0.113 C 
HETATM    3  C3  UNL     1       0.170 -10.834  15.682  1.00  0.00     0.068 C 
HETATM    4  C4  UNL     1       0.920 -10.550  14.423  1.00  0.00     0.044 C 
HETATM    5  C5  UNL     1       1.327 -11.767  13.655  1.00  0.00     0.234 C 
HETATM    6  N1  UNL     1       1.907 -12.800  14.490  1.00  0.00    -0.070 N 
ATOM      7  H11 UNL     1       2.824 -12.540  14.854  1.00  0.00     0.277 HD
ATOM      8  H12 UNL     1       2.196 -13.619  13.955  1.00  0.00     0.277 HD
HETATM    9  C6  UNL     1       0.970 -13.124  15.535  1.00  0.00     0.191 C 
HETATM   10  C10 UNL     1       0.887 -11.923  16.454  1.00  0.00     0.050 C 
ENDROOT
BRANCH   9  11
HETATM   11  C7  UNL     1       1.382 -14.349  16.316  1.00  0.00     0.016 A 
HETATM   12  C8  UNL     1       0.382 -15.502  16.186  1.00  0.00     0.007 A 
HETATM   13  C9  UNL     1       1.747 -15.599  15.614  1.00  0.00     0.007 A 
ENDBRANCH   9  11
TORSDOF 1
ENDMDL
MODEL 4
REMARK VINA RESULT: -4.359492479      1.529      5.187
REMARK  1 active torsions:
REMARK  status: ('A' for Active; 'I' for Inactive)
REMARK    1  A    between atoms: C6_9  and  C7_10 
ROOT
HETATM    1  C1  UNL     1       2.398  -9.493  10.595  1.00  0.00     0.012 C 
HETATM    2  C2  UNL     1       1.891  -9.984  11.577  1.00  0.00    -0.113 C 
HETATM    3  C3  UNL     1       1.273 -10.596  12.751  1.00  0.00     0.068 C 
HETATM    4  C4  UNL     1      -0.203 -10.386  12.669  1.00  0.00     0.044 C 
HETATM    5  C5  UNL     1      -0.998 -11.181  13.655  1.00  0.00     0.234 C 
HETATM    6  N1  UNL     1      -0.584 -12.567  13.735  1.00  0.00    -0.070 N 
ATOM      7  H11 UNL     1      -0.819 -13.095  12.894  1.00  0.00     0.277 HD
ATOM      8  H12 UNL     1      -1.142 -13.105  14.398  1.00  0.00     0.277 HD
HETATM    9  C6  UNL     1       0.824 -12.607  14.038  1.00  0.00     0.191 C 
HETATM   10  C10 UNL     1       1.561 -12.081  12.824  1.00  0.00     0.050 C 
ENDROOT
BRANCH   9  11
HETATM   11  C7  UNL     1       1.299 -14.000  14.372  1.00  0.00     0.016 A 
HETATM   12  C8  UNL     1       1.821 -14.125  15.807  1.00  0.00     0.007 A 
HETATM   13  C9  UNL     1       0.583 -14.819  15.374  1.00  0.00     0.007 A 
ENDBRANCH   9  11
TORSDOF 1
ENDMDL
MODEL 5
REMARK VINA RESULT: -4.347302724      1.563      4.992
REMARK  1 active torsions:
REMARK  status: ('A' for Active; 'I' for Inactive)
REMARK    1  A    between atoms: C6_9  and  C7_10 
ROOT
HETATM    1  C1  UNL     1      -2.857  -9.098  13.937  1.00  0.00     0.012 C 
HETATM    2  C2  UNL     1      -2.054  -9.987  13.771  1.00  0.00    -0.113 C 
HETATM    3  C3  UNL     1      -1.070 -11.051  13.586  1.00  0.00     0.068 C 
HETATM    4  C4  UNL     1       0.060 -10.513  12.773  1.00  0.00     0.044 C 
HETATM    5  C5  UNL     1       1.265 -11.397  12.724  1.00  0.00     0.234 C 
HETATM    6  N1  UNL     1       1.643 -11.917  14.023  1.00  0.00    -0.070 N 
ATOM      7  H11 UNL     1       2.012 -11.195  14.642  1.00  0.00     0.277 HD
ATOM      8  H12 UNL     1       2.474 -12.506  13.981  1.00  0.00     0.277 HD
HETATM    9  C6  UNL     1       0.508 -12.602  14.588  1.00  0.00     0.191 C 
HETATM   10  C10 UNL     1      -0.536 -11.554  14.911  1.00  0.00     0.050 C 
ENDROOT
BRANCH   9  11
HETATM   11  C7  UNL     1       0.869 -13.378  15.833  1.00  0.00     0.016 A 
HETATM   12  C8  UNL     1       0.658 -14.887  15.676  1.00  0.00     0.007 A 
HETATM   13  C9  UNL     1       2.016 -14.311  15.830  1.00  0.00     0.007 A 
ENDBRANCH   9  11
TORSDOF 1
ENDMDL
