MODEL 1
REMARK VINA RESULT: -5.786219607      0.000      0.000
REMARK  2 active torsions:
REMARK  status: ('A' for Active; 'I' for Inactive)
REMARK    1  A    between atoms: C4_4  and  N1_5 
REMARK    2  A    between atoms: N1_5  and  C5_8 
ROOT
HETATM    1  N1  UNL     1      -0.429 -12.893  14.113  1.00  0.00    -0.057 N 
ATOM      2  H11 UNL     1      -0.647 -13.414  13.264  1.00  0.00     0.278 HD
ATOM      3  H12 UNL     1      -1.256 -13.134  14.659  1.00  0.00     0.278 HD
ENDROOT
BRANCH   1   4
HETATM    4  C4  UNL     1      -0.351 -11.502  13.868  1.00  0.00     0.287 C 
HETATM    5  C3  UNL     1      -1.729 -10.840  14.185  1.00  0.00     0.075 C 
HETATM    6  C2  UNL     1      -1.559  -9.496  13.537  1.00  0.00     0.130 C 
HETATM    7  C1  UNL     1      -2.821  -9.127  12.746  1.00  0.00     0.040 C 
HETATM    8  O2  UNL     1      -0.549  -9.685  12.527  1.00  0.00    -0.315 OA
HETATM    9  C11 UNL     1      -0.184 -11.050  12.481  1.00  0.00     0.290 C 
HETATM   10  O1  UNL     1       0.203 -11.671  11.440  1.00  0.00    -0.263 OA
ENDBRANCH   1   4
BRANCH   1  11
HETATM   11  C5  UNL     1       0.784 -13.374  14.740  1.00  0.00     0.187 C 
HETATM   12  C6  UNL     1       0.569 -14.802  15.185  1.00  0.00     0.033 C 
HETATM   13  C7  UNL     1       1.705 -15.382  15.974  1.00  0.00     0.002 C 
HETATM   14  C8  UNL     1       2.490 -14.402  16.775  1.00  0.00     0.000 C 
HETATM   15  C9  UNL     1       1.775 -13.115  17.053  1.00  0.00     0.002 C 
HETATM   16  C10 UNL     1       1.317 -12.458  15.792  1.00  0.00     0.033 C 
ENDBRANCH   1  11
TORSDOF 2
ENDMDL
MODEL 2
REMARK VINA RESULT: -5.725237216      0.899      1.612
REMARK  2 active torsions:
REMARK  status: ('A' for Active; 'I' for Inactive)
REMARK    1  A    between atoms: C4_4  and  N1_5 
REMARK    2  A    between atoms: N1_5  and  C5_8 
ROOT
HETATM    1  N1  UNL     1       1.214 -12.921  13.492  1.00  0.00    -0.057 N 
ATOM      2  H11 UNL     1       2.165 -12.988  13.128  1.00  0.00     0.278 HD
ATOM      3  H12 UNL     1       0.755 -13.558  12.842  1.00  0.00     0.278 HD
ENDROOT
BRANCH   1   4
HETATM    4  C4  UNL     1       0.704 -11.606  13.385  1.00  0.00     0.287 C 
HETATM    5  C3  UNL     1      -0.574 -11.470  14.271  1.00  0.00     0.075 C 
HETATM    6  C2  UNL     1      -1.148 -10.183  13.754  1.00  0.00     0.130 C 
HETATM    7  C1  UNL     1      -2.661 -10.323  13.546  1.00  0.00     0.040 C 
HETATM    8  O2  UNL     1      -0.618 -10.037  12.421  1.00  0.00    -0.315 OA
HETATM    9  C11 UNL     1       0.147 -11.181  12.095  1.00  0.00     0.290 C 
HETATM   10  O1  UNL     1       0.282 -11.663  10.925  1.00  0.00    -0.263 OA
ENDBRANCH   1   4
BRANCH   1  11
HETATM   11  C5  UNL     1       1.129 -13.397  14.857  1.00  0.00     0.187 C 
HETATM   12  C6  UNL     1       2.440 -13.114  15.554  1.00  0.00     0.033 C 
HETATM   13  C7  UNL     1       2.538 -13.679  16.940  1.00  0.00     0.002 C 
HETATM   14  C8  UNL     1       1.757 -14.925  17.177  1.00  0.00     0.000 C 
HETATM   15  C9  UNL     1       1.390 -15.673  15.931  1.00  0.00     0.002 C 
HETATM   16  C10 UNL     1       0.646 -14.806  14.969  1.00  0.00     0.033 C 
ENDBRANCH   1  11
TORSDOF 2
ENDMDL
MODEL 3
REMARK VINA RESULT: -5.566657079      1.527      2.647
REMARK  2 active torsions:
REMARK  status: ('A' for Active; 'I' for Inactive)
REMARK    1  A    between atoms: C4_4  and  N1_5 
REMARK    2  A    between atoms: N1_5  and  C5_8 
ROOT
HETATM    1  N1  UNL     1       0.918 -11.736  15.076  1.00  0.00    -0.057 N 
ATOM      2  H11 UNL     1       0.238 -11.051  15.405  1.00  0.00     0.278 HD
ATOM      3  H12 UNL     1       1.771 -11.219  15.285  1.00  0.00     0.278 HD
ENDROOT
BRANCH   1   4
HETATM    4  C4  UNL     1       0.782 -11.984  13.689  1.00  0.00     0.287 C 
HETATM    5  C3  UNL     1       1.875 -11.187  12.910  1.00  0.00     0.075 C 
HETATM    6  C2  UNL     1       1.353 -11.281  11.505  1.00  0.00     0.130 C 
HETATM    7  C1  UNL     1       1.448  -9.915  10.813  1.00  0.00     0.040 C 
HETATM    8  O2  UNL     1      -0.063 -11.513  11.639  1.00  0.00    -0.315 OA
HETATM    9  C11 UNL     1      -0.415 -11.475  13.008  1.00  0.00     0.290 C 
HETATM   10  O1  UNL     1      -1.538 -11.088  13.466  1.00  0.00    -0.263 OA
ENDBRANCH   1   4
BRANCH   1  11
HETATM   11  C5  UNL     1       0.841 -12.970  15.829  1.00  0.00     0.187 C 
HETATM   12  C6  UNL     1       1.992 -13.015  16.808  1.00  0.00     0.033 C 
HETATM   13  C7  UNL     1       2.112 -14.306  17.563  1.00  0.00     0.002 C 
HETATM   14  C8  UNL     1       1.628 -15.514  16.838  1.00  0.00     0.000 C 
HETATM   15  C9  UNL     1       1.544 -15.353  15.351  1.00  0.00     0.002 C 
HETATM   16  C10 UNL     1       0.694 -14.185  14.973  1.00  0.00     0.033 C 
ENDBRANCH   1  11
TORSDOF 2
ENDMDL
MODEL 4
REMARK VINA RESULT: -5.517065996      1.502      2.156
REMARK  2 active torsions:
REMARK  status: ('A' for Active; 'I' for Inactive)
REMARK    1  A    between atoms: C4_4  and  N1_5 
REMARK    2  A    between atoms: N1_5  and  C5_8 
ROOT
HETATM    1  N1  UNL     1       1.406 -13.435  13.389  1.00  0.00    -0.057 N 
ATOM      2  H11 UNL     1       2.164 -14.019  13.035  1.00  0.00     0.278 HD
ATOM      3  H12 UNL     1       0.628 -13.886  12.908  1.00  0.00     0.278 HD
ENDROOT
BRANCH   1   4
HETATM    4  C4  UNL     1       1.555 -12.086  12.990  1.00  0.00     0.287 C 
HETATM    5  C3  UNL     1       0.265 -11.289  13.360  1.00  0.00     0.075 C 
HETATM    6  C2  UNL     1       0.462 -10.034  12.559  1.00  0.00     0.130 C 
HETATM    7  C1  UNL     1      -0.843  -9.647  11.852  1.00  0.00     0.040 C 
HETATM    8  O2  UNL     1       1.352 -10.401  11.487  1.00  0.00    -0.315 OA
HETATM    9  C11 UNL     1       1.616 -11.789  11.554  1.00  0.00     0.290 C 
HETATM   10  O1  UNL     1       1.854 -12.539  10.553  1.00  0.00    -0.263 OA
ENDBRANCH   1   4
BRANCH   1  11
HETATM   11  C5  UNL     1       1.278 -13.537  14.827  1.00  0.00     0.187 C 
HETATM   12  C6  UNL     1       2.563 -13.062  15.465  1.00  0.00     0.033 C 
HETATM   13  C7  UNL     1       2.618 -13.241  16.953  1.00  0.00     0.002 C 
HETATM   14  C8  UNL     1       1.835 -14.392  17.485  1.00  0.00     0.000 C 
HETATM   15  C9  UNL     1       1.514 -15.446  16.470  1.00  0.00     0.002 C 
HETATM   16  C10 UNL     1       0.798 -14.872  15.291  1.00  0.00     0.033 C 
ENDBRANCH   1  11
TORSDOF 2
ENDMDL
MODEL 5
REMARK VINA RESULT: -5.490512547      2.396      5.636
REMARK  2 active torsions:
REMARK  status: ('A' for Active; 'I' for Inactive)
REMARK    1  A    between atoms: C4_4  and  N1_5 
REMARK    2  A    between atoms: N1_5  and  C5_8 
ROOT
HETATM    1  N1  UNL     1      -0.075 -12.910  14.440  1.00  0.00    -0.057 N 
ATOM      2  H11 UNL     1      -0.888 -12.860  15.053  1.00  0.00     0.278 HD
ATOM      3  H12 UNL     1      -0.409 -13.631  13.801  1.00  0.00     0.278 HD
ENDROOT
BRANCH   1   4
HETATM    4  C4  UNL     1       1.083 -13.325  15.138  1.00  0.00     0.287 C 
HETATM    5  C3  UNL     1       0.926 -14.819  15.564  1.00  0.00     0.075 C 
HETATM    6  C2  UNL     1       2.038 -14.952  16.565  1.00  0.00     0.130 C 
HETATM    7  C1  UNL     1       1.545 -15.705  17.807  1.00  0.00     0.040 C 
HETATM    8  O2  UNL     1       2.289 -13.614  17.036  1.00  0.00    -0.315 OA
HETATM    9  C11 UNL     1       1.352 -12.729  16.452  1.00  0.00     0.290 C 
HETATM   10  O1  UNL     1       0.902 -11.672  17.000  1.00  0.00    -0.263 OA
ENDBRANCH   1   4
BRANCH   1  11
HETATM   11  C5  UNL     1       0.158 -11.655  13.757  1.00  0.00     0.187 C 
HETATM   12  C6  UNL     1      -1.175 -11.053  13.376  1.00  0.00     0.033 C 
HETATM   13  C7  UNL     1      -1.078  -9.812  12.540  1.00  0.00     0.002 C 
HETATM   14  C8  UNL     1       0.120  -9.732  11.657  1.00  0.00     0.000 C 
HETATM   15  C9  UNL     1       0.775 -11.050  11.379  1.00  0.00     0.002 C 
HETATM   16  C10 UNL     1       1.146 -11.756  12.642  1.00  0.00     0.033 C 
ENDBRANCH   1  11
TORSDOF 2
ENDMDL
