MODEL 1
REMARK VINA RESULT: -5.181277386      0.000      0.000
REMARK  3 active torsions:
REMARK  status: ('A' for Active; 'I' for Inactive)
REMARK    1  A    between atoms: C2_2  and  O1_3 
REMARK    2  A    between atoms: O1_3  and  C3_4 
REMARK    3  A    between atoms: C3_4  and  C4_6 
ROOT
HETATM    1  C4  UNL     1       1.775 -13.343  14.820  1.00  0.00     0.112 C 
HETATM    2  C5  UNL     1       0.642 -14.252  15.252  1.00  0.00     0.019 C 
HETATM    3  C6  UNL     1       1.224 -15.230  16.240  1.00  0.00     0.025 C 
HETATM    4  C7  UNL     1       1.688 -14.435  17.442  1.00  0.00     0.073 C 
HETATM    5  C8  UNL     1       2.432 -15.430  18.342  1.00  0.00     0.032 C 
HETATM    6  N1  UNL     1       2.618 -13.424  17.070  1.00  0.00    -0.409 N 
ATOM      7  H1  UNL     1       3.533 -13.336  17.513  1.00  0.00     0.154 HD
HETATM    8  C9  UNL     1       2.184 -12.541  16.035  1.00  0.00     0.031 C 
HETATM    9  C10 UNL     1       3.390 -11.690  15.640  1.00  0.00     0.038 C 
HETATM   10  C11 UNL     1       1.079 -11.647  16.496  1.00  0.00     0.038 C 
ENDROOT
BRANCH   1  11
HETATM   11  C3  UNL     1       1.295 -12.500  13.712  1.00  0.00     0.265 C 
HETATM   12  O2  UNL     1       2.102 -11.932  12.907  1.00  0.00    -0.265 OA
BRANCH  11  13
HETATM   13  O1  UNL     1      -0.048 -12.255  13.451  1.00  0.00    -0.321 OA
BRANCH  13  14
HETATM   14  C2  UNL     1      -0.588 -10.998  13.192  1.00  0.00     0.174 C 
HETATM   15  C1  UNL     1      -1.851 -10.686  13.903  1.00  0.00     0.034 C 
ENDBRANCH  13  14
ENDBRANCH  11  13
ENDBRANCH   1  11
TORSDOF 3
ENDMDL
MODEL 2
REMARK VINA RESULT: -5.053222295      1.212      1.680
REMARK  3 active torsions:
REMARK  status: ('A' for Active; 'I' for Inactive)
REMARK    1  A    between atoms: C2_2  and  O1_3 
REMARK    2  A    between atoms: O1_3  and  C3_4 
REMARK    3  A    between atoms: C3_4  and  C4_6 
ROOT
HETATM    1  C4  UNL     1       1.636 -13.572  14.781  1.00  0.00     0.112 C 
HETATM    2  C5  UNL     1       0.558 -14.477  15.342  1.00  0.00     0.019 C 
HETATM    3  C6  UNL     1       1.228 -15.374  16.352  1.00  0.00     0.025 C 
HETATM    4  C7  UNL     1       1.743 -14.489  17.468  1.00  0.00     0.073 C 
HETATM    5  C8  UNL     1       2.569 -15.404  18.382  1.00  0.00     0.032 C 
HETATM    6  N1  UNL     1       2.619 -13.484  16.974  1.00  0.00    -0.409 N 
ATOM      7  H1  UNL     1       3.557 -13.345  17.351  1.00  0.00     0.154 HD
HETATM    8  C9  UNL     1       2.097 -12.681  15.913  1.00  0.00     0.031 C 
HETATM    9  C10 UNL     1       3.252 -11.830  15.388  1.00  0.00     0.038 C 
HETATM   10  C11 UNL     1       0.998 -11.786  16.384  1.00  0.00     0.038 C 
ENDROOT
BRANCH   1  11
HETATM   11  C3  UNL     1       1.066 -12.816  13.653  1.00  0.00     0.265 C 
HETATM   12  O2  UNL     1      -0.144 -12.421  13.658  1.00  0.00    -0.265 OA
BRANCH  11  13
HETATM   13  O1  UNL     1       1.779 -12.475  12.510  1.00  0.00    -0.321 OA
BRANCH  13  14
HETATM   14  C2  UNL     1       1.486 -11.391  11.688  1.00  0.00     0.174 C 
HETATM   15  C1  UNL     1       1.017 -11.731  10.323  1.00  0.00     0.034 C 
ENDBRANCH  13  14
ENDBRANCH  11  13
ENDBRANCH   1  11
TORSDOF 3
ENDMDL
MODEL 3
REMARK VINA RESULT: -5.008539169      2.095      4.570
REMARK  3 active torsions:
REMARK  status: ('A' for Active; 'I' for Inactive)
REMARK    1  A    between atoms: C2_2  and  O1_3 
REMARK    2  A    between atoms: O1_3  and  C3_4 
REMARK    3  A    between atoms: C3_4  and  C4_6 
ROOT
HETATM    1  C4  UNL     1       1.833 -12.679  14.888  1.00  0.00     0.112 C 
HETATM    2  C5  UNL     1       2.963 -12.353  15.844  1.00  0.00     0.019 C 
HETATM    3  C6  UNL     1       3.795 -11.285  15.183  1.00  0.00     0.025 C 
HETATM    4  C7  UNL     1       2.920 -10.058  15.036  1.00  0.00     0.073 C 
HETATM    5  C8  UNL     1       3.734  -9.058  14.204  1.00  0.00     0.032 C 
HETATM    6  N1  UNL     1       1.734 -10.348  14.305  1.00  0.00    -0.409 N 
ATOM      7  H1  UNL     1       1.454  -9.809  13.486  1.00  0.00     0.154 HD
HETATM    8  C9  UNL     1       0.963 -11.445  14.797  1.00  0.00     0.031 C 
HETATM    9  C10 UNL     1      -0.126 -11.725  13.762  1.00  0.00     0.038 C 
HETATM   10  C11 UNL     1       0.325 -11.130  16.111  1.00  0.00     0.038 C 
ENDROOT
BRANCH   1  11
HETATM   11  C3  UNL     1       1.111 -13.852  15.407  1.00  0.00     0.265 C 
HETATM   12  O2  UNL     1       0.433 -14.612  14.643  1.00  0.00    -0.265 OA
BRANCH  11  13
HETATM   13  O1  UNL     1       1.104 -14.227  16.746  1.00  0.00    -0.321 OA
BRANCH  13  14
HETATM   14  C2  UNL     1       1.599 -15.433  17.233  1.00  0.00     0.174 C 
HETATM   15  C1  UNL     1       1.947 -15.447  18.675  1.00  0.00     0.034 C 
ENDBRANCH  13  14
ENDBRANCH  11  13
ENDBRANCH   1  11
TORSDOF 3
ENDMDL
MODEL 4
REMARK VINA RESULT: -4.922249393      1.186      1.483
REMARK  3 active torsions:
REMARK  status: ('A' for Active; 'I' for Inactive)
REMARK    1  A    between atoms: C2_2  and  O1_3 
REMARK    2  A    between atoms: O1_3  and  C3_4 
REMARK    3  A    between atoms: C3_4  and  C4_6 
ROOT
HETATM    1  C4  UNL     1       1.792 -13.337  14.860  1.00  0.00     0.112 C 
HETATM    2  C5  UNL     1       0.652 -14.243  15.280  1.00  0.00     0.019 C 
HETATM    3  C6  UNL     1       1.225 -15.239  16.255  1.00  0.00     0.025 C 
HETATM    4  C7  UNL     1       1.694 -14.463  17.468  1.00  0.00     0.073 C 
HETATM    5  C8  UNL     1       2.429 -15.475  18.356  1.00  0.00     0.032 C 
HETATM    6  N1  UNL     1       2.632 -13.455  17.110  1.00  0.00    -0.409 N 
ATOM      7  H1  UNL     1       3.547 -13.380  17.556  1.00  0.00     0.154 HD
HETATM    8  C9  UNL     1       2.206 -12.555  16.086  1.00  0.00     0.031 C 
HETATM    9  C10 UNL     1       3.419 -11.708  15.704  1.00  0.00     0.038 C 
HETATM   10  C11 UNL     1       1.108 -11.658  16.558  1.00  0.00     0.038 C 
ENDROOT
BRANCH   1  11
HETATM   11  C3  UNL     1       1.321 -12.477  13.763  1.00  0.00     0.265 C 
HETATM   12  O2  UNL     1       0.105 -12.480  13.386  1.00  0.00    -0.265 OA
BRANCH  11  13
HETATM   13  O1  UNL     1       2.140 -11.603  13.057  1.00  0.00    -0.321 OA
BRANCH  13  14
HETATM   14  C2  UNL     1       1.738 -10.369  12.556  1.00  0.00     0.174 C 
HETATM   15  C1  UNL     1       1.684  -9.264  13.544  1.00  0.00     0.034 C 
ENDBRANCH  13  14
ENDBRANCH  11  13
ENDBRANCH   1  11
TORSDOF 3
ENDMDL
MODEL 5
REMARK VINA RESULT: -4.856472243      1.182      1.467
REMARK  3 active torsions:
REMARK  status: ('A' for Active; 'I' for Inactive)
REMARK    1  A    between atoms: C2_2  and  O1_3 
REMARK    2  A    between atoms: O1_3  and  C3_4 
REMARK    3  A    between atoms: C3_4  and  C4_6 
ROOT
HETATM    1  C4  UNL     1       2.345 -12.960  15.126  1.00  0.00     0.112 C 
HETATM    2  C5  UNL     1       1.360 -14.109  15.033  1.00  0.00     0.019 C 
HETATM    3  C6  UNL     1       1.767 -15.115  16.079  1.00  0.00     0.025 C 
HETATM    4  C7  UNL     1       1.606 -14.450  17.430  1.00  0.00     0.073 C 
HETATM    5  C8  UNL     1       2.194 -15.431  18.453  1.00  0.00     0.032 C 
HETATM    6  N1  UNL     1       2.362 -13.248  17.513  1.00  0.00    -0.409 N 
ATOM      7  H1  UNL     1       3.027 -13.074  18.267  1.00  0.00     0.154 HD
HETATM    8  C9  UNL     1       2.127 -12.301  16.469  1.00  0.00     0.031 C 
HETATM    9  C10 UNL     1       3.178 -11.203  16.619  1.00  0.00     0.038 C 
HETATM   10  C11 UNL     1       0.764 -11.697  16.566  1.00  0.00     0.038 C 
ENDROOT
BRANCH   1  11
HETATM   11  C3  UNL     1       2.102 -12.049  13.995  1.00  0.00     0.265 C 
HETATM   12  O2  UNL     1       2.789 -10.990  13.830  1.00  0.00    -0.265 OA
BRANCH  11  13
HETATM   13  O1  UNL     1       1.125 -12.259  13.028  1.00  0.00    -0.321 OA
BRANCH  13  14
HETATM   14  C2  UNL     1       0.666 -11.288  12.142  1.00  0.00     0.174 C 
HETATM   15  C1  UNL     1       1.069 -11.472  10.727  1.00  0.00     0.034 C 
ENDBRANCH  13  14
ENDBRANCH  11  13
ENDBRANCH   1  11
TORSDOF 3
ENDMDL
