MODEL 1
REMARK VINA RESULT: -4.735592553      0.000      0.000
REMARK  1 active torsions:
REMARK  status: ('A' for Active; 'I' for Inactive)
REMARK    1  A    between atoms: C3_3  and  C5_5 
ROOT
HETATM    1  C1  UNL     1      -0.283 -16.744  16.534  1.00  0.00     0.012 C 
HETATM    2  C2  UNL     1       0.580 -15.909  16.496  1.00  0.00    -0.113 C 
HETATM    3  C3  UNL     1       1.647 -14.875  16.475  1.00  0.00     0.064 C 
HETATM    4  C4  UNL     1       2.085 -14.622  17.888  1.00  0.00     0.024 C 
ENDROOT
BRANCH   3   5
HETATM    5  C5  UNL     1       1.095 -13.690  15.774  1.00  0.00     0.008 C 
HETATM    6  C6  UNL     1       1.363 -13.653  14.287  1.00  0.00     0.039 C 
HETATM    7  C7  UNL     1       1.002 -12.221  13.866  1.00  0.00     0.186 C 
HETATM    8  C8  UNL     1       2.204 -11.356  14.193  1.00  0.00     0.033 C 
HETATM    9  N1  UNL     1      -0.088 -11.743  14.717  1.00  0.00    -0.070 N 
HETATM   10  C9  UNL     1       2.746 -11.817  15.542  1.00  0.00     0.009 C 
HETATM   11  C10 UNL     1       1.550 -12.370  16.329  1.00  0.00     0.017 C 
HETATM   12  C11 UNL     1       0.426 -11.361  16.042  1.00  0.00     0.237 C 
ATOM     13  H12 UNL     1      -0.608 -10.983  14.278  1.00  0.00     0.277 HD
ATOM     14  H11 UNL     1      -0.845 -12.424  14.784  1.00  0.00     0.277 HD
ENDBRANCH   3   5
TORSDOF 1
ENDMDL
MODEL 2
REMARK VINA RESULT: -4.614113078      1.536      2.555
REMARK  1 active torsions:
REMARK  status: ('A' for Active; 'I' for Inactive)
REMARK    1  A    between atoms: C3_3  and  C5_5 
ROOT
HETATM    1  C1  UNL     1       1.946 -15.275  18.515  1.00  0.00     0.012 C 
HETATM    2  C2  UNL     1       1.583 -14.895  17.435  1.00  0.00    -0.113 C 
HETATM    3  C3  UNL     1       1.145 -14.445  16.088  1.00  0.00     0.064 C 
HETATM    4  C4  UNL     1       1.473 -15.528  15.101  1.00  0.00     0.024 C 
ENDROOT
BRANCH   3   5
HETATM    5  C5  UNL     1       1.808 -13.144  15.824  1.00  0.00     0.008 C 
HETATM    6  C6  UNL     1       2.095 -12.319  17.058  1.00  0.00     0.039 C 
HETATM    7  C7  UNL     1       2.456 -10.930  16.516  1.00  0.00     0.186 C 
HETATM    8  C8  UNL     1       1.147 -10.217  16.239  1.00  0.00     0.033 C 
HETATM    9  N1  UNL     1       3.118 -11.088  15.220  1.00  0.00    -0.070 N 
HETATM   10  C9  UNL     1       0.196 -11.234  15.618  1.00  0.00     0.009 C 
HETATM   11  C10 UNL     1       1.069 -12.250  14.869  1.00  0.00     0.017 C 
HETATM   12  C11 UNL     1       2.126 -11.380  14.172  1.00  0.00     0.237 C 
ATOM     13  H12 UNL     1       3.692 -10.279  14.986  1.00  0.00     0.277 HD
ATOM     14  H11 UNL     1       3.855 -11.792  15.253  1.00  0.00     0.277 HD
ENDBRANCH   3   5
TORSDOF 1
ENDMDL
MODEL 3
REMARK VINA RESULT: -4.577589927      1.795      2.336
REMARK  1 active torsions:
REMARK  status: ('A' for Active; 'I' for Inactive)
REMARK    1  A    between atoms: C3_3  and  C5_5 
ROOT
HETATM    1  C1  UNL     1       0.453 -14.612  14.637  1.00  0.00     0.012 C 
HETATM    2  C2  UNL     1       1.235 -14.300  15.493  1.00  0.00    -0.113 C 
HETATM    3  C3  UNL     1       2.191 -13.928  16.568  1.00  0.00     0.064 C 
HETATM    4  C4  UNL     1       1.878 -14.754  17.782  1.00  0.00     0.024 C 
ENDROOT
BRANCH   3   5
HETATM    5  C5  UNL     1       2.076 -12.462  16.769  1.00  0.00     0.008 C 
HETATM    6  C6  UNL     1       0.808 -11.847  16.221  1.00  0.00     0.039 C 
HETATM    7  C7  UNL     1       1.071 -10.335  16.248  1.00  0.00     0.186 C 
HETATM    8  C8  UNL     1       1.870 -10.011  15.001  1.00  0.00     0.033 C 
HETATM    9  N1  UNL     1       1.943 -10.030  17.383  1.00  0.00    -0.070 N 
HETATM   10  C9  UNL     1       2.893 -11.126  14.810  1.00  0.00     0.009 C 
HETATM   11  C10 UNL     1       3.220 -11.664  16.211  1.00  0.00     0.017 C 
HETATM   12  C11 UNL     1       3.334 -10.397  17.072  1.00  0.00     0.237 C 
ATOM     13  H12 UNL     1       1.862  -9.056  17.673  1.00  0.00     0.277 HD
ATOM     14  H11 UNL     1       1.617 -10.471  18.243  1.00  0.00     0.277 HD
ENDBRANCH   3   5
TORSDOF 1
ENDMDL
MODEL 4
REMARK VINA RESULT: -4.539102029      2.241      4.503
REMARK  1 active torsions:
REMARK  status: ('A' for Active; 'I' for Inactive)
REMARK    1  A    between atoms: C3_3  and  C5_5 
ROOT
HETATM    1  C1  UNL     1      -2.125  -8.990  17.459  1.00  0.00     0.012 C 
HETATM    2  C2  UNL     1      -1.396  -9.428  16.611  1.00  0.00    -0.113 C 
HETATM    3  C3  UNL     1      -0.513  -9.983  15.553  1.00  0.00     0.064 C 
HETATM    4  C4  UNL     1      -1.354 -10.808  14.623  1.00  0.00     0.024 C 
ENDROOT
BRANCH   3   5
HETATM    5  C5  UNL     1       0.572 -10.731  16.236  1.00  0.00     0.008 C 
HETATM    6  C6  UNL     1       1.797  -9.907  16.563  1.00  0.00     0.039 C 
HETATM    7  C7  UNL     1       2.866 -10.942  16.942  1.00  0.00     0.186 C 
HETATM    8  C8  UNL     1       3.452 -11.457  15.642  1.00  0.00     0.033 C 
HETATM    9  N1  UNL     1       2.208 -12.087  17.574  1.00  0.00    -0.070 N 
HETATM   10  C9  UNL     1       2.300 -11.632  14.658  1.00  0.00     0.009 C 
HETATM   11  C10 UNL     1       1.053 -11.947  15.496  1.00  0.00     0.017 C 
HETATM   12  C11 UNL     1       1.564 -12.934  16.556  1.00  0.00     0.237 C 
ATOM     13  H12 UNL     1       2.852 -12.619  18.160  1.00  0.00     0.277 HD
ATOM     14  H11 UNL     1       1.551 -11.796  18.298  1.00  0.00     0.277 HD
ENDBRANCH   3   5
TORSDOF 1
ENDMDL
MODEL 5
REMARK VINA RESULT: -4.483485479      1.528      2.567
REMARK  1 active torsions:
REMARK  status: ('A' for Active; 'I' for Inactive)
REMARK    1  A    between atoms: C3_3  and  C5_5 
ROOT
HETATM    1  C1  UNL     1       1.568 -15.524  17.382  1.00  0.00     0.012 C 
HETATM    2  C2  UNL     1       1.263 -14.658  16.608  1.00  0.00    -0.113 C 
HETATM    3  C3  UNL     1       0.901 -13.597  15.632  1.00  0.00     0.064 C 
HETATM    4  C4  UNL     1       1.501 -13.955  14.304  1.00  0.00     0.024 C 
ENDROOT
BRANCH   3   5
HETATM    5  C5  UNL     1       1.367 -12.307  16.195  1.00  0.00     0.008 C 
HETATM    6  C6  UNL     1       0.455 -11.132  15.922  1.00  0.00     0.039 C 
HETATM    7  C7  UNL     1       1.290  -9.900  16.298  1.00  0.00     0.186 C 
HETATM    8  C8  UNL     1       2.179  -9.598  15.107  1.00  0.00     0.033 C 
HETATM    9  N1  UNL     1       2.188 -10.259  17.397  1.00  0.00    -0.070 N 
HETATM   10  C9  UNL     1       2.685 -10.931  14.565  1.00  0.00     0.009 C 
HETATM   11  C10 UNL     1       2.744 -11.896  15.758  1.00  0.00     0.017 C 
HETATM   12  C11 UNL     1       3.329 -11.039  16.891  1.00  0.00     0.237 C 
ATOM     13  H12 UNL     1       2.490  -9.440  17.923  1.00  0.00     0.277 HD
ATOM     14  H11 UNL     1       1.696 -10.746  18.146  1.00  0.00     0.277 HD
ENDBRANCH   3   5
TORSDOF 1
ENDMDL
