MODEL 1
REMARK VINA RESULT: -5.349164361      0.000      0.000
REMARK  1 active torsions:
REMARK  status: ('A' for Active; 'I' for Inactive)
REMARK    1  A    between atoms: C1_2  and  C2_4 
ROOT
HETATM    1  C2  UNL     1       1.768 -14.444  16.473  1.00  0.00     0.079 C 
HETATM    2  C3  UNL     1       0.705 -14.940  15.576  1.00  0.00     0.014 C 
HETATM    3  C4  UNL     1       0.430 -14.181  14.345  1.00  0.00     0.001 C 
HETATM    4  C5  UNL     1       1.504 -13.221  13.927  1.00  0.00     0.005 C 
HETATM    5  C6  UNL     1       1.385 -11.944  14.715  1.00  0.00    -0.014 C 
HETATM    6  C7  UNL     1       2.823 -11.565  15.099  1.00  0.00     0.005 C 
HETATM    7  C8  UNL     1       3.097 -12.348  16.336  1.00  0.00     0.006 C 
HETATM    8  C9  UNL     1       1.797 -12.993  16.773  1.00  0.00    -0.002 C 
HETATM    9  C10 UNL     1       0.779 -12.157  16.076  1.00  0.00     0.010 C 
ENDROOT
BRANCH   1  10
HETATM   10  C1  UNL     1       1.654 -15.185  17.759  1.00  0.00     0.235 C 
HETATM   11  N1  UNL     1       0.907 -16.410  17.717  1.00  0.00    -0.062 NA
HETATM   12  O1  UNL     1       2.184 -14.755  18.807  1.00  0.00    -0.276 OA
ENDBRANCH   1  10
TORSDOF 1
ENDMDL
MODEL 2
REMARK VINA RESULT: -5.315201715      1.482      1.805
REMARK  1 active torsions:
REMARK  status: ('A' for Active; 'I' for Inactive)
REMARK    1  A    between atoms: C1_2  and  C2_4 
ROOT
HETATM    1  C2  UNL     1       2.091 -13.443  15.790  1.00  0.00     0.079 C 
HETATM    2  C3  UNL     1       1.509 -13.554  14.437  1.00  0.00     0.014 C 
HETATM    3  C4  UNL     1       1.363 -12.321  13.645  1.00  0.00     0.001 C 
HETATM    4  C5  UNL     1       2.172 -11.151  14.120  1.00  0.00     0.005 C 
HETATM    5  C6  UNL     1       1.469 -10.473  15.266  1.00  0.00    -0.014 C 
HETATM    6  C7  UNL     1       2.568 -10.155  16.290  1.00  0.00     0.005 C 
HETATM    7  C8  UNL     1       2.719 -11.411  17.076  1.00  0.00     0.006 C 
HETATM    8  C9  UNL     1       1.603 -12.352  16.664  1.00  0.00    -0.002 C 
HETATM    9  C10 UNL     1       0.610 -11.419  16.060  1.00  0.00     0.010 C 
ENDROOT
BRANCH   1  10
HETATM   10  C1  UNL     1       1.861 -14.739  16.486  1.00  0.00     0.235 C 
HETATM   11  N1  UNL     1       1.682 -14.666  17.909  1.00  0.00    -0.062 NA
HETATM   12  O1  UNL     1       1.827 -15.819  15.858  1.00  0.00    -0.276 OA
ENDBRANCH   1  10
TORSDOF 1
ENDMDL
MODEL 3
REMARK VINA RESULT: -5.271474640      1.476      2.653
REMARK  1 active torsions:
REMARK  status: ('A' for Active; 'I' for Inactive)
REMARK    1  A    between atoms: C1_2  and  C2_4 
ROOT
HETATM    1  C2  UNL     1       1.216 -13.879  16.224  1.00  0.00     0.079 C 
HETATM    2  C3  UNL     1       2.118 -13.188  17.168  1.00  0.00     0.014 C 
HETATM    3  C4  UNL     1       2.235 -11.724  17.066  1.00  0.00     0.001 C 
HETATM    4  C5  UNL     1       1.147 -11.044  16.291  1.00  0.00     0.005 C 
HETATM    5  C6  UNL     1       1.426 -11.148  14.815  1.00  0.00    -0.014 C 
HETATM    6  C7  UNL     1       0.074 -11.480  14.166  1.00  0.00     0.005 C 
HETATM    7  C8  UNL     1      -0.043 -12.960  14.287  1.00  0.00     0.006 C 
HETATM    8  C9  UNL     1       1.284 -13.490  14.796  1.00  0.00    -0.002 C 
HETATM    9  C10 UNL     1       2.217 -12.377  14.461  1.00  0.00     0.010 C 
ENDROOT
BRANCH   1  10
HETATM   10  C1  UNL     1       1.491 -15.338  16.324  1.00  0.00     0.235 C 
HETATM   11  N1  UNL     1       1.340 -15.920  17.628  1.00  0.00    -0.062 NA
HETATM   12  O1  UNL     1       1.831 -16.008  15.324  1.00  0.00    -0.276 OA
ENDBRANCH   1  10
TORSDOF 1
ENDMDL
MODEL 4
REMARK VINA RESULT: -5.249441467      2.084      2.705
REMARK  1 active torsions:
REMARK  status: ('A' for Active; 'I' for Inactive)
REMARK    1  A    between atoms: C1_2  and  C2_4 
ROOT
HETATM    1  C2  UNL     1       1.731 -13.337  14.895  1.00  0.00     0.079 C 
HETATM    2  C3  UNL     1       1.516 -12.600  13.633  1.00  0.00     0.014 C 
HETATM    3  C4  UNL     1       1.817 -11.159  13.615  1.00  0.00     0.001 C 
HETATM    4  C5  UNL     1       2.677 -10.667  14.741  1.00  0.00     0.005 C 
HETATM    5  C6  UNL     1       1.837 -10.453  15.972  1.00  0.00    -0.014 C 
HETATM    6  C7  UNL     1       2.667 -11.014  17.136  1.00  0.00     0.005 C 
HETATM    7  C8  UNL     1       2.367 -12.473  17.138  1.00  0.00     0.006 C 
HETATM    8  C9  UNL     1       1.243 -12.717  16.148  1.00  0.00    -0.002 C 
HETATM    9  C10 UNL     1       0.638 -11.361  16.019  1.00  0.00     0.010 C 
ENDROOT
BRANCH   1  10
HETATM   10  C1  UNL     1       1.087 -14.671  14.752  1.00  0.00     0.235 C 
HETATM   11  N1  UNL     1       1.684 -15.742  15.500  1.00  0.00    -0.062 NA
HETATM   12  O1  UNL     1       0.086 -14.837  14.022  1.00  0.00    -0.276 OA
ENDBRANCH   1  10
TORSDOF 1
ENDMDL
MODEL 5
REMARK VINA RESULT: -5.181435458      1.249      1.487
REMARK  1 active torsions:
REMARK  status: ('A' for Active; 'I' for Inactive)
REMARK    1  A    between atoms: C1_2  and  C2_4 
ROOT
HETATM    1  C2  UNL     1       1.705 -13.447  15.509  1.00  0.00     0.079 C 
HETATM    2  C3  UNL     1       0.432 -13.472  14.761  1.00  0.00     0.014 C 
HETATM    3  C4  UNL     1       0.105 -12.313  13.914  1.00  0.00     0.001 C 
HETATM    4  C5  UNL     1       1.258 -11.413  13.583  1.00  0.00     0.005 C 
HETATM    5  C6  UNL     1       1.521 -10.473  14.730  1.00  0.00    -0.014 C 
HETATM    6  C7  UNL     1       3.048 -10.432  14.882  1.00  0.00     0.005 C 
HETATM    7  C8  UNL     1       3.371 -11.615  15.727  1.00  0.00     0.006 C 
HETATM    8  C9  UNL     1       2.062 -12.200  16.223  1.00  0.00    -0.002 C 
HETATM    9  C10 UNL     1       1.122 -11.055  16.058  1.00  0.00     0.010 C 
ENDROOT
BRANCH   1  10
HETATM   10  C1  UNL     1       1.669 -14.559  16.498  1.00  0.00     0.235 C 
HETATM   11  N1  UNL     1       1.674 -15.888  15.954  1.00  0.00    -0.062 NA
HETATM   12  O1  UNL     1       1.637 -14.336  17.728  1.00  0.00    -0.276 OA
ENDBRANCH   1  10
TORSDOF 1
ENDMDL
